MODEL 1
REMARK VINA RESULT: -5.833182790      0.000      0.000
REMARK  4 active torsions:
REMARK  status: ('A' for Active; 'I' for Inactive)
REMARK    1  A    between atoms: N1_1  and  C1_4 
REMARK    2  A    between atoms: C2_9  and  S1_10 
REMARK    3  A    between atoms: S1_10  and  N4_11 
REMARK    4  A    between atoms: N5_16  and  N6_17 
ROOT
HETATM    1  C1  UNL     1     -10.781 -28.600 -25.954  1.00  0.00     0.713 A 
HETATM    2  N2  UNL     1     -11.131 -29.781 -25.438  1.00  0.00    -0.128 N 
ATOM      3  H2  UNL     1     -10.497 -30.529 -25.159  1.00  0.00     0.205 HD
HETATM    4  N3  UNL     1     -12.439 -29.800 -25.358  1.00  0.00    -0.258 N 
ATOM      5  H3  UNL     1     -12.982 -30.586 -24.998  1.00  0.00     0.190 HD
HETATM    6  C2  UNL     1     -12.972 -28.654 -25.810  1.00  0.00     0.276 A 
HETATM    7  N5  UNL     1     -11.913 -27.920 -26.177  1.00  0.00    -0.061 N 
ENDROOT
BRANCH   6   8
HETATM    8  S1  UNL     1     -14.677 -28.255 -25.884  1.00  0.00     0.292 S 
HETATM    9  O1  UNL     1     -15.048 -27.766 -27.265  1.00  0.00    -0.198 OA
HETATM   10  O2  UNL     1     -15.530 -29.455 -25.530  1.00  0.00    -0.198 OA
BRANCH   8  11
HETATM   11  N4  UNL     1     -14.968 -27.021 -24.736  1.00  0.00    -0.322 N 
ATOM     12  H42 UNL     1     -14.267 -26.376 -24.371  1.00  0.00     0.169 HD
ATOM     13  H41 UNL     1     -15.959 -27.053 -24.494  1.00  0.00     0.169 HD
ENDBRANCH   8  11
ENDBRANCH   6   8
BRANCH   7  14
HETATM   14  N6  UNL     1     -11.995 -26.633 -26.713  1.00  0.00    -0.322 N 
ATOM     15  H62 UNL     1     -11.416 -25.847 -26.416  1.00  0.00     0.178 HD
ATOM     16  H61 UNL     1     -12.633 -26.337 -27.452  1.00  0.00     0.178 HD
ENDBRANCH   7  14
BRANCH   1  17
HETATM   17  N1  UNL     1      -9.552 -28.179 -26.198  1.00  0.00    -0.231 N 
ATOM     18  H12 UNL     1      -8.940 -27.689 -25.546  1.00  0.00     0.174 HD
ATOM     19  H11 UNL     1      -9.036 -28.282 -27.073  1.00  0.00     0.174 HD
ENDBRANCH   1  17
TORSDOF 4
ENDMDL
MODEL 2
REMARK VINA RESULT: -5.803319216      3.321      4.185
REMARK  4 active torsions:
REMARK  status: ('A' for Active; 'I' for Inactive)
REMARK    1  A    between atoms: N1_1  and  C1_4 
REMARK    2  A    between atoms: C2_9  and  S1_10 
REMARK    3  A    between atoms: S1_10  and  N4_11 
REMARK    4  A    between atoms: N5_16  and  N6_17 
ROOT
HETATM    1  C1  UNL     1     -13.473 -28.390 -26.337  1.00  0.00     0.713 A 
HETATM    2  N2  UNL     1     -13.719 -29.531 -25.690  1.00  0.00    -0.128 N 
ATOM      3  H2  UNL     1     -14.637 -29.899 -25.442  1.00  0.00     0.205 HD
HETATM    4  N3  UNL     1     -12.562 -30.091 -25.431  1.00  0.00    -0.258 N 
ATOM      5  H3  UNL     1     -12.450 -30.978 -24.941  1.00  0.00     0.190 HD
HETATM    6  C2  UNL     1     -11.546 -29.346 -25.893  1.00  0.00     0.276 A 
HETATM    7  N5  UNL     1     -12.142 -28.286 -26.456  1.00  0.00    -0.061 N 
ENDROOT
BRANCH   6   8
HETATM    8  S1  UNL     1      -9.838 -29.718 -25.765  1.00  0.00     0.292 S 
HETATM    9  O1  UNL     1      -9.370 -30.482 -26.983  1.00  0.00    -0.198 OA
HETATM   10  O2  UNL     1      -9.018 -28.454 -25.618  1.00  0.00    -0.198 OA
BRANCH   8  11
HETATM   11  N4  UNL     1      -9.622 -30.675 -24.364  1.00  0.00    -0.322 N 
ATOM     12  H42 UNL     1      -9.991 -31.617 -24.229  1.00  0.00     0.169 HD
ATOM     13  H41 UNL     1      -9.065 -30.134 -23.704  1.00  0.00     0.169 HD
ENDBRANCH   8  11
ENDBRANCH   6   8
BRANCH   7  14
HETATM   14  N6  UNL     1     -11.461 -27.235 -27.074  1.00  0.00    -0.322 N 
ATOM     15  H62 UNL     1     -10.449 -27.109 -27.045  1.00  0.00     0.178 HD
ATOM     16  H61 UNL     1     -11.892 -26.486 -27.616  1.00  0.00     0.178 HD
ENDBRANCH   7  14
BRANCH   1  17
HETATM   17  N1  UNL     1     -14.369 -27.524 -26.778  1.00  0.00    -0.231 N 
ATOM     18  H12 UNL     1     -14.858 -27.563 -27.672  1.00  0.00     0.174 HD
ATOM     19  H11 UNL     1     -14.703 -26.692 -26.291  1.00  0.00     0.174 HD
ENDBRANCH   1  17
TORSDOF 4
ENDMDL
MODEL 3
REMARK VINA RESULT: -5.733237969      1.048      2.003
REMARK  4 active torsions:
REMARK  status: ('A' for Active; 'I' for Inactive)
REMARK    1  A    between atoms: N1_1  and  C1_4 
REMARK    2  A    between atoms: C2_9  and  S1_10 
REMARK    3  A    between atoms: S1_10  and  N4_11 
REMARK    4  A    between atoms: N5_16  and  N6_17 
ROOT
HETATM    1  C1  UNL     1     -11.370 -27.569 -25.401  1.00  0.00     0.713 A 
HETATM    2  N2  UNL     1     -11.773 -26.297 -25.438  1.00  0.00    -0.128 N 
ATOM      3  H2  UNL     1     -11.176 -25.472 -25.374  1.00  0.00     0.205 HD
HETATM    4  N3  UNL     1     -13.076 -26.302 -25.571  1.00  0.00    -0.258 N 
ATOM      5  H3  UNL     1     -13.653 -25.463 -25.627  1.00  0.00     0.190 HD
HETATM    6  C2  UNL     1     -13.555 -27.556 -25.625  1.00  0.00     0.276 A 
HETATM    7  N5  UNL     1     -12.467 -28.330 -25.516  1.00  0.00    -0.061 N 
ENDROOT
BRANCH   6   8
HETATM    8  S1  UNL     1     -15.235 -28.023 -25.799  1.00  0.00     0.292 S 
HETATM    9  O1  UNL     1     -15.724 -27.731 -27.199  1.00  0.00    -0.198 OA
HETATM   10  O2  UNL     1     -15.421 -29.495 -25.498  1.00  0.00    -0.198 OA
BRANCH   8  11
HETATM   11  N4  UNL     1     -16.144 -27.115 -24.669  1.00  0.00    -0.322 N 
ATOM     12  H42 UNL     1     -17.158 -27.150 -24.561  1.00  0.00     0.169 HD
ATOM     13  H41 UNL     1     -15.488 -26.544 -24.135  1.00  0.00     0.169 HD
ENDBRANCH   8  11
ENDBRANCH   6   8
BRANCH   7  14
HETATM   14  N6  UNL     1     -12.490 -29.726 -25.523  1.00  0.00    -0.322 N 
ATOM     15  H62 UNL     1     -12.416 -30.298 -26.365  1.00  0.00     0.178 HD
ATOM     16  H61 UNL     1     -12.580 -30.323 -24.701  1.00  0.00     0.178 HD
ENDBRANCH   7  14
BRANCH   1  17
HETATM   17  N1  UNL     1     -10.127 -27.999 -25.275  1.00  0.00    -0.231 N 
ATOM     18  H12 UNL     1      -9.412 -27.611 -24.659  1.00  0.00     0.174 HD
ATOM     19  H11 UNL     1      -9.700 -28.780 -25.774  1.00  0.00     0.174 HD
ENDBRANCH   1  17
TORSDOF 4
ENDMDL
MODEL 4
REMARK VINA RESULT: -5.710748390      2.959      4.050
REMARK  4 active torsions:
REMARK  status: ('A' for Active; 'I' for Inactive)
REMARK    1  A    between atoms: N1_1  and  C1_4 
REMARK    2  A    between atoms: C2_9  and  S1_10 
REMARK    3  A    between atoms: S1_10  and  N4_11 
REMARK    4  A    between atoms: N5_16  and  N6_17 
ROOT
HETATM    1  C1  UNL     1     -14.344 -28.766 -26.358  1.00  0.00     0.713 A 
HETATM    2  N2  UNL     1     -14.063 -29.625 -25.376  1.00  0.00    -0.128 N 
ATOM      3  H2  UNL     1     -14.740 -30.115 -24.790  1.00  0.00     0.205 HD
HETATM    4  N3  UNL     1     -12.758 -29.723 -25.302  1.00  0.00    -0.258 N 
ATOM      5  H3  UNL     1     -12.262 -30.314 -24.635  1.00  0.00     0.190 HD
HETATM    6  C2  UNL     1     -12.159 -28.945 -26.218  1.00  0.00     0.276 A 
HETATM    7  N5  UNL     1     -13.173 -28.356 -26.866  1.00  0.00    -0.061 N 
ENDROOT
BRANCH   6   8
HETATM    8  S1  UNL     1     -10.433 -28.773 -26.470  1.00  0.00     0.292 S 
HETATM    9  O1  UNL     1      -9.783 -30.128 -26.628  1.00  0.00    -0.198 OA
HETATM   10  O2  UNL     1     -10.147 -27.931 -27.695  1.00  0.00    -0.198 OA
BRANCH   8  11
HETATM   11  N4  UNL     1      -9.788 -27.979 -25.099  1.00  0.00    -0.322 N 
ATOM     12  H42 UNL     1     -10.045 -28.169 -24.130  1.00  0.00     0.169 HD
ATOM     13  H41 UNL     1      -9.111 -27.292 -25.431  1.00  0.00     0.169 HD
ENDBRANCH   8  11
ENDBRANCH   6   8
BRANCH   7  14
HETATM   14  N6  UNL     1     -13.016 -27.450 -27.916  1.00  0.00    -0.322 N 
ATOM     15  H62 UNL     1     -13.556 -26.591 -28.020  1.00  0.00     0.178 HD
ATOM     16  H61 UNL     1     -12.354 -27.543 -28.686  1.00  0.00     0.178 HD
ENDBRANCH   7  14
BRANCH   1  17
HETATM   17  N1  UNL     1     -15.546 -28.389 -26.756  1.00  0.00    -0.231 N 
ATOM     18  H12 UNL     1     -16.070 -28.771 -27.543  1.00  0.00     0.174 HD
ATOM     19  H11 UNL     1     -16.126 -27.661 -26.337  1.00  0.00     0.174 HD
ENDBRANCH   1  17
TORSDOF 4
ENDMDL
MODEL 5
REMARK VINA RESULT: -5.688874940      1.489      1.712
REMARK  4 active torsions:
REMARK  status: ('A' for Active; 'I' for Inactive)
REMARK    1  A    between atoms: N1_1  and  C1_4 
REMARK    2  A    between atoms: C2_9  and  S1_10 
REMARK    3  A    between atoms: S1_10  and  N4_11 
REMARK    4  A    between atoms: N5_16  and  N6_17 
ROOT
HETATM    1  C1  UNL     1     -10.737 -28.476 -26.350  1.00  0.00     0.713 A 
HETATM    2  N2  UNL     1     -11.174 -29.334 -27.273  1.00  0.00    -0.128 N 
ATOM      3  H2  UNL     1     -10.596 -29.872 -27.920  1.00  0.00     0.205 HD
HETATM    4  N3  UNL     1     -12.482 -29.360 -27.197  1.00  0.00    -0.258 N 
ATOM      5  H3  UNL     1     -13.082 -29.933 -27.789  1.00  0.00     0.190 HD
HETATM    6  C2  UNL     1     -12.930 -28.533 -26.238  1.00  0.00     0.276 A 
HETATM    7  N5  UNL     1     -11.818 -27.992 -25.723  1.00  0.00    -0.061 N 
ENDROOT
BRANCH   6   8
HETATM    8  S1  UNL     1     -14.603 -28.259 -25.797  1.00  0.00     0.292 S 
HETATM    9  O1  UNL     1     -15.240 -29.541 -25.310  1.00  0.00    -0.198 OA
HETATM   10  O2  UNL     1     -14.713 -27.201 -24.719  1.00  0.00    -0.198 OA
BRANCH   8  11
HETATM   11  N4  UNL     1     -15.421 -27.703 -27.193  1.00  0.00    -0.322 N 
ATOM     12  H42 UNL     1     -15.880 -26.796 -27.288  1.00  0.00     0.169 HD
ATOM     13  H41 UNL     1     -15.362 -28.438 -27.897  1.00  0.00     0.169 HD
ENDBRANCH   8  11
ENDBRANCH   6   8
BRANCH   7  14
HETATM   14  N6  UNL     1     -11.804 -27.060 -24.683  1.00  0.00    -0.322 N 
ATOM     15  H62 UNL     1     -12.615 -26.513 -24.390  1.00  0.00     0.178 HD
ATOM     16  H61 UNL     1     -10.996 -26.824 -24.107  1.00  0.00     0.178 HD
ENDBRANCH   7  14
BRANCH   1  17
HETATM   17  N1  UNL     1      -9.478 -28.160 -26.099  1.00  0.00    -0.231 N 
ATOM     18  H12 UNL     1      -8.710 -28.813 -25.947  1.00  0.00     0.174 HD
ATOM     19  H11 UNL     1      -9.091 -27.219 -26.019  1.00  0.00     0.174 HD
ENDBRANCH   1  17
TORSDOF 4
ENDMDL
