MODEL 1
REMARK VINA RESULT: -6.090302484      0.000      0.000
REMARK  3 active torsions:
REMARK  status: ('A' for Active; 'I' for Inactive)
REMARK    1  A    between atoms: N1_1  and  C1_5 
REMARK    2  A    between atoms: C3_10  and  N3_11 
REMARK    3  A    between atoms: N4_14  and  N5_15 
ROOT
HETATM    1  C1  UNL     1     -10.958 -28.352 -26.076  1.00  0.00     0.580 C 
HETATM    2  N2  UNL     1     -11.281 -27.225 -26.966  1.00  0.00    -0.018 N 
ATOM      3  H21 UNL     1     -10.784 -27.261 -27.856  1.00  0.00     0.281 HD
ATOM      4  H22 UNL     1     -10.900 -26.336 -26.641  1.00  0.00     0.281 HD
HETATM    5  C2  UNL     1     -12.705 -27.210 -27.113  1.00  0.00     0.302 C 
HETATM    6  C3  UNL     1     -13.120 -28.529 -26.501  1.00  0.00     0.451 C 
HETATM    7  N6  UNL     1     -12.227 -28.606 -25.371  1.00  0.00     0.012 N 
ATOM      8  H61 UNL     1     -12.438 -27.995 -24.583  1.00  0.00     0.284 HD
ATOM      9  H62 UNL     1     -12.274 -29.459 -24.814  1.00  0.00     0.284 HD
ENDROOT
BRANCH   6  10
HETATM   10  N3  UNL     1     -14.498 -28.521 -26.206  1.00  0.00     0.137 N 
HETATM   11  C4  UNL     1     -14.690 -27.891 -24.911  1.00  0.00     0.293 C 
HETATM   12  C5  UNL     1     -15.634 -26.730 -25.245  1.00  0.00     0.145 C 
HETATM   13  N4  UNL     1     -16.449 -27.386 -26.280  1.00  0.00    -0.209 NA
HETATM   14  C6  UNL     1     -15.375 -27.911 -27.137  1.00  0.00     0.388 C 
BRANCH  13  15
HETATM   15  N5  UNL     1     -17.084 -28.448 -25.623  1.00  0.00    -0.362 NA
ATOM     16  H52 UNL     1     -16.514 -29.290 -25.709  1.00  0.00     0.171 HD
ATOM     17  H51 UNL     1     -16.956 -28.260 -24.629  1.00  0.00     0.171 HD
ENDBRANCH  13  15
ENDBRANCH   6  10
BRANCH   1  18
HETATM   18  N1  UNL     1      -9.898 -27.987 -25.189  1.00  0.00    -0.026 N 
ATOM     19  H13 UNL     1     -10.041 -28.359 -24.251  1.00  0.00     0.278 HD
ATOM     20  H12 UNL     1      -9.030 -28.473 -25.411  1.00  0.00     0.278 HD
ATOM     21  H11 UNL     1      -9.780 -26.974 -25.185  1.00  0.00     0.278 HD
ENDBRANCH   1  18
TORSDOF 3
ENDMDL
MODEL 2
REMARK VINA RESULT: -5.912239901      0.980      1.414
REMARK  3 active torsions:
REMARK  status: ('A' for Active; 'I' for Inactive)
REMARK    1  A    between atoms: N1_1  and  C1_5 
REMARK    2  A    between atoms: C3_10  and  N3_11 
REMARK    3  A    between atoms: N4_14  and  N5_15 
ROOT
HETATM    1  C1  UNL     1     -11.090 -28.243 -25.940  1.00  0.00     0.580 C 
HETATM    2  N2  UNL     1     -11.142 -27.342 -27.102  1.00  0.00    -0.018 N 
ATOM      3  H21 UNL     1     -10.749 -27.755 -27.948  1.00  0.00     0.281 HD
ATOM      4  H22 UNL     1     -10.497 -26.556 -27.030  1.00  0.00     0.281 HD
HETATM    5  C2  UNL     1     -12.508 -26.940 -27.253  1.00  0.00     0.302 C 
HETATM    6  C3  UNL     1     -13.237 -27.868 -26.307  1.00  0.00     0.451 C 
HETATM    7  N6  UNL     1     -12.319 -27.914 -25.196  1.00  0.00     0.012 N 
ATOM      8  H61 UNL     1     -12.282 -27.085 -24.603  1.00  0.00     0.284 HD
ATOM      9  H62 UNL     1     -12.567 -28.538 -24.429  1.00  0.00     0.284 HD
ENDROOT
BRANCH   6  10
HETATM   10  N3  UNL     1     -14.527 -27.371 -26.030  1.00  0.00     0.137 N 
HETATM   11  C4  UNL     1     -15.505 -28.279 -26.607  1.00  0.00     0.293 C 
HETATM   12  C5  UNL     1     -16.338 -28.684 -25.386  1.00  0.00     0.145 C 
HETATM   13  N4  UNL     1     -16.320 -27.406 -24.659  1.00  0.00    -0.209 NA
HETATM   14  C6  UNL     1     -14.874 -27.137 -24.677  1.00  0.00     0.388 C 
BRANCH  13  15
HETATM   15  N5  UNL     1     -16.975 -26.499 -25.503  1.00  0.00    -0.362 NA
ATOM     16  H52 UNL     1     -16.749 -25.546 -25.217  1.00  0.00     0.171 HD
ATOM     17  H51 UNL     1     -16.460 -26.536 -26.382  1.00  0.00     0.171 HD
ENDBRANCH  13  15
ENDBRANCH   6  10
BRANCH   1  18
HETATM   18  N1  UNL     1      -9.905 -27.995 -25.182  1.00  0.00    -0.026 N 
ATOM     19  H13 UNL     1      -9.484 -28.858 -24.838  1.00  0.00     0.278 HD
ATOM     20  H12 UNL     1      -9.134 -27.679 -25.770  1.00  0.00     0.278 HD
ATOM     21  H11 UNL     1     -10.103 -27.339 -24.427  1.00  0.00     0.278 HD
ENDBRANCH   1  18
TORSDOF 3
ENDMDL
MODEL 3
REMARK VINA RESULT: -5.815428253      0.953      1.022
REMARK  3 active torsions:
REMARK  status: ('A' for Active; 'I' for Inactive)
REMARK    1  A    between atoms: N1_1  and  C1_5 
REMARK    2  A    between atoms: C3_10  and  N3_11 
REMARK    3  A    between atoms: N4_14  and  N5_15 
ROOT
HETATM    1  C1  UNL     1     -10.777 -28.045 -25.728  1.00  0.00     0.580 C 
HETATM    2  N2  UNL     1     -11.178 -26.923 -24.864  1.00  0.00    -0.018 N 
ATOM      3  H21 UNL     1     -10.742 -26.038 -25.126  1.00  0.00     0.281 HD
ATOM      4  H22 UNL     1     -10.793 -26.983 -23.922  1.00  0.00     0.281 HD
HETATM    5  C2  UNL     1     -12.609 -26.874 -24.887  1.00  0.00     0.302 C 
HETATM    6  C3  UNL     1     -12.959 -27.829 -26.006  1.00  0.00     0.451 C 
HETATM    7  N6  UNL     1     -11.992 -28.877 -25.794  1.00  0.00     0.012 N 
ATOM      8  H61 UNL     1     -12.160 -29.497 -25.002  1.00  0.00     0.284 HD
ATOM      9  H62 UNL     1     -11.986 -29.634 -26.477  1.00  0.00     0.284 HD
ENDROOT
BRANCH   6  10
HETATM   10  N3  UNL     1     -14.315 -28.206 -25.923  1.00  0.00     0.137 N 
HETATM   11  C4  UNL     1     -14.904 -27.556 -24.765  1.00  0.00     0.293 C 
HETATM   12  C5  UNL     1     -16.058 -26.760 -25.386  1.00  0.00     0.145 C 
HETATM   13  N4  UNL     1     -16.458 -27.711 -26.434  1.00  0.00    -0.209 NA
HETATM   14  C6  UNL     1     -15.144 -27.963 -27.046  1.00  0.00     0.388 C 
BRANCH  13  15
HETATM   15  N5  UNL     1     -16.879 -28.856 -25.745  1.00  0.00    -0.362 NA
ATOM     16  H52 UNL     1     -17.853 -28.744 -25.464  1.00  0.00     0.171 HD
ATOM     17  H51 UNL     1     -16.993 -29.570 -26.464  1.00  0.00     0.171 HD
ENDBRANCH  13  15
ENDBRANCH   6  10
BRANCH   1  18
HETATM   18  N1  UNL     1      -9.667 -28.735 -25.149  1.00  0.00    -0.026 N 
ATOM     19  H13 UNL     1      -8.829 -28.154 -25.121  1.00  0.00     0.278 HD
ATOM     20  H12 UNL     1      -9.785 -28.874 -24.146  1.00  0.00     0.278 HD
ATOM     21  H11 UNL     1      -9.507 -29.613 -25.641  1.00  0.00     0.278 HD
ENDBRANCH   1  18
TORSDOF 3
ENDMDL
MODEL 4
REMARK VINA RESULT: -5.694637968      1.395      1.747
REMARK  3 active torsions:
REMARK  status: ('A' for Active; 'I' for Inactive)
REMARK    1  A    between atoms: N1_1  and  C1_5 
REMARK    2  A    between atoms: C3_10  and  N3_11 
REMARK    3  A    between atoms: N4_14  and  N5_15 
ROOT
HETATM    1  C1  UNL     1     -10.231 -28.998 -25.757  1.00  0.00     0.580 C 
HETATM    2  N2  UNL     1     -10.292 -27.707 -25.054  1.00  0.00    -0.018 N 
ATOM      3  H21 UNL     1      -9.506 -27.093 -25.272  1.00  0.00     0.281 HD
ATOM      4  H22 UNL     1     -10.120 -27.787 -24.052  1.00  0.00     0.281 HD
HETATM    5  C2  UNL     1     -11.564 -27.126 -25.364  1.00  0.00     0.302 C 
HETATM    6  C3  UNL     1     -12.075 -28.014 -26.476  1.00  0.00     0.451 C 
HETATM    7  N6  UNL     1     -11.647 -29.313 -26.018  1.00  0.00     0.012 N 
ATOM      8  H61 UNL     1     -12.172 -29.716 -25.243  1.00  0.00     0.284 HD
ATOM      9  H62 UNL     1     -11.830 -30.097 -26.644  1.00  0.00     0.284 HD
ENDROOT
BRANCH   6  10
HETATM   10  N3  UNL     1     -13.463 -27.839 -26.645  1.00  0.00     0.137 N 
HETATM   11  C4  UNL     1     -14.119 -29.118 -26.428  1.00  0.00     0.293 C 
HETATM   12  C5  UNL     1     -15.091 -28.799 -25.285  1.00  0.00     0.145 C 
HETATM   13  N4  UNL     1     -15.457 -27.427 -25.668  1.00  0.00    -0.209 NA
HETATM   14  C6  UNL     1     -14.112 -26.860 -25.853  1.00  0.00     0.388 C 
BRANCH  13  15
HETATM   15  N5  UNL     1     -16.085 -27.553 -26.914  1.00  0.00    -0.362 NA
ATOM     16  H52 UNL     1     -17.091 -27.659 -26.779  1.00  0.00     0.171 HD
ATOM     17  H51 UNL     1     -16.068 -26.615 -27.316  1.00  0.00     0.171 HD
ENDBRANCH  13  15
ENDBRANCH   6  10
BRANCH   1  18
HETATM   18  N1  UNL     1      -9.593 -29.975 -24.932  1.00  0.00    -0.026 N 
ATOM     19  H13 UNL     1      -9.818 -30.926 -25.221  1.00  0.00     0.278 HD
ATOM     20  H12 UNL     1      -8.586 -30.007 -25.088  1.00  0.00     0.278 HD
ATOM     21  H11 UNL     1      -9.823 -29.808 -23.952  1.00  0.00     0.278 HD
ENDBRANCH   1  18
TORSDOF 3
ENDMDL
MODEL 5
REMARK VINA RESULT: -5.663799215      1.163      1.163
REMARK  3 active torsions:
REMARK  status: ('A' for Active; 'I' for Inactive)
REMARK    1  A    between atoms: N1_1  and  C1_5 
REMARK    2  A    between atoms: C3_10  and  N3_11 
REMARK    3  A    between atoms: N4_14  and  N5_15 
ROOT
HETATM    1  C1  UNL     1     -10.695 -28.429 -26.462  1.00  0.00     0.580 C 
HETATM    2  N2  UNL     1     -11.107 -27.355 -27.379  1.00  0.00    -0.018 N 
ATOM      3  H21 UNL     1     -10.952 -27.583 -28.361  1.00  0.00     0.281 HD
ATOM      4  H22 UNL     1     -10.500 -26.537 -27.339  1.00  0.00     0.281 HD
HETATM    5  C2  UNL     1     -12.476 -27.057 -27.079  1.00  0.00     0.302 C 
HETATM    6  C3  UNL     1     -12.872 -28.191 -26.161  1.00  0.00     0.451 C 
HETATM    7  N6  UNL     1     -11.678 -28.340 -25.367  1.00  0.00     0.012 N 
ATOM      8  H61 UNL     1     -11.508 -27.622 -24.663  1.00  0.00     0.284 HD
ATOM      9  H62 UNL     1     -11.675 -29.104 -24.691  1.00  0.00     0.284 HD
ENDROOT
BRANCH   6  10
HETATM   10  N3  UNL     1     -14.050 -27.865 -25.460  1.00  0.00     0.137 N 
HETATM   11  C4  UNL     1     -13.709 -26.949 -24.384  1.00  0.00     0.293 C 
HETATM   12  C5  UNL     1     -14.588 -25.732 -24.697  1.00  0.00     0.145 C 
HETATM   13  N4  UNL     1     -15.776 -26.431 -25.210  1.00  0.00    -0.209 NA
HETATM   14  C6  UNL     1     -15.132 -27.317 -26.192  1.00  0.00     0.388 C 
BRANCH  13  15
HETATM   15  N5  UNL     1     -16.244 -27.192 -24.131  1.00  0.00    -0.362 NA
ATOM     16  H52 UNL     1     -15.754 -26.915 -23.281  1.00  0.00     0.171 HD
ATOM     17  H51 UNL     1     -17.169 -26.816 -23.922  1.00  0.00     0.171 HD
ENDBRANCH  13  15
ENDBRANCH   6  10
BRANCH   1  18
HETATM   18  N1  UNL     1      -9.355 -28.206 -26.019  1.00  0.00    -0.026 N 
ATOM     19  H13 UNL     1      -8.900 -27.457 -26.540  1.00  0.00     0.278 HD
ATOM     20  H12 UNL     1      -9.324 -27.783 -25.092  1.00  0.00     0.278 HD
ATOM     21  H11 UNL     1      -8.824 -29.076 -26.059  1.00  0.00     0.278 HD
ENDBRANCH   1  18
TORSDOF 3
ENDMDL
