MODEL 1
REMARK VINA RESULT: -6.266906942      0.000      0.000
REMARK  5 active torsions:
REMARK  status: ('A' for Active; 'I' for Inactive)
REMARK    1  A    between atoms: C3_5  and  N2_6 
REMARK    2  A    between atoms: C4_11  and  N4_12 
REMARK    3  A    between atoms: N4_12  and  N5_14 
REMARK    4  A    between atoms: N5_14  and  N6_16 
REMARK    5  A    between atoms: N7_19  and  C5_20 
ROOT
HETATM    1  C1  UNL     1     -15.474 -27.856 -27.160  1.00  0.00     0.091 C 
HETATM    2  C2  UNL     1     -14.441 -27.470 -26.135  1.00  0.00     0.119 A 
HETATM    3  N1  UNL     1     -14.808 -27.072 -24.893  1.00  0.00    -0.180 N 
ATOM      4  H1  UNL     1     -15.790 -27.025 -24.622  1.00  0.00     0.185 HD
HETATM    5  C3  UNL     1     -13.822 -26.740 -24.023  1.00  0.00     0.691 A 
HETATM    6  N3  UNL     1     -12.526 -26.800 -24.371  1.00  0.00    -0.021 N 
ATOM      7  H3  UNL     1     -11.793 -26.547 -23.708  1.00  0.00     0.203 HD
HETATM    8  C4  UNL     1     -12.218 -27.204 -25.622  1.00  0.00     0.722 A 
HETATM    9  N7  UNL     1     -13.156 -27.543 -26.521  1.00  0.00    -0.110 N 
ENDROOT
BRANCH   8  10
HETATM   10  N4  UNL     1     -10.997 -27.276 -25.998  1.00  0.00    -0.117 N 
ATOM     11  H4  UNL     1     -10.696 -26.829 -26.864  1.00  0.00     0.207 HD
BRANCH  10  12
HETATM   12  N5  UNL     1     -10.085 -27.973 -25.208  1.00  0.00    -0.235 N 
ATOM     13  H5  UNL     1      -9.468 -27.467 -24.573  1.00  0.00     0.208 HD
BRANCH  12  14
HETATM   14  N6  UNL     1     -10.018 -29.373 -25.288  1.00  0.00    -0.330 N 
ATOM     15  H62 UNL     1     -10.883 -29.906 -25.372  1.00  0.00     0.178 HD
ATOM     16  H61 UNL     1      -9.112 -29.840 -25.262  1.00  0.00     0.178 HD
ENDBRANCH  12  14
ENDBRANCH  10  12
ENDBRANCH   8  10
BRANCH   9  17
HETATM   17  C5  UNL     1     -12.807 -27.969 -27.848  1.00  0.00     0.378 C 
HETATM   18  O1  UNL     1     -12.186 -27.187 -28.608  1.00  0.00    -0.282 OA
ENDBRANCH   9  17
BRANCH   5  19
HETATM   19  N2  UNL     1     -14.128 -26.355 -22.826  1.00  0.00    -0.234 N 
ATOM     20  H22 UNL     1     -15.087 -26.478 -22.501  1.00  0.00     0.174 HD
ATOM     21  H21 UNL     1     -13.410 -25.939 -22.231  1.00  0.00     0.174 HD
ENDBRANCH   5  19
TORSDOF 5
ENDMDL
MODEL 2
REMARK VINA RESULT: -6.261163252      1.512      1.543
REMARK  5 active torsions:
REMARK  status: ('A' for Active; 'I' for Inactive)
REMARK    1  A    between atoms: C3_5  and  N2_6 
REMARK    2  A    between atoms: C4_11  and  N4_12 
REMARK    3  A    between atoms: N4_12  and  N5_14 
REMARK    4  A    between atoms: N5_14  and  N6_16 
REMARK    5  A    between atoms: N7_19  and  C5_20 
ROOT
HETATM    1  C1  UNL     1     -16.033 -28.333 -26.270  1.00  0.00     0.091 C 
HETATM    2  C2  UNL     1     -15.062 -27.300 -25.766  1.00  0.00     0.119 A 
HETATM    3  N1  UNL     1     -15.489 -26.240 -25.038  1.00  0.00    -0.180 N 
ATOM      4  H1  UNL     1     -16.476 -26.116 -24.814  1.00  0.00     0.185 HD
HETATM    5  C3  UNL     1     -14.556 -25.350 -24.618  1.00  0.00     0.691 A 
HETATM    6  N3  UNL     1     -13.254 -25.505 -24.908  1.00  0.00    -0.021 N 
ATOM      7  H3  UNL     1     -12.562 -24.827 -24.587  1.00  0.00     0.203 HD
HETATM    8  C4  UNL     1     -12.885 -26.580 -25.637  1.00  0.00     0.722 A 
HETATM    9  N7  UNL     1     -13.769 -27.490 -26.077  1.00  0.00    -0.110 N 
ENDROOT
BRANCH   8  10
HETATM   10  N4  UNL     1     -11.655 -26.768 -25.938  1.00  0.00    -0.117 N 
ATOM     11  H4  UNL     1     -11.334 -26.648 -26.898  1.00  0.00     0.207 HD
BRANCH  10  12
HETATM   12  N5  UNL     1     -10.762 -27.140 -24.935  1.00  0.00    -0.235 N 
ATOM     13  H5  UNL     1     -10.810 -26.697 -24.018  1.00  0.00     0.208 HD
BRANCH  12  14
HETATM   14  N6  UNL     1      -9.797 -28.127 -25.189  1.00  0.00    -0.330 N 
ATOM     15  H62 UNL     1      -8.927 -28.118 -24.658  1.00  0.00     0.178 HD
ATOM     16  H61 UNL     1      -9.973 -28.839 -25.898  1.00  0.00     0.178 HD
ENDBRANCH  12  14
ENDBRANCH  10  12
ENDBRANCH   8  10
BRANCH   9  17
HETATM   17  C5  UNL     1     -13.355 -28.627 -26.852  1.00  0.00     0.378 C 
HETATM   18  O1  UNL     1     -12.491 -29.412 -26.390  1.00  0.00    -0.282 OA
ENDBRANCH   9  17
BRANCH   5  19
HETATM   19  N2  UNL     1     -14.920 -24.323 -23.920  1.00  0.00    -0.234 N 
ATOM     20  H22 UNL     1     -15.801 -23.862 -24.148  1.00  0.00     0.174 HD
ATOM     21  H21 UNL     1     -14.326 -23.994 -23.159  1.00  0.00     0.174 HD
ENDBRANCH   5  19
TORSDOF 5
ENDMDL
MODEL 3
REMARK VINA RESULT: -6.092209498      1.877      3.291
REMARK  5 active torsions:
REMARK  status: ('A' for Active; 'I' for Inactive)
REMARK    1  A    between atoms: C3_5  and  N2_6 
REMARK    2  A    between atoms: C4_11  and  N4_12 
REMARK    3  A    between atoms: N4_12  and  N5_14 
REMARK    4  A    between atoms: N5_14  and  N6_16 
REMARK    5  A    between atoms: N7_19  and  C5_20 
ROOT
HETATM    1  C1  UNL     1     -15.319 -27.567 -26.542  1.00  0.00     0.091 C 
HETATM    2  C2  UNL     1     -13.854 -27.753 -26.835  1.00  0.00     0.119 A 
HETATM    3  N1  UNL     1     -13.438 -28.199 -28.045  1.00  0.00    -0.180 N 
ATOM      4  H1  UNL     1     -14.104 -28.419 -28.785  1.00  0.00     0.185 HD
HETATM    5  C3  UNL     1     -12.103 -28.342 -28.236  1.00  0.00     0.691 A 
HETATM    6  N3  UNL     1     -11.218 -28.055 -27.267  1.00  0.00    -0.021 N 
ATOM      7  H3  UNL     1     -10.216 -28.167 -27.423  1.00  0.00     0.203 HD
HETATM    8  C4  UNL     1     -11.689 -27.613 -26.081  1.00  0.00     0.722 A 
HETATM    9  N7  UNL     1     -13.000 -27.454 -25.841  1.00  0.00    -0.110 N 
ENDROOT
BRANCH   8  10
HETATM   10  N4  UNL     1     -10.883 -27.327 -25.129  1.00  0.00    -0.117 N 
ATOM     11  H4  UNL     1     -11.113 -26.592 -24.461  1.00  0.00     0.207 HD
BRANCH  10  12
HETATM   12  N5  UNL     1      -9.687 -28.034 -25.019  1.00  0.00    -0.235 N 
ATOM     13  H5  UNL     1      -8.796 -27.537 -25.038  1.00  0.00     0.208 HD
BRANCH  12  14
HETATM   14  N6  UNL     1      -9.710 -29.430 -24.882  1.00  0.00    -0.330 N 
ATOM     15  H62 UNL     1     -10.605 -29.900 -24.742  1.00  0.00     0.178 HD
ATOM     16  H61 UNL     1      -8.840 -29.959 -24.923  1.00  0.00     0.178 HD
ENDBRANCH  12  14
ENDBRANCH  10  12
ENDBRANCH   8  10
BRANCH   9  17
HETATM   17  C5  UNL     1     -13.481 -26.984 -24.571  1.00  0.00     0.378 C 
HETATM   18  O1  UNL     1     -13.545 -25.750 -24.350  1.00  0.00    -0.282 OA
ENDBRANCH   9  17
BRANCH   5  19
HETATM   19  N2  UNL     1     -11.661 -28.765 -29.376  1.00  0.00    -0.234 N 
ATOM     20  H22 UNL     1     -12.314 -28.846 -30.156  1.00  0.00     0.174 HD
ATOM     21  H21 UNL     1     -10.676 -29.009 -29.477  1.00  0.00     0.174 HD
ENDBRANCH   5  19
TORSDOF 5
ENDMDL
MODEL 4
REMARK VINA RESULT: -5.903242322      2.256      3.269
REMARK  5 active torsions:
REMARK  status: ('A' for Active; 'I' for Inactive)
REMARK    1  A    between atoms: C3_5  and  N2_6 
REMARK    2  A    between atoms: C4_11  and  N4_12 
REMARK    3  A    between atoms: N4_12  and  N5_14 
REMARK    4  A    between atoms: N5_14  and  N6_16 
REMARK    5  A    between atoms: N7_19  and  C5_20 
ROOT
HETATM    1  C1  UNL     1     -14.415 -24.830 -24.178  1.00  0.00     0.091 C 
HETATM    2  C2  UNL     1     -14.921 -25.975 -25.015  1.00  0.00     0.119 A 
HETATM    3  N1  UNL     1     -16.242 -26.273 -25.060  1.00  0.00    -0.180 N 
ATOM      4  H1  UNL     1     -16.925 -25.731 -24.530  1.00  0.00     0.185 HD
HETATM    5  C3  UNL     1     -16.624 -27.318 -25.835  1.00  0.00     0.691 A 
HETATM    6  N3  UNL     1     -15.732 -28.037 -26.536  1.00  0.00    -0.021 N 
ATOM      7  H3  UNL     1     -16.031 -28.822 -27.116  1.00  0.00     0.203 HD
HETATM    8  C4  UNL     1     -14.428 -27.695 -26.455  1.00  0.00     0.722 A 
HETATM    9  N7  UNL     1     -13.999 -26.669 -25.701  1.00  0.00    -0.110 N 
ENDROOT
BRANCH   8  10
HETATM   10  N4  UNL     1     -13.543 -28.351 -27.105  1.00  0.00    -0.117 N 
ATOM     11  H4  UNL     1     -13.065 -27.927 -27.899  1.00  0.00     0.207 HD
BRANCH  10  12
HETATM   12  N5  UNL     1     -13.243 -29.654 -26.712  1.00  0.00    -0.235 N 
ATOM     13  H5  UNL     1     -13.281 -30.414 -27.392  1.00  0.00     0.208 HD
BRANCH  12  14
HETATM   14  N6  UNL     1     -12.887 -29.919 -25.381  1.00  0.00    -0.330 N 
ATOM     15  H62 UNL     1     -12.017 -29.532 -25.014  1.00  0.00     0.178 HD
ATOM     16  H61 UNL     1     -13.497 -30.490 -24.796  1.00  0.00     0.178 HD
ENDBRANCH  12  14
ENDBRANCH  10  12
ENDBRANCH   8  10
BRANCH   9  17
HETATM   17  C5  UNL     1     -12.606 -26.322 -25.627  1.00  0.00     0.378 C 
HETATM   18  O1  UNL     1     -11.784 -27.149 -25.165  1.00  0.00    -0.282 OA
ENDBRANCH   9  17
BRANCH   5  19
HETATM   19  N2  UNL     1     -17.876 -27.638 -25.908  1.00  0.00    -0.234 N 
ATOM     20  H22 UNL     1     -18.566 -26.895 -26.022  1.00  0.00     0.174 HD
ATOM     21  H21 UNL     1     -18.149 -28.619 -25.850  1.00  0.00     0.174 HD
ENDBRANCH   5  19
TORSDOF 5
ENDMDL
MODEL 5
REMARK VINA RESULT: -5.898445894      1.035      1.072
REMARK  5 active torsions:
REMARK  status: ('A' for Active; 'I' for Inactive)
REMARK    1  A    between atoms: C3_5  and  N2_6 
REMARK    2  A    between atoms: C4_11  and  N4_12 
REMARK    3  A    between atoms: N4_12  and  N5_14 
REMARK    4  A    between atoms: N5_14  and  N6_16 
REMARK    5  A    between atoms: N7_19  and  C5_20 
ROOT
HETATM    1  C1  UNL     1     -16.328 -27.550 -26.617  1.00  0.00     0.091 C 
HETATM    2  C2  UNL     1     -15.218 -27.309 -25.628  1.00  0.00     0.119 A 
HETATM    3  N1  UNL     1     -15.448 -26.634 -24.475  1.00  0.00    -0.180 N 
ATOM      4  H1  UNL     1     -16.375 -26.275 -24.249  1.00  0.00     0.185 HD
HETATM    5  C3  UNL     1     -14.400 -26.455 -23.633  1.00  0.00     0.691 A 
HETATM    6  N3  UNL     1     -13.176 -26.925 -23.923  1.00  0.00    -0.021 N 
ATOM      7  H3  UNL     1     -12.395 -26.783 -23.281  1.00  0.00     0.203 HD
HETATM    8  C4  UNL     1     -13.005 -27.590 -25.085  1.00  0.00     0.722 A 
HETATM    9  N7  UNL     1     -14.009 -27.795 -25.953  1.00  0.00    -0.110 N 
ENDROOT
BRANCH   8  10
HETATM   10  N4  UNL     1     -11.856 -28.056 -25.403  1.00  0.00    -0.117 N 
ATOM     11  H4  UNL     1     -11.778 -28.925 -25.932  1.00  0.00     0.207 HD
BRANCH  10  12
HETATM   12  N5  UNL     1     -10.712 -27.359 -25.017  1.00  0.00    -0.235 N 
ATOM     13  H5  UNL     1     -10.779 -26.378 -24.745  1.00  0.00     0.208 HD
BRANCH  12  14
HETATM   14  N6  UNL     1      -9.469 -28.010 -25.002  1.00  0.00    -0.330 N 
ATOM     15  H62 UNL     1      -9.037 -28.273 -25.887  1.00  0.00     0.178 HD
ATOM     16  H61 UNL     1      -9.012 -28.211 -24.112  1.00  0.00     0.178 HD
ENDBRANCH  12  14
ENDBRANCH  10  12
ENDBRANCH   8  10
BRANCH   9  17
HETATM   17  C5  UNL     1     -13.805 -28.505 -27.186  1.00  0.00     0.378 C 
HETATM   18  O1  UNL     1     -13.069 -28.009 -28.073  1.00  0.00    -0.282 OA
ENDBRANCH   9  17
BRANCH   5  19
HETATM   19  N2  UNL     1     -14.575 -25.817 -22.521  1.00  0.00    -0.234 N 
ATOM     20  H22 UNL     1     -13.872 -25.907 -21.788  1.00  0.00     0.174 HD
ATOM     21  H21 UNL     1     -15.406 -25.238 -22.398  1.00  0.00     0.174 HD
ENDBRANCH   5  19
TORSDOF 5
ENDMDL
