MODEL 1
REMARK VINA RESULT: -6.632718050      0.000      0.000
REMARK  1 active torsions:
REMARK  status: ('A' for Active; 'I' for Inactive)
REMARK    1  A    between atoms: C2_7  and  S1_8 
ROOT
HETATM    1  N1  UNL     1      -9.957 -27.998 -25.159  1.00  0.00    -0.234 N 
ATOM      2  H11 UNL     1      -8.994 -28.055 -25.492  1.00  0.00     0.174 HD
ATOM      3  H12 UNL     1     -10.166 -27.853 -24.172  1.00  0.00     0.174 HD
HETATM    4  C1  UNL     1     -10.943 -28.111 -25.993  1.00  0.00     0.680 A 
HETATM    5  N2  UNL     1     -12.213 -28.035 -25.554  1.00  0.00    -0.165 N 
ATOM      6  H2  UNL     1     -12.379 -27.889 -24.559  1.00  0.00     0.186 HD
HETATM    7  C2  UNL     1     -13.271 -28.144 -26.376  1.00  0.00     0.235 A 
HETATM    8  N3  UNL     1     -12.989 -28.340 -27.694  1.00  0.00    -0.305 N 
ATOM      9  H3  UNL     1     -13.753 -28.431 -28.363  1.00  0.00     0.170 HD
HETATM   10  C3  UNL     1     -11.718 -28.415 -28.126  1.00  0.00     0.208 A 
HETATM   11  N4  UNL     1     -11.466 -28.619 -29.507  1.00  0.00    -0.063 NA
HETATM   12  N5  UNL     1     -10.668 -28.304 -27.297  1.00  0.00    -0.163 N 
ATOM     13  H5  UNL     1      -9.708 -28.362 -27.638  1.00  0.00     0.187 HD
ENDROOT
BRANCH   7  14
HETATM   14  S1  UNL     1     -14.893 -28.041 -25.767  1.00  0.00     0.321 S 
HETATM   15  O1  UNL     1     -15.371 -29.572 -25.288  1.00  0.00    -0.203 OA
HETATM   16  O2  UNL     1     -15.899 -27.507 -26.984  1.00  0.00    -0.203 OA
ENDBRANCH   7  14
TORSDOF 1
ENDMDL
MODEL 2
REMARK VINA RESULT: -6.453636723      0.882      1.134
REMARK  1 active torsions:
REMARK  status: ('A' for Active; 'I' for Inactive)
REMARK    1  A    between atoms: C2_7  and  S1_8 
ROOT
HETATM    1  N1  UNL     1      -9.898 -28.055 -25.163  1.00  0.00    -0.234 N 
ATOM      2  H11 UNL     1      -8.944 -28.178 -25.501  1.00  0.00     0.174 HD
ATOM      3  H12 UNL     1     -10.090 -27.880 -24.176  1.00  0.00     0.174 HD
HETATM    4  C1  UNL     1     -10.896 -28.118 -25.988  1.00  0.00     0.680 A 
HETATM    5  N2  UNL     1     -12.155 -27.954 -25.542  1.00  0.00    -0.165 N 
ATOM      6  H2  UNL     1     -12.304 -27.782 -24.548  1.00  0.00     0.186 HD
HETATM    7  C2  UNL     1     -13.224 -28.009 -26.354  1.00  0.00     0.235 A 
HETATM    8  N3  UNL     1     -12.965 -28.243 -27.671  1.00  0.00    -0.305 N 
ATOM      9  H3  UNL     1     -13.739 -28.297 -28.333  1.00  0.00     0.170 HD
HETATM   10  C3  UNL     1     -11.705 -28.406 -28.110  1.00  0.00     0.208 A 
HETATM   11  N4  UNL     1     -11.478 -28.648 -29.489  1.00  0.00    -0.063 NA
HETATM   12  N5  UNL     1     -10.644 -28.349 -27.290  1.00  0.00    -0.163 N 
ATOM     13  H5  UNL     1      -9.693 -28.473 -27.636  1.00  0.00     0.187 HD
ENDROOT
BRANCH   7  14
HETATM   14  S1  UNL     1     -14.831 -27.793 -25.736  1.00  0.00     0.321 S 
HETATM   15  O1  UNL     1     -14.730 -26.941 -24.298  1.00  0.00    -0.203 OA
HETATM   16  O2  UNL     1     -15.509 -29.288 -25.442  1.00  0.00    -0.203 OA
ENDBRANCH   7  14
TORSDOF 1
ENDMDL
MODEL 3
REMARK VINA RESULT: -6.381464670      0.895      1.191
REMARK  1 active torsions:
REMARK  status: ('A' for Active; 'I' for Inactive)
REMARK    1  A    between atoms: C2_7  and  S1_8 
ROOT
HETATM    1  N1  UNL     1      -9.864 -27.945 -25.047  1.00  0.00    -0.234 N 
ATOM      2  H11 UNL     1      -8.914 -28.079 -25.395  1.00  0.00     0.174 HD
ATOM      3  H12 UNL     1     -10.047 -27.801 -24.054  1.00  0.00     0.174 HD
HETATM    4  C1  UNL     1     -10.867 -27.956 -25.870  1.00  0.00     0.680 A 
HETATM    5  N2  UNL     1     -12.120 -27.780 -25.412  1.00  0.00    -0.165 N 
ATOM      6  H2  UNL     1     -12.260 -27.639 -24.412  1.00  0.00     0.186 HD
HETATM    7  C2  UNL     1     -13.193 -27.782 -26.220  1.00  0.00     0.235 A 
HETATM    8  N3  UNL     1     -12.945 -27.976 -27.546  1.00  0.00    -0.305 N 
ATOM      9  H3  UNL     1     -13.722 -27.988 -28.206  1.00  0.00     0.170 HD
HETATM   10  C3  UNL     1     -11.691 -28.152 -27.997  1.00  0.00     0.208 A 
HETATM   11  N4  UNL     1     -11.475 -28.351 -29.384  1.00  0.00    -0.063 NA
HETATM   12  N5  UNL     1     -10.625 -28.147 -27.180  1.00  0.00    -0.163 N 
ATOM     13  H5  UNL     1      -9.678 -28.282 -27.535  1.00  0.00     0.187 HD
ENDROOT
BRANCH   7  14
HETATM   14  S1  UNL     1     -14.792 -27.550 -25.587  1.00  0.00     0.321 S 
HETATM   15  O1  UNL     1     -15.869 -27.558 -26.869  1.00  0.00    -0.203 OA
HETATM   16  O2  UNL     1     -14.866 -26.072 -24.818  1.00  0.00    -0.203 OA
ENDBRANCH   7  14
TORSDOF 1
ENDMDL
MODEL 4
REMARK VINA RESULT: -5.923999462      1.605      2.852
REMARK  1 active torsions:
REMARK  status: ('A' for Active; 'I' for Inactive)
REMARK    1  A    between atoms: C2_7  and  S1_8 
ROOT
HETATM    1  N1  UNL     1     -11.877 -28.714 -29.155  1.00  0.00    -0.234 N 
ATOM      2  H11 UNL     1     -11.182 -29.274 -29.649  1.00  0.00     0.174 HD
ATOM      3  H12 UNL     1     -12.737 -28.414 -29.615  1.00  0.00     0.174 HD
HETATM    4  C1  UNL     1     -11.678 -28.367 -27.922  1.00  0.00     0.680 A 
HETATM    5  N2  UNL     1     -12.594 -27.628 -27.270  1.00  0.00    -0.165 N 
ATOM      6  H2  UNL     1     -13.441 -27.349 -27.765  1.00  0.00     0.186 HD
HETATM    7  C2  UNL     1     -12.438 -27.242 -25.992  1.00  0.00     0.235 A 
HETATM    8  N3  UNL     1     -11.287 -27.643 -25.382  1.00  0.00    -0.305 N 
ATOM      9  H3  UNL     1     -11.114 -27.378 -24.412  1.00  0.00     0.170 HD
HETATM   10  C3  UNL     1     -10.376 -28.381 -26.039  1.00  0.00     0.208 A 
HETATM   11  N4  UNL     1      -9.191 -28.778 -25.367  1.00  0.00    -0.063 NA
HETATM   12  N5  UNL     1     -10.542 -28.761 -27.316  1.00  0.00    -0.163 N 
ATOM     13  H5  UNL     1      -9.843 -29.322 -27.803  1.00  0.00     0.187 HD
ENDROOT
BRANCH   7  14
HETATM   14  S1  UNL     1     -13.645 -26.289 -25.189  1.00  0.00     0.321 S 
HETATM   15  O1  UNL     1     -13.572 -26.623 -23.550  1.00  0.00    -0.203 OA
HETATM   16  O2  UNL     1     -15.149 -26.713 -25.769  1.00  0.00    -0.203 OA
ENDBRANCH   7  14
TORSDOF 1
ENDMDL
MODEL 5
REMARK VINA RESULT: -5.838473468      1.377      2.829
REMARK  1 active torsions:
REMARK  status: ('A' for Active; 'I' for Inactive)
REMARK    1  A    between atoms: C2_7  and  S1_8 
ROOT
HETATM    1  N1  UNL     1     -11.844 -28.745 -29.196  1.00  0.00    -0.234 N 
ATOM      2  H11 UNL     1     -11.063 -29.163 -29.703  1.00  0.00     0.174 HD
ATOM      3  H12 UNL     1     -12.726 -28.537 -29.664  1.00  0.00     0.174 HD
HETATM    4  C1  UNL     1     -11.729 -28.467 -27.934  1.00  0.00     0.680 A 
HETATM    5  N2  UNL     1     -12.758 -27.916 -27.266  1.00  0.00    -0.165 N 
ATOM      6  H2  UNL     1     -13.623 -27.724 -27.770  1.00  0.00     0.186 HD
HETATM    7  C2  UNL     1     -12.692 -27.610 -25.959  1.00  0.00     0.235 A 
HETATM    8  N3  UNL     1     -11.512 -27.887 -25.337  1.00  0.00    -0.305 N 
ATOM      9  H3  UNL     1     -11.404 -27.675 -24.346  1.00  0.00     0.170 HD
HETATM   10  C3  UNL     1     -10.487 -28.438 -26.011  1.00  0.00     0.208 A 
HETATM   11  N4  UNL     1      -9.275 -28.711 -25.327  1.00  0.00    -0.063 NA
HETATM   12  N5  UNL     1     -10.564 -28.741 -27.317  1.00  0.00    -0.163 N 
ATOM     13  H5  UNL     1      -9.779 -29.158 -27.816  1.00  0.00     0.187 HD
ENDROOT
BRANCH   7  14
HETATM   14  S1  UNL     1     -14.045 -26.900 -25.135  1.00  0.00     0.321 S 
HETATM   15  O1  UNL     1     -15.411 -27.133 -26.074  1.00  0.00    -0.203 OA
HETATM   16  O2  UNL     1     -13.776 -25.265 -24.954  1.00  0.00    -0.203 OA
ENDBRANCH   7  14
TORSDOF 1
ENDMDL
