MODEL 1
REMARK VINA RESULT: -7.405428130      0.000      0.000
REMARK  3 active torsions:
REMARK  status: ('A' for Active; 'I' for Inactive)
REMARK    1  A    between atoms: C3_3  and  N1_4 
REMARK    2  A    between atoms: C4_9  and  N4_10 
REMARK       I    between atoms: N4_10  and  C5_12 
REMARK       I    between atoms: C5_12  and  N6_16 
REMARK    3  A    between atoms: N6_16  and  N7_18 
ROOT
HETATM    1  C1  UNL     1     -17.095 -26.566 -24.918  1.00  0.00     0.014 C 
HETATM    2  C2  UNL     1     -16.567 -27.214 -25.793  1.00  0.00    -0.094 C 
HETATM    3  C3  UNL     1     -15.929 -27.991 -26.858  1.00  0.00     0.264 C 
ENDROOT
BRANCH   3   4
HETATM    4  N1  UNL     1     -14.732 -28.674 -26.347  1.00  0.00    -0.194 N 
HETATM    5  N2  UNL     1     -14.630 -29.439 -25.287  1.00  0.00    -0.210 N 
HETATM    6  N3  UNL     1     -13.370 -29.829 -25.220  1.00  0.00    -0.114 N 
ATOM      7  H2  UNL     1     -15.379 -29.684 -24.640  1.00  0.00     0.210 HD
HETATM    8  C4  UNL     1     -12.685 -29.302 -26.247  1.00  0.00     0.728 A 
ATOM      9  H3  UNL     1     -12.979 -30.436 -24.500  1.00  0.00     0.207 HD
HETATM   10  N8  UNL     1     -13.566 -28.572 -26.949  1.00  0.00    -0.111 N 
ATOM     11  H8  UNL     1     -13.368 -28.036 -27.795  1.00  0.00     0.207 HD
BRANCH   8  12
HETATM   12  N4  UNL     1     -11.437 -29.427 -26.556  1.00  0.00    -0.019 N 
HETATM   13  C5  UNL     1     -10.620 -28.278 -26.402  1.00  0.00     0.704 C 
HETATM   14  N5  UNL     1     -10.111 -28.025 -25.245  1.00  0.00    -0.233 N 
HETATM   15  N6  UNL     1     -10.380 -27.432 -27.515  1.00  0.00    -0.139 N 
ATOM     16  H52 UNL     1     -10.284 -28.633 -24.445  1.00  0.00     0.174 HD
ATOM     17  H51 UNL     1      -9.524 -27.198 -25.134  1.00  0.00     0.174 HD
ATOM     18  H6  UNL     1      -9.568 -26.816 -27.481  1.00  0.00     0.205 HD
ATOM     19  H4  UNL     1     -11.056 -30.310 -26.895  1.00  0.00     0.203 HD
BRANCH  15  20
HETATM   20  N7  UNL     1     -11.177 -27.390 -28.643  1.00  0.00    -0.331 N 
ATOM     21  H72 UNL     1     -10.982 -28.078 -29.370  1.00  0.00     0.177 HD
ATOM     22  H71 UNL     1     -11.934 -26.722 -28.785  1.00  0.00     0.177 HD
ENDBRANCH  15  20
ENDBRANCH   8  12
ENDBRANCH   3   4
TORSDOF 3
ENDMDL
MODEL 2
REMARK VINA RESULT: -7.385612231      1.544      2.234
REMARK  3 active torsions:
REMARK  status: ('A' for Active; 'I' for Inactive)
REMARK    1  A    between atoms: C3_3  and  N1_4 
REMARK    2  A    between atoms: C4_9  and  N4_10 
REMARK       I    between atoms: N4_10  and  C5_12 
REMARK       I    between atoms: C5_12  and  N6_16 
REMARK    3  A    between atoms: N6_16  and  N7_18 
ROOT
HETATM    1  C1  UNL     1     -17.765 -26.838 -25.199  1.00  0.00     0.014 C 
HETATM    2  C2  UNL     1     -16.950 -27.317 -25.954  1.00  0.00    -0.094 C 
HETATM    3  C3  UNL     1     -15.969 -27.896 -26.875  1.00  0.00     0.264 C 
ENDROOT
BRANCH   3   4
HETATM    4  N1  UNL     1     -14.622 -27.394 -26.571  1.00  0.00    -0.194 N 
HETATM    5  N2  UNL     1     -14.242 -26.675 -25.542  1.00  0.00    -0.210 N 
HETATM    6  N3  UNL     1     -12.947 -26.459 -25.687  1.00  0.00    -0.114 N 
ATOM      7  H2  UNL     1     -14.832 -26.347 -24.778  1.00  0.00     0.210 HD
HETATM    8  C4  UNL     1     -12.520 -27.049 -26.815  1.00  0.00     0.728 A 
ATOM      9  H3  UNL     1     -12.362 -25.927 -25.042  1.00  0.00     0.207 HD
HETATM   10  N8  UNL     1     -13.598 -27.635 -27.362  1.00  0.00    -0.111 N 
ATOM     11  H8  UNL     1     -13.619 -28.170 -28.230  1.00  0.00     0.207 HD
BRANCH   8  12
HETATM   12  N4  UNL     1     -11.336 -27.084 -27.330  1.00  0.00    -0.019 N 
HETATM   13  C5  UNL     1     -10.643 -28.319 -27.260  1.00  0.00     0.704 C 
HETATM   14  N5  UNL     1     -10.856 -29.207 -28.169  1.00  0.00    -0.233 N 
HETATM   15  N6  UNL     1      -9.733 -28.554 -26.197  1.00  0.00    -0.139 N 
ATOM     16  H52 UNL     1     -11.509 -29.038 -28.933  1.00  0.00     0.174 HD
ATOM     17  H51 UNL     1     -10.357 -30.096 -28.118  1.00  0.00     0.174 HD
ATOM     18  H6  UNL     1      -9.027 -29.279 -26.323  1.00  0.00     0.205 HD
ATOM     19  H4  UNL     1     -10.919 -26.262 -27.767  1.00  0.00     0.203 HD
BRANCH  15  20
HETATM   20  N7  UNL     1      -9.742 -27.862 -25.001  1.00  0.00    -0.331 N 
ATOM     21  H72 UNL     1      -9.324 -28.328 -24.196  1.00  0.00     0.177 HD
ATOM     22  H71 UNL     1     -10.136 -26.929 -24.882  1.00  0.00     0.177 HD
ENDBRANCH  15  20
ENDBRANCH   8  12
ENDBRANCH   3   4
TORSDOF 3
ENDMDL
MODEL 3
REMARK VINA RESULT: -7.191865181      2.096      2.856
REMARK  3 active torsions:
REMARK  status: ('A' for Active; 'I' for Inactive)
REMARK    1  A    between atoms: C3_3  and  N1_4 
REMARK    2  A    between atoms: C4_9  and  N4_10 
REMARK       I    between atoms: N4_10  and  C5_12 
REMARK       I    between atoms: C5_12  and  N6_16 
REMARK    3  A    between atoms: N6_16  and  N7_18 
ROOT
HETATM    1  C1  UNL     1     -14.823 -23.440 -24.263  1.00  0.00     0.014 C 
HETATM    2  C2  UNL     1     -14.834 -24.649 -24.228  1.00  0.00    -0.094 C 
HETATM    3  C3  UNL     1     -14.857 -26.113 -24.183  1.00  0.00     0.264 C 
ENDROOT
BRANCH   3   4
HETATM    4  N1  UNL     1     -14.198 -26.672 -25.371  1.00  0.00    -0.194 N 
HETATM    5  N2  UNL     1     -14.718 -27.448 -26.292  1.00  0.00    -0.210 N 
HETATM    6  N3  UNL     1     -13.757 -27.701 -27.163  1.00  0.00    -0.114 N 
ATOM      7  H2  UNL     1     -15.678 -27.790 -26.329  1.00  0.00     0.210 HD
HETATM    8  C4  UNL     1     -12.632 -27.077 -26.779  1.00  0.00     0.728 A 
ATOM      9  H3  UNL     1     -13.855 -28.280 -27.997  1.00  0.00     0.207 HD
HETATM   10  N8  UNL     1     -12.932 -26.431 -25.641  1.00  0.00    -0.111 N 
ATOM     11  H8  UNL     1     -12.296 -25.858 -25.085  1.00  0.00     0.207 HD
BRANCH   8  12
HETATM   12  N4  UNL     1     -11.467 -27.059 -27.338  1.00  0.00    -0.019 N 
HETATM   13  C5  UNL     1     -10.748 -28.281 -27.360  1.00  0.00     0.704 C 
HETATM   14  N5  UNL     1     -10.979 -29.123 -28.308  1.00  0.00    -0.233 N 
HETATM   15  N6  UNL     1      -9.795 -28.553 -26.345  1.00  0.00    -0.139 N 
ATOM     16  H52 UNL     1     -11.663 -28.927 -29.037  1.00  0.00     0.174 HD
ATOM     17  H51 UNL     1     -10.462 -30.002 -28.324  1.00  0.00     0.174 HD
ATOM     18  H6  UNL     1      -9.081 -29.255 -26.537  1.00  0.00     0.205 HD
ATOM     19  H4  UNL     1     -11.083 -26.206 -27.744  1.00  0.00     0.203 HD
BRANCH  15  20
HETATM   20  N7  UNL     1      -9.773 -27.927 -25.114  1.00  0.00    -0.331 N 
ATOM     21  H72 UNL     1     -10.241 -27.024 -25.048  1.00  0.00     0.177 HD
ATOM     22  H71 UNL     1      -9.323 -28.313 -24.284  1.00  0.00     0.177 HD
ENDBRANCH  15  20
ENDBRANCH   8  12
ENDBRANCH   3   4
TORSDOF 3
ENDMDL
MODEL 4
REMARK VINA RESULT: -6.992646980      1.666      2.376
REMARK  3 active torsions:
REMARK  status: ('A' for Active; 'I' for Inactive)
REMARK    1  A    between atoms: C3_3  and  N1_4 
REMARK    2  A    between atoms: C4_9  and  N4_10 
REMARK       I    between atoms: N4_10  and  C5_12 
REMARK       I    between atoms: C5_12  and  N6_16 
REMARK    3  A    between atoms: N6_16  and  N7_18 
ROOT
HETATM    1  C1  UNL     1     -17.828 -26.846 -25.151  1.00  0.00     0.014 C 
HETATM    2  C2  UNL     1     -16.660 -26.566 -25.006  1.00  0.00    -0.094 C 
HETATM    3  C3  UNL     1     -15.247 -26.228 -24.821  1.00  0.00     0.264 C 
ENDROOT
BRANCH   3   4
HETATM    4  N1  UNL     1     -14.434 -26.817 -25.895  1.00  0.00    -0.194 N 
HETATM    5  N2  UNL     1     -14.817 -27.652 -26.831  1.00  0.00    -0.210 N 
HETATM    6  N3  UNL     1     -13.753 -27.909 -27.569  1.00  0.00    -0.114 N 
ATOM      7  H2  UNL     1     -15.755 -28.030 -26.963  1.00  0.00     0.210 HD
HETATM    8  C4  UNL     1     -12.700 -27.228 -27.087  1.00  0.00     0.728 A 
ATOM      9  H3  UNL     1     -13.733 -28.529 -28.379  1.00  0.00     0.207 HD
HETATM   10  N8  UNL     1     -13.154 -26.542 -26.025  1.00  0.00    -0.111 N 
ATOM     11  H8  UNL     1     -12.606 -25.922 -25.428  1.00  0.00     0.207 HD
BRANCH   8  12
HETATM   12  N4  UNL     1     -11.479 -27.193 -27.505  1.00  0.00    -0.019 N 
HETATM   13  C5  UNL     1     -10.699 -28.360 -27.305  1.00  0.00     0.704 C 
HETATM   14  N5  UNL     1     -10.767 -29.312 -28.171  1.00  0.00    -0.233 N 
HETATM   15  N6  UNL     1      -9.864 -28.460 -26.162  1.00  0.00    -0.139 N 
ATOM     16  H52 UNL     1     -11.367 -29.240 -28.992  1.00  0.00     0.174 HD
ATOM     17  H51 UNL     1     -10.206 -30.152 -28.026  1.00  0.00     0.174 HD
ATOM     18  H6  UNL     1      -9.096 -29.129 -26.188  1.00  0.00     0.205 HD
ATOM     19  H4  UNL     1     -11.093 -26.365 -27.959  1.00  0.00     0.203 HD
BRANCH  15  20
HETATM   20  N7  UNL     1     -10.026 -27.706 -25.016  1.00  0.00    -0.331 N 
ATOM     21  H72 UNL     1      -9.989 -26.692 -25.122  1.00  0.00     0.177 HD
ATOM     22  H71 UNL     1     -10.178 -28.100 -24.088  1.00  0.00     0.177 HD
ENDBRANCH  15  20
ENDBRANCH   8  12
ENDBRANCH   3   4
TORSDOF 3
ENDMDL
MODEL 5
REMARK VINA RESULT: -6.938793570      1.019      1.832
REMARK  3 active torsions:
REMARK  status: ('A' for Active; 'I' for Inactive)
REMARK    1  A    between atoms: C3_3  and  N1_4 
REMARK    2  A    between atoms: C4_9  and  N4_10 
REMARK       I    between atoms: N4_10  and  C5_12 
REMARK       I    between atoms: C5_12  and  N6_16 
REMARK    3  A    between atoms: N6_16  and  N7_18 
ROOT
HETATM    1  C1  UNL     1     -17.514 -26.843 -25.175  1.00  0.00     0.014 C 
HETATM    2  C2  UNL     1     -16.752 -27.331 -25.978  1.00  0.00    -0.094 C 
HETATM    3  C3  UNL     1     -15.831 -27.914 -26.957  1.00  0.00     0.264 C 
ENDROOT
BRANCH   3   4
HETATM    4  N1  UNL     1     -14.589 -28.343 -26.300  1.00  0.00    -0.194 N 
HETATM    5  N2  UNL     1     -14.352 -29.475 -25.681  1.00  0.00    -0.210 N 
HETATM    6  N3  UNL     1     -13.106 -29.419 -25.249  1.00  0.00    -0.114 N 
ATOM      7  H2  UNL     1     -15.006 -30.249 -25.557  1.00  0.00     0.210 HD
HETATM    8  C4  UNL     1     -12.564 -28.243 -25.603  1.00  0.00     0.728 A 
ATOM      9  H3  UNL     1     -12.629 -30.155 -24.727  1.00  0.00     0.207 HD
HETATM   10  N8  UNL     1     -13.521 -27.575 -26.267  1.00  0.00    -0.111 N 
ATOM     11  H8  UNL     1     -13.435 -26.642 -26.673  1.00  0.00     0.207 HD
BRANCH   8  12
HETATM   12  N4  UNL     1     -11.377 -27.782 -25.382  1.00  0.00    -0.019 N 
HETATM   13  C5  UNL     1     -10.346 -28.224 -26.250  1.00  0.00     0.704 C 
HETATM   14  N5  UNL     1     -10.168 -27.612 -27.370  1.00  0.00    -0.233 N 
HETATM   15  N6  UNL     1      -9.535 -29.326 -25.873  1.00  0.00    -0.139 N 
ATOM     16  H52 UNL     1     -10.751 -26.821 -27.640  1.00  0.00     0.174 HD
ATOM     17  H51 UNL     1      -9.427 -27.931 -27.994  1.00  0.00     0.174 HD
ATOM     18  H6  UNL     1      -8.629 -29.430 -26.329  1.00  0.00     0.205 HD
ATOM     19  H4  UNL     1     -11.190 -27.131 -24.620  1.00  0.00     0.203 HD
BRANCH  15  20
HETATM   20  N7  UNL     1      -9.895 -30.266 -24.927  1.00  0.00    -0.331 N 
ATOM     21  H72 UNL     1     -10.785 -30.122 -24.450  1.00  0.00     0.177 HD
ATOM     22  H71 UNL     1      -9.330 -31.079 -24.684  1.00  0.00     0.177 HD
ENDBRANCH  15  20
ENDBRANCH   8  12
ENDBRANCH   3   4
TORSDOF 3
ENDMDL
