MODEL 1
REMARK VINA RESULT: -7.971030312      0.000      0.000
REMARK  5 active torsions:
REMARK  status: ('A' for Active; 'I' for Inactive)
REMARK    1  A    between atoms: C3_3  and  C4_4 
REMARK    2  A    between atoms: C4_4  and  C5_5 
REMARK    3  A    between atoms: C5_5  and  C6_6 
REMARK    4  A    between atoms: C6_6  and  N1_7 
REMARK    5  A    between atoms: C11_17  and  N4_18 
ROOT
HETATM    1  C1  UNL     1      -3.759  -0.133  25.507  1.00  0.00     0.012 C 
HETATM    2  C2  UNL     1      -3.598  -0.289  26.685  1.00  0.00    -0.117 C 
HETATM    3  C3  UNL     1      -3.430  -0.484  28.099  1.00  0.00     0.093 C 
ENDROOT
BRANCH   3   4
HETATM    4  C4  UNL     1      -1.984  -0.476  28.508  1.00  0.00     0.014 C 
BRANCH   4   5
HETATM    5  C5  UNL     1      -1.759  -0.679  29.962  1.00  0.00     0.021 C 
BRANCH   5   6
HETATM    6  C6  UNL     1      -1.830   0.662  30.659  1.00  0.00     0.132 C 
BRANCH   6   7
HETATM    7  N1  UNL     1      -2.747   0.682  31.752  1.00  0.00    -0.321 N 
HETATM    8  C7  UNL     1      -4.005   1.137  31.736  1.00  0.00     0.081 A 
HETATM    9  C8  UNL     1      -4.774   1.731  30.602  1.00  0.00     0.089 C 
HETATM   10  N2  UNL     1      -4.566   0.991  32.971  1.00  0.00    -0.339 N 
HETATM   11  C9  UNL     1      -3.627   0.436  33.751  1.00  0.00     0.148 A 
ATOM     12  H2  UNL     1      -5.512   1.252  33.246  1.00  0.00     0.167 HD
HETATM   13  C10 UNL     1      -3.677   0.082  35.076  1.00  0.00     0.290 A 
HETATM   14  C12 UNL     1      -2.483   0.240  32.992  1.00  0.00     0.157 A 
HETATM   15  O1  UNL     1      -4.733   0.278  35.721  1.00  0.00    -0.265 OA
HETATM   16  N3  UNL     1      -2.611  -0.462  35.653  1.00  0.00    -0.154 N 
HETATM   17  C11 UNL     1      -1.490  -0.660  34.933  1.00  0.00     0.680 A 
ATOM     18  H3  UNL     1      -2.641  -0.729  36.636  1.00  0.00     0.187 HD
HETATM   19  N5  UNL     1      -1.445  -0.314  33.644  1.00  0.00    -0.174 N 
ATOM     20  H5  UNL     1      -0.581  -0.479  33.128  1.00  0.00     0.186 HD
BRANCH  17  21
HETATM   21  N4  UNL     1      -0.485  -1.191  35.541  1.00  0.00    -0.234 N 
ATOM     22  H42 UNL     1      -0.595  -1.926  36.239  1.00  0.00     0.174 HD
ATOM     23  H41 UNL     1       0.443  -0.845  35.297  1.00  0.00     0.174 HD
ENDBRANCH  17  21
ENDBRANCH   6   7
ENDBRANCH   5   6
ENDBRANCH   4   5
ENDBRANCH   3   4
TORSDOF 5
ENDMDL
MODEL 2
REMARK VINA RESULT: -7.649007212      2.033      3.571
REMARK  5 active torsions:
REMARK  status: ('A' for Active; 'I' for Inactive)
REMARK    1  A    between atoms: C3_3  and  C4_4 
REMARK    2  A    between atoms: C4_4  and  C5_5 
REMARK    3  A    between atoms: C5_5  and  C6_6 
REMARK    4  A    between atoms: C6_6  and  N1_7 
REMARK    5  A    between atoms: C11_17  and  N4_18 
ROOT
HETATM    1  C1  UNL     1      -3.958  -0.118  26.422  1.00  0.00     0.012 C 
HETATM    2  C2  UNL     1      -4.701   0.238  27.294  1.00  0.00    -0.117 C 
HETATM    3  C3  UNL     1      -5.599   0.640  28.340  1.00  0.00     0.093 C 
ENDROOT
BRANCH   3   4
HETATM    4  C4  UNL     1      -5.246   1.986  28.910  1.00  0.00     0.014 C 
BRANCH   4   5
HETATM    5  C5  UNL     1      -5.643   2.171  30.329  1.00  0.00     0.021 C 
BRANCH   5   6
HETATM    6  C6  UNL     1      -4.452   2.690  31.105  1.00  0.00     0.132 C 
BRANCH   6   7
HETATM    7  N1  UNL     1      -3.797   1.682  31.874  1.00  0.00    -0.321 N 
HETATM    8  C7  UNL     1      -3.875   1.504  33.197  1.00  0.00     0.081 A 
HETATM    9  C8  UNL     1      -4.648   2.288  34.206  1.00  0.00     0.089 C 
HETATM   10  N2  UNL     1      -3.108   0.438  33.567  1.00  0.00    -0.339 N 
HETATM   11  C9  UNL     1      -2.554  -0.039  32.444  1.00  0.00     0.148 A 
ATOM     12  H2  UNL     1      -2.981   0.076  34.512  1.00  0.00     0.167 HD
HETATM   13  C10 UNL     1      -1.702  -1.099  32.261  1.00  0.00     0.290 A 
HETATM   14  C12 UNL     1      -2.982   0.738  31.377  1.00  0.00     0.157 A 
HETATM   15  O1  UNL     1      -1.342  -1.771  33.255  1.00  0.00    -0.265 OA
HETATM   16  N3  UNL     1      -1.272  -1.396  31.039  1.00  0.00    -0.154 N 
HETATM   17  C11 UNL     1      -1.676  -0.654  29.991  1.00  0.00     0.680 A 
ATOM     18  H3  UNL     1      -0.640  -2.182  30.896  1.00  0.00     0.187 HD
HETATM   19  N5  UNL     1      -2.505   0.377  30.173  1.00  0.00    -0.174 N 
ATOM     20  H5  UNL     1      -2.792   0.918  29.356  1.00  0.00     0.186 HD
BRANCH  17  21
HETATM   21  N4  UNL     1      -1.230  -0.984  28.828  1.00  0.00    -0.234 N 
ATOM     22  H42 UNL     1      -0.450  -0.498  28.384  1.00  0.00     0.174 HD
ATOM     23  H41 UNL     1      -1.689  -1.762  28.356  1.00  0.00     0.174 HD
ENDBRANCH  17  21
ENDBRANCH   6   7
ENDBRANCH   5   6
ENDBRANCH   4   5
ENDBRANCH   3   4
TORSDOF 5
ENDMDL
MODEL 3
REMARK VINA RESULT: -7.303825730      1.526      2.765
REMARK  5 active torsions:
REMARK  status: ('A' for Active; 'I' for Inactive)
REMARK    1  A    between atoms: C3_3  and  C4_4 
REMARK    2  A    between atoms: C4_4  and  C5_5 
REMARK    3  A    between atoms: C5_5  and  C6_6 
REMARK    4  A    between atoms: C6_6  and  N1_7 
REMARK    5  A    between atoms: C11_17  and  N4_18 
ROOT
HETATM    1  C1  UNL     1      -3.595  -0.090  25.188  1.00  0.00     0.012 C 
HETATM    2  C2  UNL     1      -3.886  -0.213  26.345  1.00  0.00    -0.117 C 
HETATM    3  C3  UNL     1      -4.218  -0.379  27.733  1.00  0.00     0.093 C 
ENDROOT
BRANCH   3   4
HETATM    4  C4  UNL     1      -5.007   0.781  28.274  1.00  0.00     0.014 C 
BRANCH   4   5
HETATM    5  C5  UNL     1      -4.933   0.935  29.750  1.00  0.00     0.021 C 
BRANCH   5   6
HETATM    6  C6  UNL     1      -3.572   1.484  30.116  1.00  0.00     0.132 C 
BRANCH   6   7
HETATM    7  N1  UNL     1      -2.832   0.626  30.984  1.00  0.00    -0.321 N 
HETATM    8  C7  UNL     1      -1.776  -0.128  30.658  1.00  0.00     0.081 A 
HETATM    9  C8  UNL     1      -1.102  -0.277  29.335  1.00  0.00     0.089 C 
HETATM   10  N2  UNL     1      -1.339  -0.811  31.755  1.00  0.00    -0.339 N 
HETATM   11  C9  UNL     1      -2.147  -0.462  32.766  1.00  0.00     0.148 A 
ATOM     12  H2  UNL     1      -0.553  -1.459  31.797  1.00  0.00     0.167 HD
HETATM   13  C10 UNL     1      -2.140  -0.861  34.080  1.00  0.00     0.290 A 
HETATM   14  C12 UNL     1      -3.086   0.440  32.289  1.00  0.00     0.157 A 
HETATM   15  O1  UNL     1      -1.272  -1.678  34.464  1.00  0.00    -0.265 OA
HETATM   16  N3  UNL     1      -3.050  -0.378  34.919  1.00  0.00    -0.154 N 
HETATM   17  C11 UNL     1      -3.971   0.498  34.475  1.00  0.00     0.680 A 
ATOM     18  H3  UNL     1      -3.050  -0.669  35.896  1.00  0.00     0.187 HD
HETATM   19  N5  UNL     1      -3.974   0.884  33.196  1.00  0.00    -0.174 N 
ATOM     20  H5  UNL     1      -4.685   1.550  32.893  1.00  0.00     0.186 HD
BRANCH  17  21
HETATM   21  N4  UNL     1      -4.829   0.936  35.330  1.00  0.00    -0.234 N 
ATOM     22  H42 UNL     1      -4.684   0.860  36.337  1.00  0.00     0.174 HD
ATOM     23  H41 UNL     1      -5.675   1.369  34.961  1.00  0.00     0.174 HD
ENDBRANCH  17  21
ENDBRANCH   6   7
ENDBRANCH   5   6
ENDBRANCH   4   5
ENDBRANCH   3   4
TORSDOF 5
ENDMDL
MODEL 4
REMARK VINA RESULT: -7.065759879      4.430      7.615
REMARK  5 active torsions:
REMARK  status: ('A' for Active; 'I' for Inactive)
REMARK    1  A    between atoms: C3_3  and  C4_4 
REMARK    2  A    between atoms: C4_4  and  C5_5 
REMARK    3  A    between atoms: C5_5  and  C6_6 
REMARK    4  A    between atoms: C6_6  and  N1_7 
REMARK    5  A    between atoms: C11_17  and  N4_18 
ROOT
HETATM    1  C1  UNL     1      -2.821  -7.111  38.304  1.00  0.00     0.012 C 
HETATM    2  C2  UNL     1      -2.093  -6.163  38.209  1.00  0.00    -0.117 C 
HETATM    3  C3  UNL     1      -1.214  -5.035  38.072  1.00  0.00     0.093 C 
ENDROOT
BRANCH   3   4
HETATM    4  C4  UNL     1      -1.537  -3.937  39.046  1.00  0.00     0.014 C 
BRANCH   4   5
HETATM    5  C5  UNL     1      -2.990  -3.695  39.234  1.00  0.00     0.021 C 
BRANCH   5   6
HETATM    6  C6  UNL     1      -3.365  -2.406  38.536  1.00  0.00     0.132 C 
BRANCH   6   7
HETATM    7  N1  UNL     1      -3.322  -2.501  37.113  1.00  0.00    -0.321 N 
HETATM    8  C7  UNL     1      -4.098  -3.263  36.335  1.00  0.00     0.081 A 
HETATM    9  C8  UNL     1      -5.194  -4.197  36.730  1.00  0.00     0.089 C 
HETATM   10  N2  UNL     1      -3.759  -3.085  35.026  1.00  0.00    -0.339 N 
HETATM   11  C9  UNL     1      -2.755  -2.196  35.012  1.00  0.00     0.148 A 
ATOM     12  H2  UNL     1      -4.184  -3.539  34.218  1.00  0.00     0.167 HD
HETATM   13  C10 UNL     1      -2.053  -1.674  33.954  1.00  0.00     0.290 A 
HETATM   14  C12 UNL     1      -2.476  -1.826  36.319  1.00  0.00     0.157 A 
HETATM   15  O1  UNL     1      -2.342  -2.040  32.791  1.00  0.00    -0.265 OA
HETATM   16  N3  UNL     1      -1.084  -0.793  34.177  1.00  0.00    -0.154 N 
HETATM   17  C11 UNL     1      -0.797  -0.421  35.439  1.00  0.00     0.680 A 
ATOM     18  H3  UNL     1      -0.560  -0.400  33.396  1.00  0.00     0.187 HD
HETATM   19  N5  UNL     1      -1.482  -0.931  36.466  1.00  0.00    -0.174 N 
ATOM     20  H5  UNL     1      -1.240  -0.627  37.409  1.00  0.00     0.186 HD
BRANCH  17  21
HETATM   21  N4  UNL     1       0.151   0.436  35.600  1.00  0.00    -0.234 N 
ATOM     22  H42 UNL     1       1.051   0.350  35.126  1.00  0.00     0.174 HD
ATOM     23  H41 UNL     1      -0.029   1.218  36.228  1.00  0.00     0.174 HD
ENDBRANCH  17  21
ENDBRANCH   6   7
ENDBRANCH   5   6
ENDBRANCH   4   5
ENDBRANCH   3   4
TORSDOF 5
ENDMDL
MODEL 5
REMARK VINA RESULT: -7.060198343      1.235      1.565
REMARK  5 active torsions:
REMARK  status: ('A' for Active; 'I' for Inactive)
REMARK    1  A    between atoms: C3_3  and  C4_4 
REMARK    2  A    between atoms: C4_4  and  C5_5 
REMARK    3  A    between atoms: C5_5  and  C6_6 
REMARK    4  A    between atoms: C6_6  and  N1_7 
REMARK    5  A    between atoms: C11_17  and  N4_18 
ROOT
HETATM    1  C1  UNL     1      -5.659  -0.511  25.157  1.00  0.00     0.012 C 
HETATM    2  C2  UNL     1      -4.552  -0.354  25.590  1.00  0.00    -0.117 C 
HETATM    3  C3  UNL     1      -3.222  -0.148  26.092  1.00  0.00     0.093 C 
ENDROOT
BRANCH   3   4
HETATM    4  C4  UNL     1      -3.028  -0.747  27.458  1.00  0.00     0.014 C 
BRANCH   4   5
HETATM    5  C5  UNL     1      -3.825  -0.097  28.529  1.00  0.00     0.021 C 
BRANCH   5   6
HETATM    6  C6  UNL     1      -2.883   0.422  29.592  1.00  0.00     0.132 C 
BRANCH   6   7
HETATM    7  N1  UNL     1      -3.554   0.908  30.754  1.00  0.00    -0.321 N 
HETATM    8  C7  UNL     1      -4.664   1.654  30.786  1.00  0.00     0.081 A 
HETATM    9  C8  UNL     1      -5.482   2.170  29.649  1.00  0.00     0.089 C 
HETATM   10  N2  UNL     1      -5.004   1.922  32.080  1.00  0.00    -0.339 N 
HETATM   11  C9  UNL     1      -4.081   1.325  32.846  1.00  0.00     0.148 A 
ATOM     12  H2  UNL     1      -5.803   2.469  32.400  1.00  0.00     0.167 HD
HETATM   13  C10 UNL     1      -3.959   1.285  34.213  1.00  0.00     0.290 A 
HETATM   14  C12 UNL     1      -3.167   0.687  32.020  1.00  0.00     0.157 A 
HETATM   15  O1  UNL     1      -4.809   1.877  34.918  1.00  0.00    -0.265 OA
HETATM   16  N3  UNL     1      -2.949   0.622  34.766  1.00  0.00    -0.154 N 
HETATM   17  C11 UNL     1      -2.052  -0.003  33.980  1.00  0.00     0.680 A 
ATOM     18  H3  UNL     1      -2.853   0.587  35.780  1.00  0.00     0.187 HD
HETATM   19  N5  UNL     1      -2.173   0.038  32.651  1.00  0.00    -0.174 N 
ATOM     20  H5  UNL     1      -1.476  -0.448  32.086  1.00  0.00     0.186 HD
BRANCH  17  21
HETATM   21  N4  UNL     1      -1.092  -0.631  34.567  1.00  0.00    -0.234 N 
ATOM     22  H42 UNL     1      -0.698  -1.496  34.196  1.00  0.00     0.174 HD
ATOM     23  H41 UNL     1      -0.730  -0.228  35.431  1.00  0.00     0.174 HD
ENDBRANCH  17  21
ENDBRANCH   6   7
ENDBRANCH   5   6
ENDBRANCH   4   5
ENDBRANCH   3   4
TORSDOF 5
ENDMDL
