MODEL 1
REMARK VINA RESULT: -9.154128385      0.000      0.000
REMARK  13 active torsions:
REMARK  status: ('A' for Active; 'I' for Inactive)
REMARK    1  A    between atoms: C2_2  and  C3_3 
REMARK    2  A    between atoms: C3_3  and  C4_4 
REMARK    3  A    between atoms: C4_4  and  N1_5 
REMARK    4  A    between atoms: C4_4  and  C11_22 
REMARK       I    between atoms: N1_5  and  C5_7 
REMARK    5  A    between atoms: C5_7  and  C6_9 
REMARK       I    between atoms: C6_9  and  N2_11 
REMARK    6  A    between atoms: C8_18  and  C9_19 
REMARK    7  A    between atoms: C11_22  and  C12_24 
REMARK    8  A    between atoms: C12_24  and  C13_26 
REMARK       I    between atoms: C13_26  and  N5_28 
REMARK    9  A    between atoms: C19_34  and  C20_35 
REMARK       I    between atoms: C20_35  and  N6_37 
REMARK   10  A    between atoms: N6_37  and  C21_39 
REMARK   11  A    between atoms: C21_39  and  C22_40 
REMARK   12  A    between atoms: C21_39  and  C26_44 
REMARK   13  A    between atoms: C22_40  and  C23_41 
ROOT
HETATM    1  C12 UNL     1      -9.819 -19.203  19.896  1.00  0.00     0.286 C 
HETATM    2  O4  UNL     1     -10.614 -19.059  20.857  1.00  0.00    -0.278 OA
ENDROOT
BRANCH   1   3
HETATM    3  C11 UNL     1     -10.485 -19.692  18.661  1.00  0.00     0.227 C 
HETATM    4  O3  UNL     1     -10.279 -20.897  18.375  1.00  0.00    -0.286 OA
BRANCH   3   5
HETATM    5  C4  UNL     1     -11.330 -18.838  17.828  1.00  0.00     0.163 C 
BRANCH   5   6
HETATM    6  C3  UNL     1     -10.437 -17.905  17.015  1.00  0.00     0.033 C 
BRANCH   6   7
HETATM    7  C2  UNL     1     -10.485 -18.230  15.540  1.00  0.00    -0.002 C 
HETATM    8  C1  UNL     1     -10.840 -16.966  14.784  1.00  0.00     0.005 C 
ENDBRANCH   6   7
ENDBRANCH   5   6
BRANCH   5   9
HETATM    9  N1  UNL     1     -12.163 -19.549  16.882  1.00  0.00    -0.341 N 
HETATM   10  C5  UNL     1     -13.584 -19.562  16.999  1.00  0.00     0.310 C 
HETATM   11  O1  UNL     1     -14.062 -18.933  17.959  1.00  0.00    -0.262 OA
ATOM     12  H1  UNL     1     -11.723 -20.053  16.114  1.00  0.00     0.163 HD
BRANCH  10  13
HETATM   13  C6  UNL     1     -14.453 -20.254  16.075  1.00  0.00     0.315 C 
HETATM   14  O2  UNL     1     -14.899 -19.526  15.097  1.00  0.00    -0.262 OA
HETATM   15  N2  UNL     1     -14.877 -21.557  16.077  1.00  0.00    -0.298 N 
HETATM   16  C7  UNL     1     -15.048 -22.451  16.973  1.00  0.00     0.168 A 
ATOM     17  H2  UNL     1     -15.112 -21.893  15.143  1.00  0.00     0.171 HD
HETATM   18  N3  UNL     1     -15.486 -23.707  16.757  1.00  0.00    -0.279 N 
HETATM   19  S1  UNL     1     -14.836 -22.484  18.685  1.00  0.00    -0.038 SA
HETATM   20  N4  UNL     1     -15.612 -24.487  17.734  1.00  0.00    -0.296 N 
ATOM     21  H3  UNL     1     -15.711 -24.020  15.813  1.00  0.00     0.189 HD
HETATM   22  C8  UNL     1     -15.323 -24.092  18.966  1.00  0.00     0.069 A 
ATOM     23  H4  UNL     1     -15.943 -25.439  17.578  1.00  0.00     0.187 HD
BRANCH  22  24
HETATM   24  C9  UNL     1     -15.426 -24.882  20.246  1.00  0.00     0.062 C 
HETATM   25  C10 UNL     1     -16.812 -24.688  20.783  1.00  0.00     0.012 C 
ENDBRANCH  22  24
ENDBRANCH  10  13
ENDBRANCH   5   9
ENDBRANCH   3   5
ENDBRANCH   1   3
BRANCH   1  26
HETATM   26  C13 UNL     1      -8.414 -18.936  19.950  1.00  0.00     0.298 C 
HETATM   27  O5  UNL     1      -7.660 -19.971  19.804  1.00  0.00    -0.264 OA
HETATM   28  N5  UNL     1      -7.749 -17.700  20.140  1.00  0.00    -0.332 N 
HETATM   29  C14 UNL     1      -8.488 -16.505  20.399  1.00  0.00     0.127 C 
HETATM   30  C19 UNL     1      -6.280 -17.733  20.019  1.00  0.00     0.179 C 
HETATM   31  C15 UNL     1      -7.818 -15.526  21.342  1.00  0.00     0.020 C 
HETATM   32  C16 UNL     1      -7.112 -16.156  22.491  1.00  0.00     0.002 C 
HETATM   33  C17 UNL     1      -5.683 -16.537  22.172  1.00  0.00     0.002 C 
HETATM   34  C18 UNL     1      -5.577 -17.741  21.313  1.00  0.00     0.035 C 
BRANCH  30  35
HETATM   35  C20 UNL     1      -5.802 -16.792  19.000  1.00  0.00     0.241 C 
HETATM   36  O6  UNL     1      -5.018 -15.834  19.321  1.00  0.00    -0.271 OA
HETATM   37  N6  UNL     1      -6.139 -16.848  17.629  1.00  0.00    -0.354 N 
ATOM     38  H6  UNL     1      -6.767 -17.593  17.325  1.00  0.00     0.162 HD
BRANCH  37  39
HETATM   39  C21 UNL     1      -5.658 -15.927  16.628  1.00  0.00     0.092 C 
BRANCH  39  40
HETATM   40  C22 UNL     1      -4.404 -16.400  15.963  1.00  0.00     0.029 C 
BRANCH  40  41
HETATM   41  C23 UNL     1      -3.216 -15.526  16.243  1.00  0.00    -0.021 C 
HETATM   42  C24 UNL     1      -3.534 -14.196  16.831  1.00  0.00     0.009 C 
HETATM   43  C25 UNL     1      -2.501 -15.309  14.913  1.00  0.00     0.009 C 
ENDBRANCH  40  41
ENDBRANCH  39  40
BRANCH  39  44
HETATM   44  C26 UNL     1      -6.760 -15.599  15.676  1.00  0.00    -0.031 C 
HETATM   45  C27 UNL     1      -7.978 -15.167  16.509  1.00  0.00     0.016 C 
HETATM   46  C28 UNL     1      -7.140 -16.840  14.904  1.00  0.00     0.016 C 
HETATM   47  C29 UNL     1      -6.460 -14.473  14.747  1.00  0.00     0.016 C 
ENDBRANCH  39  44
ENDBRANCH  37  39
ENDBRANCH  30  35
ENDBRANCH   1  26
TORSDOF 13
ENDMDL
MODEL 2
REMARK VINA RESULT: -9.017763212      3.482      6.791
REMARK  13 active torsions:
REMARK  status: ('A' for Active; 'I' for Inactive)
REMARK    1  A    between atoms: C2_2  and  C3_3 
REMARK    2  A    between atoms: C3_3  and  C4_4 
REMARK    3  A    between atoms: C4_4  and  N1_5 
REMARK    4  A    between atoms: C4_4  and  C11_22 
REMARK       I    between atoms: N1_5  and  C5_7 
REMARK    5  A    between atoms: C5_7  and  C6_9 
REMARK       I    between atoms: C6_9  and  N2_11 
REMARK    6  A    between atoms: C8_18  and  C9_19 
REMARK    7  A    between atoms: C11_22  and  C12_24 
REMARK    8  A    between atoms: C12_24  and  C13_26 
REMARK       I    between atoms: C13_26  and  N5_28 
REMARK    9  A    between atoms: C19_34  and  C20_35 
REMARK       I    between atoms: C20_35  and  N6_37 
REMARK   10  A    between atoms: N6_37  and  C21_39 
REMARK   11  A    between atoms: C21_39  and  C22_40 
REMARK   12  A    between atoms: C21_39  and  C26_44 
REMARK   13  A    between atoms: C22_40  and  C23_41 
ROOT
HETATM    1  C12 UNL     1     -14.474 -21.470  17.697  1.00  0.00     0.286 C 
HETATM    2  O4  UNL     1     -14.584 -22.308  18.626  1.00  0.00    -0.278 OA
ENDROOT
BRANCH   1   3
HETATM    3  C11 UNL     1     -15.039 -21.953  16.411  1.00  0.00     0.227 C 
HETATM    4  O3  UNL     1     -14.279 -21.860  15.416  1.00  0.00    -0.286 OA
BRANCH   3   5
HETATM    5  C4  UNL     1     -16.389 -22.506  16.300  1.00  0.00     0.163 C 
BRANCH   5   6
HETATM    6  C3  UNL     1     -16.574 -23.073  14.895  1.00  0.00     0.033 C 
BRANCH   6   7
HETATM    7  C2  UNL     1     -17.650 -22.336  14.133  1.00  0.00    -0.002 C 
HETATM    8  C1  UNL     1     -18.049 -23.177  12.937  1.00  0.00     0.005 C 
ENDBRANCH   6   7
ENDBRANCH   5   6
BRANCH   5   9
HETATM    9  N1  UNL     1     -16.681 -23.578  17.226  1.00  0.00    -0.341 N 
HETATM   10  C5  UNL     1     -17.970 -23.725  17.817  1.00  0.00     0.310 C 
HETATM   11  O1  UNL     1     -18.822 -22.879  17.495  1.00  0.00    -0.262 OA
ATOM     12  H1  UNL     1     -15.947 -24.245  17.462  1.00  0.00     0.163 HD
BRANCH  10  13
HETATM   13  C6  UNL     1     -18.307 -24.784  18.742  1.00  0.00     0.315 C 
HETATM   14  O2  UNL     1     -18.010 -24.540  19.982  1.00  0.00    -0.262 OA
HETATM   15  N2  UNL     1     -18.886 -26.003  18.506  1.00  0.00    -0.298 N 
HETATM   16  C7  UNL     1     -18.949 -26.797  17.507  1.00  0.00     0.168 A 
ATOM     17  H2  UNL     1     -19.386 -26.362  19.320  1.00  0.00     0.171 HD
HETATM   18  N3  UNL     1     -19.590 -27.981  17.484  1.00  0.00    -0.279 N 
HETATM   19  S1  UNL     1     -18.319 -26.751  15.902  1.00  0.00    -0.038 SA
HETATM   20  N4  UNL     1     -19.569 -28.668  16.431  1.00  0.00    -0.296 N 
ATOM     21  H3  UNL     1     -20.085 -28.318  18.310  1.00  0.00     0.189 HD
HETATM   22  C8  UNL     1     -18.929 -28.243  15.351  1.00  0.00     0.069 A 
ATOM     23  H4  UNL     1     -20.052 -29.566  16.406  1.00  0.00     0.187 HD
BRANCH  22  24
HETATM   24  C9  UNL     1     -18.791 -28.933  14.018  1.00  0.00     0.062 C 
HETATM   25  C10 UNL     1     -18.010 -28.022  13.119  1.00  0.00     0.012 C 
ENDBRANCH  22  24
ENDBRANCH  10  13
ENDBRANCH   5   9
ENDBRANCH   3   5
ENDBRANCH   1   3
BRANCH   1  26
HETATM   26  C13 UNL     1     -13.870 -20.179  17.828  1.00  0.00     0.298 C 
HETATM   27  O5  UNL     1     -14.682 -19.230  18.144  1.00  0.00    -0.264 OA
HETATM   28  N5  UNL     1     -12.513 -19.810  17.658  1.00  0.00    -0.332 N 
HETATM   29  C14 UNL     1     -11.544 -20.766  17.222  1.00  0.00     0.127 C 
HETATM   30  C19 UNL     1     -12.178 -18.413  17.990  1.00  0.00     0.179 C 
HETATM   31  C15 UNL     1     -10.455 -20.214  16.325  1.00  0.00     0.020 C 
HETATM   32  C16 UNL     1     -10.920 -19.209  15.331  1.00  0.00     0.002 C 
HETATM   33  C17 UNL     1     -10.927 -17.797  15.873  1.00  0.00     0.002 C 
HETATM   34  C18 UNL     1     -12.046 -17.538  16.812  1.00  0.00     0.035 C 
BRANCH  30  35
HETATM   35  C20 UNL     1     -11.123 -18.338  19.005  1.00  0.00     0.241 C 
HETATM   36  O6  UNL     1     -11.376 -18.630  20.225  1.00  0.00    -0.271 OA
HETATM   37  N6  UNL     1      -9.786 -17.956  18.753  1.00  0.00    -0.354 N 
ATOM     38  H6  UNL     1      -9.537 -17.709  17.795  1.00  0.00     0.162 HD
BRANCH  37  39
HETATM   39  C21 UNL     1      -8.748 -17.893  19.753  1.00  0.00     0.092 C 
BRANCH  39  40
HETATM   40  C22 UNL     1      -8.037 -19.198  19.930  1.00  0.00     0.029 C 
BRANCH  40  41
HETATM   41  C23 UNL     1      -8.291 -19.838  21.264  1.00  0.00    -0.021 C 
HETATM   42  C24 UNL     1      -9.250 -20.976  21.247  1.00  0.00     0.009 C 
HETATM   43  C25 UNL     1      -8.847 -18.751  22.178  1.00  0.00     0.009 C 
ENDBRANCH  40  41
ENDBRANCH  39  40
BRANCH  39  44
HETATM   44  C26 UNL     1      -7.841 -16.744  19.464  1.00  0.00    -0.031 C 
HETATM   45  C27 UNL     1      -8.296 -16.118  18.136  1.00  0.00     0.016 C 
HETATM   46  C28 UNL     1      -6.431 -17.254  19.279  1.00  0.00     0.016 C 
HETATM   47  C29 UNL     1      -7.878 -15.656  20.482  1.00  0.00     0.016 C 
ENDBRANCH  39  44
ENDBRANCH  37  39
ENDBRANCH  30  35
ENDBRANCH   1  26
TORSDOF 13
ENDMDL
MODEL 3
REMARK VINA RESULT: -8.898036293      3.696      7.067
REMARK  13 active torsions:
REMARK  status: ('A' for Active; 'I' for Inactive)
REMARK    1  A    between atoms: C2_2  and  C3_3 
REMARK    2  A    between atoms: C3_3  and  C4_4 
REMARK    3  A    between atoms: C4_4  and  N1_5 
REMARK    4  A    between atoms: C4_4  and  C11_22 
REMARK       I    between atoms: N1_5  and  C5_7 
REMARK    5  A    between atoms: C5_7  and  C6_9 
REMARK       I    between atoms: C6_9  and  N2_11 
REMARK    6  A    between atoms: C8_18  and  C9_19 
REMARK    7  A    between atoms: C11_22  and  C12_24 
REMARK    8  A    between atoms: C12_24  and  C13_26 
REMARK       I    between atoms: C13_26  and  N5_28 
REMARK    9  A    between atoms: C19_34  and  C20_35 
REMARK       I    between atoms: C20_35  and  N6_37 
REMARK   10  A    between atoms: N6_37  and  C21_39 
REMARK   11  A    between atoms: C21_39  and  C22_40 
REMARK   12  A    between atoms: C21_39  and  C26_44 
REMARK   13  A    between atoms: C22_40  and  C23_41 
ROOT
HETATM    1  C12 UNL     1     -14.706 -22.176  16.731  1.00  0.00     0.286 C 
HETATM    2  O4  UNL     1     -14.447 -23.405  16.738  1.00  0.00    -0.278 OA
ENDROOT
BRANCH   1   3
HETATM    3  C11 UNL     1     -15.781 -21.815  15.771  1.00  0.00     0.227 C 
HETATM    4  O3  UNL     1     -15.615 -20.737  15.150  1.00  0.00    -0.286 OA
BRANCH   3   5
HETATM    5  C4  UNL     1     -16.958 -22.656  15.551  1.00  0.00     0.163 C 
BRANCH   5   6
HETATM    6  C3  UNL     1     -16.854 -23.296  14.169  1.00  0.00     0.033 C 
BRANCH   6   7
HETATM    7  C2  UNL     1     -18.099 -23.055  13.348  1.00  0.00    -0.002 C 
HETATM    8  C1  UNL     1     -17.959 -23.803  12.038  1.00  0.00     0.005 C 
ENDBRANCH   6   7
ENDBRANCH   5   6
BRANCH   5   9
HETATM    9  N1  UNL     1     -17.116 -23.735  16.501  1.00  0.00    -0.341 N 
HETATM   10  C5  UNL     1     -18.146 -23.719  17.487  1.00  0.00     0.310 C 
HETATM   11  O1  UNL     1     -18.893 -22.726  17.485  1.00  0.00    -0.262 OA
ATOM     12  H1  UNL     1     -16.475 -24.528  16.465  1.00  0.00     0.163 HD
BRANCH  10  13
HETATM   13  C6  UNL     1     -18.343 -24.779  18.451  1.00  0.00     0.315 C 
HETATM   14  O2  UNL     1     -17.963 -24.494  19.659  1.00  0.00    -0.262 OA
HETATM   15  N2  UNL     1     -18.865 -26.034  18.280  1.00  0.00    -0.298 N 
HETATM   16  C7  UNL     1     -18.961 -26.849  17.300  1.00  0.00     0.168 A 
ATOM     17  H2  UNL     1     -19.276 -26.406  19.137  1.00  0.00     0.171 HD
HETATM   18  N3  UNL     1     -19.529 -28.069  17.346  1.00  0.00    -0.279 N 
HETATM   19  S1  UNL     1     -18.465 -26.796  15.649  1.00  0.00    -0.038 SA
HETATM   20  N4  UNL     1     -19.551 -28.773  16.305  1.00  0.00    -0.296 N 
ATOM     21  H3  UNL     1     -19.935 -28.418  18.215  1.00  0.00     0.189 HD
HETATM   22  C8  UNL     1     -19.027 -28.331  15.170  1.00  0.00     0.069 A 
ATOM     23  H4  UNL     1     -19.980 -29.698  16.332  1.00  0.00     0.187 HD
BRANCH  22  24
HETATM   24  C9  UNL     1     -18.954 -29.037  13.841  1.00  0.00     0.062 C 
HETATM   25  C10 UNL     1     -18.270 -28.114  12.878  1.00  0.00     0.012 C 
ENDBRANCH  22  24
ENDBRANCH  10  13
ENDBRANCH   5   9
ENDBRANCH   3   5
ENDBRANCH   1   3
BRANCH   1  26
HETATM   26  C13 UNL     1     -14.053 -21.198  17.546  1.00  0.00     0.298 C 
HETATM   27  O5  UNL     1     -14.625 -20.965  18.678  1.00  0.00    -0.264 OA
HETATM   28  N5  UNL     1     -12.874 -20.460  17.279  1.00  0.00    -0.332 N 
HETATM   29  C14 UNL     1     -12.209 -20.576  16.019  1.00  0.00     0.127 C 
HETATM   30  C19 UNL     1     -12.379 -19.614  18.380  1.00  0.00     0.179 C 
HETATM   31  C15 UNL     1     -11.566 -19.301  15.512  1.00  0.00     0.020 C 
HETATM   32  C16 UNL     1     -12.360 -18.066  15.755  1.00  0.00     0.002 C 
HETATM   33  C17 UNL     1     -12.089 -17.442  17.106  1.00  0.00     0.002 C 
HETATM   34  C18 UNL     1     -12.710 -18.187  18.228  1.00  0.00     0.035 C 
BRANCH  30  35
HETATM   35  C20 UNL     1     -10.997 -19.949  18.738  1.00  0.00     0.241 C 
HETATM   36  O6  UNL     1     -10.546 -21.131  18.548  1.00  0.00    -0.271 OA
HETATM   37  N6  UNL     1     -10.067 -19.044  19.300  1.00  0.00    -0.354 N 
ATOM     38  H6  UNL     1     -10.382 -18.090  19.476  1.00  0.00     0.162 HD
BRANCH  37  39
HETATM   39  C21 UNL     1      -8.705 -19.375  19.641  1.00  0.00     0.092 C 
BRANCH  39  40
HETATM   40  C22 UNL     1      -7.709 -18.474  18.981  1.00  0.00     0.029 C 
BRANCH  40  41
HETATM   41  C23 UNL     1      -8.325 -17.240  18.388  1.00  0.00    -0.021 C 
HETATM   42  C24 UNL     1      -8.266 -17.156  16.903  1.00  0.00     0.009 C 
HETATM   43  C25 UNL     1      -7.575 -16.046  18.970  1.00  0.00     0.009 C 
ENDBRANCH  40  41
ENDBRANCH  39  40
BRANCH  39  44
HETATM   44  C26 UNL     1      -8.563 -19.449  21.125  1.00  0.00    -0.031 C 
HETATM   45  C27 UNL     1      -9.449 -18.349  21.730  1.00  0.00     0.016 C 
HETATM   46  C28 UNL     1      -7.131 -19.157  21.506  1.00  0.00     0.016 C 
HETATM   47  C29 UNL     1      -9.015 -20.736  21.726  1.00  0.00     0.016 C 
ENDBRANCH  39  44
ENDBRANCH  37  39
ENDBRANCH  30  35
ENDBRANCH   1  26
TORSDOF 13
ENDMDL
MODEL 4
REMARK VINA RESULT: -8.828656257      2.980      6.419
REMARK  13 active torsions:
REMARK  status: ('A' for Active; 'I' for Inactive)
REMARK    1  A    between atoms: C2_2  and  C3_3 
REMARK    2  A    between atoms: C3_3  and  C4_4 
REMARK    3  A    between atoms: C4_4  and  N1_5 
REMARK    4  A    between atoms: C4_4  and  C11_22 
REMARK       I    between atoms: N1_5  and  C5_7 
REMARK    5  A    between atoms: C5_7  and  C6_9 
REMARK       I    between atoms: C6_9  and  N2_11 
REMARK    6  A    between atoms: C8_18  and  C9_19 
REMARK    7  A    between atoms: C11_22  and  C12_24 
REMARK    8  A    between atoms: C12_24  and  C13_26 
REMARK       I    between atoms: C13_26  and  N5_28 
REMARK    9  A    between atoms: C19_34  and  C20_35 
REMARK       I    between atoms: C20_35  and  N6_37 
REMARK   10  A    between atoms: N6_37  and  C21_39 
REMARK   11  A    between atoms: C21_39  and  C22_40 
REMARK   12  A    between atoms: C21_39  and  C26_44 
REMARK   13  A    between atoms: C22_40  and  C23_41 
ROOT
HETATM    1  C12 UNL     1     -14.825 -22.038  16.575  1.00  0.00     0.286 C 
HETATM    2  O4  UNL     1     -14.740 -23.287  16.676  1.00  0.00    -0.278 OA
ENDROOT
BRANCH   1   3
HETATM    3  C11 UNL     1     -15.709 -21.606  15.462  1.00  0.00     0.227 C 
HETATM    4  O3  UNL     1     -16.177 -20.446  15.561  1.00  0.00    -0.286 OA
BRANCH   3   5
HETATM    5  C4  UNL     1     -16.016 -22.465  14.318  1.00  0.00     0.163 C 
BRANCH   5   6
HETATM    6  C3  UNL     1     -14.729 -22.728  13.541  1.00  0.00     0.033 C 
BRANCH   6   7
HETATM    7  C2  UNL     1     -14.578 -21.782  12.373  1.00  0.00    -0.002 C 
HETATM    8  C1  UNL     1     -13.498 -20.775  12.711  1.00  0.00     0.005 C 
ENDBRANCH   6   7
ENDBRANCH   5   6
BRANCH   5   9
HETATM    9  N1  UNL     1     -16.568 -23.757  14.663  1.00  0.00    -0.341 N 
HETATM   10  C5  UNL     1     -17.864 -24.157  14.225  1.00  0.00     0.310 C 
HETATM   11  O1  UNL     1     -18.490 -23.333  13.536  1.00  0.00    -0.262 OA
ATOM     12  H1  UNL     1     -16.017 -24.396  15.234  1.00  0.00     0.163 HD
BRANCH  10  13
HETATM   13  C6  UNL     1     -18.451 -25.440  14.541  1.00  0.00     0.315 C 
HETATM   14  O2  UNL     1     -19.243 -25.917  13.630  1.00  0.00    -0.262 OA
HETATM   15  N2  UNL     1     -18.299 -26.223  15.656  1.00  0.00    -0.298 N 
HETATM   16  C7  UNL     1     -18.005 -26.007  16.880  1.00  0.00     0.168 A 
ATOM     17  H2  UNL     1     -18.458 -27.212  15.462  1.00  0.00     0.171 HD
HETATM   18  N3  UNL     1     -17.905 -26.945  17.841  1.00  0.00    -0.279 N 
HETATM   19  S1  UNL     1     -17.645 -24.587  17.791  1.00  0.00    -0.038 SA
HETATM   20  N4  UNL     1     -17.611 -26.593  19.012  1.00  0.00    -0.296 N 
ATOM     21  H3  UNL     1     -18.066 -27.929  17.622  1.00  0.00     0.189 HD
HETATM   22  C8  UNL     1     -17.400 -25.319  19.309  1.00  0.00     0.069 A 
ATOM     23  H4  UNL     1     -17.534 -27.299  19.744  1.00  0.00     0.187 HD
BRANCH  22  24
HETATM   24  C9  UNL     1     -17.054 -24.720  20.648  1.00  0.00     0.062 C 
HETATM   25  C10 UNL     1     -15.684 -24.123  20.532  1.00  0.00     0.012 C 
ENDBRANCH  22  24
ENDBRANCH  10  13
ENDBRANCH   5   9
ENDBRANCH   3   5
ENDBRANCH   1   3
BRANCH   1  26
HETATM   26  C13 UNL     1     -14.154 -21.101  17.423  1.00  0.00     0.298 C 
HETATM   27  O5  UNL     1     -14.738 -20.874  18.550  1.00  0.00    -0.264 OA
HETATM   28  N5  UNL     1     -12.946 -20.399  17.193  1.00  0.00    -0.332 N 
HETATM   29  C14 UNL     1     -12.263 -20.509  15.942  1.00  0.00     0.127 C 
HETATM   30  C19 UNL     1     -12.442 -19.595  18.321  1.00  0.00     0.179 C 
HETATM   31  C15 UNL     1     -11.569 -19.245  15.475  1.00  0.00     0.020 C 
HETATM   32  C16 UNL     1     -12.326 -17.990  15.733  1.00  0.00     0.002 C 
HETATM   33  C17 UNL     1     -12.057 -17.406  17.102  1.00  0.00     0.002 C 
HETATM   34  C18 UNL     1     -12.723 -18.154  18.196  1.00  0.00     0.035 C 
BRANCH  30  35
HETATM   35  C20 UNL     1     -11.079 -19.984  18.695  1.00  0.00     0.241 C 
HETATM   36  O6  UNL     1     -10.664 -21.175  18.482  1.00  0.00    -0.271 OA
HETATM   37  N6  UNL     1     -10.131 -19.125  19.295  1.00  0.00    -0.354 N 
ATOM     38  H6  UNL     1     -10.417 -18.166  19.490  1.00  0.00     0.162 HD
BRANCH  37  39
HETATM   39  C21 UNL     1      -8.786 -19.510  19.652  1.00  0.00     0.092 C 
BRANCH  39  40
HETATM   40  C22 UNL     1      -7.747 -18.690  18.954  1.00  0.00     0.029 C 
BRANCH  40  41
HETATM   41  C23 UNL     1      -8.273 -17.387  18.425  1.00  0.00    -0.021 C 
HETATM   42  C24 UNL     1      -8.267 -17.259  16.942  1.00  0.00     0.009 C 
HETATM   43  C25 UNL     1      -7.396 -16.284  19.010  1.00  0.00     0.009 C 
ENDBRANCH  40  41
ENDBRANCH  39  40
BRANCH  39  44
HETATM   44  C26 UNL     1      -8.646 -19.526  21.138  1.00  0.00    -0.031 C 
HETATM   45  C27 UNL     1      -9.533 -18.404  21.699  1.00  0.00     0.016 C 
HETATM   46  C28 UNL     1      -7.215 -19.219  21.509  1.00  0.00     0.016 C 
HETATM   47  C29 UNL     1      -9.099 -20.789  21.788  1.00  0.00     0.016 C 
ENDBRANCH  39  44
ENDBRANCH  37  39
ENDBRANCH  30  35
ENDBRANCH   1  26
TORSDOF 13
ENDMDL
MODEL 5
REMARK VINA RESULT: -8.735839517      3.240      5.197
REMARK  13 active torsions:
REMARK  status: ('A' for Active; 'I' for Inactive)
REMARK    1  A    between atoms: C2_2  and  C3_3 
REMARK    2  A    between atoms: C3_3  and  C4_4 
REMARK    3  A    between atoms: C4_4  and  N1_5 
REMARK    4  A    between atoms: C4_4  and  C11_22 
REMARK       I    between atoms: N1_5  and  C5_7 
REMARK    5  A    between atoms: C5_7  and  C6_9 
REMARK       I    between atoms: C6_9  and  N2_11 
REMARK    6  A    between atoms: C8_18  and  C9_19 
REMARK    7  A    between atoms: C11_22  and  C12_24 
REMARK    8  A    between atoms: C12_24  and  C13_26 
REMARK       I    between atoms: C13_26  and  N5_28 
REMARK    9  A    between atoms: C19_34  and  C20_35 
REMARK       I    between atoms: C20_35  and  N6_37 
REMARK   10  A    between atoms: N6_37  and  C21_39 
REMARK   11  A    between atoms: C21_39  and  C22_40 
REMARK   12  A    between atoms: C21_39  and  C26_44 
REMARK   13  A    between atoms: C22_40  and  C23_41 
ROOT
HETATM    1  C12 UNL     1     -13.320 -21.684  18.431  1.00  0.00     0.286 C 
HETATM    2  O4  UNL     1     -13.540 -22.545  19.318  1.00  0.00    -0.278 OA
ENDROOT
BRANCH   1   3
HETATM    3  C11 UNL     1     -14.557 -21.220  17.753  1.00  0.00     0.227 C 
HETATM    4  O3  UNL     1     -14.700 -19.975  17.677  1.00  0.00    -0.286 OA
BRANCH   3   5
HETATM    5  C4  UNL     1     -15.549 -22.143  17.202  1.00  0.00     0.163 C 
BRANCH   5   6
HETATM    6  C3  UNL     1     -14.903 -22.942  16.073  1.00  0.00     0.033 C 
BRANCH   6   7
HETATM    7  C2  UNL     1     -15.327 -22.432  14.715  1.00  0.00    -0.002 C 
HETATM    8  C1  UNL     1     -14.143 -21.738  14.074  1.00  0.00     0.005 C 
ENDBRANCH   6   7
ENDBRANCH   5   6
BRANCH   5   9
HETATM    9  N1  UNL     1     -16.072 -23.104  18.148  1.00  0.00    -0.341 N 
HETATM   10  C5  UNL     1     -17.429 -23.538  18.101  1.00  0.00     0.310 C 
HETATM   11  O1  UNL     1     -18.134 -23.041  17.205  1.00  0.00    -0.262 OA
ATOM     12  H1  UNL     1     -15.454 -23.480  18.867  1.00  0.00     0.163 HD
BRANCH  10  13
HETATM   13  C6  UNL     1     -17.991 -24.500  19.022  1.00  0.00     0.315 C 
HETATM   14  O2  UNL     1     -17.784 -24.238  20.277  1.00  0.00    -0.262 OA
HETATM   15  N2  UNL     1     -18.703 -25.644  18.770  1.00  0.00    -0.298 N 
HETATM   16  C7  UNL     1     -18.775 -26.469  17.798  1.00  0.00     0.168 A 
ATOM     17  H2  UNL     1     -19.321 -25.896  19.542  1.00  0.00     0.171 HD
HETATM   18  N3  UNL     1     -19.563 -27.560  17.751  1.00  0.00    -0.279 N 
HETATM   19  S1  UNL     1     -17.994 -26.580  16.264  1.00  0.00    -0.038 SA
HETATM   20  N4  UNL     1     -19.533 -28.292  16.729  1.00  0.00    -0.296 N 
ATOM     21  H3  UNL     1     -20.175 -27.790  18.534  1.00  0.00     0.189 HD
HETATM   22  C8  UNL     1     -18.743 -28.005  15.705  1.00  0.00     0.069 A 
ATOM     23  H4  UNL     1     -20.128 -29.120  16.687  1.00  0.00     0.187 HD
BRANCH  22  24
HETATM   24  C9  UNL     1     -18.571 -28.769  14.417  1.00  0.00     0.062 C 
HETATM   25  C10 UNL     1     -17.861 -27.869  13.452  1.00  0.00     0.012 C 
ENDBRANCH  22  24
ENDBRANCH  10  13
ENDBRANCH   5   9
ENDBRANCH   3   5
ENDBRANCH   1   3
BRANCH   1  26
HETATM   26  C13 UNL     1     -12.025 -21.181  18.083  1.00  0.00     0.298 C 
HETATM   27  O5  UNL     1     -11.403 -21.864  17.184  1.00  0.00    -0.264 OA
HETATM   28  N5  UNL     1     -11.345 -20.047  18.589  1.00  0.00    -0.332 N 
HETATM   29  C14 UNL     1     -11.905 -19.271  19.650  1.00  0.00     0.127 C 
HETATM   30  C19 UNL     1     -10.067 -19.716  17.933  1.00  0.00     0.179 C 
HETATM   31  C15 UNL     1     -10.899 -18.693  20.625  1.00  0.00     0.020 C 
HETATM   32  C16 UNL     1      -9.771 -19.601  20.964  1.00  0.00     0.002 C 
HETATM   33  C17 UNL     1      -8.612 -19.495  19.997  1.00  0.00     0.002 C 
HETATM   34  C18 UNL     1      -8.880 -20.147  18.692  1.00  0.00     0.035 C 
BRANCH  30  35
HETATM   35  C20 UNL     1     -10.069 -18.346  17.408  1.00  0.00     0.241 C 
HETATM   36  O6  UNL     1     -11.150 -17.662  17.388  1.00  0.00    -0.271 OA
HETATM   37  N6  UNL     1      -8.934 -17.676  16.901  1.00  0.00    -0.354 N 
ATOM     38  H6  UNL     1      -8.049 -18.182  16.891  1.00  0.00     0.162 HD
BRANCH  37  39
HETATM   39  C21 UNL     1      -8.938 -16.324  16.395  1.00  0.00     0.092 C 
BRANCH  39  40
HETATM   40  C22 UNL     1      -7.994 -15.428  17.135  1.00  0.00     0.029 C 
BRANCH  40  41
HETATM   41  C23 UNL     1      -7.092 -16.165  18.080  1.00  0.00    -0.021 C 
HETATM   42  C24 UNL     1      -7.248 -15.803  19.516  1.00  0.00     0.009 C 
HETATM   43  C25 UNL     1      -5.659 -15.856  17.657  1.00  0.00     0.009 C 
ENDBRANCH  40  41
ENDBRANCH  39  40
BRANCH  39  44
HETATM   44  C26 UNL     1      -8.724 -16.340  14.918  1.00  0.00    -0.031 C 
HETATM   45  C27 UNL     1     -10.105 -16.428  14.250  1.00  0.00     0.016 C 
HETATM   46  C28 UNL     1      -7.943 -17.576  14.539  1.00  0.00     0.016 C 
HETATM   47  C29 UNL     1      -8.067 -15.117  14.375  1.00  0.00     0.016 C 
ENDBRANCH  39  44
ENDBRANCH  37  39
ENDBRANCH  30  35
ENDBRANCH   1  26
TORSDOF 13
ENDMDL
