MODEL 1
REMARK VINA RESULT: -8.890088050      0.000      0.000
REMARK  13 active torsions:
REMARK  status: ('A' for Active; 'I' for Inactive)
REMARK    1  A    between atoms: C2_2  and  C4_4 
REMARK    2  A    between atoms: C4_4  and  C5_5 
REMARK    3  A    between atoms: C5_5  and  C6_6 
REMARK    4  A    between atoms: C5_5  and  N4_26 
REMARK    5  A    between atoms: C6_6  and  N1_7 
REMARK    6  A    between atoms: C6_6  and  C15_23 
REMARK       I    between atoms: N1_7  and  C7_9 
REMARK    7  A    between atoms: C7_9  and  C8_11 
REMARK       I    between atoms: C8_11  and  N2_13 
REMARK    8  A    between atoms: N2_13  and  C9_15 
REMARK    9  A    between atoms: C9_15  and  N3_17 
REMARK   10  A    between atoms: C21_30  and  C22_31 
REMARK       I    between atoms: C22_31  and  N5_33 
REMARK   11  A    between atoms: N5_33  and  C23_35 
REMARK   12  A    between atoms: C23_35  and  C24_36 
REMARK   13  A    between atoms: C23_35  and  C30_44 
REMARK       I    between atoms: C24_36  and  N6_38 
ROOT
HETATM    1  C5  UNL     1     -15.564 -22.516  16.206  1.00  0.00     0.013 C 
ENDROOT
BRANCH   1   2
HETATM    2  C4  UNL     1     -14.922 -23.337  17.309  1.00  0.00     0.059 C 
BRANCH   2   3
HETATM    3  C2  UNL     1     -15.257 -22.808  18.670  1.00  0.00    -0.017 C 
HETATM    4  C1  UNL     1     -14.003 -22.039  19.180  1.00  0.00     0.010 C 
HETATM    5  C3  UNL     1     -15.433 -23.978  19.661  1.00  0.00     0.010 C 
ENDBRANCH   2   3
ENDBRANCH   1   2
BRANCH   1   6
HETATM    6  C6  UNL     1     -16.990 -22.862  15.964  1.00  0.00     0.134 C 
BRANCH   6   7
HETATM    7  N1  UNL     1     -17.128 -24.334  15.827  1.00  0.00    -0.343 N 
HETATM    8  C7  UNL     1     -17.866 -25.086  16.743  1.00  0.00     0.310 C 
HETATM    9  O1  UNL     1     -18.425 -24.476  17.706  1.00  0.00    -0.262 OA
ATOM     10  H1  UNL     1     -16.673 -24.807  15.046  1.00  0.00     0.163 HD
BRANCH   8  11
HETATM   11  C8  UNL     1     -18.060 -26.523  16.692  1.00  0.00     0.310 C 
HETATM   12  O2  UNL     1     -17.304 -27.257  17.383  1.00  0.00    -0.262 OA
HETATM   13  N2  UNL     1     -19.056 -27.139  15.899  1.00  0.00    -0.332 N 
ATOM     14  H2  UNL     1     -19.661 -26.534  15.344  1.00  0.00     0.165 HD
BRANCH  13  15
HETATM   15  C9  UNL     1     -19.276 -28.560  15.821  1.00  0.00     0.182 C 
HETATM   16  C10 UNL     1     -18.520 -29.112  14.619  1.00  0.00     0.056 C 
BRANCH  15  17
HETATM   17  N3  UNL     1     -20.659 -28.868  15.816  1.00  0.00    -0.369 N 
HETATM   18  C11 UNL     1     -21.578 -27.944  16.341  1.00  0.00     0.086 C 
HETATM   19  C12 UNL     1     -21.958 -28.151  17.788  1.00  0.00     0.212 C 
HETATM   20  O3  UNL     1     -22.037 -29.510  18.128  1.00  0.00    -0.385 OA
HETATM   21  C13 UNL     1     -22.228 -30.272  16.972  1.00  0.00     0.187 C 
HETATM   22  C14 UNL     1     -20.985 -30.220  16.117  1.00  0.00     0.150 C 
ENDBRANCH  15  17
ENDBRANCH  13  15
ENDBRANCH   8  11
ENDBRANCH   6   7
BRANCH   6  23
HETATM   23  C15 UNL     1     -17.832 -22.285  14.934  1.00  0.00     0.006 C 
HETATM   24  C16 UNL     1     -18.133 -23.114  13.703  1.00  0.00     0.012 C 
HETATM   25  C17 UNL     1     -17.782 -20.834  14.619  1.00  0.00     0.012 C 
ENDBRANCH   6  23
ENDBRANCH   1   6
BRANCH   1  26
HETATM   26  N4  UNL     1     -14.692 -22.339  15.164  1.00  0.00    -0.352 N 
HETATM   27  C18 UNL     1     -14.843 -22.992  13.933  1.00  0.00     0.065 C 
HETATM   28  C19 UNL     1     -14.498 -21.934  12.911  1.00  0.00     0.047 C 
HETATM   29  C20 UNL     1     -13.587 -20.998  13.646  1.00  0.00     0.040 C 
HETATM   30  C21 UNL     1     -13.564 -21.573  15.089  1.00  0.00     0.181 C 
BRANCH  30  31
HETATM   31  C22 UNL     1     -13.193 -20.536  16.020  1.00  0.00     0.241 C 
HETATM   32  O4  UNL     1     -13.979 -19.715  16.517  1.00  0.00    -0.271 OA
HETATM   33  N5  UNL     1     -11.834 -20.424  16.414  1.00  0.00    -0.346 N 
ATOM     34  H5  UNL     1     -11.161 -21.084  16.022  1.00  0.00     0.163 HD
BRANCH  33  35
HETATM   35  C23 UNL     1     -11.344 -19.407  17.357  1.00  0.00     0.180 C 
BRANCH  35  36
HETATM   36  C24 UNL     1     -10.509 -20.122  18.329  1.00  0.00     0.243 C 
HETATM   37  O5  UNL     1     -10.594 -21.413  18.314  1.00  0.00    -0.271 OA
HETATM   38  N6  UNL     1      -9.623 -19.624  19.293  1.00  0.00    -0.350 N 
HETATM   39  C25 UNL     1      -9.421 -18.228  19.513  1.00  0.00     0.126 C 
HETATM   40  C29 UNL     1      -8.833 -20.513  20.160  1.00  0.00     0.126 C 
HETATM   41  C26 UNL     1      -9.199 -17.932  20.999  1.00  0.00     0.020 C 
HETATM   42  C27 UNL     1      -7.975 -18.627  21.516  1.00  0.00     0.003 C 
HETATM   43  C28 UNL     1      -7.594 -19.782  20.653  1.00  0.00     0.020 C 
ENDBRANCH  35  36
BRANCH  35  44
HETATM   44  C30 UNL     1     -10.502 -18.422  16.515  1.00  0.00     0.009 C 
HETATM   45  C31 UNL     1     -11.334 -17.489  15.710  1.00  0.00     0.012 C 
HETATM   46  C32 UNL     1      -9.389 -19.061  15.762  1.00  0.00     0.012 C 
ENDBRANCH  35  44
ENDBRANCH  33  35
ENDBRANCH  30  31
ENDBRANCH   1  26
TORSDOF 13
ENDMDL
MODEL 2
REMARK VINA RESULT: -8.865490519      0.812      1.056
REMARK  13 active torsions:
REMARK  status: ('A' for Active; 'I' for Inactive)
REMARK    1  A    between atoms: C2_2  and  C4_4 
REMARK    2  A    between atoms: C4_4  and  C5_5 
REMARK    3  A    between atoms: C5_5  and  C6_6 
REMARK    4  A    between atoms: C5_5  and  N4_26 
REMARK    5  A    between atoms: C6_6  and  N1_7 
REMARK    6  A    between atoms: C6_6  and  C15_23 
REMARK       I    between atoms: N1_7  and  C7_9 
REMARK    7  A    between atoms: C7_9  and  C8_11 
REMARK       I    between atoms: C8_11  and  N2_13 
REMARK    8  A    between atoms: N2_13  and  C9_15 
REMARK    9  A    between atoms: C9_15  and  N3_17 
REMARK   10  A    between atoms: C21_30  and  C22_31 
REMARK       I    between atoms: C22_31  and  N5_33 
REMARK   11  A    between atoms: N5_33  and  C23_35 
REMARK   12  A    between atoms: C23_35  and  C24_36 
REMARK   13  A    between atoms: C23_35  and  C30_44 
REMARK       I    between atoms: C24_36  and  N6_38 
ROOT
HETATM    1  C5  UNL     1     -15.569 -22.500  16.198  1.00  0.00     0.013 C 
ENDROOT
BRANCH   1   2
HETATM    2  C4  UNL     1     -14.936 -23.331  17.298  1.00  0.00     0.059 C 
BRANCH   2   3
HETATM    3  C2  UNL     1     -15.270 -22.807  18.661  1.00  0.00    -0.017 C 
HETATM    4  C1  UNL     1     -14.012 -22.049  19.178  1.00  0.00     0.010 C 
HETATM    5  C3  UNL     1     -15.457 -23.980  19.646  1.00  0.00     0.010 C 
ENDBRANCH   2   3
ENDBRANCH   1   2
BRANCH   1   6
HETATM    6  C6  UNL     1     -16.998 -22.832  15.952  1.00  0.00     0.134 C 
BRANCH   6   7
HETATM    7  N1  UNL     1     -17.150 -24.302  15.815  1.00  0.00    -0.343 N 
HETATM    8  C7  UNL     1     -17.893 -25.046  16.733  1.00  0.00     0.310 C 
HETATM    9  O1  UNL     1     -18.442 -24.431  17.698  1.00  0.00    -0.262 OA
ATOM     10  H1  UNL     1     -16.702 -24.779  15.033  1.00  0.00     0.163 HD
BRANCH   8  11
HETATM   11  C8  UNL     1     -18.100 -26.482  16.682  1.00  0.00     0.310 C 
HETATM   12  O2  UNL     1     -17.342 -27.224  17.363  1.00  0.00    -0.262 OA
HETATM   13  N2  UNL     1     -19.113 -27.087  15.902  1.00  0.00    -0.332 N 
ATOM     14  H2  UNL     1     -19.720 -26.476  15.357  1.00  0.00     0.165 HD
BRANCH  13  15
HETATM   15  C9  UNL     1     -19.347 -28.505  15.825  1.00  0.00     0.182 C 
HETATM   16  C10 UNL     1     -18.584 -29.069  14.633  1.00  0.00     0.056 C 
BRANCH  15  17
HETATM   17  N3  UNL     1     -20.733 -28.799  15.805  1.00  0.00    -0.369 N 
HETATM   18  C11 UNL     1     -21.389 -28.967  14.574  1.00  0.00     0.086 C 
HETATM   19  C12 UNL     1     -22.062 -27.734  14.019  1.00  0.00     0.212 C 
HETATM   20  O3  UNL     1     -22.625 -26.937  15.026  1.00  0.00    -0.385 OA
HETATM   21  C13 UNL     1     -22.843 -27.711  16.170  1.00  0.00     0.187 C 
HETATM   22  C14 UNL     1     -21.517 -28.112  16.772  1.00  0.00     0.150 C 
ENDBRANCH  15  17
ENDBRANCH  13  15
ENDBRANCH   8  11
ENDBRANCH   6   7
BRANCH   6  23
HETATM   23  C15 UNL     1     -17.831 -22.246  14.920  1.00  0.00     0.006 C 
HETATM   24  C16 UNL     1     -18.139 -23.073  13.690  1.00  0.00     0.012 C 
HETATM   25  C17 UNL     1     -17.763 -20.796  14.603  1.00  0.00     0.012 C 
ENDBRANCH   6  23
ENDBRANCH   1   6
BRANCH   1  26
HETATM   26  N4  UNL     1     -14.693 -22.326  15.158  1.00  0.00    -0.352 N 
HETATM   27  C18 UNL     1     -14.845 -22.979  13.926  1.00  0.00     0.065 C 
HETATM   28  C19 UNL     1     -14.492 -21.922  12.905  1.00  0.00     0.047 C 
HETATM   29  C20 UNL     1     -13.579 -20.991  13.642  1.00  0.00     0.040 C 
HETATM   30  C21 UNL     1     -13.562 -21.566  15.086  1.00  0.00     0.181 C 
BRANCH  30  31
HETATM   31  C22 UNL     1     -13.189 -20.530  16.017  1.00  0.00     0.241 C 
HETATM   32  O4  UNL     1     -13.970 -19.700  16.505  1.00  0.00    -0.271 OA
HETATM   33  N5  UNL     1     -11.832 -20.432  16.423  1.00  0.00    -0.346 N 
ATOM     34  H5  UNL     1     -11.163 -21.099  16.038  1.00  0.00     0.163 HD
BRANCH  33  35
HETATM   35  C23 UNL     1     -11.340 -19.417  17.368  1.00  0.00     0.180 C 
BRANCH  35  36
HETATM   36  C24 UNL     1     -10.507 -20.136  18.339  1.00  0.00     0.243 C 
HETATM   37  O5  UNL     1     -10.591 -21.427  18.317  1.00  0.00    -0.271 OA
HETATM   38  N6  UNL     1      -9.625 -19.642  19.309  1.00  0.00    -0.350 N 
HETATM   39  C25 UNL     1      -9.425 -18.246  19.537  1.00  0.00     0.126 C 
HETATM   40  C29 UNL     1      -8.838 -20.534  20.174  1.00  0.00     0.126 C 
HETATM   41  C26 UNL     1      -9.209 -17.958  21.024  1.00  0.00     0.020 C 
HETATM   42  C27 UNL     1      -7.986 -18.654  21.542  1.00  0.00     0.003 C 
HETATM   43  C28 UNL     1      -7.601 -19.804  20.676  1.00  0.00     0.020 C 
ENDBRANCH  35  36
BRANCH  35  44
HETATM   44  C30 UNL     1     -10.494 -18.434  16.527  1.00  0.00     0.009 C 
HETATM   45  C31 UNL     1     -11.323 -17.489  15.733  1.00  0.00     0.012 C 
HETATM   46  C32 UNL     1      -9.389 -19.076  15.765  1.00  0.00     0.012 C 
ENDBRANCH  35  44
ENDBRANCH  33  35
ENDBRANCH  30  31
ENDBRANCH   1  26
TORSDOF 13
ENDMDL
MODEL 3
REMARK VINA RESULT: -8.808813279      3.736     12.101
REMARK  13 active torsions:
REMARK  status: ('A' for Active; 'I' for Inactive)
REMARK    1  A    between atoms: C2_2  and  C4_4 
REMARK    2  A    between atoms: C4_4  and  C5_5 
REMARK    3  A    between atoms: C5_5  and  C6_6 
REMARK    4  A    between atoms: C5_5  and  N4_26 
REMARK    5  A    between atoms: C6_6  and  N1_7 
REMARK    6  A    between atoms: C6_6  and  C15_23 
REMARK       I    between atoms: N1_7  and  C7_9 
REMARK    7  A    between atoms: C7_9  and  C8_11 
REMARK       I    between atoms: C8_11  and  N2_13 
REMARK    8  A    between atoms: N2_13  and  C9_15 
REMARK    9  A    between atoms: C9_15  and  N3_17 
REMARK   10  A    between atoms: C21_30  and  C22_31 
REMARK       I    between atoms: C22_31  and  N5_33 
REMARK   11  A    between atoms: N5_33  and  C23_35 
REMARK   12  A    between atoms: C23_35  and  C24_36 
REMARK   13  A    between atoms: C23_35  and  C30_44 
REMARK       I    between atoms: C24_36  and  N6_38 
ROOT
HETATM    1  C5  UNL     1     -10.646 -19.837  17.569  1.00  0.00     0.013 C 
ENDROOT
BRANCH   1   2
HETATM    2  C4  UNL     1      -9.538 -20.001  18.591  1.00  0.00     0.059 C 
BRANCH   2   3
HETATM    3  C2  UNL     1     -10.075 -20.175  19.979  1.00  0.00    -0.017 C 
HETATM    4  C1  UNL     1      -9.143 -19.371  20.932  1.00  0.00     0.010 C 
HETATM    5  C3  UNL     1      -9.921 -21.646  20.423  1.00  0.00     0.010 C 
ENDBRANCH   2   3
ENDBRANCH   1   2
BRANCH   1   6
HETATM    6  C6  UNL     1     -10.212 -19.132  16.333  1.00  0.00     0.134 C 
BRANCH   6   7
HETATM    7  N1  UNL     1      -9.435 -17.921  16.698  1.00  0.00    -0.343 N 
HETATM    8  C7  UNL     1      -8.342 -17.499  15.939  1.00  0.00     0.310 C 
HETATM    9  O1  UNL     1      -8.024 -18.181  14.917  1.00  0.00    -0.262 OA
ATOM     10  H1  UNL     1      -9.706 -17.385  17.523  1.00  0.00     0.163 HD
BRANCH   8  11
HETATM   11  C8  UNL     1      -7.525 -16.331  16.215  1.00  0.00     0.310 C 
HETATM   12  O2  UNL     1      -8.102 -15.247  16.499  1.00  0.00    -0.262 OA
HETATM   13  N2  UNL     1      -6.112 -16.353  16.176  1.00  0.00    -0.332 N 
ATOM     14  H2  UNL     1      -5.658 -17.236  15.945  1.00  0.00     0.165 HD
BRANCH  13  15
HETATM   15  C9  UNL     1      -5.270 -15.215  16.440  1.00  0.00     0.182 C 
HETATM   16  C10 UNL     1      -5.075 -14.432  15.148  1.00  0.00     0.056 C 
BRANCH  15  17
HETATM   17  N3  UNL     1      -4.055 -15.606  17.058  1.00  0.00    -0.369 N 
HETATM   18  C11 UNL     1      -2.847 -15.484  16.352  1.00  0.00     0.086 C 
HETATM   19  C12 UNL     1      -2.392 -16.724  15.618  1.00  0.00     0.212 C 
HETATM   20  O3  UNL     1      -2.694 -17.899  16.321  1.00  0.00    -0.385 OA
HETATM   21  C13 UNL     1      -2.872 -17.603  17.676  1.00  0.00     0.187 C 
HETATM   22  C14 UNL     1      -4.126 -16.781  17.856  1.00  0.00     0.150 C 
ENDBRANCH  15  17
ENDBRANCH  13  15
ENDBRANCH   8  11
ENDBRANCH   6   7
BRANCH   6  23
HETATM   23  C15 UNL     1     -11.081 -18.735  15.242  1.00  0.00     0.006 C 
HETATM   24  C16 UNL     1     -11.561 -17.300  15.192  1.00  0.00     0.012 C 
HETATM   25  C17 UNL     1     -12.088 -19.669  14.678  1.00  0.00     0.012 C 
ENDBRANCH   6  23
ENDBRANCH   1   6
BRANCH   1  26
HETATM   26  N4  UNL     1     -11.830 -19.523  18.184  1.00  0.00    -0.352 N 
HETATM   27  C18 UNL     1     -12.022 -18.324  18.885  1.00  0.00     0.065 C 
HETATM   28  C19 UNL     1     -13.419 -17.895  18.503  1.00  0.00     0.047 C 
HETATM   29  C20 UNL     1     -14.110 -19.175  18.144  1.00  0.00     0.040 C 
HETATM   30  C21 UNL     1     -12.987 -20.242  18.271  1.00  0.00     0.181 C 
BRANCH  30  31
HETATM   31  C22 UNL     1     -13.318 -21.395  17.470  1.00  0.00     0.241 C 
HETATM   32  O4  UNL     1     -12.560 -22.352  17.258  1.00  0.00    -0.271 OA
HETATM   33  N5  UNL     1     -14.602 -21.462  16.867  1.00  0.00    -0.346 N 
ATOM     34  H5  UNL     1     -15.249 -20.689  17.020  1.00  0.00     0.163 HD
BRANCH  33  35
HETATM   35  C23 UNL     1     -15.047 -22.589  16.033  1.00  0.00     0.180 C 
BRANCH  35  36
HETATM   36  C24 UNL     1     -16.231 -23.145  16.698  1.00  0.00     0.243 C 
HETATM   37  O5  UNL     1     -17.359 -22.974  16.090  1.00  0.00    -0.271 OA
HETATM   38  N6  UNL     1     -16.340 -23.839  17.911  1.00  0.00    -0.350 N 
HETATM   39  C25 UNL     1     -15.223 -24.088  18.765  1.00  0.00     0.126 C 
HETATM   40  C29 UNL     1     -17.626 -24.359  18.398  1.00  0.00     0.126 C 
HETATM   41  C26 UNL     1     -15.630 -24.008  20.238  1.00  0.00     0.020 C 
HETATM   42  C27 UNL     1     -16.663 -25.041  20.575  1.00  0.00     0.003 C 
HETATM   43  C28 UNL     1     -17.383 -25.514  19.358  1.00  0.00     0.020 C 
ENDBRANCH  35  36
BRANCH  35  44
HETATM   44  C30 UNL     1     -15.412 -21.979  14.661  1.00  0.00     0.009 C 
HETATM   45  C31 UNL     1     -14.533 -22.457  13.561  1.00  0.00     0.012 C 
HETATM   46  C32 UNL     1     -15.624 -20.506  14.686  1.00  0.00     0.012 C 
ENDBRANCH  35  44
ENDBRANCH  33  35
ENDBRANCH  30  31
ENDBRANCH   1  26
TORSDOF 13
ENDMDL
MODEL 4
REMARK VINA RESULT: -8.513280513      1.499      3.546
REMARK  13 active torsions:
REMARK  status: ('A' for Active; 'I' for Inactive)
REMARK    1  A    between atoms: C2_2  and  C4_4 
REMARK    2  A    between atoms: C4_4  and  C5_5 
REMARK    3  A    between atoms: C5_5  and  C6_6 
REMARK    4  A    between atoms: C5_5  and  N4_26 
REMARK    5  A    between atoms: C6_6  and  N1_7 
REMARK    6  A    between atoms: C6_6  and  C15_23 
REMARK       I    between atoms: N1_7  and  C7_9 
REMARK    7  A    between atoms: C7_9  and  C8_11 
REMARK       I    between atoms: C8_11  and  N2_13 
REMARK    8  A    between atoms: N2_13  and  C9_15 
REMARK    9  A    between atoms: C9_15  and  N3_17 
REMARK   10  A    between atoms: C21_30  and  C22_31 
REMARK       I    between atoms: C22_31  and  N5_33 
REMARK   11  A    between atoms: N5_33  and  C23_35 
REMARK   12  A    between atoms: C23_35  and  C24_36 
REMARK   13  A    between atoms: C23_35  and  C30_44 
REMARK       I    between atoms: C24_36  and  N6_38 
ROOT
HETATM    1  C5  UNL     1     -15.780 -22.424  16.796  1.00  0.00     0.013 C 
ENDROOT
BRANCH   1   2
HETATM    2  C4  UNL     1     -15.389 -20.965  16.659  1.00  0.00     0.059 C 
BRANCH   2   3
HETATM    3  C2  UNL     1     -14.839 -20.656  15.300  1.00  0.00    -0.017 C 
HETATM    4  C1  UNL     1     -13.297 -20.506  15.456  1.00  0.00     0.010 C 
HETATM    5  C3  UNL     1     -15.326 -19.267  14.837  1.00  0.00     0.010 C 
ENDBRANCH   2   3
ENDBRANCH   1   2
BRANCH   1   6
HETATM    6  C6  UNL     1     -16.899 -22.824  15.902  1.00  0.00     0.134 C 
BRANCH   6   7
HETATM    7  N1  UNL     1     -16.929 -24.302  15.774  1.00  0.00    -0.343 N 
HETATM    8  C7  UNL     1     -18.087 -25.035  16.042  1.00  0.00     0.310 C 
HETATM    9  O1  UNL     1     -19.126 -24.401  16.402  1.00  0.00    -0.262 OA
ATOM     10  H1  UNL     1     -16.084 -24.795  15.483  1.00  0.00     0.163 HD
BRANCH   8  11
HETATM   11  C8  UNL     1     -18.213 -26.477  15.943  1.00  0.00     0.310 C 
HETATM   12  O2  UNL     1     -17.588 -27.195  16.769  1.00  0.00    -0.262 OA
HETATM   13  N2  UNL     1     -19.004 -27.115  14.960  1.00  0.00    -0.332 N 
ATOM     14  H2  UNL     1     -19.506 -26.524  14.297  1.00  0.00     0.165 HD
BRANCH  13  15
HETATM   15  C9  UNL     1     -19.152 -28.542  14.829  1.00  0.00     0.182 C 
HETATM   16  C10 UNL     1     -18.803 -28.946  13.402  1.00  0.00     0.056 C 
BRANCH  15  17
HETATM   17  N3  UNL     1     -20.439 -28.967  15.243  1.00  0.00    -0.369 N 
HETATM   18  C11 UNL     1     -21.212 -28.135  16.071  1.00  0.00     0.086 C 
HETATM   19  C12 UNL     1     -21.098 -28.401  17.553  1.00  0.00     0.212 C 
HETATM   20  O3  UNL     1     -20.963 -29.767  17.840  1.00  0.00    -0.385 OA
HETATM   21  C13 UNL     1     -21.451 -30.522  16.769  1.00  0.00     0.187 C 
HETATM   22  C14 UNL     1     -20.550 -30.347  15.571  1.00  0.00     0.150 C 
ENDBRANCH  15  17
ENDBRANCH  13  15
ENDBRANCH   8  11
ENDBRANCH   6   7
BRANCH   6  23
HETATM   23  C15 UNL     1     -17.139 -22.303  14.571  1.00  0.00     0.006 C 
HETATM   24  C16 UNL     1     -18.430 -21.555  14.314  1.00  0.00     0.012 C 
HETATM   25  C17 UNL     1     -16.679 -23.033  13.361  1.00  0.00     0.012 C 
ENDBRANCH   6  23
ENDBRANCH   1   6
BRANCH   1  26
HETATM   26  N4  UNL     1     -15.751 -22.811  18.111  1.00  0.00    -0.352 N 
HETATM   27  C18 UNL     1     -16.829 -23.460  18.730  1.00  0.00     0.065 C 
HETATM   28  C19 UNL     1     -16.176 -24.520  19.586  1.00  0.00     0.047 C 
HETATM   29  C20 UNL     1     -14.809 -23.975  19.865  1.00  0.00     0.040 C 
HETATM   30  C21 UNL     1     -14.770 -22.655  19.047  1.00  0.00     0.181 C 
BRANCH  30  31
HETATM   31  C22 UNL     1     -13.401 -22.294  18.771  1.00  0.00     0.241 C 
HETATM   32  O4  UNL     1     -12.603 -22.983  18.119  1.00  0.00    -0.271 OA
HETATM   33  N5  UNL     1     -12.905 -21.062  19.273  1.00  0.00    -0.346 N 
ATOM     34  H5  UNL     1     -13.536 -20.472  19.816  1.00  0.00     0.163 HD
BRANCH  33  35
HETATM   35  C23 UNL     1     -11.529 -20.592  19.052  1.00  0.00     0.180 C 
BRANCH  35  36
HETATM   36  C24 UNL     1     -11.645 -19.303  18.361  1.00  0.00     0.243 C 
HETATM   37  O5  UNL     1     -12.725 -18.630  18.589  1.00  0.00    -0.271 OA
HETATM   38  N6  UNL     1     -10.761 -18.674  17.474  1.00  0.00    -0.350 N 
HETATM   39  C25 UNL     1      -9.535 -19.270  17.047  1.00  0.00     0.126 C 
HETATM   40  C29 UNL     1     -11.039 -17.345  16.908  1.00  0.00     0.126 C 
HETATM   41  C26 UNL     1      -9.238 -18.928  15.585  1.00  0.00     0.020 C 
HETATM   42  C27 UNL     1      -9.083 -17.449  15.393  1.00  0.00     0.003 C 
HETATM   43  C28 UNL     1      -9.735 -16.681  16.492  1.00  0.00     0.020 C 
ENDBRANCH  35  36
BRANCH  35  44
HETATM   44  C30 UNL     1     -10.912 -20.419  20.459  1.00  0.00     0.009 C 
HETATM   45  C31 UNL     1     -10.395 -19.046  20.701  1.00  0.00     0.012 C 
HETATM   46  C32 UNL     1      -9.978 -21.508  20.855  1.00  0.00     0.012 C 
ENDBRANCH  35  44
ENDBRANCH  33  35
ENDBRANCH  30  31
ENDBRANCH   1  26
TORSDOF 13
ENDMDL
MODEL 5
REMARK VINA RESULT: -8.428265837      1.667      3.697
REMARK  13 active torsions:
REMARK  status: ('A' for Active; 'I' for Inactive)
REMARK    1  A    between atoms: C2_2  and  C4_4 
REMARK    2  A    between atoms: C4_4  and  C5_5 
REMARK    3  A    between atoms: C5_5  and  C6_6 
REMARK    4  A    between atoms: C5_5  and  N4_26 
REMARK    5  A    between atoms: C6_6  and  N1_7 
REMARK    6  A    between atoms: C6_6  and  C15_23 
REMARK       I    between atoms: N1_7  and  C7_9 
REMARK    7  A    between atoms: C7_9  and  C8_11 
REMARK       I    between atoms: C8_11  and  N2_13 
REMARK    8  A    between atoms: N2_13  and  C9_15 
REMARK    9  A    between atoms: C9_15  and  N3_17 
REMARK   10  A    between atoms: C21_30  and  C22_31 
REMARK       I    between atoms: C22_31  and  N5_33 
REMARK   11  A    between atoms: N5_33  and  C23_35 
REMARK   12  A    between atoms: C23_35  and  C24_36 
REMARK   13  A    between atoms: C23_35  and  C30_44 
REMARK       I    between atoms: C24_36  and  N6_38 
ROOT
HETATM    1  C5  UNL     1     -15.726 -22.377  16.842  1.00  0.00     0.013 C 
ENDROOT
BRANCH   1   2
HETATM    2  C4  UNL     1     -15.335 -20.920  16.683  1.00  0.00     0.059 C 
BRANCH   2   3
HETATM    3  C2  UNL     1     -14.773 -20.634  15.324  1.00  0.00    -0.017 C 
HETATM    4  C1  UNL     1     -13.243 -20.406  15.503  1.00  0.00     0.010 C 
HETATM    5  C3  UNL     1     -15.315 -19.287  14.801  1.00  0.00     0.010 C 
ENDBRANCH   2   3
ENDBRANCH   1   2
BRANCH   1   6
HETATM    6  C6  UNL     1     -16.840 -22.792  15.947  1.00  0.00     0.134 C 
BRANCH   6   7
HETATM    7  N1  UNL     1     -16.904 -24.273  15.888  1.00  0.00    -0.343 N 
HETATM    8  C7  UNL     1     -18.090 -24.963  16.149  1.00  0.00     0.310 C 
HETATM    9  O1  UNL     1     -19.124 -24.287  16.441  1.00  0.00    -0.262 OA
ATOM     10  H1  UNL     1     -16.064 -24.800  15.652  1.00  0.00     0.163 HD
BRANCH   8  11
HETATM   11  C8  UNL     1     -18.251 -26.405  16.114  1.00  0.00     0.310 C 
HETATM   12  O2  UNL     1     -17.552 -27.108  16.892  1.00  0.00    -0.262 OA
HETATM   13  N2  UNL     1     -19.156 -27.058  15.245  1.00  0.00    -0.332 N 
ATOM     14  H2  UNL     1     -19.716 -26.478  14.621  1.00  0.00     0.165 HD
BRANCH  13  15
HETATM   15  C9  UNL     1     -19.341 -28.484  15.180  1.00  0.00     0.182 C 
HETATM   16  C10 UNL     1     -18.734 -29.004  13.883  1.00  0.00     0.056 C 
BRANCH  15  17
HETATM   17  N3  UNL     1     -20.703 -28.836  15.354  1.00  0.00    -0.369 N 
HETATM   18  C11 UNL     1     -21.527 -28.996  14.227  1.00  0.00     0.086 C 
HETATM   19  C12 UNL     1     -22.321 -27.776  13.821  1.00  0.00     0.212 C 
HETATM   20  O3  UNL     1     -22.758 -27.034  14.928  1.00  0.00    -0.385 OA
HETATM   21  C13 UNL     1     -22.774 -27.849  16.063  1.00  0.00     0.187 C 
HETATM   22  C14 UNL     1     -21.361 -28.211  16.450  1.00  0.00     0.150 C 
ENDBRANCH  15  17
ENDBRANCH  13  15
ENDBRANCH   8  11
ENDBRANCH   6   7
BRANCH   6  23
HETATM   23  C15 UNL     1     -17.044 -22.329  14.589  1.00  0.00     0.006 C 
HETATM   24  C16 UNL     1     -18.314 -21.566  14.273  1.00  0.00     0.012 C 
HETATM   25  C17 UNL     1     -16.579 -23.124  13.423  1.00  0.00     0.012 C 
ENDBRANCH   6  23
ENDBRANCH   1   6
BRANCH   1  26
HETATM   26  N4  UNL     1     -15.706 -22.742  18.163  1.00  0.00    -0.352 N 
HETATM   27  C18 UNL     1     -16.782 -23.392  18.783  1.00  0.00     0.065 C 
HETATM   28  C19 UNL     1     -16.127 -24.431  19.662  1.00  0.00     0.047 C 
HETATM   29  C20 UNL     1     -14.768 -23.868  19.944  1.00  0.00     0.040 C 
HETATM   30  C21 UNL     1     -14.735 -22.561  19.105  1.00  0.00     0.181 C 
BRANCH  30  31
HETATM   31  C22 UNL     1     -13.367 -22.190  18.836  1.00  0.00     0.241 C 
HETATM   32  O4  UNL     1     -12.569 -22.861  18.166  1.00  0.00    -0.271 OA
HETATM   33  N5  UNL     1     -12.873 -20.969  19.366  1.00  0.00    -0.346 N 
ATOM     34  H5  UNL     1     -13.505 -20.394  19.924  1.00  0.00     0.163 HD
BRANCH  33  35
HETATM   35  C23 UNL     1     -11.498 -20.491  19.154  1.00  0.00     0.180 C 
BRANCH  35  36
HETATM   36  C24 UNL     1     -11.616 -19.234  18.405  1.00  0.00     0.243 C 
HETATM   37  O5  UNL     1     -12.697 -18.552  18.602  1.00  0.00    -0.271 OA
HETATM   38  N6  UNL     1     -10.733 -18.646  17.490  1.00  0.00    -0.350 N 
HETATM   39  C25 UNL     1      -9.506 -19.259  17.091  1.00  0.00     0.126 C 
HETATM   40  C29 UNL     1     -11.011 -17.344  16.865  1.00  0.00     0.126 C 
HETATM   41  C26 UNL     1      -9.209 -18.983  15.616  1.00  0.00     0.020 C 
HETATM   42  C27 UNL     1      -9.055 -17.514  15.356  1.00  0.00     0.003 C 
HETATM   43  C28 UNL     1      -9.708 -16.698  16.420  1.00  0.00     0.020 C 
ENDBRANCH  35  36
BRANCH  35  44
HETATM   44  C30 UNL     1     -10.915 -20.248  20.565  1.00  0.00     0.009 C 
HETATM   45  C31 UNL     1     -10.403 -18.865  20.751  1.00  0.00     0.012 C 
HETATM   46  C32 UNL     1      -9.992 -21.317  21.035  1.00  0.00     0.012 C 
ENDBRANCH  35  44
ENDBRANCH  33  35
ENDBRANCH  30  31
ENDBRANCH   1  26
TORSDOF 13
ENDMDL
