MODEL 1
REMARK VINA RESULT: -9.495317171      0.000      0.000
REMARK  15 active torsions:
REMARK  status: ('A' for Active; 'I' for Inactive)
REMARK    1  A    between atoms: N3_4  and  C2_6 
REMARK    2  A    between atoms: C2_6  and  C3_7 
REMARK    3  A    between atoms: C3_7  and  C4_8 
REMARK    4  A    between atoms: C4_8  and  C5_9 
REMARK    5  A    between atoms: C16_22  and  C17_23 
REMARK    6  A    between atoms: C18_24  and  C19_25 
REMARK    7  A    between atoms: C19_25  and  C20_26 
REMARK    8  A    between atoms: C20_26  and  C21_27 
REMARK    9  A    between atoms: C21_27  and  C22_28 
REMARK   10  A    between atoms: C22_28  and  C23_29 
REMARK   11  A    between atoms: C23_29  and  C24_30 
REMARK   12  A    between atoms: C24_30  and  C25_31 
REMARK       I    between atoms: C25_31  and  N4_33 
REMARK   13  A    between atoms: C30_39  and  O5_40 
REMARK   14  A    between atoms: N5_42  and  N6_43 
REMARK   15  A    between atoms: C31_46  and  O6_47 
ROOT
HETATM    1  C5  UNL     1     -14.460 -20.861  15.340  1.00  0.00     0.062 C 
HETATM    2  C6  UNL     1     -15.719 -21.219  14.547  1.00  0.00     0.013 C 
HETATM    3  C7  UNL     1     -16.840 -21.714  15.427  1.00  0.00     0.001 C 
HETATM    4  C8  UNL     1     -17.614 -22.853  14.802  1.00  0.00     0.004 C 
HETATM    5  C9  UNL     1     -17.572 -24.101  15.651  1.00  0.00     0.027 C 
HETATM    6  C10 UNL     1     -18.453 -23.974  16.842  1.00  0.00    -0.031 C 
HETATM    7  C11 UNL     1     -18.327 -24.710  17.939  1.00  0.00    -0.031 C 
HETATM    8  C12 UNL     1     -17.294 -25.764  18.137  1.00  0.00     0.027 C 
HETATM    9  C13 UNL     1     -16.603 -25.650  19.463  1.00  0.00     0.013 C 
HETATM   10  C14 UNL     1     -15.717 -24.462  19.625  1.00  0.00     0.111 C 
HETATM   11  C15 UNL     1     -14.664 -24.375  18.589  1.00  0.00     0.259 C 
HETATM   12  O1  UNL     1     -14.241 -25.495  18.150  1.00  0.00    -0.265 OA
HETATM   13  O2  UNL     1     -14.195 -23.206  18.147  1.00  0.00    -0.304 OA
HETATM   14  C16 UNL     1     -13.534 -22.129  18.697  1.00  0.00     0.230 C 
HETATM   15  C30 UNL     1     -14.304 -20.858  18.729  1.00  0.00     0.172 C 
HETATM   16  N5  UNL     1     -14.445 -19.874  17.748  1.00  0.00    -0.223 N 
HETATM   17  C31 UNL     1     -14.814 -19.892  16.397  1.00  0.00     0.143 C 
ENDROOT
BRANCH  14  18
HETATM   18  C17 UNL     1     -12.176 -21.994  18.089  1.00  0.00     0.010 C 
HETATM   19  C18 UNL     1     -11.086 -21.614  18.684  1.00  0.00    -0.028 C 
BRANCH  19  20
HETATM   20  C19 UNL     1     -10.999 -21.237  20.103  1.00  0.00     0.027 C 
BRANCH  20  21
HETATM   21  C20 UNL     1      -9.637 -21.608  20.678  1.00  0.00     0.004 C 
BRANCH  21  22
HETATM   22  C21 UNL     1      -9.332 -20.757  21.869  1.00  0.00     0.000 C 
BRANCH  22  23
HETATM   23  C22 UNL     1      -8.884 -19.362  21.551  1.00  0.00     0.000 C 
BRANCH  23  24
HETATM   24  C23 UNL     1      -7.459 -19.348  21.063  1.00  0.00     0.009 C 
BRANCH  24  25
HETATM   25  C24 UNL     1      -6.779 -18.014  21.197  1.00  0.00     0.103 C 
BRANCH  25  26
HETATM   26  C25 UNL     1      -6.009 -17.715  19.962  1.00  0.00     0.219 C 
HETATM   27  O3  UNL     1      -5.033 -18.427  19.640  1.00  0.00    -0.273 OA
HETATM   28  N4  UNL     1      -6.373 -16.628  19.144  1.00  0.00    -0.348 N 
HETATM   29  C26 UNL     1      -5.608 -16.351  17.927  1.00  0.00     0.152 C 
HETATM   30  C29 UNL     1      -7.504 -15.745  19.457  1.00  0.00     0.152 C 
HETATM   31  C27 UNL     1      -6.575 -15.965  16.816  1.00  0.00     0.187 C 
HETATM   32  O4  UNL     1      -7.435 -14.950  17.219  1.00  0.00    -0.388 OA
HETATM   33  C28 UNL     1      -8.291 -15.475  18.185  1.00  0.00     0.187 C 
ENDBRANCH  25  26
ENDBRANCH  24  25
ENDBRANCH  23  24
ENDBRANCH  22  23
ENDBRANCH  21  22
ENDBRANCH  20  21
ENDBRANCH  19  20
ENDBRANCH  14  18
BRANCH  15  34
HETATM   34  O5  UNL     1     -14.911 -20.708  19.877  1.00  0.00    -0.346 OA
ATOM     35  H5  UNL     1     -15.780 -21.090  19.854  1.00  0.00     0.219 HD
ENDBRANCH  15  34
BRANCH  16  36
HETATM   36  N6  UNL     1     -14.165 -18.537  18.219  1.00  0.00    -0.335 N 
ATOM     37  H62 UNL     1     -14.532 -18.374  19.157  1.00  0.00     0.177 HD
ATOM     38  H61 UNL     1     -13.640 -17.968  17.554  1.00  0.00     0.177 HD
ENDBRANCH  16  36
BRANCH  17  39
HETATM   39  O6  UNL     1     -15.582 -18.964  15.888  1.00  0.00    -0.348 OA
ATOM     40  H6  UNL     1     -16.481 -19.126  16.149  1.00  0.00     0.219 HD
ENDBRANCH  17  39
BRANCH   1  41
HETATM   41  C4  UNL     1     -13.441 -20.358  14.349  1.00  0.00     0.014 C 
BRANCH  41  42
HETATM   42  C3  UNL     1     -12.045 -20.283  14.828  1.00  0.00     0.020 C 
BRANCH  42  43
HETATM   43  C2  UNL     1     -11.625 -18.842  15.155  1.00  0.00     0.122 C 
BRANCH  43  44
HETATM   44  N3  UNL     1     -10.372 -18.993  15.903  1.00  0.00    -0.367 N 
HETATM   45  C1  UNL     1     -10.223 -18.606  17.114  1.00  0.00     0.196 C 
HETATM   46  N1  UNL     1     -11.286 -17.991  17.830  1.00  0.00    -0.067 NA
HETATM   47  N2  UNL     1      -8.974 -18.798  17.742  1.00  0.00    -0.067 NA
ATOM     48  H3  UNL     1      -9.578 -19.430  15.434  1.00  0.00     0.161 HD
ENDBRANCH  43  44
ENDBRANCH  42  43
ENDBRANCH  41  42
ENDBRANCH   1  41
TORSDOF 15
ENDMDL
MODEL 2
REMARK VINA RESULT: -9.302194344      2.586     10.483
REMARK  15 active torsions:
REMARK  status: ('A' for Active; 'I' for Inactive)
REMARK    1  A    between atoms: N3_4  and  C2_6 
REMARK    2  A    between atoms: C2_6  and  C3_7 
REMARK    3  A    between atoms: C3_7  and  C4_8 
REMARK    4  A    between atoms: C4_8  and  C5_9 
REMARK    5  A    between atoms: C16_22  and  C17_23 
REMARK    6  A    between atoms: C18_24  and  C19_25 
REMARK    7  A    between atoms: C19_25  and  C20_26 
REMARK    8  A    between atoms: C20_26  and  C21_27 
REMARK    9  A    between atoms: C21_27  and  C22_28 
REMARK   10  A    between atoms: C22_28  and  C23_29 
REMARK   11  A    between atoms: C23_29  and  C24_30 
REMARK   12  A    between atoms: C24_30  and  C25_31 
REMARK       I    between atoms: C25_31  and  N4_33 
REMARK   13  A    between atoms: C30_39  and  O5_40 
REMARK   14  A    between atoms: N5_42  and  N6_43 
REMARK   15  A    between atoms: C31_46  and  O6_47 
ROOT
HETATM    1  C5  UNL     1     -10.195 -19.449  19.319  1.00  0.00     0.062 C 
HETATM    2  C6  UNL     1      -9.110 -18.708  20.103  1.00  0.00     0.013 C 
HETATM    3  C7  UNL     1      -8.819 -17.338  19.542  1.00  0.00     0.001 C 
HETATM    4  C8  UNL     1      -7.346 -16.995  19.575  1.00  0.00     0.004 C 
HETATM    5  C9  UNL     1      -6.797 -16.716  18.196  1.00  0.00     0.027 C 
HETATM    6  C10 UNL     1      -7.237 -15.385  17.699  1.00  0.00    -0.031 C 
HETATM    7  C11 UNL     1      -7.251 -15.040  16.417  1.00  0.00    -0.031 C 
HETATM    8  C12 UNL     1      -6.831 -15.926  15.297  1.00  0.00     0.027 C 
HETATM    9  C13 UNL     1      -7.817 -15.934  14.168  1.00  0.00     0.013 C 
HETATM   10  C14 UNL     1      -9.126 -16.584  14.465  1.00  0.00     0.111 C 
HETATM   11  C15 UNL     1      -8.990 -17.986  14.919  1.00  0.00     0.259 C 
HETATM   12  O1  UNL     1      -8.001 -18.623  14.428  1.00  0.00    -0.265 OA
HETATM   13  O2  UNL     1      -9.844 -18.541  15.783  1.00  0.00    -0.304 OA
HETATM   14  C16 UNL     1     -11.193 -18.820  15.805  1.00  0.00     0.230 C 
HETATM   15  C30 UNL     1     -11.987 -18.052  16.799  1.00  0.00     0.172 C 
HETATM   16  N5  UNL     1     -12.227 -18.318  18.149  1.00  0.00    -0.223 N 
HETATM   17  C31 UNL     1     -11.403 -18.603  19.247  1.00  0.00     0.143 C 
ENDROOT
BRANCH  14  18
HETATM   18  C17 UNL     1     -11.410 -20.297  15.875  1.00  0.00     0.010 C 
HETATM   19  C18 UNL     1     -12.464 -20.952  15.492  1.00  0.00    -0.028 C 
BRANCH  19  20
HETATM   20  C19 UNL     1     -13.664 -20.334  14.907  1.00  0.00     0.027 C 
BRANCH  20  21
HETATM   21  C20 UNL     1     -14.177 -21.155  13.730  1.00  0.00     0.004 C 
BRANCH  21  22
HETATM   22  C21 UNL     1     -14.738 -22.454  14.214  1.00  0.00     0.000 C 
BRANCH  22  23
HETATM   23  C22 UNL     1     -16.218 -22.609  14.037  1.00  0.00     0.000 C 
BRANCH  23  24
HETATM   24  C23 UNL     1     -16.965 -22.097  15.242  1.00  0.00     0.009 C 
BRANCH  24  25
HETATM   25  C24 UNL     1     -18.328 -22.704  15.420  1.00  0.00     0.103 C 
BRANCH  25  26
HETATM   26  C25 UNL     1     -18.342 -23.563  16.634  1.00  0.00     0.219 C 
HETATM   27  O3  UNL     1     -18.427 -23.047  17.769  1.00  0.00    -0.273 OA
HETATM   28  N4  UNL     1     -18.261 -24.963  16.514  1.00  0.00    -0.348 N 
HETATM   29  C26 UNL     1     -18.282 -25.794  17.718  1.00  0.00     0.152 C 
HETATM   30  C29 UNL     1     -18.155 -25.643  15.216  1.00  0.00     0.152 C 
HETATM   31  C27 UNL     1     -19.144 -27.022  17.453  1.00  0.00     0.187 C 
HETATM   32  O4  UNL     1     -18.756 -27.676  16.290  1.00  0.00    -0.388 OA
HETATM   33  C28 UNL     1     -19.075 -26.853  15.212  1.00  0.00     0.187 C 
ENDBRANCH  25  26
ENDBRANCH  24  25
ENDBRANCH  23  24
ENDBRANCH  22  23
ENDBRANCH  21  22
ENDBRANCH  20  21
ENDBRANCH  19  20
ENDBRANCH  14  18
BRANCH  15  34
HETATM   34  O5  UNL     1     -12.508 -16.984  16.255  1.00  0.00    -0.346 OA
ATOM     35  H5  UNL     1     -13.445 -16.946  16.411  1.00  0.00     0.219 HD
ENDBRANCH  15  34
BRANCH  16  36
HETATM   36  N6  UNL     1     -13.624 -18.281  18.512  1.00  0.00    -0.335 N 
ATOM     37  H62 UNL     1     -13.980 -17.327  18.578  1.00  0.00     0.177 HD
ATOM     38  H61 UNL     1     -14.042 -19.203  18.636  1.00  0.00     0.177 HD
ENDBRANCH  16  36
BRANCH  17  39
HETATM   39  O6  UNL     1     -11.645 -18.099  20.429  1.00  0.00    -0.348 OA
ATOM     40  H6  UNL     1     -11.371 -17.190  20.442  1.00  0.00     0.219 HD
ENDBRANCH  17  39
BRANCH   1  41
HETATM   41  C4  UNL     1     -10.404 -20.777  20.001  1.00  0.00     0.014 C 
BRANCH  41  42
HETATM   42  C3  UNL     1     -11.139 -21.800  19.227  1.00  0.00     0.020 C 
BRANCH  42  43
HETATM   43  C2  UNL     1     -12.660 -21.603  19.309  1.00  0.00     0.122 C 
BRANCH  43  44
HETATM   44  N3  UNL     1     -13.212 -22.759  18.593  1.00  0.00    -0.367 N 
HETATM   45  C1  UNL     1     -14.428 -22.829  18.198  1.00  0.00     0.196 C 
HETATM   46  N1  UNL     1     -15.344 -21.767  18.433  1.00  0.00    -0.067 NA
HETATM   47  N2  UNL     1     -14.857 -23.987  17.517  1.00  0.00    -0.067 NA
ATOM     48  H3  UNL     1     -12.595 -23.547  18.399  1.00  0.00     0.161 HD
ENDBRANCH  43  44
ENDBRANCH  42  43
ENDBRANCH  41  42
ENDBRANCH   1  41
TORSDOF 15
ENDMDL
MODEL 3
REMARK VINA RESULT: -9.292147532      1.080      1.249
REMARK  15 active torsions:
REMARK  status: ('A' for Active; 'I' for Inactive)
REMARK    1  A    between atoms: N3_4  and  C2_6 
REMARK    2  A    between atoms: C2_6  and  C3_7 
REMARK    3  A    between atoms: C3_7  and  C4_8 
REMARK    4  A    between atoms: C4_8  and  C5_9 
REMARK    5  A    between atoms: C16_22  and  C17_23 
REMARK    6  A    between atoms: C18_24  and  C19_25 
REMARK    7  A    between atoms: C19_25  and  C20_26 
REMARK    8  A    between atoms: C20_26  and  C21_27 
REMARK    9  A    between atoms: C21_27  and  C22_28 
REMARK   10  A    between atoms: C22_28  and  C23_29 
REMARK   11  A    between atoms: C23_29  and  C24_30 
REMARK   12  A    between atoms: C24_30  and  C25_31 
REMARK       I    between atoms: C25_31  and  N4_33 
REMARK   13  A    between atoms: C30_39  and  O5_40 
REMARK   14  A    between atoms: N5_42  and  N6_43 
REMARK   15  A    between atoms: C31_46  and  O6_47 
ROOT
HETATM    1  C5  UNL     1     -13.919 -20.733  15.322  1.00  0.00     0.062 C 
HETATM    2  C6  UNL     1     -15.067 -21.013  14.351  1.00  0.00     0.013 C 
HETATM    3  C7  UNL     1     -16.330 -21.448  15.053  1.00  0.00     0.001 C 
HETATM    4  C8  UNL     1     -17.067 -22.537  14.306  1.00  0.00     0.004 C 
HETATM    5  C9  UNL     1     -17.218 -23.792  15.133  1.00  0.00     0.027 C 
HETATM    6  C10 UNL     1     -18.254 -23.622  16.187  1.00  0.00    -0.031 C 
HETATM    7  C11 UNL     1     -18.329 -24.372  17.279  1.00  0.00    -0.031 C 
HETATM    8  C12 UNL     1     -17.395 -25.485  17.608  1.00  0.00     0.027 C 
HETATM    9  C13 UNL     1     -16.898 -25.420  19.021  1.00  0.00     0.013 C 
HETATM   10  C14 UNL     1     -15.981 -24.285  19.327  1.00  0.00     0.111 C 
HETATM   11  C15 UNL     1     -14.786 -24.252  18.455  1.00  0.00     0.259 C 
HETATM   12  O1  UNL     1     -14.366 -25.390  18.064  1.00  0.00    -0.265 OA
HETATM   13  O2  UNL     1     -14.193 -23.108  18.103  1.00  0.00    -0.304 OA
HETATM   14  C16 UNL     1     -13.560 -22.075  18.759  1.00  0.00     0.230 C 
HETATM   15  C30 UNL     1     -14.254 -20.762  18.699  1.00  0.00     0.172 C 
HETATM   16  N5  UNL     1     -14.197 -19.764  17.723  1.00  0.00    -0.223 N 
HETATM   17  C31 UNL     1     -14.367 -19.752  16.332  1.00  0.00     0.143 C 
ENDROOT
BRANCH  14  18
HETATM   18  C17 UNL     1     -12.123 -22.013  18.354  1.00  0.00     0.010 C 
HETATM   19  C18 UNL     1     -11.155 -21.426  18.992  1.00  0.00    -0.028 C 
BRANCH  19  20
HETATM   20  C19 UNL     1     -11.312 -20.697  20.259  1.00  0.00     0.027 C 
BRANCH  20  21
HETATM   21  C20 UNL     1     -10.960 -19.224  20.083  1.00  0.00     0.004 C 
BRANCH  21  22
HETATM   22  C21 UNL     1     -10.041 -18.781  21.175  1.00  0.00     0.000 C 
BRANCH  22  23
HETATM   23  C22 UNL     1      -9.058 -19.815  21.634  1.00  0.00     0.000 C 
BRANCH  23  24
HETATM   24  C23 UNL     1      -7.644 -19.390  21.334  1.00  0.00     0.009 C 
BRANCH  24  25
HETATM   25  C24 UNL     1      -7.410 -17.911  21.463  1.00  0.00     0.103 C 
BRANCH  25  26
HETATM   26  C25 UNL     1      -6.300 -17.496  20.566  1.00  0.00     0.219 C 
HETATM   27  O3  UNL     1      -5.171 -18.023  20.676  1.00  0.00    -0.273 OA
HETATM   28  N4  UNL     1      -6.511 -16.509  19.585  1.00  0.00    -0.348 N 
HETATM   29  C26 UNL     1      -5.409 -16.117  18.705  1.00  0.00     0.152 C 
HETATM   30  C29 UNL     1      -7.806 -15.843  19.397  1.00  0.00     0.152 C 
HETATM   31  C27 UNL     1      -5.949 -15.934  17.293  1.00  0.00     0.187 C 
HETATM   32  O4  UNL     1      -7.051 -15.086  17.274  1.00  0.00    -0.388 OA
HETATM   33  C28 UNL     1      -8.103 -15.743  17.909  1.00  0.00     0.187 C 
ENDBRANCH  25  26
ENDBRANCH  24  25
ENDBRANCH  23  24
ENDBRANCH  22  23
ENDBRANCH  21  22
ENDBRANCH  20  21
ENDBRANCH  19  20
ENDBRANCH  14  18
BRANCH  15  34
HETATM   34  O5  UNL     1     -15.012 -20.586  19.750  1.00  0.00    -0.346 OA
ATOM     35  H5  UNL     1     -15.062 -19.666  19.981  1.00  0.00     0.219 HD
ENDBRANCH  15  34
BRANCH  16  36
HETATM   36  N6  UNL     1     -13.914 -18.449  18.249  1.00  0.00    -0.335 N 
ATOM     37  H62 UNL     1     -14.720 -18.044  18.725  1.00  0.00     0.177 HD
ATOM     38  H61 UNL     1     -12.960 -18.132  18.076  1.00  0.00     0.177 HD
ENDBRANCH  16  36
BRANCH  17  39
HETATM   39  O6  UNL     1     -15.001 -18.778  15.732  1.00  0.00    -0.348 OA
ATOM     40  H6  UNL     1     -14.857 -17.971  16.211  1.00  0.00     0.219 HD
ENDBRANCH  17  39
BRANCH   1  41
HETATM   41  C4  UNL     1     -12.740 -20.282  14.496  1.00  0.00     0.014 C 
BRANCH  41  42
HETATM   42  C3  UNL     1     -11.519 -19.919  15.244  1.00  0.00     0.020 C 
BRANCH  42  43
HETATM   43  C2  UNL     1     -11.343 -18.397  15.358  1.00  0.00     0.122 C 
BRANCH  43  44
HETATM   44  N3  UNL     1      -9.906 -18.184  15.151  1.00  0.00    -0.367 N 
HETATM   45  C1  UNL     1      -9.415 -17.105  14.667  1.00  0.00     0.196 C 
HETATM   46  N1  UNL     1     -10.249 -16.018  14.289  1.00  0.00    -0.067 NA
HETATM   47  N2  UNL     1      -8.017 -17.004  14.509  1.00  0.00    -0.067 NA
ATOM     48  H3  UNL     1      -9.264 -18.934  15.408  1.00  0.00     0.161 HD
ENDBRANCH  43  44
ENDBRANCH  42  43
ENDBRANCH  41  42
ENDBRANCH   1  41
TORSDOF 15
ENDMDL
MODEL 4
REMARK VINA RESULT: -9.257879195      0.834      1.440
REMARK  15 active torsions:
REMARK  status: ('A' for Active; 'I' for Inactive)
REMARK    1  A    between atoms: N3_4  and  C2_6 
REMARK    2  A    between atoms: C2_6  and  C3_7 
REMARK    3  A    between atoms: C3_7  and  C4_8 
REMARK    4  A    between atoms: C4_8  and  C5_9 
REMARK    5  A    between atoms: C16_22  and  C17_23 
REMARK    6  A    between atoms: C18_24  and  C19_25 
REMARK    7  A    between atoms: C19_25  and  C20_26 
REMARK    8  A    between atoms: C20_26  and  C21_27 
REMARK    9  A    between atoms: C21_27  and  C22_28 
REMARK   10  A    between atoms: C22_28  and  C23_29 
REMARK   11  A    between atoms: C23_29  and  C24_30 
REMARK   12  A    between atoms: C24_30  and  C25_31 
REMARK       I    between atoms: C25_31  and  N4_33 
REMARK   13  A    between atoms: C30_39  and  O5_40 
REMARK   14  A    between atoms: N5_42  and  N6_43 
REMARK   15  A    between atoms: C31_46  and  O6_47 
ROOT
HETATM    1  C5  UNL     1     -14.386 -20.833  15.310  1.00  0.00     0.062 C 
HETATM    2  C6  UNL     1     -15.598 -21.216  14.459  1.00  0.00     0.013 C 
HETATM    3  C7  UNL     1     -16.761 -21.701  15.289  1.00  0.00     0.001 C 
HETATM    4  C8  UNL     1     -17.494 -22.858  14.648  1.00  0.00     0.004 C 
HETATM    5  C9  UNL     1     -17.489 -24.089  15.523  1.00  0.00     0.027 C 
HETATM    6  C10 UNL     1     -18.433 -23.943  16.663  1.00  0.00    -0.031 C 
HETATM    7  C11 UNL     1     -18.361 -24.656  17.780  1.00  0.00    -0.031 C 
HETATM    8  C12 UNL     1     -17.333 -25.699  18.054  1.00  0.00     0.027 C 
HETATM    9  C13 UNL     1     -16.713 -25.553  19.412  1.00  0.00     0.013 C 
HETATM   10  C14 UNL     1     -15.845 -24.355  19.596  1.00  0.00     0.111 C 
HETATM   11  C15 UNL     1     -14.739 -24.282  18.615  1.00  0.00     0.259 C 
HETATM   12  O1  UNL     1     -14.287 -25.406  18.222  1.00  0.00    -0.265 OA
HETATM   13  O2  UNL     1     -14.254 -23.118  18.175  1.00  0.00    -0.304 OA
HETATM   14  C16 UNL     1     -13.631 -22.025  18.737  1.00  0.00     0.230 C 
HETATM   15  C30 UNL     1     -14.409 -20.759  18.702  1.00  0.00     0.172 C 
HETATM   16  N5  UNL     1     -14.504 -19.796  17.695  1.00  0.00    -0.223 N 
HETATM   17  C31 UNL     1     -14.801 -19.845  16.326  1.00  0.00     0.143 C 
ENDROOT
BRANCH  14  18
HETATM   18  C17 UNL     1     -12.243 -21.892  18.198  1.00  0.00     0.010 C 
HETATM   19  C18 UNL     1     -11.188 -21.497  18.844  1.00  0.00    -0.028 C 
BRANCH  19  20
HETATM   20  C19 UNL     1     -11.177 -21.097  20.259  1.00  0.00     0.027 C 
BRANCH  20  21
HETATM   21  C20 UNL     1      -9.850 -21.462  20.914  1.00  0.00     0.004 C 
BRANCH  21  22
HETATM   22  C21 UNL     1      -8.795 -20.478  20.523  1.00  0.00     0.000 C 
BRANCH  22  23
HETATM   23  C22 UNL     1      -8.282 -19.622  21.643  1.00  0.00     0.000 C 
BRANCH  23  24
HETATM   24  C23 UNL     1      -8.653 -18.177  21.434  1.00  0.00     0.009 C 
BRANCH  24  25
HETATM   25  C24 UNL     1      -7.510 -17.219  21.622  1.00  0.00     0.103 C 
BRANCH  25  26
HETATM   26  C25 UNL     1      -7.255 -16.484  20.356  1.00  0.00     0.219 C 
HETATM   27  O3  UNL     1      -7.927 -15.469  20.070  1.00  0.00    -0.273 OA
HETATM   28  N4  UNL     1      -6.254 -16.924  19.469  1.00  0.00    -0.348 N 
HETATM   29  C26 UNL     1      -6.011 -16.185  18.229  1.00  0.00     0.152 C 
HETATM   30  C29 UNL     1      -5.426 -18.108  19.733  1.00  0.00     0.152 C 
HETATM   31  C27 UNL     1      -4.508 -16.106  17.991  1.00  0.00     0.187 C 
HETATM   32  O4  UNL     1      -3.915 -17.362  18.058  1.00  0.00    -0.388 OA
HETATM   33  C28 UNL     1      -3.981 -17.794  19.381  1.00  0.00     0.187 C 
ENDBRANCH  25  26
ENDBRANCH  24  25
ENDBRANCH  23  24
ENDBRANCH  22  23
ENDBRANCH  21  22
ENDBRANCH  20  21
ENDBRANCH  19  20
ENDBRANCH  14  18
BRANCH  15  34
HETATM   34  O5  UNL     1     -15.077 -20.591  19.813  1.00  0.00    -0.346 OA
ATOM     35  H5  UNL     1     -15.523 -19.753  19.817  1.00  0.00     0.219 HD
ENDBRANCH  15  34
BRANCH  16  36
HETATM   36  N6  UNL     1     -14.258 -18.448  18.152  1.00  0.00    -0.335 N 
ATOM     37  H62 UNL     1     -14.018 -18.415  19.143  1.00  0.00     0.177 HD
ATOM     38  H61 UNL     1     -14.351 -17.742  17.421  1.00  0.00     0.177 HD
ENDBRANCH  16  36
BRANCH  17  39
HETATM   39  O6  UNL     1     -15.547 -18.933  15.758  1.00  0.00    -0.348 OA
ATOM     40  H6  UNL     1     -16.306 -19.351  15.368  1.00  0.00     0.219 HD
ENDBRANCH  17  39
BRANCH   1  41
HETATM   41  C4  UNL     1     -13.319 -20.342  14.364  1.00  0.00     0.014 C 
BRANCH  41  42
HETATM   42  C3  UNL     1     -11.979 -20.121  14.948  1.00  0.00     0.020 C 
BRANCH  42  43
HETATM   43  C2  UNL     1     -11.677 -18.628  15.148  1.00  0.00     0.122 C 
BRANCH  43  44
HETATM   44  N3  UNL     1     -10.374 -18.611  15.823  1.00  0.00    -0.367 N 
HETATM   45  C1  UNL     1     -10.227 -18.339  17.065  1.00  0.00     0.196 C 
HETATM   46  N1  UNL     1     -11.342 -18.028  17.891  1.00  0.00    -0.067 NA
HETATM   47  N2  UNL     1      -8.928 -18.350  17.615  1.00  0.00    -0.067 NA
ATOM     48  H3  UNL     1      -9.543 -18.828  15.274  1.00  0.00     0.161 HD
ENDBRANCH  43  44
ENDBRANCH  42  43
ENDBRANCH  41  42
ENDBRANCH   1  41
TORSDOF 15
ENDMDL
MODEL 5
REMARK VINA RESULT: -9.234977323      2.748      7.226
REMARK  15 active torsions:
REMARK  status: ('A' for Active; 'I' for Inactive)
REMARK    1  A    between atoms: N3_4  and  C2_6 
REMARK    2  A    between atoms: C2_6  and  C3_7 
REMARK    3  A    between atoms: C3_7  and  C4_8 
REMARK    4  A    between atoms: C4_8  and  C5_9 
REMARK    5  A    between atoms: C16_22  and  C17_23 
REMARK    6  A    between atoms: C18_24  and  C19_25 
REMARK    7  A    between atoms: C19_25  and  C20_26 
REMARK    8  A    between atoms: C20_26  and  C21_27 
REMARK    9  A    between atoms: C21_27  and  C22_28 
REMARK   10  A    between atoms: C22_28  and  C23_29 
REMARK   11  A    between atoms: C23_29  and  C24_30 
REMARK   12  A    between atoms: C24_30  and  C25_31 
REMARK       I    between atoms: C25_31  and  N4_33 
REMARK   13  A    between atoms: C30_39  and  O5_40 
REMARK   14  A    between atoms: N5_42  and  N6_43 
REMARK   15  A    between atoms: C31_46  and  O6_47 
ROOT
HETATM    1  C5  UNL     1     -12.245 -21.316  18.045  1.00  0.00     0.062 C 
HETATM    2  C6  UNL     1     -11.606 -22.042  19.231  1.00  0.00     0.013 C 
HETATM    3  C7  UNL     1     -11.121 -21.095  20.300  1.00  0.00     0.001 C 
HETATM    4  C8  UNL     1      -9.807 -21.528  20.911  1.00  0.00     0.004 C 
HETATM    5  C9  UNL     1      -8.726 -20.489  20.731  1.00  0.00     0.027 C 
HETATM    6  C10 UNL     1      -8.930 -19.335  21.647  1.00  0.00    -0.031 C 
HETATM    7  C11 UNL     1      -8.400 -18.133  21.454  1.00  0.00    -0.031 C 
HETATM    8  C12 UNL     1      -7.532 -17.766  20.301  1.00  0.00     0.027 C 
HETATM    9  C13 UNL     1      -7.944 -16.475  19.659  1.00  0.00     0.013 C 
HETATM   10  C14 UNL     1      -9.246 -16.506  18.933  1.00  0.00     0.111 C 
HETATM   11  C15 UNL     1      -9.299 -17.542  17.877  1.00  0.00     0.259 C 
HETATM   12  O1  UNL     1      -8.187 -17.794  17.307  1.00  0.00    -0.265 OA
HETATM   13  O2  UNL     1     -10.433 -18.166  17.549  1.00  0.00    -0.304 OA
HETATM   14  C16 UNL     1     -11.659 -17.796  17.041  1.00  0.00     0.230 C 
HETATM   15  C30 UNL     1     -12.811 -17.971  17.964  1.00  0.00     0.172 C 
HETATM   16  N5  UNL     1     -13.599 -19.098  18.206  1.00  0.00    -0.223 N 
HETATM   17  C31 UNL     1     -13.317 -20.430  18.541  1.00  0.00     0.143 C 
ENDROOT
BRANCH  14  18
HETATM   18  C17 UNL     1     -11.868 -18.417  15.697  1.00  0.00     0.010 C 
HETATM   19  C18 UNL     1     -11.424 -17.982  14.557  1.00  0.00    -0.028 C 
BRANCH  19  20
HETATM   20  C19 UNL     1     -10.618 -16.763  14.386  1.00  0.00     0.027 C 
BRANCH  20  21
HETATM   21  C20 UNL     1      -9.158 -17.114  14.119  1.00  0.00     0.004 C 
BRANCH  21  22
HETATM   22  C21 UNL     1      -8.352 -15.866  13.948  1.00  0.00     0.000 C 
BRANCH  22  23
HETATM   23  C22 UNL     1      -8.489 -14.867  15.058  1.00  0.00     0.000 C 
BRANCH  23  24
HETATM   24  C23 UNL     1      -7.153 -14.269  15.415  1.00  0.00     0.009 C 
BRANCH  24  25
HETATM   25  C24 UNL     1      -6.450 -14.973  16.542  1.00  0.00     0.103 C 
BRANCH  25  26
HETATM   26  C25 UNL     1      -5.282 -15.727  16.014  1.00  0.00     0.219 C 
HETATM   27  O3  UNL     1      -5.433 -16.878  15.550  1.00  0.00    -0.273 OA
HETATM   28  N4  UNL     1      -3.998 -15.151  16.032  1.00  0.00    -0.348 N 
HETATM   29  C26 UNL     1      -2.860 -15.904  15.503  1.00  0.00     0.152 C 
HETATM   30  C29 UNL     1      -3.740 -13.806  16.564  1.00  0.00     0.152 C 
HETATM   31  C27 UNL     1      -1.966 -14.955  14.715  1.00  0.00     0.187 C 
HETATM   32  O4  UNL     1      -1.636 -13.829  15.460  1.00  0.00    -0.388 OA
HETATM   33  C28 UNL     1      -2.794 -13.073  15.627  1.00  0.00     0.187 C 
ENDBRANCH  25  26
ENDBRANCH  24  25
ENDBRANCH  23  24
ENDBRANCH  22  23
ENDBRANCH  21  22
ENDBRANCH  20  21
ENDBRANCH  19  20
ENDBRANCH  14  18
BRANCH  15  34
HETATM   34  O5  UNL     1     -13.063 -16.863  18.610  1.00  0.00    -0.346 OA
ATOM     35  H5  UNL     1     -13.485 -17.044  19.442  1.00  0.00     0.219 HD
ENDBRANCH  15  34
BRANCH  16  36
HETATM   36  N6  UNL     1     -15.018 -18.850  18.107  1.00  0.00    -0.335 N 
ATOM     37  H62 UNL     1     -15.272 -17.924  18.453  1.00  0.00     0.177 HD
ATOM     38  H61 UNL     1     -15.545 -19.624  17.702  1.00  0.00     0.177 HD
ENDBRANCH  16  36
BRANCH  17  39
HETATM   39  O6  UNL     1     -14.046 -21.083  19.408  1.00  0.00    -0.348 OA
ATOM     40  H6  UNL     1     -14.507 -20.461  19.959  1.00  0.00     0.219 HD
ENDBRANCH  17  39
BRANCH   1  41
HETATM   41  C4  UNL     1     -12.709 -22.374  17.076  1.00  0.00     0.014 C 
BRANCH  41  42
HETATM   42  C3  UNL     1     -13.784 -21.978  16.143  1.00  0.00     0.020 C 
BRANCH  42  43
HETATM   43  C2  UNL     1     -14.980 -22.941  16.201  1.00  0.00     0.122 C 
BRANCH  43  44
HETATM   44  N3  UNL     1     -15.073 -23.315  17.617  1.00  0.00    -0.367 N 
HETATM   45  C1  UNL     1     -16.179 -23.377  18.259  1.00  0.00     0.196 C 
HETATM   46  N1  UNL     1     -17.418 -23.082  17.627  1.00  0.00    -0.067 NA
HETATM   47  N2  UNL     1     -16.157 -23.747  19.620  1.00  0.00    -0.067 NA
ATOM     48  H3  UNL     1     -14.212 -23.538  18.116  1.00  0.00     0.161 HD
ENDBRANCH  43  44
ENDBRANCH  42  43
ENDBRANCH  41  42
ENDBRANCH   1  41
TORSDOF 15
ENDMDL
