MODEL 1
REMARK VINA RESULT: -9.536271797      0.000      0.000
REMARK  16 active torsions:
REMARK  status: ('A' for Active; 'I' for Inactive)
REMARK    1  A    between atoms: C2_2  and  C3_3 
REMARK    2  A    between atoms: C3_3  and  C4_4 
REMARK    3  A    between atoms: C4_4  and  N1_5 
REMARK    4  A    between atoms: C4_4  and  C25_35 
REMARK       I    between atoms: N1_5  and  C5_7 
REMARK    5  A    between atoms: C5_7  and  C6_9 
REMARK    6  A    between atoms: N2_13  and  C10_14 
REMARK    7  A    between atoms: C10_14  and  O2_15 
REMARK    8  A    between atoms: C10_14  and  C11_17 
REMARK    9  A    between atoms: C11_17  and  N3_18 
REMARK   10  A    between atoms: C11_17  and  C19_29 
REMARK       I    between atoms: N3_18  and  C12_20 
REMARK   11  A    between atoms: C12_20  and  O4_22 
REMARK   12  A    between atoms: O4_22  and  C13_23 
REMARK   13  A    between atoms: C13_23  and  C15_25 
REMARK   14  A    between atoms: C25_35  and  C26_37 
REMARK       I    between atoms: C26_37  and  N4_39 
REMARK   15  A    between atoms: N4_39  and  C27_41 
REMARK   16  A    between atoms: C27_41  and  C28_42 
ROOT
HETATM    1  C6  UNL     1      15.412  22.547  18.737  1.00  0.00     0.183 C 
HETATM    2  C7  UNL     1      15.341  23.536  19.840  1.00  0.00     0.032 A 
HETATM    3  C8  UNL     1      14.938  24.811  19.245  1.00  0.00     0.019 A 
HETATM    4  C9  UNL     1      14.759  24.521  17.768  1.00  0.00     0.132 C 
HETATM    5  N2  UNL     1      15.427  23.312  17.462  1.00  0.00    -0.346 N 
HETATM    6  C22 UNL     1      16.210  24.704  19.953  1.00  0.00    -0.036 A 
HETATM    7  C23 UNL     1      16.228  25.401  21.324  1.00  0.00     0.016 C 
HETATM    8  C24 UNL     1      17.557  24.729  19.293  1.00  0.00     0.016 C 
ENDROOT
BRANCH   1   9
HETATM    9  C5  UNL     1      14.268  21.629  18.824  1.00  0.00     0.241 C 
HETATM   10  N1  UNL     1      12.902  21.997  18.917  1.00  0.00    -0.347 N 
ATOM     11  H1  UNL     1      12.647  22.985  18.921  1.00  0.00     0.163 HD
HETATM   12  O1  UNL     1      14.537  20.391  18.816  1.00  0.00    -0.271 OA
BRANCH  10  13
HETATM   13  C4  UNL     1      11.852  20.982  19.007  1.00  0.00     0.164 C 
BRANCH  13  14
HETATM   14  C3  UNL     1      10.795  21.475  19.963  1.00  0.00     0.033 C 
BRANCH  14  15
HETATM   15  C2  UNL     1      10.328  20.326  20.865  1.00  0.00    -0.002 C 
HETATM   16  C1  UNL     1       8.924  19.908  20.510  1.00  0.00     0.005 C 
ENDBRANCH  14  15
ENDBRANCH  13  14
BRANCH  13  17
HETATM   17  C25 UNL     1      11.230  20.720  17.695  1.00  0.00     0.238 C 
HETATM   18  O5  UNL     1      10.703  21.671  17.069  1.00  0.00    -0.285 OA
BRANCH  17  19
HETATM   19  C26 UNL     1      11.232  19.388  17.138  1.00  0.00     0.289 C 
HETATM   20  O6  UNL     1      11.490  18.379  17.841  1.00  0.00    -0.264 OA
HETATM   21  N4  UNL     1      10.944  19.121  15.764  1.00  0.00    -0.349 N 
ATOM     22  H4  UNL     1      10.723  19.900  15.144  1.00  0.00     0.163 HD
BRANCH  21  23
HETATM   23  C27 UNL     1      10.958  17.775  15.225  1.00  0.00     0.181 C 
BRANCH  23  24
HETATM   24  C28 UNL     1       9.633  17.185  15.074  1.00  0.00     0.042 A 
HETATM   25  C29 UNL     1       8.512  17.970  15.148  1.00  0.00     0.114 A 
HETATM   26  N5  UNL     1       7.287  17.407  15.011  1.00  0.00    -0.372 N 
HETATM   27  C30 UNL     1       7.133  16.088  14.804  1.00  0.00     0.104 A 
ATOM     28  H5  UNL     1       6.459  18.001  15.066  1.00  0.00     0.164 HD
HETATM   29  C31 UNL     1       8.280  15.309  14.733  1.00  0.00     0.105 A 
HETATM   30  N6  UNL     1       9.504  15.865  14.869  1.00  0.00    -0.365 N 
ATOM     31  H6  UNL     1      10.336  15.278  14.816  1.00  0.00     0.165 HD
ENDBRANCH  23  24
ENDBRANCH  21  23
ENDBRANCH  17  19
ENDBRANCH  13  17
ENDBRANCH  10  13
ENDBRANCH   1   9
BRANCH   5  32
HETATM   32  C10 UNL     1      15.946  22.787  16.296  1.00  0.00     0.162 C 
BRANCH  32  33
HETATM   33  O2  UNL     1      17.069  22.102  16.481  1.00  0.00    -0.345 OA
ATOM     34  H2  UNL     1      17.810  22.649  16.716  1.00  0.00     0.219 HD
ENDBRANCH  32  33
BRANCH  32  35
HETATM   35  C11 UNL     1      15.550  22.804  14.894  1.00  0.00     0.068 C 
BRANCH  35  36
HETATM   36  N3  UNL     1      16.318  23.710  14.072  1.00  0.00    -0.302 N 
HETATM   37  C12 UNL     1      17.613  23.408  13.630  1.00  0.00     0.365 C 
HETATM   38  O3  UNL     1      18.209  22.333  13.899  1.00  0.00    -0.238 OA
ATOM     39  H3  UNL     1      15.903  24.602  13.803  1.00  0.00     0.171 HD
BRANCH  37  40
HETATM   40  O4  UNL     1      18.364  24.282  12.843  1.00  0.00    -0.298 OA
BRANCH  40  41
HETATM   41  C13 UNL     1      17.889  24.896  11.678  1.00  0.00     0.137 C 
HETATM   42  C14 UNL     1      18.694  24.530  10.451  1.00  0.00     0.041 C 
BRANCH  41  43
HETATM   43  C15 UNL     1      17.731  26.388  11.824  1.00  0.00    -0.025 C 
HETATM   44  C16 UNL     1      18.156  26.912  13.154  1.00  0.00     0.017 C 
HETATM   45  C17 UNL     1      16.242  26.731  11.677  1.00  0.00     0.017 C 
HETATM   46  C18 UNL     1      18.434  27.131  10.694  1.00  0.00     0.017 C 
ENDBRANCH  41  43
ENDBRANCH  40  41
ENDBRANCH  37  40
ENDBRANCH  35  36
BRANCH  35  47
HETATM   47  C19 UNL     1      15.043  21.593  14.225  1.00  0.00     0.032 C 
HETATM   48  C20 UNL     1      14.240  20.676  15.139  1.00  0.00     0.016 C 
HETATM   49  C21 UNL     1      14.094  21.924  13.073  1.00  0.00     0.016 C 
ENDBRANCH  35  47
ENDBRANCH  32  35
ENDBRANCH   5  32
TORSDOF 16
ENDMDL
MODEL 2
REMARK VINA RESULT: -9.419960385      1.512      1.813
REMARK  16 active torsions:
REMARK  status: ('A' for Active; 'I' for Inactive)
REMARK    1  A    between atoms: C2_2  and  C3_3 
REMARK    2  A    between atoms: C3_3  and  C4_4 
REMARK    3  A    between atoms: C4_4  and  N1_5 
REMARK    4  A    between atoms: C4_4  and  C25_35 
REMARK       I    between atoms: N1_5  and  C5_7 
REMARK    5  A    between atoms: C5_7  and  C6_9 
REMARK    6  A    between atoms: N2_13  and  C10_14 
REMARK    7  A    between atoms: C10_14  and  O2_15 
REMARK    8  A    between atoms: C10_14  and  C11_17 
REMARK    9  A    between atoms: C11_17  and  N3_18 
REMARK   10  A    between atoms: C11_17  and  C19_29 
REMARK       I    between atoms: N3_18  and  C12_20 
REMARK   11  A    between atoms: C12_20  and  O4_22 
REMARK   12  A    between atoms: O4_22  and  C13_23 
REMARK   13  A    between atoms: C13_23  and  C15_25 
REMARK   14  A    between atoms: C25_35  and  C26_37 
REMARK       I    between atoms: C26_37  and  N4_39 
REMARK   15  A    between atoms: N4_39  and  C27_41 
REMARK   16  A    between atoms: C27_41  and  C28_42 
ROOT
HETATM    1  C6  UNL     1      15.304  22.503  18.702  1.00  0.00     0.183 C 
HETATM    2  C7  UNL     1      15.233  23.465  19.829  1.00  0.00     0.032 A 
HETATM    3  C8  UNL     1      14.891  24.767  19.259  1.00  0.00     0.019 A 
HETATM    4  C9  UNL     1      14.746  24.523  17.769  1.00  0.00     0.132 C 
HETATM    5  N2  UNL     1      15.382  23.300  17.450  1.00  0.00    -0.346 N 
HETATM    6  C22 UNL     1      16.137  24.598  19.999  1.00  0.00    -0.036 A 
HETATM    7  C23 UNL     1      16.137  25.258  21.389  1.00  0.00     0.016 C 
HETATM    8  C24 UNL     1      17.504  24.596  19.380  1.00  0.00     0.016 C 
ENDROOT
BRANCH   1   9
HETATM    9  C5  UNL     1      14.129  21.622  18.731  1.00  0.00     0.241 C 
HETATM   10  N1  UNL     1      12.776  22.024  18.595  1.00  0.00    -0.347 N 
ATOM     11  H1  UNL     1      12.556  23.011  18.456  1.00  0.00     0.163 HD
HETATM   12  O1  UNL     1      14.354  20.386  18.896  1.00  0.00    -0.271 OA
BRANCH  10  13
HETATM   13  C4  UNL     1      11.689  21.046  18.650  1.00  0.00     0.164 C 
BRANCH  13  14
HETATM   14  C3  UNL     1      10.749  21.442  19.761  1.00  0.00     0.033 C 
BRANCH  14  15
HETATM   15  C2  UNL     1      10.585  20.279  20.747  1.00  0.00    -0.002 C 
HETATM   16  C1  UNL     1       9.284  20.397  21.498  1.00  0.00     0.005 C 
ENDBRANCH  14  15
ENDBRANCH  13  14
BRANCH  13  17
HETATM   17  C25 UNL     1      10.939  20.988  17.381  1.00  0.00     0.238 C 
HETATM   18  O5  UNL     1      10.822  22.033  16.694  1.00  0.00    -0.285 OA
BRANCH  17  19
HETATM   19  C26 UNL     1      10.351  19.748  16.934  1.00  0.00     0.289 C 
HETATM   20  O6  UNL     1       9.488  19.719  16.021  1.00  0.00    -0.264 OA
HETATM   21  N4  UNL     1      10.701  18.479  17.488  1.00  0.00    -0.349 N 
ATOM     22  H4  UNL     1      11.400  18.439  18.230  1.00  0.00     0.163 HD
BRANCH  21  23
HETATM   23  C27 UNL     1      10.092  17.246  17.028  1.00  0.00     0.181 C 
BRANCH  23  24
HETATM   24  C28 UNL     1       8.975  16.795  17.850  1.00  0.00     0.042 A 
HETATM   25  C29 UNL     1       8.044  15.929  17.340  1.00  0.00     0.114 A 
HETATM   26  N5  UNL     1       7.009  15.521  18.114  1.00  0.00    -0.372 N 
HETATM   27  C30 UNL     1       6.864  15.946  19.381  1.00  0.00     0.104 A 
ATOM     28  H5  UNL     1       6.322  14.875  17.725  1.00  0.00     0.164 HD
HETATM   29  C31 UNL     1       7.816  16.823  19.880  1.00  0.00     0.105 A 
HETATM   30  N6  UNL     1       8.850  17.233  19.112  1.00  0.00    -0.365 N 
ATOM     31  H6  UNL     1       9.540  17.880  19.495  1.00  0.00     0.165 HD
ENDBRANCH  23  24
ENDBRANCH  21  23
ENDBRANCH  17  19
ENDBRANCH  13  17
ENDBRANCH  10  13
ENDBRANCH   1   9
BRANCH   5  32
HETATM   32  C10 UNL     1      15.919  22.789  16.285  1.00  0.00     0.162 C 
BRANCH  32  33
HETATM   33  O2  UNL     1      17.048  22.116  16.477  1.00  0.00    -0.345 OA
ATOM     34  H2  UNL     1      17.658  22.561  17.053  1.00  0.00     0.219 HD
ENDBRANCH  32  33
BRANCH  32  35
HETATM   35  C11 UNL     1      15.535  22.809  14.880  1.00  0.00     0.068 C 
BRANCH  35  36
HETATM   36  N3  UNL     1      16.333  23.691  14.060  1.00  0.00    -0.302 N 
HETATM   37  C12 UNL     1      17.633  23.364  13.651  1.00  0.00     0.365 C 
HETATM   38  O3  UNL     1      18.208  22.285  13.950  1.00  0.00    -0.238 OA
ATOM     39  H3  UNL     1      15.937  24.584  13.768  1.00  0.00     0.171 HD
BRANCH  37  40
HETATM   40  O4  UNL     1      18.413  24.215  12.867  1.00  0.00    -0.298 OA
BRANCH  40  41
HETATM   41  C13 UNL     1      18.015  24.723  11.625  1.00  0.00     0.137 C 
HETATM   42  C14 UNL     1      18.857  24.204  10.481  1.00  0.00     0.041 C 
BRANCH  41  43
HETATM   43  C15 UNL     1      17.914  26.227  11.613  1.00  0.00    -0.025 C 
HETATM   44  C16 UNL     1      18.597  26.868  10.453  1.00  0.00     0.017 C 
HETATM   45  C17 UNL     1      18.605  26.766  12.875  1.00  0.00     0.017 C 
HETATM   46  C18 UNL     1      16.464  26.685  11.715  1.00  0.00     0.017 C 
ENDBRANCH  41  43
ENDBRANCH  40  41
ENDBRANCH  37  40
ENDBRANCH  35  36
BRANCH  35  47
HETATM   47  C19 UNL     1      15.002  21.609  14.212  1.00  0.00     0.032 C 
HETATM   48  C20 UNL     1      14.116  20.751  15.106  1.00  0.00     0.016 C 
HETATM   49  C21 UNL     1      14.123  21.958  13.012  1.00  0.00     0.016 C 
ENDBRANCH  35  47
ENDBRANCH  32  35
ENDBRANCH   5  32
TORSDOF 16
ENDMDL
MODEL 3
REMARK VINA RESULT: -9.265443686      2.737     10.739
REMARK  16 active torsions:
REMARK  status: ('A' for Active; 'I' for Inactive)
REMARK    1  A    between atoms: C2_2  and  C3_3 
REMARK    2  A    between atoms: C3_3  and  C4_4 
REMARK    3  A    between atoms: C4_4  and  N1_5 
REMARK    4  A    between atoms: C4_4  and  C25_35 
REMARK       I    between atoms: N1_5  and  C5_7 
REMARK    5  A    between atoms: C5_7  and  C6_9 
REMARK    6  A    between atoms: N2_13  and  C10_14 
REMARK    7  A    between atoms: C10_14  and  O2_15 
REMARK    8  A    between atoms: C10_14  and  C11_17 
REMARK    9  A    between atoms: C11_17  and  N3_18 
REMARK   10  A    between atoms: C11_17  and  C19_29 
REMARK       I    between atoms: N3_18  and  C12_20 
REMARK   11  A    between atoms: C12_20  and  O4_22 
REMARK   12  A    between atoms: O4_22  and  C13_23 
REMARK   13  A    between atoms: C13_23  and  C15_25 
REMARK   14  A    between atoms: C25_35  and  C26_37 
REMARK       I    between atoms: C26_37  and  N4_39 
REMARK   15  A    between atoms: N4_39  and  C27_41 
REMARK   16  A    between atoms: C27_41  and  C28_42 
ROOT
HETATM    1  C6  UNL     1      10.168  20.169  18.204  1.00  0.00     0.183 C 
HETATM    2  C7  UNL     1      10.004  20.552  19.627  1.00  0.00     0.032 A 
HETATM    3  C8  UNL     1      10.704  19.546  20.424  1.00  0.00     0.019 A 
HETATM    4  C9  UNL     1      11.295  18.580  19.415  1.00  0.00     0.132 C 
HETATM    5  N2  UNL     1      10.627  18.755  18.181  1.00  0.00    -0.346 N 
HETATM    6  C22 UNL     1       9.273  19.761  20.611  1.00  0.00    -0.036 A 
HETATM    7  C23 UNL     1       8.912  20.481  21.922  1.00  0.00     0.016 C 
HETATM    8  C24 UNL     1       8.203  18.798  20.187  1.00  0.00     0.016 C 
ENDROOT
BRANCH   1   9
HETATM    9  C5  UNL     1      11.124  21.077  17.555  1.00  0.00     0.241 C 
HETATM   10  N1  UNL     1      12.491  21.238  17.897  1.00  0.00    -0.347 N 
ATOM     11  H1  UNL     1      12.888  20.684  18.655  1.00  0.00     0.163 HD
HETATM   12  O1  UNL     1      10.677  21.781  16.602  1.00  0.00    -0.271 OA
BRANCH  10  13
HETATM   13  C4  UNL     1      13.342  22.187  17.177  1.00  0.00     0.164 C 
BRANCH  13  14
HETATM   14  C3  UNL     1      13.682  23.322  18.108  1.00  0.00     0.033 C 
BRANCH  14  15
HETATM   15  C2  UNL     1      14.297  22.772  19.401  1.00  0.00    -0.002 C 
HETATM   16  C1  UNL     1      15.172  23.808  20.057  1.00  0.00     0.005 C 
ENDBRANCH  14  15
ENDBRANCH  13  14
BRANCH  13  17
HETATM   17  C25 UNL     1      14.591  21.556  16.708  1.00  0.00     0.238 C 
HETATM   18  O5  UNL     1      14.728  20.314  16.828  1.00  0.00    -0.285 OA
BRANCH  17  19
HETATM   19  C26 UNL     1      15.638  22.355  16.118  1.00  0.00     0.289 C 
HETATM   20  O6  UNL     1      15.514  22.865  14.976  1.00  0.00    -0.264 OA
HETATM   21  N4  UNL     1      16.876  22.623  16.778  1.00  0.00    -0.349 N 
ATOM     22  H4  UNL     1      17.033  22.239  17.711  1.00  0.00     0.163 HD
BRANCH  21  23
HETATM   23  C27 UNL     1      17.916  23.424  16.163  1.00  0.00     0.181 C 
BRANCH  23  24
HETATM   24  C28 UNL     1      18.049  24.760  16.732  1.00  0.00     0.042 A 
HETATM   25  C29 UNL     1      18.140  24.929  18.089  1.00  0.00     0.114 A 
HETATM   26  N5  UNL     1      18.258  26.177  18.605  1.00  0.00    -0.372 N 
HETATM   27  C30 UNL     1      18.287  27.267  17.819  1.00  0.00     0.104 A 
ATOM     28  H5  UNL     1      18.326  26.292  19.616  1.00  0.00     0.164 HD
HETATM   29  C31 UNL     1      18.193  27.076  16.448  1.00  0.00     0.105 A 
HETATM   30  N6  UNL     1      18.075  25.834  15.929  1.00  0.00    -0.365 N 
ATOM     31  H6  UNL     1      18.005  25.712  14.918  1.00  0.00     0.165 HD
ENDBRANCH  23  24
ENDBRANCH  21  23
ENDBRANCH  17  19
ENDBRANCH  13  17
ENDBRANCH  10  13
ENDBRANCH   1   9
BRANCH   5  32
HETATM   32  C10 UNL     1      10.436  17.938  17.084  1.00  0.00     0.162 C 
BRANCH  32  33
HETATM   33  O2  UNL     1      11.571  17.540  16.520  1.00  0.00    -0.345 OA
ATOM     34  H2  UNL     1      11.443  16.913  15.818  1.00  0.00     0.219 HD
ENDBRANCH  32  33
BRANCH  32  35
HETATM   35  C11 UNL     1       9.272  17.399  16.394  1.00  0.00     0.068 C 
BRANCH  35  36
HETATM   36  N3  UNL     1       8.045  17.472  17.154  1.00  0.00    -0.302 N 
HETATM   37  C12 UNL     1       7.395  16.331  17.643  1.00  0.00     0.365 C 
HETATM   38  O3  UNL     1       7.821  15.159  17.472  1.00  0.00    -0.238 OA
ATOM     39  H3  UNL     1       7.638  18.388  17.342  1.00  0.00     0.171 HD
BRANCH  37  40
HETATM   40  O4  UNL     1       6.206  16.394  18.370  1.00  0.00    -0.298 OA
BRANCH  40  41
HETATM   41  C13 UNL     1       4.932  16.258  17.806  1.00  0.00     0.137 C 
HETATM   42  C14 UNL     1       4.935  16.425  16.303  1.00  0.00     0.041 C 
BRANCH  41  43
HETATM   43  C15 UNL     1       3.901  17.135  18.469  1.00  0.00    -0.025 C 
HETATM   44  C16 UNL     1       4.471  18.091  19.461  1.00  0.00     0.017 C 
HETATM   45  C17 UNL     1       2.928  16.234  19.243  1.00  0.00     0.017 C 
HETATM   46  C18 UNL     1       3.049  17.863  17.436  1.00  0.00     0.017 C 
ENDBRANCH  41  43
ENDBRANCH  40  41
ENDBRANCH  37  40
ENDBRANCH  35  36
BRANCH  35  47
HETATM   47  C19 UNL     1       9.133  17.497  14.930  1.00  0.00     0.032 C 
HETATM   48  C20 UNL     1       8.925  16.155  14.241  1.00  0.00     0.016 C 
HETATM   49  C21 UNL     1       7.925  18.338  14.519  1.00  0.00     0.016 C 
ENDBRANCH  35  47
ENDBRANCH  32  35
ENDBRANCH   5  32
TORSDOF 16
ENDMDL
MODEL 4
REMARK VINA RESULT: -9.222759710      0.652      1.117
REMARK  16 active torsions:
REMARK  status: ('A' for Active; 'I' for Inactive)
REMARK    1  A    between atoms: C2_2  and  C3_3 
REMARK    2  A    between atoms: C3_3  and  C4_4 
REMARK    3  A    between atoms: C4_4  and  N1_5 
REMARK    4  A    between atoms: C4_4  and  C25_35 
REMARK       I    between atoms: N1_5  and  C5_7 
REMARK    5  A    between atoms: C5_7  and  C6_9 
REMARK    6  A    between atoms: N2_13  and  C10_14 
REMARK    7  A    between atoms: C10_14  and  O2_15 
REMARK    8  A    between atoms: C10_14  and  C11_17 
REMARK    9  A    between atoms: C11_17  and  N3_18 
REMARK   10  A    between atoms: C11_17  and  C19_29 
REMARK       I    between atoms: N3_18  and  C12_20 
REMARK   11  A    between atoms: C12_20  and  O4_22 
REMARK   12  A    between atoms: O4_22  and  C13_23 
REMARK   13  A    between atoms: C13_23  and  C15_25 
REMARK   14  A    between atoms: C25_35  and  C26_37 
REMARK       I    between atoms: C26_37  and  N4_39 
REMARK   15  A    between atoms: N4_39  and  C27_41 
REMARK   16  A    between atoms: C27_41  and  C28_42 
ROOT
HETATM    1  C6  UNL     1      15.440  22.411  18.562  1.00  0.00     0.183 C 
HETATM    2  C7  UNL     1      15.429  23.382  19.683  1.00  0.00     0.032 A 
HETATM    3  C8  UNL     1      14.938  24.650  19.146  1.00  0.00     0.019 A 
HETATM    4  C9  UNL     1      14.645  24.375  17.683  1.00  0.00     0.132 C 
HETATM    5  N2  UNL     1      15.324  23.194  17.303  1.00  0.00    -0.346 N 
HETATM    6  C22 UNL     1      16.267  24.576  19.743  1.00  0.00    -0.036 A 
HETATM    7  C23 UNL     1      16.376  25.254  21.120  1.00  0.00     0.016 C 
HETATM    8  C24 UNL     1      17.553  24.656  18.975  1.00  0.00     0.016 C 
ENDROOT
BRANCH   1   9
HETATM    9  C5  UNL     1      14.339  21.453  18.728  1.00  0.00     0.241 C 
HETATM   10  N1  UNL     1      12.964  21.772  18.868  1.00  0.00    -0.347 N 
ATOM     11  H1  UNL     1      12.671  22.749  18.851  1.00  0.00     0.163 HD
HETATM   12  O1  UNL     1      14.655  20.227  18.749  1.00  0.00    -0.271 OA
BRANCH  10  13
HETATM   13  C4  UNL     1      11.960  20.722  19.037  1.00  0.00     0.164 C 
BRANCH  13  14
HETATM   14  C3  UNL     1      11.005  21.146  20.124  1.00  0.00     0.033 C 
BRANCH  14  15
HETATM   15  C2  UNL     1      10.368  19.912  20.772  1.00  0.00    -0.002 C 
HETATM   16  C1  UNL     1       9.142  20.296  21.560  1.00  0.00     0.005 C 
ENDBRANCH  14  15
ENDBRANCH  13  14
BRANCH  13  17
HETATM   17  C25 UNL     1      11.201  20.486  17.793  1.00  0.00     0.238 C 
HETATM   18  O5  UNL     1      10.553  21.433  17.286  1.00  0.00    -0.285 OA
BRANCH  17  19
HETATM   19  C26 UNL     1      11.206  19.184  17.168  1.00  0.00     0.289 C 
HETATM   20  O6  UNL     1      11.526  18.149  17.804  1.00  0.00    -0.264 OA
HETATM   21  N4  UNL     1      10.854  18.979  15.798  1.00  0.00    -0.349 N 
ATOM     22  H4  UNL     1      10.581  19.783  15.233  1.00  0.00     0.163 HD
BRANCH  21  23
HETATM   23  C27 UNL     1      10.873  17.664  15.190  1.00  0.00     0.181 C 
BRANCH  23  24
HETATM   24  C28 UNL     1       9.557  17.048  15.071  1.00  0.00     0.042 A 
HETATM   25  C29 UNL     1       8.422  17.807  15.194  1.00  0.00     0.114 A 
HETATM   26  N5  UNL     1       7.206  17.221  15.086  1.00  0.00    -0.372 N 
HETATM   27  C30 UNL     1       7.073  15.902  14.861  1.00  0.00     0.104 A 
ATOM     28  H5  UNL     1       6.368  17.796  15.177  1.00  0.00     0.164 HD
HETATM   29  C31 UNL     1       8.233  15.150  14.742  1.00  0.00     0.105 A 
HETATM   30  N6  UNL     1       9.449  15.729  14.848  1.00  0.00    -0.365 N 
ATOM     31  H6  UNL     1      10.291  15.160  14.759  1.00  0.00     0.165 HD
ENDBRANCH  23  24
ENDBRANCH  21  23
ENDBRANCH  17  19
ENDBRANCH  13  17
ENDBRANCH  10  13
ENDBRANCH   1   9
BRANCH   5  32
HETATM   32  C10 UNL     1      15.762  22.703  16.089  1.00  0.00     0.162 C 
BRANCH  32  33
HETATM   33  O2  UNL     1      17.005  22.237  16.127  1.00  0.00    -0.345 OA
ATOM     34  H2  UNL     1      17.625  22.849  16.505  1.00  0.00     0.219 HD
ENDBRANCH  32  33
BRANCH  32  35
HETATM   35  C11 UNL     1      15.176  22.571  14.762  1.00  0.00     0.068 C 
BRANCH  35  36
HETATM   36  N3  UNL     1      15.609  23.578  13.820  1.00  0.00    -0.302 N 
HETATM   37  C12 UNL     1      16.876  23.551  13.222  1.00  0.00     0.365 C 
HETATM   38  O3  UNL     1      17.732  22.656  13.443  1.00  0.00    -0.238 OA
ATOM     39  H3  UNL     1      14.969  24.335  13.582  1.00  0.00     0.171 HD
BRANCH  37  40
HETATM   40  O4  UNL     1      17.303  24.524  12.319  1.00  0.00    -0.298 OA
BRANCH  40  41
HETATM   41  C13 UNL     1      18.466  25.287  12.478  1.00  0.00     0.137 C 
HETATM   42  C14 UNL     1      18.190  26.674  13.013  1.00  0.00     0.041 C 
BRANCH  41  43
HETATM   43  C15 UNL     1      19.318  25.323  11.235  1.00  0.00    -0.025 C 
HETATM   44  C16 UNL     1      20.734  25.716  11.485  1.00  0.00     0.017 C 
HETATM   45  C17 UNL     1      18.736  26.377  10.282  1.00  0.00     0.017 C 
HETATM   46  C18 UNL     1      19.244  24.003  10.476  1.00  0.00     0.017 C 
ENDBRANCH  41  43
ENDBRANCH  40  41
ENDBRANCH  37  40
ENDBRANCH  35  36
BRANCH  35  47
HETATM   47  C19 UNL     1      14.849  21.250  14.195  1.00  0.00     0.032 C 
HETATM   48  C20 UNL     1      14.268  20.273  15.208  1.00  0.00     0.016 C 
HETATM   49  C21 UNL     1      13.795  21.341  13.092  1.00  0.00     0.016 C 
ENDBRANCH  35  47
ENDBRANCH  32  35
ENDBRANCH   5  32
TORSDOF 16
ENDMDL
MODEL 5
REMARK VINA RESULT: -9.220800197      2.651     10.711
REMARK  16 active torsions:
REMARK  status: ('A' for Active; 'I' for Inactive)
REMARK    1  A    between atoms: C2_2  and  C3_3 
REMARK    2  A    between atoms: C3_3  and  C4_4 
REMARK    3  A    between atoms: C4_4  and  N1_5 
REMARK    4  A    between atoms: C4_4  and  C25_35 
REMARK       I    between atoms: N1_5  and  C5_7 
REMARK    5  A    between atoms: C5_7  and  C6_9 
REMARK    6  A    between atoms: N2_13  and  C10_14 
REMARK    7  A    between atoms: C10_14  and  O2_15 
REMARK    8  A    between atoms: C10_14  and  C11_17 
REMARK    9  A    between atoms: C11_17  and  N3_18 
REMARK   10  A    between atoms: C11_17  and  C19_29 
REMARK       I    between atoms: N3_18  and  C12_20 
REMARK   11  A    between atoms: C12_20  and  O4_22 
REMARK   12  A    between atoms: O4_22  and  C13_23 
REMARK   13  A    between atoms: C13_23  and  C15_25 
REMARK   14  A    between atoms: C25_35  and  C26_37 
REMARK       I    between atoms: C26_37  and  N4_39 
REMARK   15  A    between atoms: N4_39  and  C27_41 
REMARK   16  A    between atoms: C27_41  and  C28_42 
ROOT
HETATM    1  C6  UNL     1      10.066  20.090  18.445  1.00  0.00     0.183 C 
HETATM    2  C7  UNL     1       9.901  20.557  19.843  1.00  0.00     0.032 A 
HETATM    3  C8  UNL     1      10.643  19.627  20.694  1.00  0.00     0.019 A 
HETATM    4  C9  UNL     1      11.259  18.621  19.741  1.00  0.00     0.132 C 
HETATM    5  N2  UNL     1      10.574  18.695  18.505  1.00  0.00    -0.346 N 
HETATM    6  C22 UNL     1       9.207  19.804  20.883  1.00  0.00    -0.036 A 
HETATM    7  C23 UNL     1       8.831  20.593  22.149  1.00  0.00     0.016 C 
HETATM    8  C24 UNL     1       8.168  18.780  20.531  1.00  0.00     0.016 C 
ENDROOT
BRANCH   1   9
HETATM    9  C5  UNL     1      10.984  20.988  17.730  1.00  0.00     0.241 C 
HETATM   10  N1  UNL     1      12.302  21.329  18.127  1.00  0.00    -0.347 N 
ATOM     11  H1  UNL     1      12.689  20.928  18.982  1.00  0.00     0.163 HD
HETATM   12  O1  UNL     1      10.548  21.505  16.659  1.00  0.00    -0.271 OA
BRANCH  10  13
HETATM   13  C4  UNL     1      13.116  22.247  17.330  1.00  0.00     0.164 C 
BRANCH  13  14
HETATM   14  C3  UNL     1      13.560  23.382  18.217  1.00  0.00     0.033 C 
BRANCH  14  15
HETATM   15  C2  UNL     1      14.269  22.829  19.459  1.00  0.00    -0.002 C 
HETATM   16  C1  UNL     1      15.314  23.796  19.951  1.00  0.00     0.005 C 
ENDBRANCH  14  15
ENDBRANCH  13  14
BRANCH  13  17
HETATM   17  C25 UNL     1      14.307  21.577  16.771  1.00  0.00     0.238 C 
HETATM   18  O5  UNL     1      14.426  20.335  16.904  1.00  0.00    -0.285 OA
BRANCH  17  19
HETATM   19  C26 UNL     1      15.318  22.341  16.078  1.00  0.00     0.289 C 
HETATM   20  O6  UNL     1      15.126  22.794  14.922  1.00  0.00    -0.264 OA
HETATM   21  N4  UNL     1      16.595  22.634  16.648  1.00  0.00    -0.349 N 
ATOM     22  H4  UNL     1      16.807  22.296  17.587  1.00  0.00     0.163 HD
BRANCH  21  23
HETATM   23  C27 UNL     1      17.598  23.397  15.931  1.00  0.00     0.181 C 
BRANCH  23  24
HETATM   24  C28 UNL     1      17.948  24.660  16.570  1.00  0.00     0.042 A 
HETATM   25  C29 UNL     1      18.241  24.703  17.908  1.00  0.00     0.114 A 
HETATM   26  N5  UNL     1      18.559  25.885  18.489  1.00  0.00    -0.372 N 
HETATM   27  C30 UNL     1      18.596  27.031  17.788  1.00  0.00     0.104 A 
ATOM     28  H5  UNL     1      18.777  25.906  19.485  1.00  0.00     0.164 HD
HETATM   29  C31 UNL     1      18.296  26.968  16.434  1.00  0.00     0.105 A 
HETATM   30  N6  UNL     1      17.977  25.792  15.850  1.00  0.00    -0.365 N 
ATOM     31  H6  UNL     1      17.757  25.764  14.854  1.00  0.00     0.165 HD
ENDBRANCH  23  24
ENDBRANCH  21  23
ENDBRANCH  17  19
ENDBRANCH  13  17
ENDBRANCH  10  13
ENDBRANCH   1   9
BRANCH   5  32
HETATM   32  C10 UNL     1      10.403  17.804  17.465  1.00  0.00     0.162 C 
BRANCH  32  33
HETATM   33  O2  UNL     1      11.488  17.082  17.206  1.00  0.00    -0.345 OA
ATOM     34  H2  UNL     1      11.328  16.365  16.602  1.00  0.00     0.219 HD
ENDBRANCH  32  33
BRANCH  32  35
HETATM   35  C11 UNL     1       9.301  17.461  16.576  1.00  0.00     0.068 C 
BRANCH  35  36
HETATM   36  N3  UNL     1       8.017  17.371  17.231  1.00  0.00    -0.302 N 
HETATM   37  C12 UNL     1       7.559  16.189  17.828  1.00  0.00     0.365 C 
HETATM   38  O3  UNL     1       8.220  15.119  17.854  1.00  0.00    -0.238 OA
ATOM     39  H3  UNL     1       7.421  18.199  17.260  1.00  0.00     0.171 HD
BRANCH  37  40
HETATM   40  O4  UNL     1       6.316  16.094  18.455  1.00  0.00    -0.298 OA
BRANCH  40  41
HETATM   41  C13 UNL     1       5.298  17.046  18.329  1.00  0.00     0.137 C 
HETATM   42  C14 UNL     1       4.780  17.531  19.665  1.00  0.00     0.041 C 
BRANCH  41  43
HETATM   43  C15 UNL     1       4.181  16.594  17.423  1.00  0.00    -0.025 C 
HETATM   44  C16 UNL     1       4.602  16.377  16.009  1.00  0.00     0.017 C 
HETATM   45  C17 UNL     1       3.111  17.694  17.393  1.00  0.00     0.017 C 
HETATM   46  C18 UNL     1       3.482  15.360  17.981  1.00  0.00     0.017 C 
ENDBRANCH  41  43
ENDBRANCH  40  41
ENDBRANCH  37  40
ENDBRANCH  35  36
BRANCH  35  47
HETATM   47  C19 UNL     1       9.282  17.903  15.170  1.00  0.00     0.032 C 
HETATM   48  C20 UNL     1       9.921  16.913  14.206  1.00  0.00     0.016 C 
HETATM   49  C21 UNL     1       7.860  18.097  14.645  1.00  0.00     0.016 C 
ENDBRANCH  35  47
ENDBRANCH  32  35
ENDBRANCH   5  32
TORSDOF 16
ENDMDL
