MODEL 1
REMARK VINA RESULT: -6.890107657      0.000      0.000
REMARK  15 active torsions:
REMARK  status: ('A' for Active; 'I' for Inactive)
REMARK    1  A    between atoms: S1_2  and  C2_3 
REMARK    2  A    between atoms: C2_3  and  C3_4 
REMARK    3  A    between atoms: C3_4  and  C4_5 
REMARK    4  A    between atoms: C4_5  and  N1_6 
REMARK    5  A    between atoms: C4_5  and  C28_42 
REMARK       I    between atoms: N1_6  and  C5_8 
REMARK    6  A    between atoms: C5_8  and  C6_10 
REMARK       I    between atoms: N3_16  and  C11_17 
REMARK    7  A    between atoms: C11_17  and  C12_19 
REMARK    8  A    between atoms: C12_19  and  N4_20 
REMARK    9  A    between atoms: C12_19  and  C24_38 
REMARK       I    between atoms: N4_20  and  C13_22 
REMARK   10  A    between atoms: C13_22  and  C14_24 
REMARK   11  A    between atoms: C14_24  and  C15_25 
REMARK   12  A    between atoms: C14_24  and  N5_29 
REMARK   13  A    between atoms: C15_25  and  C16_26 
REMARK       I    between atoms: N5_29  and  C19_31 
REMARK   14  A    between atoms: C19_31  and  O5_33 
REMARK   15  A    between atoms: O5_33  and  C20_34 
ROOT
HETATM    1  C12 UNL     1       3.925  15.895  17.731  1.00  0.00     0.184 C 
ENDROOT
BRANCH   1   2
HETATM    2  C11 UNL     1       3.618  17.324  18.121  1.00  0.00     0.245 C 
HETATM    3  N3  UNL     1       3.319  17.758  19.415  1.00  0.00    -0.306 N 
HETATM    4  C6  UNL     1       3.245  16.988  20.675  1.00  0.00     0.419 C 
HETATM    5  C9  UNL     1       3.018  19.095  19.842  1.00  0.00     0.114 C 
HETATM    6  N2  UNL     1       2.159  17.587  21.368  1.00  0.00     0.118 N 
HETATM    7  C7  UNL     1       0.994  16.730  21.467  1.00  0.00     0.313 C 
HETATM    8  C8  UNL     1       1.837  18.839  20.780  1.00  0.00     0.300 C 
HETATM    9  C10 UNL     1       2.648  20.035  18.749  1.00  0.00     0.034 C 
HETATM   10  O2  UNL     1       3.643  18.162  17.195  1.00  0.00    -0.271 OA
BRANCH   4  11
HETATM   11  C5  UNL     1       4.526  17.127  21.440  1.00  0.00     0.272 C 
HETATM   12  N1  UNL     1       5.804  17.025  20.822  1.00  0.00    -0.343 N 
ATOM     13  H1  UNL     1       5.862  16.840  19.820  1.00  0.00     0.163 HD
HETATM   14  O1  UNL     1       4.420  17.340  22.673  1.00  0.00    -0.269 OA
BRANCH  12  15
HETATM   15  C4  UNL     1       7.034  17.178  21.592  1.00  0.00     0.186 C 
BRANCH  15  16
HETATM   16  C3  UNL     1       8.083  17.667  20.637  1.00  0.00     0.046 C 
BRANCH  16  17
HETATM   17  C2  UNL     1       8.037  19.143  20.364  1.00  0.00     0.076 C 
BRANCH  17  18
HETATM   18  S1  UNL     1       9.197  20.077  21.400  1.00  0.00    -0.173 SA
HETATM   19  C1  UNL     1       9.813  21.527  20.488  1.00  0.00     0.089 C 
ENDBRANCH  17  18
ENDBRANCH  16  17
ENDBRANCH  15  16
BRANCH  15  20
HETATM   20  C28 UNL     1       7.392  15.894  22.259  1.00  0.00     0.196 C 
HETATM   21  O6  UNL     1       7.311  15.785  23.507  1.00  0.00    -0.646 OA
HETATM   22  O7  UNL     1       7.817  14.795  21.547  1.00  0.00    -0.646 OA
ENDBRANCH  15  20
ENDBRANCH  12  15
ENDBRANCH   4  11
ENDBRANCH   1   2
BRANCH   1  23
HETATM   23  N4  UNL     1       5.092  16.082  16.825  1.00  0.00    -0.345 N 
HETATM   24  C13 UNL     1       6.423  15.992  17.239  1.00  0.00     0.241 C 
HETATM   25  O3  UNL     1       6.641  15.674  18.470  1.00  0.00    -0.271 OA
ATOM     26  H4  UNL     1       4.908  16.289  15.843  1.00  0.00     0.163 HD
BRANCH  24  27
HETATM   27  C14 UNL     1       7.566  16.256  16.365  1.00  0.00     0.179 C 
BRANCH  27  28
HETATM   28  C15 UNL     1       8.535  15.209  16.025  1.00  0.00     0.038 C 
BRANCH  28  29
HETATM   29  C16 UNL     1       8.767  14.812  14.628  1.00  0.00    -0.020 C 
HETATM   30  C17 UNL     1       7.647  15.003  13.667  1.00  0.00     0.009 C 
HETATM   31  C18 UNL     1       9.940  15.666  14.082  1.00  0.00     0.009 C 
ENDBRANCH  28  29
ENDBRANCH  27  28
BRANCH  27  32
HETATM   32  N5  UNL     1       8.239  17.443  16.922  1.00  0.00    -0.324 N 
HETATM   33  C19 UNL     1       8.597  18.510  16.066  1.00  0.00     0.362 C 
HETATM   34  O4  UNL     1       8.328  18.423  14.819  1.00  0.00    -0.238 OA
ATOM     35  H5  UNL     1       8.445  17.496  17.919  1.00  0.00     0.165 HD
BRANCH  33  36
HETATM   36  O5  UNL     1       9.222  19.658  16.480  1.00  0.00    -0.294 OA
BRANCH  36  37
HETATM   37  C20 UNL     1      10.627  19.760  16.662  1.00  0.00     0.061 C 
HETATM   38  C21 UNL     1      11.109  19.183  17.959  1.00  0.00     0.046 C 
HETATM   39  C22 UNL     1      10.917  21.269  16.726  1.00  0.00     0.046 C 
HETATM   40  C23 UNL     1      11.393  19.211  15.495  1.00  0.00     0.046 C 
ENDBRANCH  36  37
ENDBRANCH  33  36
ENDBRANCH  27  32
ENDBRANCH  24  27
ENDBRANCH   1  23
BRANCH   1  41
HETATM   41  C24 UNL     1       2.843  15.290  16.930  1.00  0.00    -0.022 C 
HETATM   42  C25 UNL     1       1.435  15.653  17.385  1.00  0.00     0.017 C 
HETATM   43  C26 UNL     1       2.915  15.472  15.453  1.00  0.00     0.017 C 
HETATM   44  C27 UNL     1       2.906  13.769  17.204  1.00  0.00     0.017 C 
ENDBRANCH   1  41
TORSDOF 15
ENDMDL
MODEL 2
REMARK VINA RESULT: -6.632455120      2.278      5.698
REMARK  15 active torsions:
REMARK  status: ('A' for Active; 'I' for Inactive)
REMARK    1  A    between atoms: S1_2  and  C2_3 
REMARK    2  A    between atoms: C2_3  and  C3_4 
REMARK    3  A    between atoms: C3_4  and  C4_5 
REMARK    4  A    between atoms: C4_5  and  N1_6 
REMARK    5  A    between atoms: C4_5  and  C28_42 
REMARK       I    between atoms: N1_6  and  C5_8 
REMARK    6  A    between atoms: C5_8  and  C6_10 
REMARK       I    between atoms: N3_16  and  C11_17 
REMARK    7  A    between atoms: C11_17  and  C12_19 
REMARK    8  A    between atoms: C12_19  and  N4_20 
REMARK    9  A    between atoms: C12_19  and  C24_38 
REMARK       I    between atoms: N4_20  and  C13_22 
REMARK   10  A    between atoms: C13_22  and  C14_24 
REMARK   11  A    between atoms: C14_24  and  C15_25 
REMARK   12  A    between atoms: C14_24  and  N5_29 
REMARK   13  A    between atoms: C15_25  and  C16_26 
REMARK       I    between atoms: N5_29  and  C19_31 
REMARK   14  A    between atoms: C19_31  and  O5_33 
REMARK   15  A    between atoms: O5_33  and  C20_34 
ROOT
HETATM    1  C12 UNL     1       2.721  17.030  19.896  1.00  0.00     0.184 C 
ENDROOT
BRANCH   1   2
HETATM    2  C11 UNL     1       2.624  15.717  19.152  1.00  0.00     0.245 C 
HETATM    3  N3  UNL     1       2.981  15.521  17.815  1.00  0.00    -0.306 N 
HETATM    4  C6  UNL     1       3.532  16.482  16.835  1.00  0.00     0.419 C 
HETATM    5  C9  UNL     1       2.908  14.304  17.059  1.00  0.00     0.114 C 
HETATM    6  N2  UNL     1       2.908  16.108  15.615  1.00  0.00     0.118 N 
HETATM    7  C7  UNL     1       1.945  17.080  15.138  1.00  0.00     0.313 C 
HETATM    8  C8  UNL     1       2.328  14.817  15.739  1.00  0.00     0.300 C 
HETATM    9  C10 UNL     1       2.046  13.246  17.654  1.00  0.00     0.034 C 
HETATM   10  O2  UNL     1       2.190  14.747  19.808  1.00  0.00    -0.271 OA
BRANCH   4  11
HETATM   11  C5  UNL     1       5.022  16.339  16.755  1.00  0.00     0.272 C 
HETATM   12  N1  UNL     1       5.762  16.663  15.583  1.00  0.00    -0.343 N 
ATOM     13  H1  UNL     1       5.267  16.997  14.756  1.00  0.00     0.163 HD
HETATM   14  O1  UNL     1       5.599  15.913  17.786  1.00  0.00    -0.269 OA
BRANCH  12  15
HETATM   15  C4  UNL     1       7.214  16.526  15.541  1.00  0.00     0.186 C 
BRANCH  15  16
HETATM   16  C3  UNL     1       7.735  17.698  14.763  1.00  0.00     0.046 C 
BRANCH  16  17
HETATM   17  C2  UNL     1       8.870  18.428  15.423  1.00  0.00     0.076 C 
BRANCH  17  18
HETATM   18  S1  UNL     1      10.463  17.592  15.189  1.00  0.00    -0.173 SA
HETATM   19  C1  UNL     1      11.311  17.414  16.789  1.00  0.00     0.089 C 
ENDBRANCH  17  18
ENDBRANCH  16  17
ENDBRANCH  15  16
BRANCH  15  20
HETATM   20  C28 UNL     1       7.594  15.210  14.954  1.00  0.00     0.196 C 
HETATM   21  O6  UNL     1       7.024  14.791  13.916  1.00  0.00    -0.646 OA
HETATM   22  O7  UNL     1       8.567  14.414  15.514  1.00  0.00    -0.646 OA
ENDBRANCH  15  20
ENDBRANCH  12  15
ENDBRANCH   4  11
ENDBRANCH   1   2
BRANCH   1  23
HETATM   23  N4  UNL     1       4.069  16.916  20.519  1.00  0.00    -0.345 N 
HETATM   24  C13 UNL     1       5.092  17.850  20.341  1.00  0.00     0.241 C 
HETATM   25  O3  UNL     1       4.824  18.897  19.636  1.00  0.00    -0.271 OA
ATOM     26  H4  UNL     1       4.255  16.107  21.112  1.00  0.00     0.163 HD
BRANCH  24  27
HETATM   27  C14 UNL     1       6.440  17.694  20.888  1.00  0.00     0.179 C 
BRANCH  27  28
HETATM   28  C15 UNL     1       6.675  17.543  22.327  1.00  0.00     0.038 C 
BRANCH  28  29
HETATM   29  C16 UNL     1       6.318  16.301  23.030  1.00  0.00    -0.020 C 
HETATM   30  C17 UNL     1       7.399  15.604  23.777  1.00  0.00     0.009 C 
HETATM   31  C18 UNL     1       5.235  16.649  24.083  1.00  0.00     0.009 C 
ENDBRANCH  28  29
ENDBRANCH  27  28
BRANCH  27  32
HETATM   32  N5  UNL     1       7.236  18.804  20.332  1.00  0.00    -0.324 N 
HETATM   33  C19 UNL     1       8.224  18.535  19.357  1.00  0.00     0.362 C 
HETATM   34  O4  UNL     1       8.409  17.330  18.975  1.00  0.00    -0.238 OA
ATOM     35  H5  UNL     1       7.075  19.760  20.649  1.00  0.00     0.165 HD
BRANCH  33  36
HETATM   36  O5  UNL     1       9.016  19.491  18.775  1.00  0.00    -0.294 OA
BRANCH  36  37
HETATM   37  C20 UNL     1      10.096  20.125  19.445  1.00  0.00     0.061 C 
HETATM   38  C21 UNL     1       9.667  21.227  20.367  1.00  0.00     0.046 C 
HETATM   39  C22 UNL     1      10.927  20.789  18.336  1.00  0.00     0.046 C 
HETATM   40  C23 UNL     1      10.990  19.142  20.141  1.00  0.00     0.046 C 
ENDBRANCH  36  37
ENDBRANCH  33  36
ENDBRANCH  27  32
ENDBRANCH  24  27
ENDBRANCH   1  23
BRANCH   1  41
HETATM   41  C24 UNL     1       1.739  17.125  20.994  1.00  0.00    -0.022 C 
HETATM   42  C25 UNL     1       0.299  16.840  20.586  1.00  0.00     0.017 C 
HETATM   43  C26 UNL     1       2.034  16.348  22.230  1.00  0.00     0.017 C 
HETATM   44  C27 UNL     1       1.688  18.617  21.396  1.00  0.00     0.017 C 
ENDBRANCH   1  41
TORSDOF 15
ENDMDL
MODEL 3
REMARK VINA RESULT: -6.425000530      2.283      6.064
REMARK  15 active torsions:
REMARK  status: ('A' for Active; 'I' for Inactive)
REMARK    1  A    between atoms: S1_2  and  C2_3 
REMARK    2  A    between atoms: C2_3  and  C3_4 
REMARK    3  A    between atoms: C3_4  and  C4_5 
REMARK    4  A    between atoms: C4_5  and  N1_6 
REMARK    5  A    between atoms: C4_5  and  C28_42 
REMARK       I    between atoms: N1_6  and  C5_8 
REMARK    6  A    between atoms: C5_8  and  C6_10 
REMARK       I    between atoms: N3_16  and  C11_17 
REMARK    7  A    between atoms: C11_17  and  C12_19 
REMARK    8  A    between atoms: C12_19  and  N4_20 
REMARK    9  A    between atoms: C12_19  and  C24_38 
REMARK       I    between atoms: N4_20  and  C13_22 
REMARK   10  A    between atoms: C13_22  and  C14_24 
REMARK   11  A    between atoms: C14_24  and  C15_25 
REMARK   12  A    between atoms: C14_24  and  N5_29 
REMARK   13  A    between atoms: C15_25  and  C16_26 
REMARK       I    between atoms: N5_29  and  C19_31 
REMARK   14  A    between atoms: C19_31  and  O5_33 
REMARK   15  A    between atoms: O5_33  and  C20_34 
ROOT
HETATM    1  C12 UNL     1       2.678  17.379  19.986  1.00  0.00     0.184 C 
ENDROOT
BRANCH   1   2
HETATM    2  C11 UNL     1       2.536  16.000  19.383  1.00  0.00     0.245 C 
HETATM    3  N3  UNL     1       2.860  15.661  18.067  1.00  0.00    -0.306 N 
HETATM    4  C6  UNL     1       3.411  16.503  16.983  1.00  0.00     0.419 C 
HETATM    5  C9  UNL     1       2.744  14.375  17.440  1.00  0.00     0.114 C 
HETATM    6  N2  UNL     1       2.753  16.022  15.820  1.00  0.00     0.118 N 
HETATM    7  C7  UNL     1       1.801  16.964  15.264  1.00  0.00     0.313 C 
HETATM    8  C8  UNL     1       2.147  14.765  16.086  1.00  0.00     0.300 C 
HETATM    9  C10 UNL     1       1.872  13.404  18.156  1.00  0.00     0.034 C 
HETATM   10  O2  UNL     1       2.095  15.113  20.143  1.00  0.00    -0.271 OA
BRANCH   4  11
HETATM   11  C5  UNL     1       4.895  16.317  16.890  1.00  0.00     0.272 C 
HETATM   12  N1  UNL     1       5.633  16.616  15.709  1.00  0.00    -0.343 N 
ATOM     13  H1  UNL     1       5.140  16.962  14.886  1.00  0.00     0.163 HD
HETATM   14  O1  UNL     1       5.469  15.878  17.916  1.00  0.00    -0.269 OA
BRANCH  12  15
HETATM   15  C4  UNL     1       7.080  16.438  15.654  1.00  0.00     0.186 C 
BRANCH  15  16
HETATM   16  C3  UNL     1       7.629  17.603  14.886  1.00  0.00     0.046 C 
BRANCH  16  17
HETATM   17  C2  UNL     1       9.053  17.436  14.436  1.00  0.00     0.076 C 
BRANCH  17  18
HETATM   18  S1  UNL     1      10.240  17.671  15.787  1.00  0.00    -0.173 SA
HETATM   19  C1  UNL     1      11.059  19.288  15.619  1.00  0.00     0.089 C 
ENDBRANCH  17  18
ENDBRANCH  16  17
ENDBRANCH  15  16
BRANCH  15  20
HETATM   20  C28 UNL     1       7.417  15.118  15.049  1.00  0.00     0.196 C 
HETATM   21  O6  UNL     1       6.806  14.714  14.029  1.00  0.00    -0.646 OA
HETATM   22  O7  UNL     1       8.393  14.302  15.574  1.00  0.00    -0.646 OA
ENDBRANCH  15  20
ENDBRANCH  12  15
ENDBRANCH   4  11
ENDBRANCH   1   2
BRANCH   1  23
HETATM   23  N4  UNL     1       3.654  17.122  21.082  1.00  0.00    -0.345 N 
HETATM   24  C13 UNL     1       4.973  17.581  21.074  1.00  0.00     0.241 C 
HETATM   25  O3  UNL     1       5.340  18.316  20.079  1.00  0.00    -0.271 OA
ATOM     26  H4  UNL     1       3.340  16.578  21.885  1.00  0.00     0.163 HD
BRANCH  24  27
HETATM   27  C14 UNL     1       5.953  17.258  22.112  1.00  0.00     0.179 C 
BRANCH  27  28
HETATM   28  C15 UNL     1       5.570  17.139  23.521  1.00  0.00     0.038 C 
BRANCH  28  29
HETATM   29  C16 UNL     1       5.852  15.913  24.285  1.00  0.00    -0.020 C 
HETATM   30  C17 UNL     1       7.273  15.632  24.628  1.00  0.00     0.009 C 
HETATM   31  C18 UNL     1       5.105  16.017  25.639  1.00  0.00     0.009 C 
ENDBRANCH  28  29
ENDBRANCH  27  28
BRANCH  27  32
HETATM   32  N5  UNL     1       7.059  18.217  21.940  1.00  0.00    -0.324 N 
HETATM   33  C19 UNL     1       8.295  17.772  21.417  1.00  0.00     0.362 C 
HETATM   34  O4  UNL     1       8.429  16.540  21.102  1.00  0.00    -0.238 OA
ATOM     35  H5  UNL     1       6.934  19.196  22.196  1.00  0.00     0.165 HD
BRANCH  33  36
HETATM   36  O5  UNL     1       9.385  18.578  21.215  1.00  0.00    -0.294 OA
BRANCH  36  37
HETATM   37  C20 UNL     1       9.659  19.229  19.983  1.00  0.00     0.061 C 
HETATM   38  C21 UNL     1      11.024  18.935  19.436  1.00  0.00     0.046 C 
HETATM   39  C22 UNL     1       9.636  20.731  20.305  1.00  0.00     0.046 C 
HETATM   40  C23 UNL     1       8.591  18.979  18.959  1.00  0.00     0.046 C 
ENDBRANCH  36  37
ENDBRANCH  33  36
ENDBRANCH  27  32
ENDBRANCH  24  27
ENDBRANCH   1  23
BRANCH   1  41
HETATM   41  C24 UNL     1       1.428  17.845  20.617  1.00  0.00    -0.022 C 
HETATM   42  C25 UNL     1       0.172  17.621  19.784  1.00  0.00     0.017 C 
HETATM   43  C26 UNL     1       1.155  17.371  22.003  1.00  0.00     0.017 C 
HETATM   44  C27 UNL     1       1.524  19.387  20.676  1.00  0.00     0.017 C 
ENDBRANCH   1  41
TORSDOF 15
ENDMDL
MODEL 4
REMARK VINA RESULT: -6.188804435      2.165      5.966
REMARK  15 active torsions:
REMARK  status: ('A' for Active; 'I' for Inactive)
REMARK    1  A    between atoms: S1_2  and  C2_3 
REMARK    2  A    between atoms: C2_3  and  C3_4 
REMARK    3  A    between atoms: C3_4  and  C4_5 
REMARK    4  A    between atoms: C4_5  and  N1_6 
REMARK    5  A    between atoms: C4_5  and  C28_42 
REMARK       I    between atoms: N1_6  and  C5_8 
REMARK    6  A    between atoms: C5_8  and  C6_10 
REMARK       I    between atoms: N3_16  and  C11_17 
REMARK    7  A    between atoms: C11_17  and  C12_19 
REMARK    8  A    between atoms: C12_19  and  N4_20 
REMARK    9  A    between atoms: C12_19  and  C24_38 
REMARK       I    between atoms: N4_20  and  C13_22 
REMARK   10  A    between atoms: C13_22  and  C14_24 
REMARK   11  A    between atoms: C14_24  and  C15_25 
REMARK   12  A    between atoms: C14_24  and  N5_29 
REMARK   13  A    between atoms: C15_25  and  C16_26 
REMARK       I    between atoms: N5_29  and  C19_31 
REMARK   14  A    between atoms: C19_31  and  O5_33 
REMARK   15  A    between atoms: O5_33  and  C20_34 
ROOT
HETATM    1  C12 UNL     1       3.665  18.038  19.166  1.00  0.00     0.184 C 
ENDROOT
BRANCH   1   2
HETATM    2  C11 UNL     1       3.210  16.615  18.931  1.00  0.00     0.245 C 
HETATM    3  N3  UNL     1       3.116  15.996  17.682  1.00  0.00    -0.306 N 
HETATM    4  C6  UNL     1       3.434  16.528  16.339  1.00  0.00     0.419 C 
HETATM    5  C9  UNL     1       2.689  14.656  17.399  1.00  0.00     0.114 C 
HETATM    6  N2  UNL     1       2.430  15.961  15.510  1.00  0.00     0.118 N 
HETATM    7  C7  UNL     1       1.472  16.931  15.018  1.00  0.00     0.313 C 
HETATM    8  C8  UNL     1       1.787  14.889  16.185  1.00  0.00     0.300 C 
HETATM    9  C10 UNL     1       1.949  13.987  18.503  1.00  0.00     0.034 C 
HETATM   10  O2  UNL     1       2.902  15.964  19.951  1.00  0.00    -0.271 OA
BRANCH   4  11
HETATM   11  C5  UNL     1       4.804  16.086  15.921  1.00  0.00     0.272 C 
HETATM   12  N1  UNL     1       5.991  16.716  16.391  1.00  0.00    -0.343 N 
ATOM     13  H1  UNL     1       5.917  17.508  17.031  1.00  0.00     0.163 HD
HETATM   14  O1  UNL     1       4.860  15.117  15.124  1.00  0.00    -0.269 OA
BRANCH  12  15
HETATM   15  C4  UNL     1       7.311  16.254  15.978  1.00  0.00     0.186 C 
BRANCH  15  16
HETATM   16  C3  UNL     1       8.204  16.365  17.177  1.00  0.00     0.046 C 
BRANCH  16  17
HETATM   17  C2  UNL     1       8.972  17.653  17.265  1.00  0.00     0.076 C 
BRANCH  17  18
HETATM   18  S1  UNL     1      10.753  17.417  17.010  1.00  0.00    -0.173 SA
HETATM   19  C1  UNL     1      11.375  18.635  15.809  1.00  0.00     0.089 C 
ENDBRANCH  17  18
ENDBRANCH  16  17
ENDBRANCH  15  16
BRANCH  15  20
HETATM   20  C28 UNL     1       7.792  17.040  14.807  1.00  0.00     0.196 C 
HETATM   21  O6  UNL     1       8.731  16.606  14.094  1.00  0.00    -0.646 OA
HETATM   22  O7  UNL     1       7.238  18.252  14.463  1.00  0.00    -0.646 OA
ENDBRANCH  15  20
ENDBRANCH  12  15
ENDBRANCH   4  11
ENDBRANCH   1   2
BRANCH   1  23
HETATM   23  N4  UNL     1       4.443  17.893  20.428  1.00  0.00    -0.345 N 
HETATM   24  C13 UNL     1       5.837  17.833  20.482  1.00  0.00     0.241 C 
HETATM   25  O3  UNL     1       6.481  17.966  19.371  1.00  0.00    -0.271 OA
ATOM     26  H4  UNL     1       3.926  17.835  21.305  1.00  0.00     0.163 HD
BRANCH  24  27
HETATM   27  C14 UNL     1       6.595  17.609  21.713  1.00  0.00     0.179 C 
BRANCH  27  28
HETATM   28  C15 UNL     1       5.938  17.554  23.022  1.00  0.00     0.038 C 
BRANCH  28  29
HETATM   29  C16 UNL     1       5.814  16.286  23.759  1.00  0.00    -0.020 C 
HETATM   30  C17 UNL     1       7.050  15.724  24.366  1.00  0.00     0.009 C 
HETATM   31  C18 UNL     1       4.834  16.517  24.937  1.00  0.00     0.009 C 
ENDBRANCH  28  29
ENDBRANCH  27  28
BRANCH  27  32
HETATM   32  N5  UNL     1       7.686  18.601  21.707  1.00  0.00    -0.324 N 
HETATM   33  C19 UNL     1       8.963  18.232  21.227  1.00  0.00     0.362 C 
HETATM   34  O4  UNL     1       9.148  17.039  20.807  1.00  0.00    -0.238 OA
ATOM     35  H5  UNL     1       7.520  19.548  22.046  1.00  0.00     0.165 HD
BRANCH  33  36
HETATM   36  O5  UNL     1      10.044  19.074  21.175  1.00  0.00    -0.294 OA
BRANCH  36  37
HETATM   37  C20 UNL     1      10.061  20.277  20.421  1.00  0.00     0.061 C 
HETATM   38  C21 UNL     1       9.053  20.307  19.312  1.00  0.00     0.046 C 
HETATM   39  C22 UNL     1      11.443  20.313  19.749  1.00  0.00     0.046 C 
HETATM   40  C23 UNL     1       9.959  21.495  21.291  1.00  0.00     0.046 C 
ENDBRANCH  36  37
ENDBRANCH  33  36
ENDBRANCH  27  32
ENDBRANCH  24  27
ENDBRANCH   1  23
BRANCH   1  41
HETATM   41  C24 UNL     1       2.538  18.947  19.450  1.00  0.00    -0.022 C 
HETATM   42  C25 UNL     1       1.275  18.667  18.644  1.00  0.00     0.017 C 
HETATM   43  C26 UNL     1       2.148  19.111  20.879  1.00  0.00     0.017 C 
HETATM   44  C27 UNL     1       2.967  20.340  18.933  1.00  0.00     0.017 C 
ENDBRANCH   1  41
TORSDOF 15
ENDMDL
MODEL 5
REMARK VINA RESULT: -6.183523607      2.843      6.174
REMARK  15 active torsions:
REMARK  status: ('A' for Active; 'I' for Inactive)
REMARK    1  A    between atoms: S1_2  and  C2_3 
REMARK    2  A    between atoms: C2_3  and  C3_4 
REMARK    3  A    between atoms: C3_4  and  C4_5 
REMARK    4  A    between atoms: C4_5  and  N1_6 
REMARK    5  A    between atoms: C4_5  and  C28_42 
REMARK       I    between atoms: N1_6  and  C5_8 
REMARK    6  A    between atoms: C5_8  and  C6_10 
REMARK       I    between atoms: N3_16  and  C11_17 
REMARK    7  A    between atoms: C11_17  and  C12_19 
REMARK    8  A    between atoms: C12_19  and  N4_20 
REMARK    9  A    between atoms: C12_19  and  C24_38 
REMARK       I    between atoms: N4_20  and  C13_22 
REMARK   10  A    between atoms: C13_22  and  C14_24 
REMARK   11  A    between atoms: C14_24  and  C15_25 
REMARK   12  A    between atoms: C14_24  and  N5_29 
REMARK   13  A    between atoms: C15_25  and  C16_26 
REMARK       I    between atoms: N5_29  and  C19_31 
REMARK   14  A    between atoms: C19_31  and  O5_33 
REMARK   15  A    between atoms: O5_33  and  C20_34 
ROOT
HETATM    1  C12 UNL     1       8.993  19.070  19.383  1.00  0.00     0.184 C 
ENDROOT
BRANCH   1   2
HETATM    2  C11 UNL     1       8.615  17.716  19.940  1.00  0.00     0.245 C 
HETATM    3  N3  UNL     1       7.389  17.077  19.740  1.00  0.00    -0.306 N 
HETATM    4  C6  UNL     1       6.211  17.519  18.962  1.00  0.00     0.419 C 
HETATM    5  C9  UNL     1       6.974  15.800  20.244  1.00  0.00     0.114 C 
HETATM    6  N2  UNL     1       5.111  17.069  19.740  1.00  0.00     0.118 N 
HETATM    7  C7  UNL     1       4.364  18.145  20.361  1.00  0.00     0.313 C 
HETATM    8  C8  UNL     1       5.548  16.116  20.698  1.00  0.00     0.300 C 
HETATM    9  C10 UNL     1       7.795  15.272  21.367  1.00  0.00     0.034 C 
HETATM   10  O2  UNL     1       9.487  17.144  20.628  1.00  0.00    -0.271 OA
BRANCH   4  11
HETATM   11  C5  UNL     1       6.220  16.882  17.606  1.00  0.00     0.272 C 
HETATM   12  N1  UNL     1       5.083  16.222  17.059  1.00  0.00    -0.343 N 
ATOM     13  H1  UNL     1       4.226  16.167  17.609  1.00  0.00     0.163 HD
HETATM   14  O1  UNL     1       7.295  16.958  16.960  1.00  0.00    -0.269 OA
BRANCH  12  15
HETATM   15  C4  UNL     1       5.119  15.625  15.729  1.00  0.00     0.186 C 
BRANCH  15  16
HETATM   16  C3  UNL     1       3.722  15.690  15.189  1.00  0.00     0.046 C 
BRANCH  16  17
HETATM   17  C2  UNL     1       2.720  16.303  16.125  1.00  0.00     0.076 C 
BRANCH  17  18
HETATM   18  S1  UNL     1       1.501  15.100  16.724  1.00  0.00    -0.173 SA
HETATM   19  C1  UNL     1       2.214  14.120  18.082  1.00  0.00     0.089 C 
ENDBRANCH  17  18
ENDBRANCH  16  17
ENDBRANCH  15  16
BRANCH  15  20
HETATM   20  C28 UNL     1       5.663  14.239  15.799  1.00  0.00     0.196 C 
HETATM   21  O6  UNL     1       4.886  13.257  15.889  1.00  0.00    -0.646 OA
HETATM   22  O7  UNL     1       7.015  13.982  15.766  1.00  0.00    -0.646 OA
ENDBRANCH  15  20
ENDBRANCH  12  15
ENDBRANCH   4  11
ENDBRANCH   1   2
BRANCH   1  23
HETATM   23  N4  UNL     1      10.039  18.698  18.390  1.00  0.00    -0.345 N 
HETATM   24  C13 UNL     1      10.042  19.130  17.062  1.00  0.00     0.241 C 
HETATM   25  O3  UNL     1       9.108  19.942  16.700  1.00  0.00    -0.271 OA
ATOM     26  H4  UNL     1      10.799  18.091  18.699  1.00  0.00     0.163 HD
BRANCH  24  27
HETATM   27  C14 UNL     1      11.026  18.697  16.068  1.00  0.00     0.179 C 
BRANCH  27  28
HETATM   28  C15 UNL     1      11.110  17.304  15.623  1.00  0.00     0.038 C 
BRANCH  28  29
HETATM   29  C16 UNL     1      10.404  16.846  14.416  1.00  0.00    -0.020 C 
HETATM   30  C17 UNL     1       9.924  15.438  14.396  1.00  0.00     0.009 C 
HETATM   31  C18 UNL     1       9.138  17.725  14.247  1.00  0.00     0.009 C 
ENDBRANCH  28  29
ENDBRANCH  27  28
BRANCH  27  32
HETATM   32  N5  UNL     1      12.332  19.182  16.551  1.00  0.00    -0.324 N 
HETATM   33  C19 UNL     1      12.839  20.414  16.078  1.00  0.00     0.362 C 
HETATM   34  O4  UNL     1      12.150  21.087  15.237  1.00  0.00    -0.238 OA
ATOM     35  H5  UNL     1      12.868  18.631  17.222  1.00  0.00     0.165 HD
BRANCH  33  36
HETATM   36  O5  UNL     1      14.038  20.956  16.462  1.00  0.00    -0.294 OA
BRANCH  36  37
HETATM   37  C20 UNL     1      14.230  21.634  17.695  1.00  0.00     0.061 C 
HETATM   38  C21 UNL     1      13.087  22.526  18.076  1.00  0.00     0.046 C 
HETATM   39  C22 UNL     1      15.438  22.556  17.465  1.00  0.00     0.046 C 
HETATM   40  C23 UNL     1      14.593  20.697  18.808  1.00  0.00     0.046 C 
ENDBRANCH  36  37
ENDBRANCH  33  36
ENDBRANCH  27  32
ENDBRANCH  24  27
ENDBRANCH   1  23
BRANCH   1  41
HETATM   41  C24 UNL     1       9.638  19.931  20.394  1.00  0.00    -0.022 C 
HETATM   42  C25 UNL     1       8.937  19.959  21.747  1.00  0.00     0.017 C 
HETATM   43  C26 UNL     1      11.094  19.718  20.630  1.00  0.00     0.017 C 
HETATM   44  C27 UNL     1       9.467  21.384  19.893  1.00  0.00     0.017 C 
ENDBRANCH   1  41
TORSDOF 15
ENDMDL
