MODEL 1
REMARK VINA RESULT: -8.224784378      0.000      0.000
REMARK  15 active torsions:
REMARK  status: ('A' for Active; 'I' for Inactive)
REMARK    1  A    between atoms: C2_2  and  C3_3 
REMARK    2  A    between atoms: C3_3  and  C4_4 
REMARK    3  A    between atoms: C4_4  and  C5_5 
REMARK    4  A    between atoms: C5_5  and  O1_6 
REMARK    5  A    between atoms: O1_6  and  C6_7 
REMARK       I    between atoms: C6_7  and  N1_9 
REMARK       I    between atoms: N2_12  and  C9_13 
REMARK    6  A    between atoms: C9_13  and  C10_15 
REMARK    7  A    between atoms: C12_17  and  S1_18 
REMARK       I    between atoms: N3_21  and  C15_22 
REMARK    8  A    between atoms: C15_22  and  C16_24 
REMARK    9  A    between atoms: C16_24  and  C17_25 
REMARK   10  A    between atoms: C16_24  and  N7_33 
REMARK   11  A    between atoms: C17_25  and  C18_26 
REMARK   12  A    between atoms: C18_26  and  C19_27 
REMARK   13  A    between atoms: C19_27  and  N4_28 
REMARK       I    between atoms: N7_33  and  C21_35 
REMARK   14  A    between atoms: C21_35  and  O6_37 
REMARK   15  A    between atoms: O6_37  and  C22_38 
ROOT
HETATM    1  C10 UNL     1      10.010  18.094  16.307  1.00  0.00     0.180 C 
HETATM    2  C11 UNL     1       9.864  17.331  15.049  1.00  0.00     0.052 C 
HETATM    3  C12 UNL     1       9.279  16.002  15.588  1.00  0.00     0.067 C 
HETATM    4  C14 UNL     1       8.302  16.521  16.632  1.00  0.00     0.142 C 
HETATM    5  N3  UNL     1       9.009  17.629  17.213  1.00  0.00    -0.336 N 
HETATM    6  C15 UNL     1       8.755  18.244  18.484  1.00  0.00     0.243 C 
HETATM    7  O4  UNL     1       9.452  19.280  18.771  1.00  0.00    -0.271 OA
ENDROOT
BRANCH   1   8
HETATM    8  C9  UNL     1      11.385  18.097  16.849  1.00  0.00     0.242 C 
HETATM    9  N2  UNL     1      12.149  19.262  16.884  1.00  0.00    -0.347 N 
HETATM   10  C8  UNL     1      11.699  20.543  16.420  1.00  0.00     0.146 C 
HETATM   11  C26 UNL     1      13.506  19.204  17.422  1.00  0.00     0.146 C 
HETATM   12  C7  UNL     1      12.236  21.687  17.259  1.00  0.00     0.148 C 
HETATM   13  N1  UNL     1      13.655  21.602  17.378  1.00  0.00    -0.325 N 
HETATM   14  C6  UNL     1      14.370  22.737  17.903  1.00  0.00     0.362 C 
HETATM   15  C27 UNL     1      14.322  20.391  16.964  1.00  0.00     0.148 C 
HETATM   16  O2  UNL     1      15.616  22.584  18.005  1.00  0.00    -0.238 OA
HETATM   17  O3  UNL     1      11.888  17.037  17.289  1.00  0.00    -0.271 OA
BRANCH  14  18
HETATM   18  O1  UNL     1      13.740  23.885  18.258  1.00  0.00    -0.304 OA
BRANCH  18  19
HETATM   19  C5  UNL     1      14.221  25.169  18.243  1.00  0.00     0.180 C 
BRANCH  19  20
HETATM   20  C4  UNL     1      15.185  25.638  19.268  1.00  0.00     0.027 C 
BRANCH  20  21
HETATM   21  C3  UNL     1      16.604  25.822  18.897  1.00  0.00     0.002 C 
BRANCH  21  22
HETATM   22  C2  UNL     1      17.455  24.868  19.760  1.00  0.00    -0.004 C 
HETATM   23  C1  UNL     1      16.613  24.414  20.920  1.00  0.00     0.005 C 
ENDBRANCH  21  22
ENDBRANCH  20  21
ENDBRANCH  19  20
ENDBRANCH  18  19
ENDBRANCH  14  18
ENDBRANCH   1   8
BRANCH   6  24
HETATM   24  C16 UNL     1       7.794  17.832  19.491  1.00  0.00     0.179 C 
BRANCH  24  25
HETATM   25  C17 UNL     1       8.017  18.425  20.875  1.00  0.00     0.037 C 
BRANCH  25  26
HETATM   26  C18 UNL     1       6.917  18.057  21.828  1.00  0.00     0.022 C 
BRANCH  26  27
HETATM   27  C19 UNL     1       7.062  16.629  22.319  1.00  0.00     0.122 C 
BRANCH  27  28
HETATM   28  N4  UNL     1       5.982  16.341  23.236  1.00  0.00    -0.367 N 
HETATM   29  C20 UNL     1       6.230  15.813  24.393  1.00  0.00     0.196 C 
HETATM   30  N5  UNL     1       7.570  15.521  24.751  1.00  0.00    -0.067 NA
HETATM   31  N6  UNL     1       5.200  15.513  25.320  1.00  0.00    -0.067 NA
ATOM     32  H4  UNL     1       5.021  16.554  22.971  1.00  0.00     0.161 HD
ENDBRANCH  27  28
ENDBRANCH  26  27
ENDBRANCH  25  26
ENDBRANCH  24  25
BRANCH  24  33
HETATM   33  N7  UNL     1       6.412  18.232  19.136  1.00  0.00    -0.324 N 
HETATM   34  C21 UNL     1       5.416  17.253  18.885  1.00  0.00     0.362 C 
HETATM   35  O5  UNL     1       5.643  16.023  18.952  1.00  0.00    -0.238 OA
ATOM     36  H7  UNL     1       6.174  19.222  19.072  1.00  0.00     0.165 HD
BRANCH  34  37
HETATM   37  O6  UNL     1       4.152  17.676  18.559  1.00  0.00    -0.294 OA
BRANCH  37  38
HETATM   38  C22 UNL     1       3.231  18.337  19.369  1.00  0.00     0.061 C 
HETATM   39  C23 UNL     1       3.271  19.858  19.178  1.00  0.00     0.046 C 
HETATM   40  C24 UNL     1       1.845  17.825  18.926  1.00  0.00     0.046 C 
HETATM   41  C25 UNL     1       3.351  18.051  20.837  1.00  0.00     0.046 C 
ENDBRANCH  37  38
ENDBRANCH  34  37
ENDBRANCH  24  33
ENDBRANCH   6  24
BRANCH   3  42
HETATM   42  S1  UNL     1       8.452  15.149  14.234  1.00  0.00    -0.167 SA
HETATM   43  C13 UNL     1       6.755  14.775  14.749  1.00  0.00     0.090 C 
ENDBRANCH   3  42
TORSDOF 15
ENDMDL
MODEL 2
REMARK VINA RESULT: -8.193860969      0.899      1.281
REMARK  15 active torsions:
REMARK  status: ('A' for Active; 'I' for Inactive)
REMARK    1  A    between atoms: C2_2  and  C3_3 
REMARK    2  A    between atoms: C3_3  and  C4_4 
REMARK    3  A    between atoms: C4_4  and  C5_5 
REMARK    4  A    between atoms: C5_5  and  O1_6 
REMARK    5  A    between atoms: O1_6  and  C6_7 
REMARK       I    between atoms: C6_7  and  N1_9 
REMARK       I    between atoms: N2_12  and  C9_13 
REMARK    6  A    between atoms: C9_13  and  C10_15 
REMARK    7  A    between atoms: C12_17  and  S1_18 
REMARK       I    between atoms: N3_21  and  C15_22 
REMARK    8  A    between atoms: C15_22  and  C16_24 
REMARK    9  A    between atoms: C16_24  and  C17_25 
REMARK   10  A    between atoms: C16_24  and  N7_33 
REMARK   11  A    between atoms: C17_25  and  C18_26 
REMARK   12  A    between atoms: C18_26  and  C19_27 
REMARK   13  A    between atoms: C19_27  and  N4_28 
REMARK       I    between atoms: N7_33  and  C21_35 
REMARK   14  A    between atoms: C21_35  and  O6_37 
REMARK   15  A    between atoms: O6_37  and  C22_38 
ROOT
HETATM    1  C10 UNL     1       9.760  18.145  16.280  1.00  0.00     0.180 C 
HETATM    2  C11 UNL     1       9.582  17.403  15.013  1.00  0.00     0.052 C 
HETATM    3  C12 UNL     1       8.985  16.076  15.541  1.00  0.00     0.067 C 
HETATM    4  C14 UNL     1       8.033  16.593  16.608  1.00  0.00     0.142 C 
HETATM    5  N3  UNL     1       8.767  17.681  17.195  1.00  0.00    -0.336 N 
HETATM    6  C15 UNL     1       8.543  18.281  18.479  1.00  0.00     0.243 C 
HETATM    7  O4  UNL     1       9.261  19.301  18.770  1.00  0.00    -0.271 OA
ENDROOT
BRANCH   1   8
HETATM    8  C9  UNL     1      11.144  18.118  16.799  1.00  0.00     0.242 C 
HETATM    9  N2  UNL     1      11.931  19.267  16.828  1.00  0.00    -0.347 N 
HETATM   10  C8  UNL     1      11.498  20.560  16.380  1.00  0.00     0.146 C 
HETATM   11  C26 UNL     1      13.294  19.180  17.344  1.00  0.00     0.146 C 
HETATM   12  C7  UNL     1      12.071  21.687  17.217  1.00  0.00     0.148 C 
HETATM   13  N1  UNL     1      13.490  21.575  17.312  1.00  0.00    -0.325 N 
HETATM   14  C6  UNL     1      14.235  22.693  17.832  1.00  0.00     0.362 C 
HETATM   15  C27 UNL     1      14.126  20.354  16.880  1.00  0.00     0.148 C 
HETATM   16  O2  UNL     1      15.479  22.515  17.913  1.00  0.00    -0.238 OA
HETATM   17  O3  UNL     1      11.633  17.045  17.225  1.00  0.00    -0.271 OA
BRANCH  14  18
HETATM   18  O1  UNL     1      13.633  23.850  18.204  1.00  0.00    -0.304 OA
BRANCH  18  19
HETATM   19  C5  UNL     1      14.144  25.123  18.205  1.00  0.00     0.180 C 
BRANCH  19  20
HETATM   20  C4  UNL     1      15.242  25.507  19.123  1.00  0.00     0.027 C 
BRANCH  20  21
HETATM   21  C3  UNL     1      15.362  24.830  20.432  1.00  0.00     0.002 C 
BRANCH  21  22
HETATM   22  C2  UNL     1      16.847  24.478  20.658  1.00  0.00    -0.004 C 
HETATM   23  C1  UNL     1      17.613  24.880  19.428  1.00  0.00     0.005 C 
ENDBRANCH  21  22
ENDBRANCH  20  21
ENDBRANCH  19  20
ENDBRANCH  18  19
ENDBRANCH  14  18
ENDBRANCH   1   8
BRANCH   6  24
HETATM   24  C16 UNL     1       7.592  17.868  19.495  1.00  0.00     0.179 C 
BRANCH  24  25
HETATM   25  C17 UNL     1       7.723  18.587  20.830  1.00  0.00     0.037 C 
BRANCH  25  26
HETATM   26  C18 UNL     1       8.370  17.724  21.873  1.00  0.00     0.022 C 
BRANCH  26  27
HETATM   27  C19 UNL     1       7.732  16.349  21.932  1.00  0.00     0.122 C 
BRANCH  27  28
HETATM   28  N4  UNL     1       6.434  16.465  22.556  1.00  0.00    -0.367 N 
HETATM   29  C20 UNL     1       6.260  16.081  23.781  1.00  0.00     0.196 C 
HETATM   30  N5  UNL     1       7.356  15.547  24.504  1.00  0.00    -0.067 NA
HETATM   31  N6  UNL     1       5.003  16.175  24.429  1.00  0.00    -0.067 NA
ATOM     32  H4  UNL     1       5.650  16.850  22.030  1.00  0.00     0.161 HD
ENDBRANCH  27  28
ENDBRANCH  26  27
ENDBRANCH  25  26
ENDBRANCH  24  25
BRANCH  24  33
HETATM   33  N7  UNL     1       6.192  18.117  19.078  1.00  0.00    -0.324 N 
HETATM   34  C21 UNL     1       5.216  17.090  19.168  1.00  0.00     0.362 C 
HETATM   35  O5  UNL     1       5.476  15.943  19.599  1.00  0.00    -0.238 OA
ATOM     36  H7  UNL     1       5.927  19.035  18.722  1.00  0.00     0.165 HD
BRANCH  34  37
HETATM   37  O6  UNL     1       3.934  17.371  18.768  1.00  0.00    -0.294 OA
BRANCH  37  38
HETATM   38  C22 UNL     1       3.270  16.917  17.630  1.00  0.00     0.061 C 
HETATM   39  C23 UNL     1       2.389  15.695  17.917  1.00  0.00     0.046 C 
HETATM   40  C24 UNL     1       2.362  18.081  17.185  1.00  0.00     0.046 C 
HETATM   41  C25 UNL     1       4.154  16.586  16.464  1.00  0.00     0.046 C 
ENDBRANCH  37  38
ENDBRANCH  34  37
ENDBRANCH  24  33
ENDBRANCH   6  24
BRANCH   3  42
HETATM   42  S1  UNL     1       8.123  15.256  14.188  1.00  0.00    -0.167 SA
HETATM   43  C13 UNL     1       6.628  14.477  14.854  1.00  0.00     0.090 C 
ENDBRANCH   3  42
TORSDOF 15
ENDMDL
MODEL 3
REMARK VINA RESULT: -7.949948539      2.394      3.749
REMARK  15 active torsions:
REMARK  status: ('A' for Active; 'I' for Inactive)
REMARK    1  A    between atoms: C2_2  and  C3_3 
REMARK    2  A    between atoms: C3_3  and  C4_4 
REMARK    3  A    between atoms: C4_4  and  C5_5 
REMARK    4  A    between atoms: C5_5  and  O1_6 
REMARK    5  A    between atoms: O1_6  and  C6_7 
REMARK       I    between atoms: C6_7  and  N1_9 
REMARK       I    between atoms: N2_12  and  C9_13 
REMARK    6  A    between atoms: C9_13  and  C10_15 
REMARK    7  A    between atoms: C12_17  and  S1_18 
REMARK       I    between atoms: N3_21  and  C15_22 
REMARK    8  A    between atoms: C15_22  and  C16_24 
REMARK    9  A    between atoms: C16_24  and  C17_25 
REMARK   10  A    between atoms: C16_24  and  N7_33 
REMARK   11  A    between atoms: C17_25  and  C18_26 
REMARK   12  A    between atoms: C18_26  and  C19_27 
REMARK   13  A    between atoms: C19_27  and  N4_28 
REMARK       I    between atoms: N7_33  and  C21_35 
REMARK   14  A    between atoms: C21_35  and  O6_37 
REMARK   15  A    between atoms: O6_37  and  C22_38 
ROOT
HETATM    1  C10 UNL     1       7.055  16.655  16.173  1.00  0.00     0.180 C 
HETATM    2  C11 UNL     1       6.263  15.893  15.183  1.00  0.00     0.052 C 
HETATM    3  C12 UNL     1       5.794  14.699  16.051  1.00  0.00     0.067 C 
HETATM    4  C14 UNL     1       5.461  15.406  17.356  1.00  0.00     0.142 C 
HETATM    5  N3  UNL     1       6.501  16.393  17.463  1.00  0.00    -0.336 N 
HETATM    6  C15 UNL     1       6.923  17.077  18.652  1.00  0.00     0.243 C 
HETATM    7  O4  UNL     1       7.814  17.985  18.506  1.00  0.00    -0.271 OA
ENDROOT
BRANCH   1   8
HETATM    8  C9  UNL     1       8.513  16.438  16.068  1.00  0.00     0.242 C 
HETATM    9  N2  UNL     1       9.384  17.487  15.784  1.00  0.00    -0.347 N 
HETATM   10  C8  UNL     1       8.978  18.848  15.576  1.00  0.00     0.146 C 
HETATM   11  C26 UNL     1      10.815  17.213  15.682  1.00  0.00     0.146 C 
HETATM   12  C7  UNL     1       9.986  19.844  16.115  1.00  0.00     0.148 C 
HETATM   13  N1  UNL     1      11.290  19.568  15.608  1.00  0.00    -0.325 N 
HETATM   14  C6  UNL     1      12.322  20.557  15.787  1.00  0.00     0.362 C 
HETATM   15  C27 UNL     1      11.527  18.315  14.932  1.00  0.00     0.148 C 
HETATM   16  O2  UNL     1      13.453  20.236  15.339  1.00  0.00    -0.238 OA
HETATM   17  O3  UNL     1       8.990  15.291  16.234  1.00  0.00    -0.271 OA
BRANCH  14  18
HETATM   18  O1  UNL     1      12.082  21.747  16.393  1.00  0.00    -0.304 OA
BRANCH  18  19
HETATM   19  C5  UNL     1      12.381  22.133  17.675  1.00  0.00     0.180 C 
BRANCH  19  20
HETATM   20  C4  UNL     1      13.415  23.161  17.945  1.00  0.00     0.027 C 
BRANCH  20  21
HETATM   21  C3  UNL     1      14.305  23.003  19.115  1.00  0.00     0.002 C 
BRANCH  21  22
HETATM   22  C2  UNL     1      14.838  24.396  19.507  1.00  0.00    -0.004 C 
HETATM   23  C1  UNL     1      14.409  25.373  18.448  1.00  0.00     0.005 C 
ENDBRANCH  21  22
ENDBRANCH  20  21
ENDBRANCH  19  20
ENDBRANCH  18  19
ENDBRANCH  14  18
ENDBRANCH   1   8
BRANCH   6  24
HETATM   24  C16 UNL     1       6.456  16.862  20.009  1.00  0.00     0.179 C 
BRANCH  24  25
HETATM   25  C17 UNL     1       7.526  16.986  21.085  1.00  0.00     0.037 C 
BRANCH  25  26
HETATM   26  C18 UNL     1       7.653  18.392  21.592  1.00  0.00     0.022 C 
BRANCH  26  27
HETATM   27  C19 UNL     1       9.107  18.809  21.720  1.00  0.00     0.122 C 
BRANCH  27  28
HETATM   28  N4  UNL     1       9.849  18.253  20.612  1.00  0.00    -0.367 N 
HETATM   29  C20 UNL     1      10.777  18.947  20.032  1.00  0.00     0.196 C 
HETATM   30  N5  UNL     1      11.058  20.257  20.496  1.00  0.00    -0.067 NA
HETATM   31  N6  UNL     1      11.526  18.440  18.941  1.00  0.00    -0.067 NA
ATOM     32  H4  UNL     1       9.642  17.310  20.284  1.00  0.00     0.161 HD
ENDBRANCH  27  28
ENDBRANCH  26  27
ENDBRANCH  25  26
ENDBRANCH  24  25
BRANCH  24  33
HETATM   33  N7  UNL     1       5.422  17.848  20.402  1.00  0.00    -0.324 N 
HETATM   34  C21 UNL     1       4.058  17.468  20.501  1.00  0.00     0.362 C 
HETATM   35  O5  UNL     1       3.661  16.302  20.269  1.00  0.00    -0.238 OA
ATOM     36  H7  UNL     1       5.693  18.810  20.605  1.00  0.00     0.165 HD
BRANCH  34  37
HETATM   37  O6  UNL     1       3.140  18.418  20.867  1.00  0.00    -0.294 OA
BRANCH  37  38
HETATM   38  C22 UNL     1       2.377  19.241  20.040  1.00  0.00     0.061 C 
HETATM   39  C23 UNL     1       1.206  18.491  19.392  1.00  0.00     0.046 C 
HETATM   40  C24 UNL     1       1.806  20.340  20.959  1.00  0.00     0.046 C 
HETATM   41  C25 UNL     1       3.140  19.936  18.952  1.00  0.00     0.046 C 
ENDBRANCH  37  38
ENDBRANCH  34  37
ENDBRANCH  24  33
ENDBRANCH   6  24
BRANCH   3  42
HETATM   42  S1  UNL     1       4.344  13.962  15.277  1.00  0.00    -0.167 SA
HETATM   43  C13 UNL     1       3.059  15.233  15.151  1.00  0.00     0.090 C 
ENDBRANCH   3  42
TORSDOF 15
ENDMDL
MODEL 4
REMARK VINA RESULT: -7.800443226      2.152      3.132
REMARK  15 active torsions:
REMARK  status: ('A' for Active; 'I' for Inactive)
REMARK    1  A    between atoms: C2_2  and  C3_3 
REMARK    2  A    between atoms: C3_3  and  C4_4 
REMARK    3  A    between atoms: C4_4  and  C5_5 
REMARK    4  A    between atoms: C5_5  and  O1_6 
REMARK    5  A    between atoms: O1_6  and  C6_7 
REMARK       I    between atoms: C6_7  and  N1_9 
REMARK       I    between atoms: N2_12  and  C9_13 
REMARK    6  A    between atoms: C9_13  and  C10_15 
REMARK    7  A    between atoms: C12_17  and  S1_18 
REMARK       I    between atoms: N3_21  and  C15_22 
REMARK    8  A    between atoms: C15_22  and  C16_24 
REMARK    9  A    between atoms: C16_24  and  C17_25 
REMARK   10  A    between atoms: C16_24  and  N7_33 
REMARK   11  A    between atoms: C17_25  and  C18_26 
REMARK   12  A    between atoms: C18_26  and  C19_27 
REMARK   13  A    between atoms: C19_27  and  N4_28 
REMARK       I    between atoms: N7_33  and  C21_35 
REMARK   14  A    between atoms: C21_35  and  O6_37 
REMARK   15  A    between atoms: O6_37  and  C22_38 
ROOT
HETATM    1  C10 UNL     1       9.871  17.865  15.595  1.00  0.00     0.180 C 
HETATM    2  C11 UNL     1       9.407  17.112  14.409  1.00  0.00     0.052 C 
HETATM    3  C12 UNL     1       8.938  15.795  15.074  1.00  0.00     0.067 C 
HETATM    4  C14 UNL     1       8.254  16.331  16.322  1.00  0.00     0.142 C 
HETATM    5  N3  UNL     1       9.107  17.419  16.715  1.00  0.00    -0.336 N 
HETATM    6  C15 UNL     1       9.181  18.034  18.010  1.00  0.00     0.243 C 
HETATM    7  O4  UNL     1       9.951  19.051  18.119  1.00  0.00    -0.271 OA
ENDROOT
BRANCH   1   8
HETATM    8  C9  UNL     1      11.335  17.833  15.789  1.00  0.00     0.242 C 
HETATM    9  N2  UNL     1      12.098  18.999  15.756  1.00  0.00    -0.347 N 
HETATM   10  C8  UNL     1      11.563  20.314  15.543  1.00  0.00     0.146 C 
HETATM   11  C26 UNL     1      13.543  18.907  15.945  1.00  0.00     0.146 C 
HETATM   12  C7  UNL     1      12.298  21.376  16.338  1.00  0.00     0.148 C 
HETATM   13  N1  UNL     1      13.703  21.300  16.105  1.00  0.00    -0.325 N 
HETATM   14  C6  UNL     1      14.535  22.387  16.553  1.00  0.00     0.362 C 
HETATM   15  C27 UNL     1      14.239  20.145  15.426  1.00  0.00     0.148 C 
HETATM   16  O2  UNL     1      15.767  22.241  16.338  1.00  0.00    -0.238 OA
HETATM   17  O3  UNL     1      11.918  16.742  15.989  1.00  0.00    -0.271 OA
BRANCH  14  18
HETATM   18  O1  UNL     1      14.020  23.485  17.160  1.00  0.00    -0.304 OA
BRANCH  18  19
HETATM   19  C5  UNL     1      13.914  23.756  18.501  1.00  0.00     0.180 C 
BRANCH  19  20
HETATM   20  C4  UNL     1      14.983  23.363  19.450  1.00  0.00     0.027 C 
BRANCH  20  21
HETATM   21  C3  UNL     1      15.347  24.280  20.551  1.00  0.00     0.002 C 
BRANCH  21  22
HETATM   22  C2  UNL     1      16.832  24.662  20.389  1.00  0.00    -0.004 C 
HETATM   23  C1  UNL     1      16.923  25.745  19.350  1.00  0.00     0.005 C 
ENDBRANCH  21  22
ENDBRANCH  20  21
ENDBRANCH  19  20
ENDBRANCH  18  19
ENDBRANCH  14  18
ENDBRANCH   1   8
BRANCH   6  24
HETATM   24  C16 UNL     1       8.481  17.638  19.218  1.00  0.00     0.179 C 
BRANCH  24  25
HETATM   25  C17 UNL     1       9.115  18.121  20.516  1.00  0.00     0.037 C 
BRANCH  25  26
HETATM   26  C18 UNL     1       8.354  19.263  21.122  1.00  0.00     0.022 C 
BRANCH  26  27
HETATM   27  C19 UNL     1       9.239  20.481  21.314  1.00  0.00     0.122 C 
BRANCH  27  28
HETATM   28  N4  UNL     1      10.583  20.149  20.901  1.00  0.00    -0.367 N 
HETATM   29  C20 UNL     1      11.183  20.856  19.997  1.00  0.00     0.196 C 
HETATM   30  N5  UNL     1      10.508  21.958  19.414  1.00  0.00    -0.067 NA
HETATM   31  N6  UNL     1      12.500  20.562  19.562  1.00  0.00    -0.067 NA
ATOM     32  H4  UNL     1      11.063  19.355  21.324  1.00  0.00     0.161 HD
ENDBRANCH  27  28
ENDBRANCH  26  27
ENDBRANCH  25  26
ENDBRANCH  24  25
BRANCH  24  33
HETATM   33  N7  UNL     1       7.100  18.175  19.261  1.00  0.00    -0.324 N 
HETATM   34  C21 UNL     1       5.987  17.302  19.369  1.00  0.00     0.362 C 
HETATM   35  O5  UNL     1       6.106  16.057  19.437  1.00  0.00    -0.238 OA
ATOM     36  H7  UNL     1       6.949  19.182  19.212  1.00  0.00     0.165 HD
BRANCH  34  37
HETATM   37  O6  UNL     1       4.729  17.849  19.403  1.00  0.00    -0.294 OA
BRANCH  37  38
HETATM   38  C22 UNL     1       3.648  17.569  18.570  1.00  0.00     0.061 C 
HETATM   39  C23 UNL     1       2.653  16.594  19.212  1.00  0.00     0.046 C 
HETATM   40  C24 UNL     1       2.935  18.918  18.345  1.00  0.00     0.046 C 
HETATM   41  C25 UNL     1       4.007  17.036  17.214  1.00  0.00     0.046 C 
ENDBRANCH  37  38
ENDBRANCH  34  37
ENDBRANCH  24  33
ENDBRANCH   6  24
BRANCH   3  42
HETATM   42  S1  UNL     1       7.789  14.967  13.960  1.00  0.00    -0.167 SA
HETATM   43  C13 UNL     1       6.243  14.668  14.856  1.00  0.00     0.090 C 
ENDBRANCH   3  42
TORSDOF 15
ENDMDL
MODEL 5
REMARK VINA RESULT: -7.759782101      1.910      2.763
REMARK  15 active torsions:
REMARK  status: ('A' for Active; 'I' for Inactive)
REMARK    1  A    between atoms: C2_2  and  C3_3 
REMARK    2  A    between atoms: C3_3  and  C4_4 
REMARK    3  A    between atoms: C4_4  and  C5_5 
REMARK    4  A    between atoms: C5_5  and  O1_6 
REMARK    5  A    between atoms: O1_6  and  C6_7 
REMARK       I    between atoms: C6_7  and  N1_9 
REMARK       I    between atoms: N2_12  and  C9_13 
REMARK    6  A    between atoms: C9_13  and  C10_15 
REMARK    7  A    between atoms: C12_17  and  S1_18 
REMARK       I    between atoms: N3_21  and  C15_22 
REMARK    8  A    between atoms: C15_22  and  C16_24 
REMARK    9  A    between atoms: C16_24  and  C17_25 
REMARK   10  A    between atoms: C16_24  and  N7_33 
REMARK   11  A    between atoms: C17_25  and  C18_26 
REMARK   12  A    between atoms: C18_26  and  C19_27 
REMARK   13  A    between atoms: C19_27  and  N4_28 
REMARK       I    between atoms: N7_33  and  C21_35 
REMARK   14  A    between atoms: C21_35  and  O6_37 
REMARK   15  A    between atoms: O6_37  and  C22_38 
ROOT
HETATM    1  C10 UNL     1       9.788  17.817  15.760  1.00  0.00     0.180 C 
HETATM    2  C11 UNL     1       9.428  17.071  14.535  1.00  0.00     0.052 C 
HETATM    3  C12 UNL     1       8.992  15.716  15.144  1.00  0.00     0.067 C 
HETATM    4  C14 UNL     1       8.217  16.185  16.365  1.00  0.00     0.142 C 
HETATM    5  N3  UNL     1       8.990  17.305  16.828  1.00  0.00    -0.336 N 
HETATM    6  C15 UNL     1       8.965  17.890  18.138  1.00  0.00     0.243 C 
HETATM    7  O4  UNL     1       9.675  18.941  18.311  1.00  0.00    -0.271 OA
ENDROOT
BRANCH   1   8
HETATM    8  C9  UNL     1      11.241  17.853  16.032  1.00  0.00     0.242 C 
HETATM    9  N2  UNL     1      11.956  19.049  15.998  1.00  0.00    -0.347 N 
HETATM   10  C8  UNL     1      11.381  20.332  15.710  1.00  0.00     0.146 C 
HETATM   11  C26 UNL     1      13.391  19.024  16.266  1.00  0.00     0.146 C 
HETATM   12  C7  UNL     1      12.028  21.450  16.505  1.00  0.00     0.148 C 
HETATM   13  N1  UNL     1      13.445  21.425  16.348  1.00  0.00    -0.325 N 
HETATM   14  C6  UNL     1      14.207  22.561  16.801  1.00  0.00     0.362 C 
HETATM   15  C27 UNL     1      14.063  20.272  15.740  1.00  0.00     0.148 C 
HETATM   16  O2  UNL     1      15.454  22.461  16.657  1.00  0.00    -0.238 OA
HETATM   17  O3  UNL     1      11.856  16.795  16.301  1.00  0.00    -0.271 OA
BRANCH  14  18
HETATM   18  O1  UNL     1      13.616  23.656  17.341  1.00  0.00    -0.304 OA
BRANCH  18  19
HETATM   19  C5  UNL     1      13.929  24.318  18.501  1.00  0.00     0.180 C 
BRANCH  19  20
HETATM   20  C4  UNL     1      14.666  25.604  18.475  1.00  0.00     0.027 C 
BRANCH  20  21
HETATM   21  C3  UNL     1      16.144  25.592  18.479  1.00  0.00     0.002 C 
BRANCH  21  22
HETATM   22  C2  UNL     1      16.614  24.442  19.394  1.00  0.00    -0.004 C 
HETATM   23  C1  UNL     1      16.609  24.944  20.811  1.00  0.00     0.005 C 
ENDBRANCH  21  22
ENDBRANCH  20  21
ENDBRANCH  19  20
ENDBRANCH  18  19
ENDBRANCH  14  18
ENDBRANCH   1   8
BRANCH   6  24
HETATM   24  C16 UNL     1       8.224  17.430  19.298  1.00  0.00     0.179 C 
BRANCH  24  25
HETATM   25  C17 UNL     1       8.832  17.807  20.642  1.00  0.00     0.037 C 
BRANCH  25  26
HETATM   26  C18 UNL     1       8.003  18.825  21.368  1.00  0.00     0.022 C 
BRANCH  26  27
HETATM   27  C19 UNL     1       8.795  20.087  21.652  1.00  0.00     0.122 C 
BRANCH  27  28
HETATM   28  N4  UNL     1      10.141  19.914  21.156  1.00  0.00    -0.367 N 
HETATM   29  C20 UNL     1      10.664  20.793  20.360  1.00  0.00     0.196 C 
HETATM   30  N5  UNL     1       9.902  21.927  19.981  1.00  0.00    -0.067 NA
HETATM   31  N6  UNL     1      11.979  20.659  19.849  1.00  0.00    -0.067 NA
ATOM     32  H4  UNL     1      10.683  19.095  21.433  1.00  0.00     0.161 HD
ENDBRANCH  27  28
ENDBRANCH  26  27
ENDBRANCH  25  26
ENDBRANCH  24  25
BRANCH  24  33
HETATM   33  N7  UNL     1       6.855  17.996  19.342  1.00  0.00    -0.324 N 
HETATM   34  C21 UNL     1       5.723  17.175  19.097  1.00  0.00     0.362 C 
HETATM   35  O5  UNL     1       5.816  15.953  18.839  1.00  0.00    -0.238 OA
ATOM     36  H7  UNL     1       6.724  18.985  19.551  1.00  0.00     0.165 HD
BRANCH  34  37
HETATM   37  O6  UNL     1       4.478  17.748  19.148  1.00  0.00    -0.294 OA
BRANCH  37  38
HETATM   38  C22 UNL     1       3.585  17.771  20.217  1.00  0.00     0.061 C 
HETATM   39  C23 UNL     1       2.804  19.089  20.298  1.00  0.00     0.046 C 
HETATM   40  C24 UNL     1       2.587  16.626  19.951  1.00  0.00     0.046 C 
HETATM   41  C25 UNL     1       4.195  17.512  21.563  1.00  0.00     0.046 C 
ENDBRANCH  37  38
ENDBRANCH  34  37
ENDBRANCH  24  33
ENDBRANCH   6  24
BRANCH   3  42
HETATM   42  S1  UNL     1       7.948  14.860  13.952  1.00  0.00    -0.167 SA
HETATM   43  C13 UNL     1       6.297  14.671  14.674  1.00  0.00     0.090 C 
ENDBRANCH   3  42
TORSDOF 15
ENDMDL
