MODEL 1
REMARK VINA RESULT: -8.066677542      0.000      0.000
REMARK  14 active torsions:
REMARK  status: ('A' for Active; 'I' for Inactive)
REMARK    1  A    between atoms: C2_2  and  C3_3 
REMARK    2  A    between atoms: C3_3  and  C4_4 
REMARK    3  A    between atoms: C4_4  and  C5_5 
REMARK    4  A    between atoms: C5_5  and  C6_6 
REMARK    5  A    between atoms: C6_6  and  C7_7 
REMARK    6  A    between atoms: C8_8  and  O1_9 
REMARK    7  A    between atoms: C14_21  and  C15_22 
REMARK    8  A    between atoms: C15_22  and  C16_23 
REMARK    9  A    between atoms: C16_23  and  C17_24 
REMARK   10  A    between atoms: C17_24  and  N4_25 
REMARK   11  A    between atoms: C18_27  and  O2_28 
REMARK   12  A    between atoms: C20_34  and  C21_35 
REMARK   13  A    between atoms: C21_35  and  C22_36 
REMARK   14  A    between atoms: C26_42  and  C27_43 
ROOT
HETATM    1  C7  UNL     1      16.802  24.328  16.301  1.00  0.00     0.064 C 
HETATM    2  C8  UNL     1      16.537  24.775  17.664  1.00  0.00     0.159 C 
HETATM    3  N1  UNL     1      16.483  24.071  18.866  1.00  0.00    -0.364 N 
ATOM      4  H1  UNL     1      15.598  24.149  19.368  1.00  0.00     0.162 HD
HETATM    5  C9  UNL     1      17.475  23.252  19.511  1.00  0.00     0.097 C 
HETATM    6  C10 UNL     1      17.023  22.928  20.949  1.00  0.00     0.034 C 
HETATM    7  C11 UNL     1      18.814  23.895  19.647  1.00  0.00     0.147 C 
HETATM    8  N2  UNL     1      19.907  22.946  19.704  1.00  0.00    -0.380 N 
HETATM    9  C12 UNL     1      19.614  21.691  20.412  1.00  0.00     0.150 C 
HETATM   10  C13 UNL     1      21.186  23.144  19.144  1.00  0.00     0.174 C 
HETATM   11  N3  UNL     1      21.955  24.131  19.187  1.00  0.00    -0.373 N 
ATOM     12  H3  UNL     1      22.829  23.986  18.682  1.00  0.00     0.161 HD
HETATM   13  C14 UNL     1      21.862  25.404  19.791  1.00  0.00     0.174 C 
HETATM   14  C19 UNL     1      23.058  26.224  19.412  1.00  0.00     0.241 C 
HETATM   15  O3  UNL     1      24.079  26.092  20.149  1.00  0.00    -0.271 OA
HETATM   16  N5  UNL     1      23.117  27.110  18.316  1.00  0.00    -0.345 N 
ATOM     17  H5  UNL     1      23.465  28.049  18.509  1.00  0.00     0.163 HD
HETATM   18  C20 UNL     1      22.740  26.836  16.954  1.00  0.00     0.184 C 
HETATM   19  C25 UNL     1      21.350  27.393  16.682  1.00  0.00     0.282 C 
HETATM   20  O4  UNL     1      21.345  28.650  16.682  1.00  0.00    -0.263 OA
HETATM   21  O5  UNL     1      20.337  26.605  16.485  1.00  0.00    -0.304 OA
HETATM   22  C26 UNL     1      19.394  26.123  15.648  1.00  0.00     0.227 C 
HETATM   23  C30 UNL     1      19.294  24.658  15.814  1.00  0.00     0.254 C 
HETATM   24  O6  UNL     1      20.424  24.061  15.717  1.00  0.00    -0.270 OA
HETATM   25  N6  UNL     1      18.169  23.869  16.054  1.00  0.00    -0.320 N 
HETATM   26  C31 UNL     1      18.354  22.407  16.039  1.00  0.00     0.159 C 
ENDROOT
BRANCH  13  27
HETATM   27  C15 UNL     1      21.822  25.242  21.301  1.00  0.00     0.036 C 
BRANCH  27  28
HETATM   28  C16 UNL     1      21.412  26.508  22.006  1.00  0.00     0.022 C 
BRANCH  28  29
HETATM   29  C17 UNL     1      22.284  26.676  23.250  1.00  0.00     0.121 C 
BRANCH  29  30
HETATM   30  N4  UNL     1      23.494  25.883  23.137  1.00  0.00    -0.381 N 
HETATM   31  C18 UNL     1      24.396  25.917  24.063  1.00  0.00     0.218 C 
ATOM     32  H4  UNL     1      23.635  25.292  22.318  1.00  0.00     0.160 HD
BRANCH  31  33
HETATM   33  O2  UNL     1      24.272  26.696  25.202  1.00  0.00    -0.357 OA
ATOM     34  H2  UNL     1      24.550  27.604  25.238  1.00  0.00     0.218 HD
ENDBRANCH  31  33
ENDBRANCH  29  30
ENDBRANCH  28  29
ENDBRANCH  27  28
ENDBRANCH  13  27
BRANCH  18  35
HETATM   35  C21 UNL     1      23.608  27.481  15.911  1.00  0.00     0.039 C 
BRANCH  35  36
HETATM   36  C22 UNL     1      24.937  27.967  16.344  1.00  0.00    -0.020 C 
HETATM   37  C23 UNL     1      25.967  27.181  15.492  1.00  0.00     0.009 C 
HETATM   38  C24 UNL     1      25.136  29.419  15.891  1.00  0.00     0.009 C 
ENDBRANCH  35  36
ENDBRANCH  18  35
BRANCH  22  39
HETATM   39  C27 UNL     1      19.437  26.518  14.193  1.00  0.00     0.016 C 
HETATM   40  C28 UNL     1      20.435  27.541  13.817  1.00  0.00     0.012 C 
HETATM   41  C29 UNL     1      18.031  26.839  13.733  1.00  0.00     0.012 C 
ENDBRANCH  22  39
BRANCH   2  42
HETATM   42  O1  UNL     1      16.306  26.054  17.829  1.00  0.00    -0.345 OA
ATOM     43  H1  UNL     1      16.532  26.423  18.676  1.00  0.00     0.219 HD
ENDBRANCH   2  42
BRANCH   1  44
HETATM   44  C6  UNL     1      15.814  23.432  15.634  1.00  0.00     0.062 C 
BRANCH  44  45
HETATM   45  C5  UNL     1      14.544  23.112  16.293  1.00  0.00     0.006 C 
BRANCH  45  46
HETATM   46  C4  UNL     1      14.267  21.732  16.756  1.00  0.00     0.000 C 
BRANCH  46  47
HETATM   47  C3  UNL     1      13.978  21.692  18.266  1.00  0.00    -0.000 C 
BRANCH  47  48
HETATM   48  C2  UNL     1      14.885  20.619  18.890  1.00  0.00    -0.005 C 
HETATM   49  C1  UNL     1      15.871  20.206  17.805  1.00  0.00     0.005 C 
ENDBRANCH  47  48
ENDBRANCH  46  47
ENDBRANCH  45  46
ENDBRANCH  44  45
ENDBRANCH   1  44
TORSDOF 14
ENDMDL
MODEL 2
REMARK VINA RESULT: -7.931368526      0.972      1.401
REMARK  14 active torsions:
REMARK  status: ('A' for Active; 'I' for Inactive)
REMARK    1  A    between atoms: C2_2  and  C3_3 
REMARK    2  A    between atoms: C3_3  and  C4_4 
REMARK    3  A    between atoms: C4_4  and  C5_5 
REMARK    4  A    between atoms: C5_5  and  C6_6 
REMARK    5  A    between atoms: C6_6  and  C7_7 
REMARK    6  A    between atoms: C8_8  and  O1_9 
REMARK    7  A    between atoms: C14_21  and  C15_22 
REMARK    8  A    between atoms: C15_22  and  C16_23 
REMARK    9  A    between atoms: C16_23  and  C17_24 
REMARK   10  A    between atoms: C17_24  and  N4_25 
REMARK   11  A    between atoms: C18_27  and  O2_28 
REMARK   12  A    between atoms: C20_34  and  C21_35 
REMARK   13  A    between atoms: C21_35  and  C22_36 
REMARK   14  A    between atoms: C26_42  and  C27_43 
ROOT
HETATM    1  C7  UNL     1      16.791  24.288  16.320  1.00  0.00     0.064 C 
HETATM    2  C8  UNL     1      16.520  24.759  17.673  1.00  0.00     0.159 C 
HETATM    3  N1  UNL     1      16.465  24.076  18.887  1.00  0.00    -0.364 N 
ATOM      4  H1  UNL     1      15.578  24.159  19.385  1.00  0.00     0.162 HD
HETATM    5  C9  UNL     1      17.458  23.273  19.550  1.00  0.00     0.097 C 
HETATM    6  C10 UNL     1      17.003  22.973  20.992  1.00  0.00     0.034 C 
HETATM    7  C11 UNL     1      18.794  23.925  19.679  1.00  0.00     0.147 C 
HETATM    8  N2  UNL     1      19.891  22.983  19.757  1.00  0.00    -0.380 N 
HETATM    9  C12 UNL     1      19.602  21.738  20.486  1.00  0.00     0.150 C 
HETATM   10  C13 UNL     1      21.172  23.176  19.198  1.00  0.00     0.174 C 
HETATM   11  N3  UNL     1      21.936  24.168  19.226  1.00  0.00    -0.373 N 
ATOM     12  H3  UNL     1      22.812  24.017  18.726  1.00  0.00     0.161 HD
HETATM   13  C14 UNL     1      21.834  25.451  19.807  1.00  0.00     0.174 C 
HETATM   14  C19 UNL     1      23.028  26.270  19.417  1.00  0.00     0.241 C 
HETATM   15  O3  UNL     1      24.048  26.155  20.160  1.00  0.00    -0.271 OA
HETATM   16  N5  UNL     1      23.087  27.136  18.305  1.00  0.00    -0.345 N 
ATOM     17  H5  UNL     1      23.430  28.080  18.483  1.00  0.00     0.163 HD
HETATM   18  C20 UNL     1      22.716  26.835  16.947  1.00  0.00     0.184 C 
HETATM   19  C25 UNL     1      21.324  27.381  16.661  1.00  0.00     0.282 C 
HETATM   20  O4  UNL     1      21.314  28.638  16.638  1.00  0.00    -0.263 OA
HETATM   21  O5  UNL     1      20.316  26.585  16.474  1.00  0.00    -0.304 OA
HETATM   22  C26 UNL     1      19.378  26.084  15.643  1.00  0.00     0.227 C 
HETATM   23  C30 UNL     1      19.283  24.621  15.835  1.00  0.00     0.254 C 
HETATM   24  O6  UNL     1      20.416  24.028  15.752  1.00  0.00    -0.270 OA
HETATM   25  N6  UNL     1      18.161  23.831  16.085  1.00  0.00    -0.320 N 
HETATM   26  C31 UNL     1      18.353  22.371  16.097  1.00  0.00     0.159 C 
ENDROOT
BRANCH  13  27
HETATM   27  C15 UNL     1      21.790  25.315  21.319  1.00  0.00     0.036 C 
BRANCH  27  28
HETATM   28  C16 UNL     1      21.437  26.610  22.003  1.00  0.00     0.022 C 
BRANCH  28  29
HETATM   29  C17 UNL     1      22.260  26.721  23.287  1.00  0.00     0.121 C 
BRANCH  29  30
HETATM   30  N4  UNL     1      23.483  25.947  23.179  1.00  0.00    -0.381 N 
HETATM   31  C18 UNL     1      24.367  25.974  24.122  1.00  0.00     0.218 C 
ATOM     32  H4  UNL     1      23.646  25.375  22.350  1.00  0.00     0.160 HD
BRANCH  31  33
HETATM   33  O2  UNL     1      24.213  26.726  25.274  1.00  0.00    -0.357 OA
ATOM     34  H2  UNL     1      24.273  26.352  26.145  1.00  0.00     0.218 HD
ENDBRANCH  31  33
ENDBRANCH  29  30
ENDBRANCH  28  29
ENDBRANCH  27  28
ENDBRANCH  13  27
BRANCH  18  35
HETATM   35  C21 UNL     1      23.584  27.465  15.895  1.00  0.00     0.039 C 
BRANCH  35  36
HETATM   36  C22 UNL     1      24.910  27.964  16.324  1.00  0.00    -0.020 C 
HETATM   37  C23 UNL     1      25.945  27.161  15.495  1.00  0.00     0.009 C 
HETATM   38  C24 UNL     1      25.109  29.406  15.839  1.00  0.00     0.009 C 
ENDBRANCH  35  36
ENDBRANCH  18  35
BRANCH  22  39
HETATM   39  C27 UNL     1      19.423  26.453  14.182  1.00  0.00     0.016 C 
HETATM   40  C28 UNL     1      20.461  27.425  13.780  1.00  0.00     0.012 C 
HETATM   41  C29 UNL     1      18.029  26.827  13.729  1.00  0.00     0.012 C 
ENDBRANCH  22  39
BRANCH   2  42
HETATM   42  O1  UNL     1      16.283  26.040  17.815  1.00  0.00    -0.345 OA
ATOM     43  H1  UNL     1      15.511  26.278  18.315  1.00  0.00     0.219 HD
ENDBRANCH   2  42
BRANCH   1  44
HETATM   44  C6  UNL     1      15.810  23.376  15.665  1.00  0.00     0.062 C 
BRANCH  44  45
HETATM   45  C5  UNL     1      14.380  23.488  15.971  1.00  0.00     0.006 C 
BRANCH  45  46
HETATM   46  C4  UNL     1      13.401  23.746  14.888  1.00  0.00     0.000 C 
BRANCH  46  47
HETATM   47  C3  UNL     1      12.747  22.443  14.399  1.00  0.00    -0.000 C 
BRANCH  47  48
HETATM   48  C2  UNL     1      13.487  21.995  13.128  1.00  0.00    -0.005 C 
HETATM   49  C1  UNL     1      14.215  20.706  13.486  1.00  0.00     0.005 C 
ENDBRANCH  47  48
ENDBRANCH  46  47
ENDBRANCH  45  46
ENDBRANCH  44  45
ENDBRANCH   1  44
TORSDOF 14
ENDMDL
MODEL 3
REMARK VINA RESULT: -7.499564681      1.201      1.582
REMARK  14 active torsions:
REMARK  status: ('A' for Active; 'I' for Inactive)
REMARK    1  A    between atoms: C2_2  and  C3_3 
REMARK    2  A    between atoms: C3_3  and  C4_4 
REMARK    3  A    between atoms: C4_4  and  C5_5 
REMARK    4  A    between atoms: C5_5  and  C6_6 
REMARK    5  A    between atoms: C6_6  and  C7_7 
REMARK    6  A    between atoms: C8_8  and  O1_9 
REMARK    7  A    between atoms: C14_21  and  C15_22 
REMARK    8  A    between atoms: C15_22  and  C16_23 
REMARK    9  A    between atoms: C16_23  and  C17_24 
REMARK   10  A    between atoms: C17_24  and  N4_25 
REMARK   11  A    between atoms: C18_27  and  O2_28 
REMARK   12  A    between atoms: C20_34  and  C21_35 
REMARK   13  A    between atoms: C21_35  and  C22_36 
REMARK   14  A    between atoms: C26_42  and  C27_43 
ROOT
HETATM    1  C7  UNL     1      16.761  24.414  16.327  1.00  0.00     0.064 C 
HETATM    2  C8  UNL     1      16.544  24.813  17.712  1.00  0.00     0.159 C 
HETATM    3  N1  UNL     1      16.498  24.064  18.886  1.00  0.00    -0.364 N 
ATOM      4  H1  UNL     1      15.629  24.146  19.414  1.00  0.00     0.162 HD
HETATM    5  C9  UNL     1      17.482  23.192  19.473  1.00  0.00     0.097 C 
HETATM    6  C10 UNL     1      17.056  22.823  20.908  1.00  0.00     0.034 C 
HETATM    7  C11 UNL     1      18.842  23.792  19.599  1.00  0.00     0.147 C 
HETATM    8  N2  UNL     1      19.908  22.811  19.591  1.00  0.00    -0.380 N 
HETATM    9  C12 UNL     1      19.597  21.537  20.256  1.00  0.00     0.150 C 
HETATM   10  C13 UNL     1      21.179  22.995  19.006  1.00  0.00     0.174 C 
HETATM   11  N3  UNL     1      21.976  23.958  19.069  1.00  0.00    -0.373 N 
ATOM     12  H3  UNL     1      22.833  23.809  18.535  1.00  0.00     0.161 HD
HETATM   13  C14 UNL     1      21.935  25.208  19.724  1.00  0.00     0.174 C 
HETATM   14  C19 UNL     1      23.145  26.009  19.347  1.00  0.00     0.241 C 
HETATM   15  O3  UNL     1      24.179  25.819  20.052  1.00  0.00    -0.271 OA
HETATM   16  N5  UNL     1      23.202  26.936  18.285  1.00  0.00    -0.345 N 
ATOM     17  H5  UNL     1      23.581  27.857  18.507  1.00  0.00     0.163 HD
HETATM   18  C20 UNL     1      22.784  26.727  16.924  1.00  0.00     0.184 C 
HETATM   19  C25 UNL     1      21.404  27.333  16.710  1.00  0.00     0.282 C 
HETATM   20  O4  UNL     1      21.436  28.589  16.760  1.00  0.00    -0.263 OA
HETATM   21  O5  UNL     1      20.364  26.583  16.508  1.00  0.00    -0.304 OA
HETATM   22  C26 UNL     1      19.387  26.161  15.677  1.00  0.00     0.227 C 
HETATM   23  C30 UNL     1      19.249  24.694  15.789  1.00  0.00     0.254 C 
HETATM   24  O6  UNL     1      20.358  24.070  15.638  1.00  0.00    -0.270 OA
HETATM   25  N6  UNL     1      18.108  23.927  16.026  1.00  0.00    -0.320 N 
HETATM   26  C31 UNL     1      18.250  22.463  15.949  1.00  0.00     0.159 C 
ENDROOT
BRANCH  13  27
HETATM   27  C15 UNL     1      21.927  24.987  21.227  1.00  0.00     0.036 C 
BRANCH  27  28
HETATM   28  C16 UNL     1      20.925  25.861  21.934  1.00  0.00     0.022 C 
BRANCH  28  29
HETATM   29  C17 UNL     1      21.549  27.240  22.149  1.00  0.00     0.121 C 
BRANCH  29  30
HETATM   30  N4  UNL     1      20.529  28.271  22.132  1.00  0.00    -0.381 N 
HETATM   31  C18 UNL     1      20.131  28.789  21.016  1.00  0.00     0.218 C 
ATOM     32  H4  UNL     1      20.121  28.591  23.011  1.00  0.00     0.160 HD
BRANCH  31  33
HETATM   33  O2  UNL     1      20.640  28.405  19.787  1.00  0.00    -0.357 OA
ATOM     34  H2  UNL     1      20.205  28.601  18.966  1.00  0.00     0.218 HD
ENDBRANCH  31  33
ENDBRANCH  29  30
ENDBRANCH  28  29
ENDBRANCH  27  28
ENDBRANCH  13  27
BRANCH  18  35
HETATM   35  C21 UNL     1      23.643  27.389  15.884  1.00  0.00     0.039 C 
BRANCH  35  36
HETATM   36  C22 UNL     1      24.947  27.930  16.331  1.00  0.00    -0.020 C 
HETATM   37  C23 UNL     1      26.019  27.157  15.520  1.00  0.00     0.009 C 
HETATM   38  C24 UNL     1      25.108  29.376  15.845  1.00  0.00     0.009 C 
ENDBRANCH  35  36
ENDBRANCH  18  35
BRANCH  22  39
HETATM   39  C27 UNL     1      19.406  26.613  14.239  1.00  0.00     0.016 C 
HETATM   40  C28 UNL     1      20.316  27.729  13.910  1.00  0.00     0.012 C 
HETATM   41  C29 UNL     1      17.981  26.831  13.778  1.00  0.00     0.012 C 
ENDBRANCH  22  39
BRANCH   2  42
HETATM   42  O1  UNL     1      16.354  26.091  17.934  1.00  0.00    -0.345 OA
ATOM     43  H1  UNL     1      16.533  26.403  18.813  1.00  0.00     0.219 HD
ENDBRANCH   2  42
BRANCH   1  44
HETATM   44  C6  UNL     1      15.732  23.574  15.650  1.00  0.00     0.062 C 
BRANCH  44  45
HETATM   45  C5  UNL     1      14.497  23.210  16.352  1.00  0.00     0.006 C 
BRANCH  45  46
HETATM   46  C4  UNL     1      14.239  21.802  16.735  1.00  0.00     0.000 C 
BRANCH  46  47
HETATM   47  C3  UNL     1      13.939  21.674  18.238  1.00  0.00    -0.000 C 
BRANCH  47  48
HETATM   48  C2  UNL     1      14.807  20.532  18.794  1.00  0.00    -0.005 C 
HETATM   49  C1  UNL     1      13.859  19.580  19.510  1.00  0.00     0.005 C 
ENDBRANCH  47  48
ENDBRANCH  46  47
ENDBRANCH  45  46
ENDBRANCH  44  45
ENDBRANCH   1  44
TORSDOF 14
ENDMDL
MODEL 4
REMARK VINA RESULT: -7.417882105      1.558      2.123
REMARK  14 active torsions:
REMARK  status: ('A' for Active; 'I' for Inactive)
REMARK    1  A    between atoms: C2_2  and  C3_3 
REMARK    2  A    between atoms: C3_3  and  C4_4 
REMARK    3  A    between atoms: C4_4  and  C5_5 
REMARK    4  A    between atoms: C5_5  and  C6_6 
REMARK    5  A    between atoms: C6_6  and  C7_7 
REMARK    6  A    between atoms: C8_8  and  O1_9 
REMARK    7  A    between atoms: C14_21  and  C15_22 
REMARK    8  A    between atoms: C15_22  and  C16_23 
REMARK    9  A    between atoms: C16_23  and  C17_24 
REMARK   10  A    between atoms: C17_24  and  N4_25 
REMARK   11  A    between atoms: C18_27  and  O2_28 
REMARK   12  A    between atoms: C20_34  and  C21_35 
REMARK   13  A    between atoms: C21_35  and  C22_36 
REMARK   14  A    between atoms: C26_42  and  C27_43 
ROOT
HETATM    1  C7  UNL     1      16.791  24.347  16.255  1.00  0.00     0.064 C 
HETATM    2  C8  UNL     1      16.542  24.775  17.627  1.00  0.00     0.159 C 
HETATM    3  N1  UNL     1      16.487  24.053  18.817  1.00  0.00    -0.364 N 
ATOM      4  H1  UNL     1      15.607  24.134  19.327  1.00  0.00     0.162 HD
HETATM    5  C9  UNL     1      17.473  23.210  19.441  1.00  0.00     0.097 C 
HETATM    6  C10 UNL     1      17.026  22.868  20.877  1.00  0.00     0.034 C 
HETATM    7  C11 UNL     1      18.821  23.833  19.578  1.00  0.00     0.147 C 
HETATM    8  N2  UNL     1      19.902  22.870  19.612  1.00  0.00    -0.380 N 
HETATM    9  C12 UNL     1      19.598  21.606  20.301  1.00  0.00     0.150 C 
HETATM   10  C13 UNL     1      21.180  23.060  19.046  1.00  0.00     0.174 C 
HETATM   11  N3  UNL     1      21.962  24.036  19.100  1.00  0.00    -0.373 N 
ATOM     12  H3  UNL     1      22.830  23.888  18.586  1.00  0.00     0.161 HD
HETATM   13  C14 UNL     1      21.889  25.300  19.725  1.00  0.00     0.174 C 
HETATM   14  C19 UNL     1      23.094  26.111  19.351  1.00  0.00     0.241 C 
HETATM   15  O3  UNL     1      24.118  25.953  20.079  1.00  0.00    -0.271 OA
HETATM   16  N5  UNL     1      23.156  27.014  18.270  1.00  0.00    -0.345 N 
ATOM     17  H5  UNL     1      23.518  27.945  18.476  1.00  0.00     0.163 HD
HETATM   18  C20 UNL     1      22.766  26.767  16.906  1.00  0.00     0.184 C 
HETATM   19  C25 UNL     1      21.382  27.347  16.654  1.00  0.00     0.282 C 
HETATM   20  O4  UNL     1      21.393  28.604  16.674  1.00  0.00    -0.263 OA
HETATM   21  O5  UNL     1      20.357  26.576  16.451  1.00  0.00    -0.304 OA
HETATM   22  C26 UNL     1      19.402  26.120  15.613  1.00  0.00     0.227 C 
HETATM   23  C30 UNL     1      19.284  24.654  15.756  1.00  0.00     0.254 C 
HETATM   24  O6  UNL     1      20.405  24.044  15.640  1.00  0.00    -0.270 OA
HETATM   25  N6  UNL     1      18.150  23.875  15.990  1.00  0.00    -0.320 N 
HETATM   26  C31 UNL     1      18.316  22.412  15.950  1.00  0.00     0.159 C 
ENDROOT
BRANCH  13  27
HETATM   27  C15 UNL     1      21.858  25.113  21.233  1.00  0.00     0.036 C 
BRANCH  27  28
HETATM   28  C16 UNL     1      20.859  26.018  21.905  1.00  0.00     0.022 C 
BRANCH  28  29
HETATM   29  C17 UNL     1      21.440  27.431  21.957  1.00  0.00     0.121 C 
BRANCH  29  30
HETATM   30  N4  UNL     1      20.383  28.422  21.875  1.00  0.00    -0.381 N 
HETATM   31  C18 UNL     1      19.986  28.871  20.730  1.00  0.00     0.218 C 
ATOM     32  H4  UNL     1      19.949  28.768  22.731  1.00  0.00     0.160 HD
BRANCH  31  33
HETATM   33  O2  UNL     1      20.529  28.447  19.528  1.00  0.00    -0.357 OA
ATOM     34  H2  UNL     1      20.662  27.530  19.319  1.00  0.00     0.218 HD
ENDBRANCH  31  33
ENDBRANCH  29  30
ENDBRANCH  28  29
ENDBRANCH  27  28
ENDBRANCH  13  27
BRANCH  18  35
HETATM   35  C21 UNL     1      23.634  27.418  15.867  1.00  0.00     0.039 C 
BRANCH  35  36
HETATM   36  C22 UNL     1      24.936  27.960  16.318  1.00  0.00    -0.020 C 
HETATM   37  C23 UNL     1      26.009  27.224  15.475  1.00  0.00     0.009 C 
HETATM   38  C24 UNL     1      25.076  29.422  15.874  1.00  0.00     0.009 C 
ENDBRANCH  35  36
ENDBRANCH  18  35
BRANCH  22  39
HETATM   39  C27 UNL     1      19.440  26.539  14.165  1.00  0.00     0.016 C 
HETATM   40  C28 UNL     1      20.377  27.627  13.817  1.00  0.00     0.012 C 
HETATM   41  C29 UNL     1      18.023  26.779  13.689  1.00  0.00     0.012 C 
ENDBRANCH  22  39
BRANCH   2  42
HETATM   42  O1  UNL     1      16.329  26.055  17.815  1.00  0.00    -0.345 OA
ATOM     43  H1  UNL     1      16.540  26.401  18.675  1.00  0.00     0.219 HD
ENDBRANCH   2  42
BRANCH   1  44
HETATM   44  C6  UNL     1      15.787  23.476  15.580  1.00  0.00     0.062 C 
BRANCH  44  45
HETATM   45  C5  UNL     1      14.375  23.537  15.971  1.00  0.00     0.006 C 
BRANCH  45  46
HETATM   46  C4  UNL     1      13.330  23.832  14.961  1.00  0.00     0.000 C 
BRANCH  46  47
HETATM   47  C3  UNL     1      12.728  22.542  14.381  1.00  0.00    -0.000 C 
BRANCH  47  48
HETATM   48  C2  UNL     1      13.618  22.095  13.209  1.00  0.00    -0.005 C 
HETATM   49  C1  UNL     1      14.108  20.694  13.552  1.00  0.00     0.005 C 
ENDBRANCH  47  48
ENDBRANCH  46  47
ENDBRANCH  45  46
ENDBRANCH  44  45
ENDBRANCH   1  44
TORSDOF 14
ENDMDL
MODEL 5
REMARK VINA RESULT: -7.301710460      5.549     12.469
REMARK  14 active torsions:
REMARK  status: ('A' for Active; 'I' for Inactive)
REMARK    1  A    between atoms: C2_2  and  C3_3 
REMARK    2  A    between atoms: C3_3  and  C4_4 
REMARK    3  A    between atoms: C4_4  and  C5_5 
REMARK    4  A    between atoms: C5_5  and  C6_6 
REMARK    5  A    between atoms: C6_6  and  C7_7 
REMARK    6  A    between atoms: C8_8  and  O1_9 
REMARK    7  A    between atoms: C14_21  and  C15_22 
REMARK    8  A    between atoms: C15_22  and  C16_23 
REMARK    9  A    between atoms: C16_23  and  C17_24 
REMARK   10  A    between atoms: C17_24  and  N4_25 
REMARK   11  A    between atoms: C18_27  and  O2_28 
REMARK   12  A    between atoms: C20_34  and  C21_35 
REMARK   13  A    between atoms: C21_35  and  C22_36 
REMARK   14  A    between atoms: C26_42  and  C27_43 
ROOT
HETATM    1  C7  UNL     1      15.714  22.096  18.659  1.00  0.00     0.064 C 
HETATM    2  C8  UNL     1      14.872  23.141  18.088  1.00  0.00     0.159 C 
HETATM    3  N1  UNL     1      14.991  23.872  16.908  1.00  0.00    -0.364 N 
ATOM      4  H1  UNL     1      15.029  24.884  17.033  1.00  0.00     0.162 HD
HETATM    5  C9  UNL     1      15.069  23.428  15.541  1.00  0.00     0.097 C 
HETATM    6  C10 UNL     1      14.911  24.635  14.595  1.00  0.00     0.034 C 
HETATM    7  C11 UNL     1      14.003  22.464  15.142  1.00  0.00     0.147 C 
HETATM    8  N2  UNL     1      14.395  21.582  14.062  1.00  0.00    -0.380 N 
HETATM    9  C12 UNL     1      15.266  22.187  13.042  1.00  0.00     0.150 C 
HETATM   10  C13 UNL     1      14.011  20.231  13.933  1.00  0.00     0.174 C 
HETATM   11  N3  UNL     1      12.892  19.683  14.061  1.00  0.00    -0.373 N 
ATOM     12  H3  UNL     1      12.916  18.675  13.907  1.00  0.00     0.161 HD
HETATM   13  C14 UNL     1      11.605  20.173  14.374  1.00  0.00     0.174 C 
HETATM   14  C19 UNL     1      10.651  19.023  14.495  1.00  0.00     0.241 C 
HETATM   15  O3  UNL     1      10.103  18.640  13.420  1.00  0.00    -0.271 OA
HETATM   16  N5  UNL     1      10.333  18.359  15.698  1.00  0.00    -0.345 N 
ATOM     17  H5  UNL     1       9.341  18.236  15.901  1.00  0.00     0.163 HD
HETATM   18  C20 UNL     1      11.255  17.836  16.673  1.00  0.00     0.184 C 
HETATM   19  C25 UNL     1      11.384  18.811  17.835  1.00  0.00     0.282 C 
HETATM   20  O4  UNL     1      10.326  18.868  18.513  1.00  0.00    -0.263 OA
HETATM   21  O5  UNL     1      12.482  19.471  18.039  1.00  0.00    -0.304 OA
HETATM   22  C26 UNL     1      13.562  19.706  18.815  1.00  0.00     0.227 C 
HETATM   23  C30 UNL     1      14.763  19.823  17.962  1.00  0.00     0.254 C 
HETATM   24  O6  UNL     1      14.910  18.835  17.160  1.00  0.00    -0.270 OA
HETATM   25  N6  UNL     1      15.723  20.834  17.919  1.00  0.00    -0.320 N 
HETATM   26  C31 UNL     1      16.896  20.615  17.054  1.00  0.00     0.159 C 
ENDROOT
BRANCH  13  27
HETATM   27  C15 UNL     1      11.137  21.100  13.265  1.00  0.00     0.036 C 
BRANCH  27  28
HETATM   28  C16 UNL     1       9.848  21.800  13.605  1.00  0.00     0.022 C 
BRANCH  28  29
HETATM   29  C17 UNL     1       8.954  21.802  12.365  1.00  0.00     0.121 C 
BRANCH  29  30
HETATM   30  N4  UNL     1       9.312  20.713  11.475  1.00  0.00    -0.381 N 
HETATM   31  C18 UNL     1       8.529  20.368  10.505  1.00  0.00     0.218 C 
ATOM     32  H4  UNL     1      10.191  20.215  11.616  1.00  0.00     0.160 HD
BRANCH  31  33
HETATM   33  O2  UNL     1       7.322  21.000  10.254  1.00  0.00    -0.357 OA
ATOM     34  H2  UNL     1       6.846  20.894   9.439  1.00  0.00     0.218 HD
ENDBRANCH  31  33
ENDBRANCH  29  30
ENDBRANCH  28  29
ENDBRANCH  27  28
ENDBRANCH  13  27
BRANCH  18  35
HETATM   35  C21 UNL     1      10.836  16.545  17.318  1.00  0.00     0.039 C 
BRANCH  35  36
HETATM   36  C22 UNL     1       9.728  15.799  16.678  1.00  0.00    -0.020 C 
HETATM   37  C23 UNL     1      10.406  14.790  15.717  1.00  0.00     0.009 C 
HETATM   38  C24 UNL     1       9.039  14.898  17.711  1.00  0.00     0.009 C 
ENDBRANCH  35  36
ENDBRANCH  18  35
BRANCH  22  39
HETATM   39  C27 UNL     1      13.810  18.820  20.010  1.00  0.00     0.016 C 
HETATM   40  C28 UNL     1      13.816  17.363  19.761  1.00  0.00     0.012 C 
HETATM   41  C29 UNL     1      12.887  19.243  21.132  1.00  0.00     0.012 C 
ENDBRANCH  22  39
BRANCH   2  42
HETATM   42  O1  UNL     1      13.807  23.479  18.774  1.00  0.00    -0.345 OA
ATOM     43  H1  UNL     1      13.173  24.033  18.333  1.00  0.00     0.219 HD
ENDBRANCH   2  42
BRANCH   1  44
HETATM   44  C6  UNL     1      17.088  22.451  19.118  1.00  0.00     0.062 C 
BRANCH  44  45
HETATM   45  C5  UNL     1      17.646  21.832  20.324  1.00  0.00     0.006 C 
BRANCH  45  46
HETATM   46  C4  UNL     1      19.092  21.515  20.402  1.00  0.00     0.000 C 
BRANCH  46  47
HETATM   47  C3  UNL     1      19.721  22.072  21.690  1.00  0.00    -0.000 C 
BRANCH  47  48
HETATM   48  C2  UNL     1      19.855  23.595  21.525  1.00  0.00    -0.005 C 
HETATM   49  C1  UNL     1      20.852  23.820  20.396  1.00  0.00     0.005 C 
ENDBRANCH  47  48
ENDBRANCH  46  47
ENDBRANCH  45  46
ENDBRANCH  44  45
ENDBRANCH   1  44
TORSDOF 14
ENDMDL
