MODEL 1
REMARK VINA RESULT: -8.910965153      0.000      0.000
REMARK  13 active torsions:
REMARK  status: ('A' for Active; 'I' for Inactive)
REMARK    1  A    between atoms: C2_2  and  C3_3 
REMARK    2  A    between atoms: C3_3  and  C4_4 
REMARK    3  A    between atoms: C4_4  and  N1_5 
REMARK       I    between atoms: N1_5  and  C5_7 
REMARK    4  A    between atoms: C5_7  and  C6_9 
REMARK    5  A    between atoms: C6_9  and  C7_11 
REMARK    6  A    between atoms: C7_11  and  C8_12 
REMARK    7  A    between atoms: C7_11  and  N2_16 
REMARK    8  A    between atoms: C8_12  and  C9_13 
REMARK       I    between atoms: N2_16  and  C12_18 
REMARK    9  A    between atoms: C12_18  and  C13_20 
REMARK       I    between atoms: N3_23  and  C16_24 
REMARK   10  A    between atoms: C16_24  and  C17_26 
REMARK   11  A    between atoms: C17_26  and  N4_27 
REMARK   12  A    between atoms: C17_26  and  C24_39 
REMARK       I    between atoms: N4_27  and  C18_29 
REMARK   13  A    between atoms: C18_29  and  C19_31 
ROOT
HETATM    1  C13 UNL     1      14.982  20.911  16.130  1.00  0.00     0.098 A 
HETATM    2  C14 UNL     1      16.185  21.217  16.817  1.00  0.00     0.032 A 
HETATM    3  C15 UNL     1      17.392  22.035  16.534  1.00  0.00     0.141 C 
HETATM    4  N3  UNL     1      16.968  23.255  17.246  1.00  0.00    -0.286 N 
HETATM    5  C16 UNL     1      17.797  24.179  17.956  1.00  0.00     0.250 C 
HETATM    6  O4  UNL     1      17.231  25.187  18.450  1.00  0.00    -0.271 OA
HETATM    7  C28 UNL     1      15.545  23.304  17.090  1.00  0.00     0.232 C 
HETATM    8  O6  UNL     1      14.800  24.086  17.694  1.00  0.00    -0.272 OA
HETATM    9  C29 UNL     1      15.236  22.287  16.124  1.00  0.00     0.098 A 
ENDROOT
BRANCH   1  10
HETATM   10  C12 UNL     1      13.812  20.394  16.894  1.00  0.00     0.223 C 
HETATM   11  N2  UNL     1      13.253  19.115  16.659  1.00  0.00    -0.349 N 
ATOM     12  H2  UNL     1      13.664  18.523  15.937  1.00  0.00     0.163 HD
HETATM   13  O3  UNL     1      13.283  21.103  17.788  1.00  0.00    -0.273 OA
BRANCH  11  14
HETATM   14  C7  UNL     1      12.110  18.616  17.416  1.00  0.00     0.164 C 
BRANCH  14  15
HETATM   15  C6  UNL     1      11.092  18.103  16.460  1.00  0.00     0.238 C 
HETATM   16  O2  UNL     1      10.619  16.962  16.652  1.00  0.00    -0.285 OA
BRANCH  15  17
HETATM   17  C5  UNL     1      10.632  18.880  15.322  1.00  0.00     0.289 C 
HETATM   18  N1  UNL     1      11.147  18.564  14.032  1.00  0.00    -0.354 N 
ATOM     19  H1  UNL     1      11.825  17.811  13.909  1.00  0.00     0.162 HD
HETATM   20  O1  UNL     1       9.795  19.817  15.447  1.00  0.00    -0.264 OA
BRANCH  18  21
HETATM   21  C4  UNL     1      10.685  19.340  12.899  1.00  0.00     0.123 C 
BRANCH  21  22
HETATM   22  C3  UNL     1      11.822  19.918  12.089  1.00  0.00     0.019 C 
BRANCH  22  23
HETATM   23  C2  UNL     1      12.855  20.435  13.081  1.00  0.00    -0.003 C 
HETATM   24  C1  UNL     1      12.441  21.817  13.500  1.00  0.00     0.005 C 
ENDBRANCH  22  23
ENDBRANCH  21  22
ENDBRANCH  18  21
ENDBRANCH  15  17
ENDBRANCH  14  15
BRANCH  14  25
HETATM   25  C8  UNL     1      12.556  17.402  18.230  1.00  0.00     0.037 C 
BRANCH  25  26
HETATM   26  C9  UNL     1      12.649  17.737  19.689  1.00  0.00    -0.020 C 
HETATM   27  C10 UNL     1      11.522  18.731  19.986  1.00  0.00     0.009 C 
HETATM   28  C11 UNL     1      13.938  18.475  20.022  1.00  0.00     0.009 C 
ENDBRANCH  25  26
ENDBRANCH  14  25
ENDBRANCH  11  14
ENDBRANCH   1  10
BRANCH   5  29
HETATM   29  C17 UNL     1      19.229  23.918  18.071  1.00  0.00     0.185 C 
BRANCH  29  30
HETATM   30  N4  UNL     1      20.013  25.150  17.807  1.00  0.00    -0.342 N 
HETATM   31  C18 UNL     1      20.493  25.461  16.556  1.00  0.00     0.261 C 
HETATM   32  O5  UNL     1      20.225  24.633  15.614  1.00  0.00    -0.267 OA
ATOM     33  H4  UNL     1      20.204  25.788  18.580  1.00  0.00     0.163 HD
BRANCH  31  34
HETATM   34  C19 UNL     1      21.267  26.623  16.187  1.00  0.00     0.096 A 
HETATM   35  S1  UNL     1      22.895  26.984  16.745  1.00  0.00    -0.070 SA
HETATM   36  C20 UNL     1      23.130  28.448  15.930  1.00  0.00     0.048 A 
HETATM   37  C21 UNL     1      24.317  29.369  15.921  1.00  0.00     0.076 C 
HETATM   38  N5  UNL     1      22.000  28.596  15.290  1.00  0.00    -0.357 N 
HETATM   39  C22 UNL     1      21.049  27.713  15.389  1.00  0.00     0.028 A 
ATOM     40  H5  UNL     1      21.861  29.417  14.702  1.00  0.00     0.166 HD
HETATM   41  C23 UNL     1      19.743  27.918  14.630  1.00  0.00     0.070 C 
ENDBRANCH  31  34
ENDBRANCH  29  30
BRANCH  29  42
HETATM   42  C24 UNL     1      19.678  23.503  19.461  1.00  0.00    -0.022 C 
HETATM   43  C25 UNL     1      19.217  24.421  20.554  1.00  0.00     0.017 C 
HETATM   44  C26 UNL     1      21.182  23.415  19.564  1.00  0.00     0.017 C 
HETATM   45  C27 UNL     1      19.174  22.074  19.725  1.00  0.00     0.017 C 
ENDBRANCH  29  42
ENDBRANCH   5  29
TORSDOF 13
ENDMDL
MODEL 2
REMARK VINA RESULT: -8.765848365      1.806      4.082
REMARK  13 active torsions:
REMARK  status: ('A' for Active; 'I' for Inactive)
REMARK    1  A    between atoms: C2_2  and  C3_3 
REMARK    2  A    between atoms: C3_3  and  C4_4 
REMARK    3  A    between atoms: C4_4  and  N1_5 
REMARK       I    between atoms: N1_5  and  C5_7 
REMARK    4  A    between atoms: C5_7  and  C6_9 
REMARK    5  A    between atoms: C6_9  and  C7_11 
REMARK    6  A    between atoms: C7_11  and  C8_12 
REMARK    7  A    between atoms: C7_11  and  N2_16 
REMARK    8  A    between atoms: C8_12  and  C9_13 
REMARK       I    between atoms: N2_16  and  C12_18 
REMARK    9  A    between atoms: C12_18  and  C13_20 
REMARK       I    between atoms: N3_23  and  C16_24 
REMARK   10  A    between atoms: C16_24  and  C17_26 
REMARK   11  A    between atoms: C17_26  and  N4_27 
REMARK   12  A    between atoms: C17_26  and  C24_39 
REMARK       I    between atoms: N4_27  and  C18_29 
REMARK   13  A    between atoms: C18_29  and  C19_31 
ROOT
HETATM    1  C13 UNL     1      14.834  21.739  13.671  1.00  0.00     0.098 A 
HETATM    2  C14 UNL     1      15.739  21.659  14.761  1.00  0.00     0.032 A 
HETATM    3  C15 UNL     1      16.882  22.470  15.255  1.00  0.00     0.141 C 
HETATM    4  N3  UNL     1      16.138  23.260  16.254  1.00  0.00    -0.286 N 
HETATM    5  C16 UNL     1      16.615  23.737  17.515  1.00  0.00     0.250 C 
HETATM    6  O4  UNL     1      15.823  24.440  18.193  1.00  0.00    -0.271 OA
HETATM    7  C28 UNL     1      14.828  23.428  15.699  1.00  0.00     0.232 C 
HETATM    8  O6  UNL     1      13.858  23.887  16.316  1.00  0.00    -0.272 OA
HETATM    9  C29 UNL     1      14.930  22.962  14.343  1.00  0.00     0.098 A 
ENDROOT
BRANCH   1  10
HETATM   10  C12 UNL     1      13.553  20.981  13.725  1.00  0.00     0.223 C 
HETATM   11  N2  UNL     1      12.423  21.444  14.440  1.00  0.00    -0.349 N 
ATOM     12  H2  UNL     1      12.487  22.331  14.942  1.00  0.00     0.163 HD
HETATM   13  O3  UNL     1      13.445  19.885  13.118  1.00  0.00    -0.273 OA
BRANCH  11  14
HETATM   14  C7  UNL     1      11.170  20.697  14.484  1.00  0.00     0.164 C 
BRANCH  14  15
HETATM   15  C6  UNL     1      10.880  20.334  15.897  1.00  0.00     0.238 C 
HETATM   16  O2  UNL     1       9.715  20.492  16.322  1.00  0.00    -0.285 OA
BRANCH  15  17
HETATM   17  C5  UNL     1      11.896  19.807  16.790  1.00  0.00     0.289 C 
HETATM   18  N1  UNL     1      11.886  18.412  17.080  1.00  0.00    -0.354 N 
ATOM     19  H1  UNL     1      11.181  17.797  16.671  1.00  0.00     0.162 HD
HETATM   20  O1  UNL     1      12.778  20.545  17.309  1.00  0.00    -0.264 OA
BRANCH  18  21
HETATM   21  C4  UNL     1      12.903  17.888  17.970  1.00  0.00     0.123 C 
BRANCH  21  22
HETATM   22  C3  UNL     1      12.320  17.301  19.234  1.00  0.00     0.019 C 
BRANCH  22  23
HETATM   23  C2  UNL     1      12.179  18.444  20.230  1.00  0.00    -0.003 C 
HETATM   24  C1  UNL     1      13.504  19.148  20.314  1.00  0.00     0.005 C 
ENDBRANCH  22  23
ENDBRANCH  21  22
ENDBRANCH  18  21
ENDBRANCH  15  17
ENDBRANCH  14  15
BRANCH  14  25
HETATM   25  C8  UNL     1      10.034  21.624  14.056  1.00  0.00     0.037 C 
BRANCH  25  26
HETATM   26  C9  UNL     1       9.805  21.548  12.575  1.00  0.00    -0.020 C 
HETATM   27  C10 UNL     1       8.486  22.273  12.296  1.00  0.00     0.009 C 
HETATM   28  C11 UNL     1       9.588  20.115  12.107  1.00  0.00     0.009 C 
ENDBRANCH  25  26
ENDBRANCH  14  25
ENDBRANCH  11  14
ENDBRANCH   1  10
BRANCH   5  29
HETATM   29  C17 UNL     1      17.967  23.396  17.947  1.00  0.00     0.185 C 
BRANCH  29  30
HETATM   30  N4  UNL     1      18.827  24.606  17.995  1.00  0.00    -0.342 N 
HETATM   31  C18 UNL     1      19.822  24.837  17.073  1.00  0.00     0.261 C 
HETATM   32  O5  UNL     1      19.974  23.954  16.156  1.00  0.00    -0.267 OA
ATOM     33  H4  UNL     1      18.675  25.289  18.737  1.00  0.00     0.163 HD
BRANCH  31  34
HETATM   34  C19 UNL     1      20.716  25.970  17.026  1.00  0.00     0.096 A 
HETATM   35  S1  UNL     1      21.374  26.691  15.565  1.00  0.00    -0.070 SA
HETATM   36  C20 UNL     1      22.303  27.916  16.274  1.00  0.00     0.048 A 
HETATM   37  C21 UNL     1      23.171  28.962  15.636  1.00  0.00     0.076 C 
HETATM   38  N5  UNL     1      22.080  27.730  17.549  1.00  0.00    -0.357 N 
HETATM   39  C22 UNL     1      21.299  26.776  17.965  1.00  0.00     0.028 A 
ATOM     40  H5  UNL     1      22.528  28.344  18.229  1.00  0.00     0.166 HD
HETATM   41  C23 UNL     1      21.064  26.588  19.460  1.00  0.00     0.070 C 
ENDBRANCH  31  34
ENDBRANCH  29  30
BRANCH  29  42
HETATM   42  C24 UNL     1      18.053  22.845  19.359  1.00  0.00    -0.022 C 
HETATM   43  C25 UNL     1      17.928  23.886  20.432  1.00  0.00     0.017 C 
HETATM   44  C26 UNL     1      19.352  22.115  19.601  1.00  0.00     0.017 C 
HETATM   45  C27 UNL     1      16.957  21.780  19.528  1.00  0.00     0.017 C 
ENDBRANCH  29  42
ENDBRANCH   5  29
TORSDOF 13
ENDMDL
MODEL 3
REMARK VINA RESULT: -8.750970817      2.325      4.890
REMARK  13 active torsions:
REMARK  status: ('A' for Active; 'I' for Inactive)
REMARK    1  A    between atoms: C2_2  and  C3_3 
REMARK    2  A    between atoms: C3_3  and  C4_4 
REMARK    3  A    between atoms: C4_4  and  N1_5 
REMARK       I    between atoms: N1_5  and  C5_7 
REMARK    4  A    between atoms: C5_7  and  C6_9 
REMARK    5  A    between atoms: C6_9  and  C7_11 
REMARK    6  A    between atoms: C7_11  and  C8_12 
REMARK    7  A    between atoms: C7_11  and  N2_16 
REMARK    8  A    between atoms: C8_12  and  C9_13 
REMARK       I    between atoms: N2_16  and  C12_18 
REMARK    9  A    between atoms: C12_18  and  C13_20 
REMARK       I    between atoms: N3_23  and  C16_24 
REMARK   10  A    between atoms: C16_24  and  C17_26 
REMARK   11  A    between atoms: C17_26  and  N4_27 
REMARK   12  A    between atoms: C17_26  and  C24_39 
REMARK       I    between atoms: N4_27  and  C18_29 
REMARK   13  A    between atoms: C18_29  and  C19_31 
ROOT
HETATM    1  C13 UNL     1      13.881  21.988  17.590  1.00  0.00     0.098 A 
HETATM    2  C14 UNL     1      14.852  22.973  17.272  1.00  0.00     0.032 A 
HETATM    3  C15 UNL     1      15.830  23.787  18.038  1.00  0.00     0.141 C 
HETATM    4  N3  UNL     1      17.005  22.920  17.830  1.00  0.00    -0.286 N 
HETATM    5  C16 UNL     1      18.369  23.325  17.688  1.00  0.00     0.250 C 
HETATM    6  O4  UNL     1      19.224  22.410  17.569  1.00  0.00    -0.271 OA
HETATM    7  C28 UNL     1      16.483  21.587  17.781  1.00  0.00     0.232 C 
HETATM    8  O6  UNL     1      17.134  20.590  17.444  1.00  0.00    -0.272 OA
HETATM    9  C29 UNL     1      15.111  21.704  18.192  1.00  0.00     0.098 A 
ENDROOT
BRANCH   1  10
HETATM   10  C12 UNL     1      13.373  21.086  16.518  1.00  0.00     0.223 C 
HETATM   11  N2  UNL     1      12.032  21.115  16.070  1.00  0.00    -0.349 N 
ATOM     12  H2  UNL     1      11.383  21.776  16.498  1.00  0.00     0.163 HD
HETATM   13  O3  UNL     1      14.149  20.259  15.975  1.00  0.00    -0.273 OA
BRANCH  11  14
HETATM   14  C7  UNL     1      11.545  20.230  15.016  1.00  0.00     0.164 C 
BRANCH  14  15
HETATM   15  C6  UNL     1      10.881  19.057  15.646  1.00  0.00     0.238 C 
HETATM   16  O2  UNL     1      10.007  18.449  14.992  1.00  0.00    -0.285 OA
BRANCH  15  17
HETATM   17  C5  UNL     1      11.215  18.600  16.983  1.00  0.00     0.289 C 
HETATM   18  N1  UNL     1      12.362  17.773  17.151  1.00  0.00    -0.354 N 
ATOM     19  H1  UNL     1      12.937  17.506  16.351  1.00  0.00     0.162 HD
HETATM   20  O1  UNL     1      10.521  18.914  17.990  1.00  0.00    -0.264 OA
BRANCH  18  21
HETATM   21  C4  UNL     1      12.693  17.319  18.487  1.00  0.00     0.123 C 
BRANCH  21  22
HETATM   22  C3  UNL     1      13.956  17.955  19.019  1.00  0.00     0.019 C 
BRANCH  22  23
HETATM   23  C2  UNL     1      13.528  19.043  19.995  1.00  0.00    -0.003 C 
HETATM   24  C1  UNL     1      12.303  18.558  20.716  1.00  0.00     0.005 C 
ENDBRANCH  22  23
ENDBRANCH  21  22
ENDBRANCH  18  21
ENDBRANCH  15  17
ENDBRANCH  14  15
BRANCH  14  25
HETATM   25  C8  UNL     1      10.447  20.955  14.239  1.00  0.00     0.037 C 
BRANCH  25  26
HETATM   26  C9  UNL     1      10.773  21.016  12.776  1.00  0.00    -0.020 C 
HETATM   27  C10 UNL     1       9.615  20.337  12.039  1.00  0.00     0.009 C 
HETATM   28  C11 UNL     1      12.009  20.195  12.434  1.00  0.00     0.009 C 
ENDBRANCH  25  26
ENDBRANCH  14  25
ENDBRANCH  11  14
ENDBRANCH   1  10
BRANCH   5  29
HETATM   29  C17 UNL     1      18.700  24.746  17.689  1.00  0.00     0.185 C 
BRANCH  29  30
HETATM   30  N4  UNL     1      19.947  24.998  18.456  1.00  0.00    -0.342 N 
HETATM   31  C18 UNL     1      19.966  25.044  19.831  1.00  0.00     0.261 C 
HETATM   32  O5  UNL     1      18.849  24.854  20.430  1.00  0.00    -0.267 OA
ATOM     33  H4  UNL     1      20.819  25.141  17.946  1.00  0.00     0.163 HD
BRANCH  31  34
HETATM   34  C19 UNL     1      21.112  25.285  20.675  1.00  0.00     0.096 A 
HETATM   35  S1  UNL     1      22.239  24.060  21.240  1.00  0.00    -0.070 SA
HETATM   36  C20 UNL     1      23.268  25.051  22.147  1.00  0.00     0.048 A 
HETATM   37  C21 UNL     1      24.493  24.700  22.944  1.00  0.00     0.076 C 
HETATM   38  N5  UNL     1      22.730  26.231  21.987  1.00  0.00    -0.357 N 
HETATM   39  C22 UNL     1      21.660  26.392  21.264  1.00  0.00     0.028 A 
ATOM     40  H5  UNL     1      23.156  27.041  22.437  1.00  0.00     0.166 HD
HETATM   41  C23 UNL     1      21.058  27.783  21.101  1.00  0.00     0.070 C 
ENDBRANCH  31  34
ENDBRANCH  29  30
BRANCH  29  42
HETATM   42  C24 UNL     1      19.008  25.317  16.316  1.00  0.00    -0.022 C 
HETATM   43  C25 UNL     1      17.809  25.452  15.425  1.00  0.00     0.017 C 
HETATM   44  C26 UNL     1      20.021  24.479  15.572  1.00  0.00     0.017 C 
HETATM   45  C27 UNL     1      19.682  26.687  16.503  1.00  0.00     0.017 C 
ENDBRANCH  29  42
ENDBRANCH   5  29
TORSDOF 13
ENDMDL
MODEL 4
REMARK VINA RESULT: -8.742873153      1.887      4.168
REMARK  13 active torsions:
REMARK  status: ('A' for Active; 'I' for Inactive)
REMARK    1  A    between atoms: C2_2  and  C3_3 
REMARK    2  A    between atoms: C3_3  and  C4_4 
REMARK    3  A    between atoms: C4_4  and  N1_5 
REMARK       I    between atoms: N1_5  and  C5_7 
REMARK    4  A    between atoms: C5_7  and  C6_9 
REMARK    5  A    between atoms: C6_9  and  C7_11 
REMARK    6  A    between atoms: C7_11  and  C8_12 
REMARK    7  A    between atoms: C7_11  and  N2_16 
REMARK    8  A    between atoms: C8_12  and  C9_13 
REMARK       I    between atoms: N2_16  and  C12_18 
REMARK    9  A    between atoms: C12_18  and  C13_20 
REMARK       I    between atoms: N3_23  and  C16_24 
REMARK   10  A    between atoms: C16_24  and  C17_26 
REMARK   11  A    between atoms: C17_26  and  N4_27 
REMARK   12  A    between atoms: C17_26  and  C24_39 
REMARK       I    between atoms: N4_27  and  C18_29 
REMARK   13  A    between atoms: C18_29  and  C19_31 
ROOT
HETATM    1  C13 UNL     1      14.625  21.764  13.449  1.00  0.00     0.098 A 
HETATM    2  C14 UNL     1      15.544  21.662  14.525  1.00  0.00     0.032 A 
HETATM    3  C15 UNL     1      16.649  22.498  15.061  1.00  0.00     0.141 C 
HETATM    4  N3  UNL     1      15.876  23.186  16.112  1.00  0.00    -0.286 N 
HETATM    5  C16 UNL     1      16.342  23.608  17.397  1.00  0.00     0.250 C 
HETATM    6  O4  UNL     1      15.523  24.226  18.124  1.00  0.00    -0.271 OA
HETATM    7  C28 UNL     1      14.555  23.322  15.578  1.00  0.00     0.232 C 
HETATM    8  O6  UNL     1      13.569  23.691  16.229  1.00  0.00    -0.272 OA
HETATM    9  C29 UNL     1      14.666  22.946  14.196  1.00  0.00     0.098 A 
ENDROOT
BRANCH   1  10
HETATM   10  C12 UNL     1      13.383  20.940  13.465  1.00  0.00     0.223 C 
HETATM   11  N2  UNL     1      12.111  21.484  13.760  1.00  0.00    -0.349 N 
ATOM     12  H2  UNL     1      12.038  22.479  13.975  1.00  0.00     0.163 HD
HETATM   13  O3  UNL     1      13.442  19.710  13.208  1.00  0.00    -0.273 OA
BRANCH  11  14
HETATM   14  C7  UNL     1      10.900  20.670  13.769  1.00  0.00     0.164 C 
BRANCH  14  15
HETATM   15  C6  UNL     1      10.359  20.634  15.155  1.00  0.00     0.238 C 
HETATM   16  O2  UNL     1       9.218  21.101  15.358  1.00  0.00    -0.285 OA
BRANCH  15  17
HETATM   17  C5  UNL     1      11.106  20.076  16.267  1.00  0.00     0.289 C 
HETATM   18  N1  UNL     1      12.184  20.833  16.809  1.00  0.00    -0.354 N 
ATOM     19  H1  UNL     1      12.427  21.747  16.424  1.00  0.00     0.162 HD
HETATM   20  O1  UNL     1      10.827  18.948  16.762  1.00  0.00    -0.264 OA
BRANCH  18  21
HETATM   21  C4  UNL     1      12.926  20.274  17.921  1.00  0.00     0.123 C 
BRANCH  21  22
HETATM   22  C3  UNL     1      14.302  19.797  17.519  1.00  0.00     0.019 C 
BRANCH  22  23
HETATM   23  C2  UNL     1      14.429  18.357  17.997  1.00  0.00    -0.003 C 
HETATM   24  C1  UNL     1      13.550  18.193  19.204  1.00  0.00     0.005 C 
ENDBRANCH  22  23
ENDBRANCH  21  22
ENDBRANCH  18  21
ENDBRANCH  15  17
ENDBRANCH  14  15
BRANCH  14  25
HETATM   25  C8  UNL     1       9.834  21.372  12.930  1.00  0.00     0.037 C 
BRANCH  25  26
HETATM   26  C9  UNL     1       9.282  20.454  11.880  1.00  0.00    -0.020 C 
HETATM   27  C10 UNL     1      10.484  19.809  11.184  1.00  0.00     0.009 C 
HETATM   28  C11 UNL     1       8.543  21.217  10.789  1.00  0.00     0.009 C 
ENDBRANCH  25  26
ENDBRANCH  14  25
ENDBRANCH  11  14
ENDBRANCH   1  10
BRANCH   5  29
HETATM   29  C17 UNL     1      17.714  23.310  17.797  1.00  0.00     0.185 C 
BRANCH  29  30
HETATM   30  N4  UNL     1      18.530  24.550  17.847  1.00  0.00    -0.342 N 
HETATM   31  C18 UNL     1      19.617  24.747  17.026  1.00  0.00     0.261 C 
HETATM   32  O5  UNL     1      19.895  23.805  16.203  1.00  0.00    -0.267 OA
ATOM     33  H4  UNL     1      18.277  25.280  18.513  1.00  0.00     0.163 HD
BRANCH  31  34
HETATM   34  C19 UNL     1      20.480  25.903  16.992  1.00  0.00     0.096 A 
HETATM   35  S1  UNL     1      21.019  26.733  15.539  1.00  0.00    -0.070 SA
HETATM   36  C20 UNL     1      21.967  27.935  16.261  1.00  0.00     0.048 A 
HETATM   37  C21 UNL     1      22.765  29.042  15.634  1.00  0.00     0.076 C 
HETATM   38  N5  UNL     1      21.838  27.663  17.533  1.00  0.00    -0.357 N 
HETATM   39  C22 UNL     1      21.109  26.664  17.940  1.00  0.00     0.028 A 
ATOM     40  H5  UNL     1      22.319  28.245  18.220  1.00  0.00     0.166 HD
HETATM   41  C23 UNL     1      20.984  26.376  19.431  1.00  0.00     0.070 C 
ENDBRANCH  31  34
ENDBRANCH  29  30
BRANCH  29  42
HETATM   42  C24 UNL     1      17.847  22.742  19.199  1.00  0.00    -0.022 C 
HETATM   43  C25 UNL     1      17.794  23.774  20.286  1.00  0.00     0.017 C 
HETATM   44  C26 UNL     1      19.138  21.979  19.377  1.00  0.00     0.017 C 
HETATM   45  C27 UNL     1      16.735  21.700  19.405  1.00  0.00     0.017 C 
ENDBRANCH  29  42
ENDBRANCH   5  29
TORSDOF 13
ENDMDL
MODEL 5
REMARK VINA RESULT: -8.740563948      2.311      4.830
REMARK  13 active torsions:
REMARK  status: ('A' for Active; 'I' for Inactive)
REMARK    1  A    between atoms: C2_2  and  C3_3 
REMARK    2  A    between atoms: C3_3  and  C4_4 
REMARK    3  A    between atoms: C4_4  and  N1_5 
REMARK       I    between atoms: N1_5  and  C5_7 
REMARK    4  A    between atoms: C5_7  and  C6_9 
REMARK    5  A    between atoms: C6_9  and  C7_11 
REMARK    6  A    between atoms: C7_11  and  C8_12 
REMARK    7  A    between atoms: C7_11  and  N2_16 
REMARK    8  A    between atoms: C8_12  and  C9_13 
REMARK       I    between atoms: N2_16  and  C12_18 
REMARK    9  A    between atoms: C12_18  and  C13_20 
REMARK       I    between atoms: N3_23  and  C16_24 
REMARK   10  A    between atoms: C16_24  and  C17_26 
REMARK   11  A    between atoms: C17_26  and  N4_27 
REMARK   12  A    between atoms: C17_26  and  C24_39 
REMARK       I    between atoms: N4_27  and  C18_29 
REMARK   13  A    between atoms: C18_29  and  C19_31 
ROOT
HETATM    1  C13 UNL     1      13.783  21.407  12.968  1.00  0.00     0.098 A 
HETATM    2  C14 UNL     1      14.611  21.262  14.112  1.00  0.00     0.032 A 
HETATM    3  C15 UNL     1      15.876  21.877  14.591  1.00  0.00     0.141 C 
HETATM    4  N3  UNL     1      15.272  22.898  15.467  1.00  0.00    -0.286 N 
HETATM    5  C16 UNL     1      15.790  23.400  16.703  1.00  0.00     0.250 C 
HETATM    6  O4  UNL     1      15.133  24.313  17.265  1.00  0.00    -0.271 OA
HETATM    7  C28 UNL     1      14.046  23.266  14.824  1.00  0.00     0.232 C 
HETATM    8  O6  UNL     1      13.168  23.970  15.338  1.00  0.00    -0.272 OA
HETATM    9  C29 UNL     1      14.101  22.649  13.527  1.00  0.00     0.098 A 
ENDROOT
BRANCH   1  10
HETATM   10  C12 UNL     1      12.373  20.929  13.020  1.00  0.00     0.223 C 
HETATM   11  N2  UNL     1      11.341  21.668  13.646  1.00  0.00    -0.349 N 
ATOM     12  H2  UNL     1      11.569  22.562  14.082  1.00  0.00     0.163 HD
HETATM   13  O3  UNL     1      12.062  19.831  12.494  1.00  0.00    -0.273 OA
BRANCH  11  14
HETATM   14  C7  UNL     1       9.961  21.194  13.687  1.00  0.00     0.164 C 
BRANCH  14  15
HETATM   15  C6  UNL     1       9.583  20.948  15.105  1.00  0.00     0.238 C 
HETATM   16  O2  UNL     1       8.684  21.655  15.610  1.00  0.00    -0.285 OA
BRANCH  15  17
HETATM   17  C5  UNL     1      10.218  19.923  15.913  1.00  0.00     0.289 C 
HETATM   18  N1  UNL     1      10.973  20.326  17.052  1.00  0.00    -0.354 N 
ATOM     19  H1  UNL     1      11.067  21.313  17.294  1.00  0.00     0.162 HD
HETATM   20  O1  UNL     1      10.118  18.696  15.634  1.00  0.00    -0.264 OA
BRANCH  18  21
HETATM   21  C4  UNL     1      11.604  19.299  17.857  1.00  0.00     0.123 C 
BRANCH  21  22
HETATM   22  C3  UNL     1      13.087  19.184  17.592  1.00  0.00     0.019 C 
BRANCH  22  23
HETATM   23  C2  UNL     1      13.622  18.110  18.529  1.00  0.00    -0.003 C 
HETATM   24  C1  UNL     1      13.574  18.654  19.929  1.00  0.00     0.005 C 
ENDBRANCH  22  23
ENDBRANCH  21  22
ENDBRANCH  18  21
ENDBRANCH  15  17
ENDBRANCH  14  15
BRANCH  14  25
HETATM   25  C8  UNL     1       9.044  22.318  13.207  1.00  0.00     0.037 C 
BRANCH  25  26
HETATM   26  C9  UNL     1       8.831  22.244  11.724  1.00  0.00    -0.020 C 
HETATM   27  C10 UNL     1       7.433  22.806  11.451  1.00  0.00     0.009 C 
HETATM   28  C11 UNL     1       8.793  20.805  11.227  1.00  0.00     0.009 C 
ENDBRANCH  25  26
ENDBRANCH  14  25
ENDBRANCH  11  14
ENDBRANCH   1  10
BRANCH   5  29
HETATM   29  C17 UNL     1      17.027  22.844  17.242  1.00  0.00     0.185 C 
BRANCH  29  30
HETATM   30  N4  UNL     1      17.743  23.850  18.066  1.00  0.00    -0.342 N 
HETATM   31  C18 UNL     1      18.999  24.306  17.740  1.00  0.00     0.261 C 
HETATM   32  O5  UNL     1      19.531  23.822  16.679  1.00  0.00    -0.267 OA
ATOM     33  H4  UNL     1      17.288  24.216  18.902  1.00  0.00     0.163 HD
BRANCH  31  34
HETATM   34  C19 UNL     1      19.787  25.273  18.467  1.00  0.00     0.096 A 
HETATM   35  S1  UNL     1      20.248  25.149  20.160  1.00  0.00    -0.070 SA
HETATM   36  C20 UNL     1      21.118  26.594  20.299  1.00  0.00     0.048 A 
HETATM   37  C21 UNL     1      21.827  27.184  21.484  1.00  0.00     0.076 C 
HETATM   38  N5  UNL     1      21.024  27.092  19.094  1.00  0.00    -0.357 N 
HETATM   39  C22 UNL     1      20.373  26.469  18.155  1.00  0.00     0.028 A 
ATOM     40  H5  UNL     1      21.469  27.986  18.886  1.00  0.00     0.166 HD
HETATM   41  C23 UNL     1      20.283  27.081  16.762  1.00  0.00     0.070 C 
ENDBRANCH  31  34
ENDBRANCH  29  30
BRANCH  29  42
HETATM   42  C24 UNL     1      16.825  21.682  18.198  1.00  0.00    -0.022 C 
HETATM   43  C25 UNL     1      15.510  21.702  18.920  1.00  0.00     0.017 C 
HETATM   44  C26 UNL     1      17.906  21.624  19.251  1.00  0.00     0.017 C 
HETATM   45  C27 UNL     1      16.970  20.373  17.404  1.00  0.00     0.017 C 
ENDBRANCH  29  42
ENDBRANCH   5  29
TORSDOF 13
ENDMDL
