MODEL 1
REMARK VINA RESULT: -9.234803608      0.000      0.000
REMARK  17 active torsions:
REMARK  status: ('A' for Active; 'I' for Inactive)
REMARK    1  A    between atoms: C2_2  and  C3_3 
REMARK    2  A    between atoms: C3_3  and  C4_4 
REMARK    3  A    between atoms: C4_4  and  O1_5 
REMARK    4  A    between atoms: O1_5  and  C5_6 
REMARK       I    between atoms: C5_6  and  N1_8 
REMARK    5  A    between atoms: N2_11  and  C8_12 
REMARK    6  A    between atoms: C8_12  and  O3_13 
REMARK    7  A    between atoms: C8_12  and  C9_15 
REMARK    8  A    between atoms: C9_15  and  C10_16 
REMARK    9  A    between atoms: C9_15  and  N3_18 
REMARK       I    between atoms: N3_18  and  C11_20 
REMARK   10  A    between atoms: C11_20  and  C12_22 
REMARK   11  A    between atoms: C14_26  and  C15_27 
REMARK   12  A    between atoms: C15_27  and  C16_28 
REMARK   13  A    between atoms: C16_28  and  C17_29 
REMARK   14  A    between atoms: C17_29  and  C18_30 
REMARK   15  A    between atoms: C18_30  and  C19_31 
REMARK   16  A    between atoms: C20_36  and  N7_37 
REMARK       I    between atoms: N7_37  and  C21_39 
REMARK   17  A    between atoms: C21_39  and  C22_41 
ROOT
HETATM    1  C12 UNL     1      10.083  18.008  15.466  1.00  0.00     0.117 A 
HETATM    2  C13 UNL     1       8.940  18.475  14.833  1.00  0.00     0.124 A 
HETATM    3  N4  UNL     1       8.384  17.424  14.209  1.00  0.00    -0.353 N 
ATOM      4  H4  UNL     1       7.527  17.461  13.658  1.00  0.00     0.166 HD
HETATM    5  C14 UNL     1       9.114  16.322  14.414  1.00  0.00     0.081 A 
HETATM    6  N8  UNL     1      10.139  16.691  15.177  1.00  0.00    -0.340 N 
ATOM      7  H8  UNL     1      10.872  16.061  15.501  1.00  0.00     0.167 HD
ENDROOT
BRANCH   1   8
HETATM    8  C11 UNL     1      11.026  18.788  16.269  1.00  0.00     0.270 C 
HETATM    9  N3  UNL     1      11.488  20.044  15.861  1.00  0.00    -0.338 N 
ATOM     10  H3  UNL     1      11.148  20.411  14.973  1.00  0.00     0.164 HD
HETATM   11  O5  UNL     1      11.421  18.299  17.349  1.00  0.00    -0.266 OA
BRANCH   9  12
HETATM   12  C9  UNL     1      12.427  20.869  16.627  1.00  0.00     0.221 C 
BRANCH  12  13
HETATM   13  C8  UNL     1      13.578  21.245  15.813  1.00  0.00     0.144 C 
BRANCH  13  14
HETATM   14  N2  UNL     1      14.939  21.250  16.096  1.00  0.00    -0.360 N 
HETATM   15  C7  UNL     1      16.088  21.207  15.258  1.00  0.00     0.144 C 
HETATM   16  C6  UNL     1      16.727  22.590  15.321  1.00  0.00     0.148 C 
HETATM   17  N1  UNL     1      16.868  22.999  16.715  1.00  0.00    -0.325 N 
HETATM   18  C5  UNL     1      18.079  23.606  17.123  1.00  0.00     0.362 C 
HETATM   19  C27 UNL     1      15.796  22.799  17.682  1.00  0.00     0.148 C 
HETATM   20  O2  UNL     1      18.995  23.784  16.296  1.00  0.00    -0.238 OA
HETATM   21  C26 UNL     1      15.309  21.375  17.554  1.00  0.00     0.144 C 
BRANCH  18  22
HETATM   22  O1  UNL     1      18.248  23.996  18.421  1.00  0.00    -0.304 OA
BRANCH  22  23
HETATM   23  C4  UNL     1      18.574  25.324  18.806  1.00  0.00     0.180 C 
BRANCH  23  24
HETATM   24  C3  UNL     1      17.364  25.963  19.438  1.00  0.00     0.026 C 
BRANCH  24  25
HETATM   25  C2  UNL     1      17.111  25.306  20.792  1.00  0.00    -0.002 C 
HETATM   26  C1  UNL     1      15.757  24.628  20.789  1.00  0.00     0.005 C 
ENDBRANCH  24  25
ENDBRANCH  23  24
ENDBRANCH  22  23
ENDBRANCH  18  22
ENDBRANCH  13  14
BRANCH  13  27
HETATM   27  O3  UNL     1      13.312  21.658  14.585  1.00  0.00    -0.348 OA
ATOM     28  H3  UNL     1      12.681  21.103  14.142  1.00  0.00     0.219 HD
ENDBRANCH  13  27
ENDBRANCH  12  13
BRANCH  12  29
HETATM   29  C10 UNL     1      11.677  21.913  17.310  1.00  0.00     0.264 C 
HETATM   30  O4  UNL     1      11.076  22.760  16.655  1.00  0.00    -0.304 OA
ENDBRANCH  12  29
ENDBRANCH   9  12
ENDBRANCH   1   8
BRANCH   5  31
HETATM   31  C15 UNL     1       8.858  14.927  13.899  1.00  0.00     0.076 C 
BRANCH  31  32
HETATM   32  C16 UNL     1       7.331  14.770  13.982  1.00  0.00     0.008 C 
BRANCH  32  33
HETATM   33  C17 UNL     1       6.934  14.089  15.261  1.00  0.00     0.007 C 
BRANCH  33  34
HETATM   34  C18 UNL     1       5.956  14.960  15.998  1.00  0.00     0.066 C 
BRANCH  34  35
HETATM   35  C19 UNL     1       6.722  15.851  16.920  1.00  0.00     0.069 A 
HETATM   36  N5  UNL     1       6.531  17.120  17.233  1.00  0.00    -0.296 N 
HETATM   37  N6  UNL     1       7.293  17.714  18.051  1.00  0.00    -0.279 N 
ATOM     38  H5  UNL     1       5.756  17.629  16.809  1.00  0.00     0.187 HD
HETATM   39  C20 UNL     1       8.309  17.026  18.599  1.00  0.00     0.167 A 
ATOM     40  H6  UNL     1       7.140  18.695  18.288  1.00  0.00     0.189 HD
HETATM   41  S1  UNL     1       8.110  15.491  17.883  1.00  0.00    -0.038 SA
BRANCH  39  42
HETATM   42  N7  UNL     1       9.191  17.485  19.455  1.00  0.00    -0.305 N 
HETATM   43  C21 UNL     1       8.894  18.725  20.077  1.00  0.00     0.231 C 
HETATM   44  O6  UNL     1       9.281  19.749  19.407  1.00  0.00    -0.272 OA
ATOM     45  H7  UNL     1      10.049  16.975  19.663  1.00  0.00     0.171 HD
BRANCH  43  46
HETATM   46  C22 UNL     1       8.212  18.891  21.365  1.00  0.00     0.030 C 
HETATM   47  C23 UNL     1       8.470  17.697  22.290  1.00  0.00     0.025 C 
HETATM   48  C24 UNL     1       8.767  20.135  22.050  1.00  0.00     0.025 C 
HETATM   49  C25 UNL     1       6.729  19.065  21.290  1.00  0.00     0.025 C 
ENDBRANCH  43  46
ENDBRANCH  39  42
ENDBRANCH  34  35
ENDBRANCH  33  34
ENDBRANCH  32  33
ENDBRANCH  31  32
ENDBRANCH   5  31
TORSDOF 17
ENDMDL
MODEL 2
REMARK VINA RESULT: -8.895394652      2.652      7.967
REMARK  17 active torsions:
REMARK  status: ('A' for Active; 'I' for Inactive)
REMARK    1  A    between atoms: C2_2  and  C3_3 
REMARK    2  A    between atoms: C3_3  and  C4_4 
REMARK    3  A    between atoms: C4_4  and  O1_5 
REMARK    4  A    between atoms: O1_5  and  C5_6 
REMARK       I    between atoms: C5_6  and  N1_8 
REMARK    5  A    between atoms: N2_11  and  C8_12 
REMARK    6  A    between atoms: C8_12  and  O3_13 
REMARK    7  A    between atoms: C8_12  and  C9_15 
REMARK    8  A    between atoms: C9_15  and  C10_16 
REMARK    9  A    between atoms: C9_15  and  N3_18 
REMARK       I    between atoms: N3_18  and  C11_20 
REMARK   10  A    between atoms: C11_20  and  C12_22 
REMARK   11  A    between atoms: C14_26  and  C15_27 
REMARK   12  A    between atoms: C15_27  and  C16_28 
REMARK   13  A    between atoms: C16_28  and  C17_29 
REMARK   14  A    between atoms: C17_29  and  C18_30 
REMARK   15  A    between atoms: C18_30  and  C19_31 
REMARK   16  A    between atoms: C20_36  and  N7_37 
REMARK       I    between atoms: N7_37  and  C21_39 
REMARK   17  A    between atoms: C21_39  and  C22_41 
ROOT
HETATM    1  C12 UNL     1       7.673  17.196  19.463  1.00  0.00     0.117 A 
HETATM    2  C13 UNL     1       6.775  16.974  20.498  1.00  0.00     0.124 A 
HETATM    3  N4  UNL     1       7.024  17.901  21.436  1.00  0.00    -0.353 N 
ATOM      4  H4  UNL     1       6.519  17.989  22.317  1.00  0.00     0.166 HD
HETATM    5  C14 UNL     1       8.030  18.694  21.050  1.00  0.00     0.081 A 
HETATM    6  N8  UNL     1       8.412  18.255  19.854  1.00  0.00    -0.340 N 
ATOM      7  H8  UNL     1       9.166  18.666  19.303  1.00  0.00     0.167 HD
ENDROOT
BRANCH   1   8
HETATM    8  C11 UNL     1       7.791  16.432  18.221  1.00  0.00     0.270 C 
HETATM    9  N3  UNL     1       7.100  16.792  17.058  1.00  0.00    -0.338 N 
ATOM     10  H3  UNL     1       6.498  17.613  17.098  1.00  0.00     0.164 HD
HETATM   11  O5  UNL     1       8.537  15.429  18.218  1.00  0.00    -0.266 OA
BRANCH   9  12
HETATM   12  C9  UNL     1       7.185  16.066  15.788  1.00  0.00     0.221 C 
BRANCH  12  13
HETATM   13  C8  UNL     1       8.541  16.109  15.249  1.00  0.00     0.144 C 
BRANCH  13  14
HETATM   14  N2  UNL     1       9.294  17.164  14.745  1.00  0.00    -0.360 N 
HETATM   15  C7  UNL     1       9.001  18.544  14.560  1.00  0.00     0.144 C 
HETATM   16  C6  UNL     1       9.816  19.307  15.598  1.00  0.00     0.148 C 
HETATM   17  N1  UNL     1      11.204  18.853  15.558  1.00  0.00    -0.325 N 
HETATM   18  C5  UNL     1      12.234  19.822  15.617  1.00  0.00     0.362 C 
HETATM   19  C27 UNL     1      11.543  17.440  15.464  1.00  0.00     0.148 C 
HETATM   20  O2  UNL     1      11.945  21.032  15.704  1.00  0.00    -0.238 OA
HETATM   21  C26 UNL     1      10.714  16.831  14.357  1.00  0.00     0.144 C 
BRANCH  18  22
HETATM   22  O1  UNL     1      13.542  19.434  15.577  1.00  0.00    -0.304 OA
BRANCH  22  23
HETATM   23  C4  UNL     1      14.627  20.292  15.901  1.00  0.00     0.180 C 
BRANCH  23  24
HETATM   24  C3  UNL     1      15.417  20.578  14.649  1.00  0.00     0.026 C 
BRANCH  24  25
HETATM   25  C2  UNL     1      14.983  21.931  14.092  1.00  0.00    -0.002 C 
HETATM   26  C1  UNL     1      14.078  21.726  12.895  1.00  0.00     0.005 C 
ENDBRANCH  24  25
ENDBRANCH  23  24
ENDBRANCH  22  23
ENDBRANCH  18  22
ENDBRANCH  13  14
BRANCH  13  27
HETATM   27  O3  UNL     1       9.195  14.960  15.223  1.00  0.00    -0.348 OA
ATOM     28  H3  UNL     1       9.023  14.461  14.433  1.00  0.00     0.219 HD
ENDBRANCH  13  27
ENDBRANCH  12  13
BRANCH  12  29
HETATM   29  C10 UNL     1       6.534  14.773  15.948  1.00  0.00     0.264 C 
HETATM   30  O4  UNL     1       6.544  13.967  15.022  1.00  0.00    -0.304 OA
ENDBRANCH  12  29
ENDBRANCH   9  12
ENDBRANCH   1   8
BRANCH   5  31
HETATM   31  C15 UNL     1       8.636  19.859  21.794  1.00  0.00     0.076 C 
BRANCH  31  32
HETATM   32  C16 UNL     1      10.040  20.003  21.185  1.00  0.00     0.008 C 
BRANCH  32  33
HETATM   33  C17 UNL     1      10.180  21.319  20.474  1.00  0.00     0.007 C 
BRANCH  33  34
HETATM   34  C18 UNL     1      10.717  21.077  19.092  1.00  0.00     0.066 C 
BRANCH  34  35
HETATM   35  C19 UNL     1      12.193  21.300  19.115  1.00  0.00     0.069 A 
HETATM   36  N5  UNL     1      13.171  20.501  19.502  1.00  0.00    -0.296 N 
HETATM   37  N6  UNL     1      14.381  20.869  19.443  1.00  0.00    -0.279 N 
ATOM     38  H5  UNL     1      12.947  19.571  19.855  1.00  0.00     0.187 HD
HETATM   39  C20 UNL     1      14.656  22.098  18.975  1.00  0.00     0.167 A 
ATOM     40  H6  UNL     1      15.131  20.246  19.744  1.00  0.00     0.189 HD
HETATM   41  S1  UNL     1      13.095  22.691  18.627  1.00  0.00    -0.038 SA
BRANCH  39  42
HETATM   42  N7  UNL     1      15.845  22.639  18.851  1.00  0.00    -0.305 N 
HETATM   43  C21 UNL     1      15.917  23.877  18.162  1.00  0.00     0.231 C 
HETATM   44  O6  UNL     1      16.039  23.758  16.890  1.00  0.00    -0.272 OA
ATOM     45  H7  UNL     1      16.678  22.190  19.232  1.00  0.00     0.171 HD
BRANCH  43  46
HETATM   46  C22 UNL     1      15.865  25.203  18.786  1.00  0.00     0.030 C 
HETATM   47  C23 UNL     1      15.900  25.102  20.314  1.00  0.00     0.025 C 
HETATM   48  C24 UNL     1      17.093  25.994  18.346  1.00  0.00     0.025 C 
HETATM   49  C25 UNL     1      14.670  26.032  18.436  1.00  0.00     0.025 C 
ENDBRANCH  43  46
ENDBRANCH  39  42
ENDBRANCH  34  35
ENDBRANCH  33  34
ENDBRANCH  32  33
ENDBRANCH  31  32
ENDBRANCH   5  31
TORSDOF 17
ENDMDL
MODEL 3
REMARK VINA RESULT: -8.719078664      2.920      9.720
REMARK  17 active torsions:
REMARK  status: ('A' for Active; 'I' for Inactive)
REMARK    1  A    between atoms: C2_2  and  C3_3 
REMARK    2  A    between atoms: C3_3  and  C4_4 
REMARK    3  A    between atoms: C4_4  and  O1_5 
REMARK    4  A    between atoms: O1_5  and  C5_6 
REMARK       I    between atoms: C5_6  and  N1_8 
REMARK    5  A    between atoms: N2_11  and  C8_12 
REMARK    6  A    between atoms: C8_12  and  O3_13 
REMARK    7  A    between atoms: C8_12  and  C9_15 
REMARK    8  A    between atoms: C9_15  and  C10_16 
REMARK    9  A    between atoms: C9_15  and  N3_18 
REMARK       I    between atoms: N3_18  and  C11_20 
REMARK   10  A    between atoms: C11_20  and  C12_22 
REMARK   11  A    between atoms: C14_26  and  C15_27 
REMARK   12  A    between atoms: C15_27  and  C16_28 
REMARK   13  A    between atoms: C16_28  and  C17_29 
REMARK   14  A    between atoms: C17_29  and  C18_30 
REMARK   15  A    between atoms: C18_30  and  C19_31 
REMARK   16  A    between atoms: C20_36  and  N7_37 
REMARK       I    between atoms: N7_37  and  C21_39 
REMARK   17  A    between atoms: C21_39  and  C22_41 
ROOT
HETATM    1  C12 UNL     1      13.474  21.908  18.661  1.00  0.00     0.117 A 
HETATM    2  C13 UNL     1      14.615  21.220  19.052  1.00  0.00     0.124 A 
HETATM    3  N4  UNL     1      15.657  21.834  18.470  1.00  0.00    -0.353 N 
ATOM      4  H4  UNL     1      16.631  21.551  18.575  1.00  0.00     0.166 HD
HETATM    5  C14 UNL     1      15.237  22.868  17.734  1.00  0.00     0.081 A 
HETATM    6  N8  UNL     1      13.913  22.901  17.860  1.00  0.00    -0.340 N 
ATOM      7  H8  UNL     1      13.308  23.587  17.409  1.00  0.00     0.167 HD
ENDROOT
BRANCH   1   8
HETATM    8  C11 UNL     1      12.092  21.606  19.037  1.00  0.00     0.270 C 
HETATM    9  N3  UNL     1      11.779  20.714  20.068  1.00  0.00    -0.338 N 
ATOM     10  H3  UNL     1      12.552  20.266  20.560  1.00  0.00     0.164 HD
HETATM   11  O5  UNL     1      11.175  22.174  18.404  1.00  0.00    -0.266 OA
BRANCH   9  12
HETATM   12  C9  UNL     1      10.415  20.380  20.487  1.00  0.00     0.221 C 
BRANCH  12  13
HETATM   13  C8  UNL     1      10.274  18.947  20.719  1.00  0.00     0.144 C 
BRANCH  13  14
HETATM   14  N2  UNL     1       9.158  18.117  20.690  1.00  0.00    -0.360 N 
HETATM   15  C7  UNL     1       8.160  17.826  21.661  1.00  0.00     0.144 C 
HETATM   16  C6  UNL     1       6.875  18.492  21.180  1.00  0.00     0.148 C 
HETATM   17  N1  UNL     1       6.642  18.146  19.781  1.00  0.00    -0.325 N 
HETATM   18  C5  UNL     1       5.332  17.792  19.382  1.00  0.00     0.362 C 
HETATM   19  C27 UNL     1       7.719  18.163  18.800  1.00  0.00     0.148 C 
HETATM   20  O2  UNL     1       4.407  17.784  20.218  1.00  0.00    -0.238 OA
HETATM   21  C26 UNL     1       8.895  17.414  19.381  1.00  0.00     0.144 C 
BRANCH  18  22
HETATM   22  O1  UNL     1       5.078  17.458  18.082  1.00  0.00    -0.304 OA
BRANCH  22  23
HETATM   23  C4  UNL     1       5.035  16.120  17.608  1.00  0.00     0.180 C 
BRANCH  23  24
HETATM   24  C3  UNL     1       5.586  16.078  16.205  1.00  0.00     0.026 C 
BRANCH  24  25
HETATM   25  C2  UNL     1       6.419  14.811  16.043  1.00  0.00    -0.002 C 
HETATM   26  C1  UNL     1       6.715  14.575  14.577  1.00  0.00     0.005 C 
ENDBRANCH  24  25
ENDBRANCH  23  24
ENDBRANCH  22  23
ENDBRANCH  18  22
ENDBRANCH  13  14
BRANCH  13  27
HETATM   27  O3  UNL     1      11.386  18.292  21.009  1.00  0.00    -0.348 OA
ATOM     28  H3  UNL     1      12.168  18.782  20.782  1.00  0.00     0.219 HD
ENDBRANCH  13  27
ENDBRANCH  12  13
BRANCH  12  29
HETATM   29  C10 UNL     1      10.014  21.304  21.538  1.00  0.00     0.264 C 
HETATM   30  O4  UNL     1       9.235  20.934  22.411  1.00  0.00    -0.304 OA
ENDBRANCH  12  29
ENDBRANCH   9  12
ENDBRANCH   1   8
BRANCH   5  31
HETATM   31  C15 UNL     1      16.066  23.825  16.913  1.00  0.00     0.076 C 
BRANCH  31  32
HETATM   32  C16 UNL     1      16.550  22.978  15.726  1.00  0.00     0.008 C 
BRANCH  32  33
HETATM   33  C17 UNL     1      15.397  22.577  14.850  1.00  0.00     0.007 C 
BRANCH  33  34
HETATM   34  C18 UNL     1      15.565  21.140  14.444  1.00  0.00     0.066 C 
BRANCH  34  35
HETATM   35  C19 UNL     1      14.572  20.319  15.200  1.00  0.00     0.069 A 
HETATM   36  N5  UNL     1      14.758  19.322  16.045  1.00  0.00    -0.296 N 
HETATM   37  N6  UNL     1      13.779  18.742  16.600  1.00  0.00    -0.279 N 
ATOM     38  H5  UNL     1      15.707  19.013  16.255  1.00  0.00     0.187 HD
HETATM   39  C20 UNL     1      12.535  19.163  16.311  1.00  0.00     0.167 A 
ATOM     40  H6  UNL     1      13.930  17.972  17.252  1.00  0.00     0.189 HD
HETATM   41  S1  UNL     1      12.847  20.427  15.209  1.00  0.00    -0.038 SA
BRANCH  39  42
HETATM   42  N7  UNL     1      11.415  18.675  16.789  1.00  0.00    -0.305 N 
HETATM   43  C21 UNL     1      10.255  18.831  15.987  1.00  0.00     0.231 C 
HETATM   44  O6  UNL     1       9.639  19.942  16.174  1.00  0.00    -0.272 OA
ATOM     45  H7  UNL     1      11.380  18.206  17.694  1.00  0.00     0.171 HD
BRANCH  43  46
HETATM   46  C22 UNL     1       9.752  17.853  15.017  1.00  0.00     0.030 C 
HETATM   47  C23 UNL     1       9.683  16.450  15.625  1.00  0.00     0.025 C 
HETATM   48  C24 UNL     1       8.336  18.254  14.615  1.00  0.00     0.025 C 
HETATM   49  C25 UNL     1      10.542  17.736  13.752  1.00  0.00     0.025 C 
ENDBRANCH  43  46
ENDBRANCH  39  42
ENDBRANCH  34  35
ENDBRANCH  33  34
ENDBRANCH  32  33
ENDBRANCH  31  32
ENDBRANCH   5  31
TORSDOF 17
ENDMDL
MODEL 4
REMARK VINA RESULT: -8.606822304      3.162      9.733
REMARK  17 active torsions:
REMARK  status: ('A' for Active; 'I' for Inactive)
REMARK    1  A    between atoms: C2_2  and  C3_3 
REMARK    2  A    between atoms: C3_3  and  C4_4 
REMARK    3  A    between atoms: C4_4  and  O1_5 
REMARK    4  A    between atoms: O1_5  and  C5_6 
REMARK       I    between atoms: C5_6  and  N1_8 
REMARK    5  A    between atoms: N2_11  and  C8_12 
REMARK    6  A    between atoms: C8_12  and  O3_13 
REMARK    7  A    between atoms: C8_12  and  C9_15 
REMARK    8  A    between atoms: C9_15  and  C10_16 
REMARK    9  A    between atoms: C9_15  and  N3_18 
REMARK       I    between atoms: N3_18  and  C11_20 
REMARK   10  A    between atoms: C11_20  and  C12_22 
REMARK   11  A    between atoms: C14_26  and  C15_27 
REMARK   12  A    between atoms: C15_27  and  C16_28 
REMARK   13  A    between atoms: C16_28  and  C17_29 
REMARK   14  A    between atoms: C17_29  and  C18_30 
REMARK   15  A    between atoms: C18_30  and  C19_31 
REMARK   16  A    between atoms: C20_36  and  N7_37 
REMARK       I    between atoms: N7_37  and  C21_39 
REMARK   17  A    between atoms: C21_39  and  C22_41 
ROOT
HETATM    1  C12 UNL     1      13.467  21.945  18.680  1.00  0.00     0.117 A 
HETATM    2  C13 UNL     1      14.598  21.251  19.087  1.00  0.00     0.124 A 
HETATM    3  N4  UNL     1      15.651  21.852  18.512  1.00  0.00    -0.353 N 
ATOM      4  H4  UNL     1      16.622  21.563  18.628  1.00  0.00     0.166 HD
HETATM    5  C14 UNL     1      15.246  22.885  17.765  1.00  0.00     0.081 A 
HETATM    6  N8  UNL     1      13.921  22.928  17.877  1.00  0.00    -0.340 N 
ATOM      7  H8  UNL     1      13.326  23.616  17.415  1.00  0.00     0.167 HD
ENDROOT
BRANCH   1   8
HETATM    8  C11 UNL     1      12.079  21.656  19.044  1.00  0.00     0.270 C 
HETATM    9  N3  UNL     1      11.749  20.782  20.085  1.00  0.00    -0.338 N 
ATOM     10  H3  UNL     1      12.513  20.338  20.593  1.00  0.00     0.164 HD
HETATM   11  O5  UNL     1      11.173  22.219  18.391  1.00  0.00    -0.266 OA
BRANCH   9  12
HETATM   12  C9  UNL     1      10.378  20.462  20.493  1.00  0.00     0.221 C 
BRANCH  12  13
HETATM   13  C8  UNL     1      10.186  19.019  20.597  1.00  0.00     0.144 C 
BRANCH  13  14
HETATM   14  N2  UNL     1       9.067  18.224  20.375  1.00  0.00    -0.360 N 
HETATM   15  C7  UNL     1       8.641  16.993  20.947  1.00  0.00     0.144 C 
HETATM   16  C6  UNL     1       7.439  17.313  21.828  1.00  0.00     0.148 C 
HETATM   17  N1  UNL     1       6.486  18.125  21.076  1.00  0.00    -0.325 N 
HETATM   18  C5  UNL     1       5.109  17.814  21.171  1.00  0.00     0.362 C 
HETATM   19  C27 UNL     1       6.921  19.239  20.243  1.00  0.00     0.148 C 
HETATM   20  O2  UNL     1       4.734  16.865  21.888  1.00  0.00    -0.238 OA
HETATM   21  C26 UNL     1       8.065  18.760  19.381  1.00  0.00     0.144 C 
BRANCH  18  22
HETATM   22  O1  UNL     1       4.191  18.549  20.477  1.00  0.00    -0.304 OA
BRANCH  22  23
HETATM   23  C4  UNL     1       3.649  18.152  19.225  1.00  0.00     0.180 C 
BRANCH  23  24
HETATM   24  C3  UNL     1       3.044  19.355  18.549  1.00  0.00     0.026 C 
BRANCH  24  25
HETATM   25  C2  UNL     1       3.633  20.617  19.170  1.00  0.00    -0.002 C 
HETATM   26  C1  UNL     1       2.519  21.559  19.575  1.00  0.00     0.005 C 
ENDBRANCH  24  25
ENDBRANCH  23  24
ENDBRANCH  22  23
ENDBRANCH  18  22
ENDBRANCH  13  14
BRANCH  13  27
HETATM   27  O3  UNL     1      11.244  18.316  20.965  1.00  0.00    -0.348 OA
ATOM     28  H3  UNL     1      11.272  18.163  21.902  1.00  0.00     0.219 HD
ENDBRANCH  13  27
ENDBRANCH  12  13
BRANCH  12  29
HETATM   29  C10 UNL     1      10.024  21.301  21.629  1.00  0.00     0.264 C 
HETATM   30  O4  UNL     1       9.143  20.941  22.403  1.00  0.00    -0.304 OA
ENDBRANCH  12  29
ENDBRANCH   9  12
ENDBRANCH   1   8
BRANCH   5  31
HETATM   31  C15 UNL     1      16.091  23.830  16.946  1.00  0.00     0.076 C 
BRANCH  31  32
HETATM   32  C16 UNL     1      16.571  22.974  15.763  1.00  0.00     0.008 C 
BRANCH  32  33
HETATM   33  C17 UNL     1      15.426  22.637  14.850  1.00  0.00     0.007 C 
BRANCH  33  34
HETATM   34  C18 UNL     1      15.557  21.207  14.407  1.00  0.00     0.066 C 
BRANCH  34  35
HETATM   35  C19 UNL     1      14.576  20.384  15.176  1.00  0.00     0.069 A 
HETATM   36  N5  UNL     1      14.777  19.404  16.038  1.00  0.00    -0.296 N 
HETATM   37  N6  UNL     1      13.806  18.819  16.602  1.00  0.00    -0.279 N 
ATOM     38  H5  UNL     1      15.730  19.113  16.253  1.00  0.00     0.187 HD
HETATM   39  C20 UNL     1      12.556  19.216  16.306  1.00  0.00     0.167 A 
ATOM     40  H6  UNL     1      13.968  18.063  17.267  1.00  0.00     0.189 HD
HETATM   41  S1  UNL     1      12.850  20.466  15.182  1.00  0.00    -0.038 SA
BRANCH  39  42
HETATM   42  N7  UNL     1      11.443  18.720  16.791  1.00  0.00    -0.305 N 
HETATM   43  C21 UNL     1      10.270  18.900  16.015  1.00  0.00     0.231 C 
HETATM   44  O6  UNL     1       9.661  20.008  16.243  1.00  0.00    -0.272 OA
ATOM     45  H7  UNL     1      11.423  18.227  17.684  1.00  0.00     0.171 HD
BRANCH  43  46
HETATM   46  C22 UNL     1       9.745  17.950  15.029  1.00  0.00     0.030 C 
HETATM   47  C23 UNL     1       9.477  16.581  15.663  1.00  0.00     0.025 C 
HETATM   48  C24 UNL     1       8.417  18.484  14.501  1.00  0.00     0.025 C 
HETATM   49  C25 UNL     1      10.617  17.710  13.839  1.00  0.00     0.025 C 
ENDBRANCH  43  46
ENDBRANCH  39  42
ENDBRANCH  34  35
ENDBRANCH  33  34
ENDBRANCH  32  33
ENDBRANCH  31  32
ENDBRANCH   5  31
TORSDOF 17
ENDMDL
MODEL 5
REMARK VINA RESULT: -8.580073528      1.934      4.864
REMARK  17 active torsions:
REMARK  status: ('A' for Active; 'I' for Inactive)
REMARK    1  A    between atoms: C2_2  and  C3_3 
REMARK    2  A    between atoms: C3_3  and  C4_4 
REMARK    3  A    between atoms: C4_4  and  O1_5 
REMARK    4  A    between atoms: O1_5  and  C5_6 
REMARK       I    between atoms: C5_6  and  N1_8 
REMARK    5  A    between atoms: N2_11  and  C8_12 
REMARK    6  A    between atoms: C8_12  and  O3_13 
REMARK    7  A    between atoms: C8_12  and  C9_15 
REMARK    8  A    between atoms: C9_15  and  C10_16 
REMARK    9  A    between atoms: C9_15  and  N3_18 
REMARK       I    between atoms: N3_18  and  C11_20 
REMARK   10  A    between atoms: C11_20  and  C12_22 
REMARK   11  A    between atoms: C14_26  and  C15_27 
REMARK   12  A    between atoms: C15_27  and  C16_28 
REMARK   13  A    between atoms: C16_28  and  C17_29 
REMARK   14  A    between atoms: C17_29  and  C18_30 
REMARK   15  A    between atoms: C18_30  and  C19_31 
REMARK   16  A    between atoms: C20_36  and  N7_37 
REMARK       I    between atoms: N7_37  and  C21_39 
REMARK   17  A    between atoms: C21_39  and  C22_41 
ROOT
HETATM    1  C12 UNL     1      10.832  21.183  18.876  1.00  0.00     0.117 A 
HETATM    2  C13 UNL     1      11.574  21.868  19.828  1.00  0.00     0.124 A 
HETATM    3  N4  UNL     1      10.973  21.665  21.011  1.00  0.00    -0.353 N 
ATOM      4  H4  UNL     1      11.294  22.047  21.900  1.00  0.00     0.166 HD
HETATM    5  C14 UNL     1       9.893  20.892  20.857  1.00  0.00     0.081 A 
HETATM    6  N8  UNL     1       9.821  20.608  19.559  1.00  0.00    -0.340 N 
ATOM      7  H8  UNL     1       9.095  20.030  19.136  1.00  0.00     0.167 HD
ENDROOT
BRANCH   1   8
HETATM    8  C11 UNL     1      11.094  21.113  17.438  1.00  0.00     0.270 C 
HETATM    9  N3  UNL     1      11.706  20.003  16.847  1.00  0.00    -0.338 N 
ATOM     10  H3  UNL     1      11.975  19.228  17.453  1.00  0.00     0.164 HD
HETATM   11  O5  UNL     1      10.753  22.087  16.733  1.00  0.00    -0.266 OA
BRANCH   9  12
HETATM   12  C9  UNL     1      11.988  19.879  15.414  1.00  0.00     0.221 C 
BRANCH  12  13
HETATM   13  C8  UNL     1      13.208  20.595  15.056  1.00  0.00     0.144 C 
BRANCH  13  14
HETATM   14  N2  UNL     1      14.419  20.734  15.724  1.00  0.00    -0.360 N 
HETATM   15  C7  UNL     1      15.670  20.072  15.580  1.00  0.00     0.144 C 
HETATM   16  C6  UNL     1      16.632  21.084  14.965  1.00  0.00     0.148 C 
HETATM   17  N1  UNL     1      16.562  22.337  15.710  1.00  0.00    -0.325 N 
HETATM   18  C5  UNL     1      17.769  23.004  16.028  1.00  0.00     0.362 C 
HETATM   19  C27 UNL     1      15.288  22.910  16.125  1.00  0.00     0.148 C 
HETATM   20  O2  UNL     1      18.860  22.519  15.668  1.00  0.00    -0.238 OA
HETATM   21  C26 UNL     1      14.471  21.817  16.774  1.00  0.00     0.144 C 
BRANCH  18  22
HETATM   22  O1  UNL     1      17.742  24.176  16.728  1.00  0.00    -0.304 OA
BRANCH  22  23
HETATM   23  C4  UNL     1      18.258  24.318  18.043  1.00  0.00     0.180 C 
BRANCH  23  24
HETATM   24  C3  UNL     1      17.139  24.721  18.969  1.00  0.00     0.026 C 
BRANCH  24  25
HETATM   25  C2  UNL     1      16.382  25.889  18.346  1.00  0.00    -0.002 C 
HETATM   26  C1  UNL     1      14.892  25.689  18.524  1.00  0.00     0.005 C 
ENDBRANCH  24  25
ENDBRANCH  23  24
ENDBRANCH  22  23
ENDBRANCH  18  22
ENDBRANCH  13  14
BRANCH  13  27
HETATM   27  O3  UNL     1      13.190  21.234  13.898  1.00  0.00    -0.348 OA
ATOM     28  H3  UNL     1      12.373  21.115  13.429  1.00  0.00     0.219 HD
ENDBRANCH  13  27
ENDBRANCH  12  13
BRANCH  12  29
HETATM   29  C10 UNL     1      11.857  18.480  15.034  1.00  0.00     0.264 C 
HETATM   30  O4  UNL     1      12.136  17.600  15.843  1.00  0.00    -0.304 OA
ENDBRANCH  12  29
ENDBRANCH   9  12
ENDBRANCH   1   8
BRANCH   5  31
HETATM   31  C15 UNL     1       8.927  20.419  21.916  1.00  0.00     0.076 C 
BRANCH  31  32
HETATM   32  C16 UNL     1       9.315  18.950  22.148  1.00  0.00     0.008 C 
BRANCH  32  33
HETATM   33  C17 UNL     1       8.101  18.066  22.114  1.00  0.00     0.007 C 
BRANCH  33  34
HETATM   34  C18 UNL     1       7.019  18.748  21.325  1.00  0.00     0.066 C 
BRANCH  34  35
HETATM   35  C19 UNL     1       6.746  17.937  20.102  1.00  0.00     0.069 A 
HETATM   36  N5  UNL     1       5.849  18.108  19.148  1.00  0.00    -0.296 N 
HETATM   37  N6  UNL     1       5.769  17.306  18.171  1.00  0.00    -0.279 N 
ATOM     38  H5  UNL     1       5.208  18.899  19.199  1.00  0.00     0.187 HD
HETATM   39  C20 UNL     1       6.623  16.268  18.122  1.00  0.00     0.167 A 
ATOM     40  H6  UNL     1       5.074  17.444  17.438  1.00  0.00     0.189 HD
HETATM   41  S1  UNL     1       7.537  16.506  19.542  1.00  0.00    -0.038 SA
BRANCH  39  42
HETATM   42  N7  UNL     1       6.676  15.345  17.190  1.00  0.00    -0.305 N 
HETATM   43  C21 UNL     1       6.656  15.792  15.844  1.00  0.00     0.231 C 
HETATM   44  O6  UNL     1       5.475  15.949  15.366  1.00  0.00    -0.272 OA
ATOM     45  H7  UNL     1       6.729  14.353  17.423  1.00  0.00     0.171 HD
BRANCH  43  46
HETATM   46  C22 UNL     1       7.837  16.067  15.019  1.00  0.00     0.030 C 
HETATM   47  C23 UNL     1       9.130  15.744  15.774  1.00  0.00     0.025 C 
HETATM   48  C24 UNL     1       7.785  15.172  13.785  1.00  0.00     0.025 C 
HETATM   49  C25 UNL     1       7.965  17.473  14.527  1.00  0.00     0.025 C 
ENDBRANCH  43  46
ENDBRANCH  39  42
ENDBRANCH  34  35
ENDBRANCH  33  34
ENDBRANCH  32  33
ENDBRANCH  31  32
ENDBRANCH   5  31
TORSDOF 17
ENDMDL
