MODEL 1
REMARK VINA RESULT: -9.334983470      0.000      0.000
REMARK  15 active torsions:
REMARK  status: ('A' for Active; 'I' for Inactive)
REMARK    1  A    between atoms: C2_2  and  C3_3 
REMARK    2  A    between atoms: C3_3  and  C4_4 
REMARK    3  A    between atoms: C6_8  and  C7_9 
REMARK    4  A    between atoms: N2_12  and  C10_13 
REMARK    5  A    between atoms: C10_13  and  O1_14 
REMARK    6  A    between atoms: C10_13  and  N3_16 
REMARK    7  A    between atoms: C12_18  and  C13_19 
REMARK    8  A    between atoms: C13_19  and  C14_20 
REMARK    9  A    between atoms: C14_20  and  C15_21 
REMARK   10  A    between atoms: C14_20  and  C16_24 
REMARK   11  A    between atoms: N5_36  and  C24_38 
REMARK   12  A    between atoms: C24_38  and  C25_39 
REMARK   13  A    between atoms: C24_38  and  C28_44 
REMARK   14  A    between atoms: C25_39  and  C26_40 
REMARK   15  A    between atoms: C26_40  and  C27_41 
ROOT
HETATM    1  C7  UNL     1      13.398  19.848  16.058  1.00  0.00     0.115 C 
HETATM    2  C8  UNL     1      12.102  20.464  15.566  1.00  0.00     0.039 C 
HETATM    3  C9  UNL     1      11.240  20.755  16.780  1.00  0.00     0.137 C 
HETATM    4  N2  UNL     1      11.893  19.978  17.868  1.00  0.00    -0.282 N 
HETATM    5  C22 UNL     1      13.259  19.947  17.546  1.00  0.00     0.235 C 
HETATM    6  O4  UNL     1      14.225  19.995  18.328  1.00  0.00    -0.272 OA
ENDROOT
BRANCH   1   7
HETATM    7  C6  UNL     1      14.591  20.561  15.543  1.00  0.00    -0.014 A 
HETATM    8  C5  UNL     1      15.838  19.997  15.433  1.00  0.00     0.099 A 
HETATM    9  N1  UNL     1      16.874  20.705  14.965  1.00  0.00    -0.355 N 
HETATM   10  C4  UNL     1      16.756  22.009  14.575  1.00  0.00     0.086 A 
ATOM     11  H1  UNL     1      17.787  20.253  14.898  1.00  0.00     0.166 HD
HETATM   12  N4  UNL     1      15.543  22.532  14.691  1.00  0.00    -0.355 N 
HETATM   13  C23 UNL     1      14.469  21.896  15.144  1.00  0.00     0.099 A 
ATOM     14  H4  UNL     1      15.424  23.506  14.407  1.00  0.00     0.166 HD
BRANCH  10  15
HETATM   15  C3  UNL     1      17.922  22.753  14.066  1.00  0.00     0.128 C 
BRANCH  15  16
HETATM   16  C2  UNL     1      17.796  24.215  14.280  1.00  0.00    -0.014 C 
HETATM   17  C1  UNL     1      17.498  24.986  12.997  1.00  0.00     0.063 C 
HETATM   18  N5  UNL     1      17.867  24.868  15.301  1.00  0.00    -0.382 N 
ATOM     19  H5  UNL     1      17.704  25.848  15.068  1.00  0.00     0.160 HD
BRANCH  18  20
HETATM   20  C24 UNL     1      18.086  24.775  16.650  1.00  0.00     0.183 C 
BRANCH  20  21
HETATM   21  C25 UNL     1      17.307  25.754  17.504  1.00  0.00     0.046 C 
BRANCH  21  22
HETATM   22  C26 UNL     1      17.896  26.037  18.836  1.00  0.00     0.116 C 
BRANCH  22  23
HETATM   23  C27 UNL     1      17.306  25.354  19.981  1.00  0.00     0.172 C 
HETATM   24  O5  UNL     1      18.089  24.634  20.694  1.00  0.00    -0.648 OA
HETATM   25  O6  UNL     1      16.004  25.397  20.386  1.00  0.00    -0.648 OA
ENDBRANCH  22  23
ENDBRANCH  21  22
ENDBRANCH  20  21
BRANCH  20  26
HETATM   26  C28 UNL     1      17.961  23.455  17.304  1.00  0.00     0.196 C 
HETATM   27  O7  UNL     1      19.011  22.779  17.585  1.00  0.00    -0.646 OA
HETATM   28  O8  UNL     1      16.773  22.843  17.661  1.00  0.00    -0.646 OA
ENDBRANCH  20  26
ENDBRANCH  18  20
ENDBRANCH  15  16
ENDBRANCH  10  15
ENDBRANCH   1   7
BRANCH   4  29
HETATM   29  C10 UNL     1      11.192  19.445  18.951  1.00  0.00     0.234 C 
BRANCH  29  30
HETATM   30  O1  UNL     1      11.674  19.681  20.156  1.00  0.00    -0.332 OA
ATOM     31  H1  UNL     1      11.201  20.302  20.698  1.00  0.00     0.221 HD
ENDBRANCH  29  30
BRANCH  29  32
HETATM   32  N3  UNL     1      10.026  18.681  18.977  1.00  0.00    -0.285 N 
HETATM   33  C11 UNL     1       9.235  18.248  17.820  1.00  0.00     0.147 C 
HETATM   34  C12 UNL     1       8.875  16.841  18.102  1.00  0.00     0.025 C 
HETATM   35  C19 UNL     1       8.044  16.916  19.402  1.00  0.00     0.026 C 
HETATM   36  C20 UNL     1       7.911  15.579  20.047  1.00  0.00     0.029 C 
HETATM   37  C21 UNL     1       6.776  17.667  19.218  1.00  0.00     0.029 C 
HETATM   38  S1  UNL     1       9.189  18.001  20.345  1.00  0.00    -0.040 SA
BRANCH  34  39
HETATM   39  C13 UNL     1       8.219  16.034  17.082  1.00  0.00     0.023 C 
BRANCH  39  40
HETATM   40  C14 UNL     1       7.586  16.660  15.908  1.00  0.00     0.090 C 
BRANCH  40  41
HETATM   41  C15 UNL     1       6.210  16.282  15.588  1.00  0.00     0.177 C 
HETATM   42  O2  UNL     1       5.273  17.113  15.790  1.00  0.00    -0.648 OA
HETATM   43  O3  UNL     1       5.885  15.055  15.071  1.00  0.00    -0.648 OA
ENDBRANCH  40  41
BRANCH  40  44
HETATM   44  C16 UNL     1       8.412  16.390  14.661  1.00  0.00    -0.008 C 
HETATM   45  C17 UNL     1       9.166  17.603  14.198  1.00  0.00     0.010 C 
HETATM   46  C18 UNL     1       9.327  15.218  14.780  1.00  0.00     0.010 C 
ENDBRANCH  40  44
ENDBRANCH  39  40
ENDBRANCH  34  39
ENDBRANCH  29  32
ENDBRANCH   4  29
TORSDOF 15
ENDMDL
MODEL 2
REMARK VINA RESULT: -9.226167521      1.639      1.870
REMARK  15 active torsions:
REMARK  status: ('A' for Active; 'I' for Inactive)
REMARK    1  A    between atoms: C2_2  and  C3_3 
REMARK    2  A    between atoms: C3_3  and  C4_4 
REMARK    3  A    between atoms: C6_8  and  C7_9 
REMARK    4  A    between atoms: N2_12  and  C10_13 
REMARK    5  A    between atoms: C10_13  and  O1_14 
REMARK    6  A    between atoms: C10_13  and  N3_16 
REMARK    7  A    between atoms: C12_18  and  C13_19 
REMARK    8  A    between atoms: C13_19  and  C14_20 
REMARK    9  A    between atoms: C14_20  and  C15_21 
REMARK   10  A    between atoms: C14_20  and  C16_24 
REMARK   11  A    between atoms: N5_36  and  C24_38 
REMARK   12  A    between atoms: C24_38  and  C25_39 
REMARK   13  A    between atoms: C24_38  and  C28_44 
REMARK   14  A    between atoms: C25_39  and  C26_40 
REMARK   15  A    between atoms: C26_40  and  C27_41 
ROOT
HETATM    1  C7  UNL     1      13.272  19.770  16.187  1.00  0.00     0.115 C 
HETATM    2  C8  UNL     1      11.998  20.439  15.706  1.00  0.00     0.039 C 
HETATM    3  C9  UNL     1      11.148  20.741  16.925  1.00  0.00     0.137 C 
HETATM    4  N2  UNL     1      11.775  19.926  18.000  1.00  0.00    -0.282 N 
HETATM    5  C22 UNL     1      13.139  19.852  17.677  1.00  0.00     0.235 C 
HETATM    6  O4  UNL     1      14.106  19.855  18.458  1.00  0.00    -0.272 OA
ENDROOT
BRANCH   1   7
HETATM    7  C6  UNL     1      14.489  20.450  15.681  1.00  0.00    -0.014 A 
HETATM    8  C5  UNL     1      15.680  19.814  15.435  1.00  0.00     0.099 A 
HETATM    9  N1  UNL     1      16.743  20.494  14.985  1.00  0.00    -0.355 N 
HETATM   10  C4  UNL     1      16.707  21.839  14.747  1.00  0.00     0.086 A 
ATOM     11  H1  UNL     1      17.613  19.988  14.813  1.00  0.00     0.166 HD
HETATM   12  N4  UNL     1      15.546  22.432  14.993  1.00  0.00    -0.355 N 
HETATM   13  C23 UNL     1      14.451  21.826  15.438  1.00  0.00     0.099 A 
ATOM     14  H4  UNL     1      15.489  23.437  14.825  1.00  0.00     0.166 HD
BRANCH  10  15
HETATM   15  C3  UNL     1      17.900  22.550  14.252  1.00  0.00     0.128 C 
BRANCH  15  16
HETATM   16  C2  UNL     1      17.717  24.022  14.249  1.00  0.00    -0.014 C 
HETATM   17  C1  UNL     1      17.213  24.560  12.912  1.00  0.00     0.063 C 
HETATM   18  N5  UNL     1      17.880  24.835  15.134  1.00  0.00    -0.382 N 
ATOM     19  H5  UNL     1      17.632  25.757  14.774  1.00  0.00     0.160 HD
BRANCH  18  20
HETATM   20  C24 UNL     1      18.274  24.973  16.439  1.00  0.00     0.183 C 
BRANCH  20  21
HETATM   21  C25 UNL     1      18.287  26.392  16.968  1.00  0.00     0.046 C 
BRANCH  21  22
HETATM   22  C26 UNL     1      19.206  27.320  16.263  1.00  0.00     0.116 C 
BRANCH  22  23
HETATM   23  C27 UNL     1      18.597  28.355  15.436  1.00  0.00     0.172 C 
HETATM   24  O5  UNL     1      18.039  27.975  14.347  1.00  0.00    -0.648 OA
HETATM   25  O6  UNL     1      18.551  29.694  15.691  1.00  0.00    -0.648 OA
ENDBRANCH  22  23
ENDBRANCH  21  22
ENDBRANCH  20  21
BRANCH  20  26
HETATM   26  C28 UNL     1      17.619  24.145  17.473  1.00  0.00     0.196 C 
HETATM   27  O7  UNL     1      18.329  23.532  18.345  1.00  0.00    -0.646 OA
HETATM   28  O8  UNL     1      16.257  23.952  17.606  1.00  0.00    -0.646 OA
ENDBRANCH  20  26
ENDBRANCH  18  20
ENDBRANCH  15  16
ENDBRANCH  10  15
ENDBRANCH   1   7
BRANCH   4  29
HETATM   29  C10 UNL     1      11.056  19.401  19.076  1.00  0.00     0.234 C 
BRANCH  29  30
HETATM   30  O1  UNL     1      11.525  19.638  20.286  1.00  0.00    -0.332 OA
ATOM     31  H1  UNL     1      12.439  19.433  20.445  1.00  0.00     0.221 HD
ENDBRANCH  29  30
BRANCH  29  32
HETATM   32  N3  UNL     1       9.885  18.644  19.090  1.00  0.00    -0.285 N 
HETATM   33  C11 UNL     1       9.103  18.217  17.925  1.00  0.00     0.147 C 
HETATM   34  C12 UNL     1       8.731  16.812  18.202  1.00  0.00     0.025 C 
HETATM   35  C19 UNL     1       7.888  16.891  19.494  1.00  0.00     0.026 C 
HETATM   36  C20 UNL     1       7.740  15.555  20.137  1.00  0.00     0.029 C 
HETATM   37  C21 UNL     1       6.626  17.651  19.298  1.00  0.00     0.029 C 
HETATM   38  S1  UNL     1       9.030  17.969  20.449  1.00  0.00    -0.040 SA
BRANCH  34  39
HETATM   39  C13 UNL     1       8.080  16.010  17.175  1.00  0.00     0.023 C 
BRANCH  39  40
HETATM   40  C14 UNL     1       7.456  16.642  16.000  1.00  0.00     0.090 C 
BRANCH  40  41
HETATM   41  C15 UNL     1       6.077  16.277  15.677  1.00  0.00     0.177 C 
HETATM   42  O2  UNL     1       5.160  17.147  15.792  1.00  0.00    -0.648 OA
HETATM   43  O3  UNL     1       5.729  15.023  15.248  1.00  0.00    -0.648 OA
ENDBRANCH  40  41
BRANCH  40  44
HETATM   44  C16 UNL     1       8.282  16.362  14.754  1.00  0.00    -0.008 C 
HETATM   45  C17 UNL     1       9.057  17.565  14.297  1.00  0.00     0.010 C 
HETATM   46  C18 UNL     1       9.179  15.176  14.873  1.00  0.00     0.010 C 
ENDBRANCH  40  44
ENDBRANCH  39  40
ENDBRANCH  34  39
ENDBRANCH  29  32
ENDBRANCH   4  29
TORSDOF 15
ENDMDL
MODEL 3
REMARK VINA RESULT: -9.176313969      1.527      1.913
REMARK  15 active torsions:
REMARK  status: ('A' for Active; 'I' for Inactive)
REMARK    1  A    between atoms: C2_2  and  C3_3 
REMARK    2  A    between atoms: C3_3  and  C4_4 
REMARK    3  A    between atoms: C6_8  and  C7_9 
REMARK    4  A    between atoms: N2_12  and  C10_13 
REMARK    5  A    between atoms: C10_13  and  O1_14 
REMARK    6  A    between atoms: C10_13  and  N3_16 
REMARK    7  A    between atoms: C12_18  and  C13_19 
REMARK    8  A    between atoms: C13_19  and  C14_20 
REMARK    9  A    between atoms: C14_20  and  C15_21 
REMARK   10  A    between atoms: C14_20  and  C16_24 
REMARK   11  A    between atoms: N5_36  and  C24_38 
REMARK   12  A    between atoms: C24_38  and  C25_39 
REMARK   13  A    between atoms: C24_38  and  C28_44 
REMARK   14  A    between atoms: C25_39  and  C26_40 
REMARK   15  A    between atoms: C26_40  and  C27_41 
ROOT
HETATM    1  C7  UNL     1      12.562  20.594  16.548  1.00  0.00     0.115 C 
HETATM    2  C8  UNL     1      11.439  21.554  16.890  1.00  0.00     0.039 C 
HETATM    3  C9  UNL     1      10.954  21.217  18.287  1.00  0.00     0.137 C 
HETATM    4  N2  UNL     1      11.545  19.877  18.550  1.00  0.00    -0.282 N 
HETATM    5  C22 UNL     1      12.751  19.845  17.832  1.00  0.00     0.235 C 
HETATM    6  O4  UNL     1      13.819  19.305  18.166  1.00  0.00    -0.272 OA
ENDROOT
BRANCH   1   7
HETATM    7  C6  UNL     1      13.790  21.299  16.109  1.00  0.00    -0.014 A 
HETATM    8  C5  UNL     1      14.595  20.877  15.080  1.00  0.00     0.099 A 
HETATM    9  N1  UNL     1      15.696  21.561  14.742  1.00  0.00    -0.355 N 
HETATM   10  C4  UNL     1      16.079  22.702  15.390  1.00  0.00     0.086 A 
ATOM     11  H1  UNL     1      16.270  21.218  13.972  1.00  0.00     0.166 HD
HETATM   12  N4  UNL     1      15.287  23.090  16.381  1.00  0.00    -0.355 N 
HETATM   13  C23 UNL     1      14.181  22.466  16.773  1.00  0.00     0.099 A 
ATOM     14  H4  UNL     1      15.548  23.939  16.884  1.00  0.00     0.166 HD
BRANCH  10  15
HETATM   15  C3  UNL     1      17.298  23.426  14.987  1.00  0.00     0.128 C 
BRANCH  15  16
HETATM   16  C2  UNL     1      18.217  23.661  16.127  1.00  0.00    -0.014 C 
HETATM   17  C1  UNL     1      19.038  22.430  16.499  1.00  0.00     0.063 C 
HETATM   18  N5  UNL     1      18.424  24.667  16.773  1.00  0.00    -0.382 N 
ATOM     19  H5  UNL     1      19.144  24.462  17.467  1.00  0.00     0.160 HD
BRANCH  18  20
HETATM   20  C24 UNL     1      18.049  25.977  16.915  1.00  0.00     0.183 C 
BRANCH  20  21
HETATM   21  C25 UNL     1      17.947  26.473  18.343  1.00  0.00     0.046 C 
BRANCH  21  22
HETATM   22  C26 UNL     1      16.858  25.865  19.146  1.00  0.00     0.116 C 
BRANCH  22  23
HETATM   23  C27 UNL     1      17.112  24.551  19.724  1.00  0.00     0.172 C 
HETATM   24  O5  UNL     1      16.532  23.552  19.171  1.00  0.00    -0.648 OA
HETATM   25  O6  UNL     1      17.906  24.259  20.794  1.00  0.00    -0.648 OA
ENDBRANCH  22  23
ENDBRANCH  21  22
ENDBRANCH  20  21
BRANCH  20  26
HETATM   26  C28 UNL     1      18.782  27.015  16.161  1.00  0.00     0.196 C 
HETATM   27  O7  UNL     1      18.286  28.190  16.045  1.00  0.00    -0.646 OA
HETATM   28  O8  UNL     1      20.004  26.846  15.537  1.00  0.00    -0.646 OA
ENDBRANCH  20  26
ENDBRANCH  18  20
ENDBRANCH  15  16
ENDBRANCH  10  15
ENDBRANCH   1   7
BRANCH   4  29
HETATM   29  C10 UNL     1      10.940  18.926  19.374  1.00  0.00     0.234 C 
BRANCH  29  30
HETATM   30  O1  UNL     1      11.637  18.493  20.407  1.00  0.00    -0.332 OA
ATOM     31  H1  UNL     1      12.566  18.341  20.270  1.00  0.00     0.221 HD
ENDBRANCH  29  30
BRANCH  29  32
HETATM   32  N3  UNL     1       9.680  18.336  19.289  1.00  0.00    -0.285 N 
HETATM   33  C11 UNL     1       8.958  17.981  18.062  1.00  0.00     0.147 C 
HETATM   34  C12 UNL     1       8.372  16.649  18.329  1.00  0.00     0.025 C 
HETATM   35  C19 UNL     1       7.431  16.884  19.531  1.00  0.00     0.026 C 
HETATM   36  C20 UNL     1       7.040  15.603  20.183  1.00  0.00     0.029 C 
HETATM   37  C21 UNL     1       6.310  17.801  19.199  1.00  0.00     0.029 C 
HETATM   38  S1  UNL     1       8.616  17.828  20.571  1.00  0.00    -0.040 SA
BRANCH  34  39
HETATM   39  C13 UNL     1       7.715  15.910  17.260  1.00  0.00     0.023 C 
BRANCH  39  40
HETATM   40  C14 UNL     1       7.057  16.611  16.144  1.00  0.00     0.090 C 
BRANCH  40  41
HETATM   41  C15 UNL     1       5.682  16.238  15.816  1.00  0.00     0.177 C 
HETATM   42  O2  UNL     1       4.760  17.105  15.920  1.00  0.00    -0.648 OA
HETATM   43  O3  UNL     1       5.341  14.979  15.394  1.00  0.00    -0.648 OA
ENDBRANCH  40  41
BRANCH  40  44
HETATM   44  C16 UNL     1       7.868  16.444  14.868  1.00  0.00    -0.008 C 
HETATM   45  C17 UNL     1       8.506  17.728  14.421  1.00  0.00     0.010 C 
HETATM   46  C18 UNL     1       8.880  15.350  14.932  1.00  0.00     0.010 C 
ENDBRANCH  40  44
ENDBRANCH  39  40
ENDBRANCH  34  39
ENDBRANCH  29  32
ENDBRANCH   4  29
TORSDOF 15
ENDMDL
MODEL 4
REMARK VINA RESULT: -9.151418460      1.048      1.340
REMARK  15 active torsions:
REMARK  status: ('A' for Active; 'I' for Inactive)
REMARK    1  A    between atoms: C2_2  and  C3_3 
REMARK    2  A    between atoms: C3_3  and  C4_4 
REMARK    3  A    between atoms: C6_8  and  C7_9 
REMARK    4  A    between atoms: N2_12  and  C10_13 
REMARK    5  A    between atoms: C10_13  and  O1_14 
REMARK    6  A    between atoms: C10_13  and  N3_16 
REMARK    7  A    between atoms: C12_18  and  C13_19 
REMARK    8  A    between atoms: C13_19  and  C14_20 
REMARK    9  A    between atoms: C14_20  and  C15_21 
REMARK   10  A    between atoms: C14_20  and  C16_24 
REMARK   11  A    between atoms: N5_36  and  C24_38 
REMARK   12  A    between atoms: C24_38  and  C25_39 
REMARK   13  A    between atoms: C24_38  and  C28_44 
REMARK   14  A    between atoms: C25_39  and  C26_40 
REMARK   15  A    between atoms: C26_40  and  C27_41 
ROOT
HETATM    1  C7  UNL     1      13.491  19.932  16.081  1.00  0.00     0.115 C 
HETATM    2  C8  UNL     1      12.189  20.499  15.547  1.00  0.00     0.039 C 
HETATM    3  C9  UNL     1      11.306  20.826  16.736  1.00  0.00     0.137 C 
HETATM    4  N2  UNL     1      11.961  20.112  17.865  1.00  0.00    -0.282 N 
HETATM    5  C22 UNL     1      13.331  20.095  17.562  1.00  0.00     0.235 C 
HETATM    6  O4  UNL     1      14.286  20.199  18.352  1.00  0.00    -0.272 OA
ENDROOT
BRANCH   1   7
HETATM    7  C6  UNL     1      14.675  20.647  15.548  1.00  0.00    -0.014 A 
HETATM    8  C5  UNL     1      15.929  20.096  15.453  1.00  0.00     0.099 A 
HETATM    9  N1  UNL     1      16.957  20.804  14.968  1.00  0.00    -0.355 N 
HETATM   10  C4  UNL     1      16.824  22.097  14.546  1.00  0.00     0.086 A 
ATOM     11  H1  UNL     1      17.875  20.362  14.913  1.00  0.00     0.166 HD
HETATM   12  N4  UNL     1      15.604  22.608  14.647  1.00  0.00    -0.355 N 
HETATM   13  C23 UNL     1      14.537  21.970  15.116  1.00  0.00     0.099 A 
ATOM     14  H4  UNL     1      15.473  23.572  14.339  1.00  0.00     0.166 HD
BRANCH  10  15
HETATM   15  C3  UNL     1      17.981  22.842  14.018  1.00  0.00     0.128 C 
BRANCH  15  16
HETATM   16  C2  UNL     1      17.867  24.301  14.255  1.00  0.00    -0.014 C 
HETATM   17  C1  UNL     1      17.569  25.093  12.984  1.00  0.00     0.063 C 
HETATM   18  N5  UNL     1      17.949  24.938  15.284  1.00  0.00    -0.382 N 
ATOM     19  H5  UNL     1      17.793  25.923  15.067  1.00  0.00     0.160 HD
BRANCH  18  20
HETATM   20  C24 UNL     1      18.173  24.824  16.631  1.00  0.00     0.183 C 
BRANCH  20  21
HETATM   21  C25 UNL     1      17.444  25.828  17.499  1.00  0.00     0.046 C 
BRANCH  21  22
HETATM   22  C26 UNL     1      18.023  26.032  18.850  1.00  0.00     0.116 C 
BRANCH  22  23
HETATM   23  C27 UNL     1      17.343  25.387  19.968  1.00  0.00     0.172 C 
HETATM   24  O5  UNL     1      18.057  24.647  20.731  1.00  0.00    -0.648 OA
HETATM   25  O6  UNL     1      16.024  25.486  20.298  1.00  0.00    -0.648 OA
ENDBRANCH  22  23
ENDBRANCH  21  22
ENDBRANCH  20  21
BRANCH  20  26
HETATM   26  C28 UNL     1      17.997  23.505  17.274  1.00  0.00     0.196 C 
HETATM   27  O7  UNL     1      19.021  22.801  17.581  1.00  0.00    -0.646 OA
HETATM   28  O8  UNL     1      16.785  22.921  17.595  1.00  0.00    -0.646 OA
ENDBRANCH  20  26
ENDBRANCH  18  20
ENDBRANCH  15  16
ENDBRANCH  10  15
ENDBRANCH   1   7
BRANCH   4  29
HETATM   29  C10 UNL     1      11.257  19.613  18.963  1.00  0.00     0.234 C 
BRANCH  29  30
HETATM   30  O1  UNL     1      11.771  19.832  20.158  1.00  0.00    -0.332 OA
ATOM     31  H1  UNL     1      11.181  19.776  20.901  1.00  0.00     0.221 HD
ENDBRANCH  29  30
BRANCH  29  32
HETATM   32  N3  UNL     1      10.060  18.901  19.013  1.00  0.00    -0.285 N 
HETATM   33  C11 UNL     1       9.092  18.733  17.923  1.00  0.00     0.147 C 
HETATM   34  C12 UNL     1       8.687  17.311  17.981  1.00  0.00     0.025 C 
HETATM   35  C19 UNL     1       8.047  17.157  19.378  1.00  0.00     0.026 C 
HETATM   36  C20 UNL     1       7.919  15.725  19.770  1.00  0.00     0.029 C 
HETATM   37  C21 UNL     1       6.816  17.974  19.528  1.00  0.00     0.029 C 
HETATM   38  S1  UNL     1       9.376  17.994  20.333  1.00  0.00    -0.040 SA
BRANCH  34  39
HETATM   39  C13 UNL     1       7.848  16.746  16.933  1.00  0.00     0.023 C 
BRANCH  39  40
HETATM   40  C14 UNL     1       8.386  16.483  15.587  1.00  0.00     0.090 C 
BRANCH  40  41
HETATM   41  C15 UNL     1       8.847  17.625  14.798  1.00  0.00     0.177 C 
HETATM   42  O2  UNL     1      10.089  17.775  14.587  1.00  0.00    -0.648 OA
HETATM   43  O3  UNL     1       7.984  18.550  14.268  1.00  0.00    -0.648 OA
ENDBRANCH  40  41
BRANCH  40  44
HETATM   44  C16 UNL     1       7.350  15.760  14.740  1.00  0.00    -0.008 C 
HETATM   45  C17 UNL     1       7.974  14.804  13.764  1.00  0.00     0.010 C 
HETATM   46  C18 UNL     1       6.285  15.080  15.533  1.00  0.00     0.010 C 
ENDBRANCH  40  44
ENDBRANCH  39  40
ENDBRANCH  34  39
ENDBRANCH  29  32
ENDBRANCH   4  29
TORSDOF 15
ENDMDL
MODEL 5
REMARK VINA RESULT: -8.979804016      2.783      4.932
REMARK  15 active torsions:
REMARK  status: ('A' for Active; 'I' for Inactive)
REMARK    1  A    between atoms: C2_2  and  C3_3 
REMARK    2  A    between atoms: C3_3  and  C4_4 
REMARK    3  A    between atoms: C6_8  and  C7_9 
REMARK    4  A    between atoms: N2_12  and  C10_13 
REMARK    5  A    between atoms: C10_13  and  O1_14 
REMARK    6  A    between atoms: C10_13  and  N3_16 
REMARK    7  A    between atoms: C12_18  and  C13_19 
REMARK    8  A    between atoms: C13_19  and  C14_20 
REMARK    9  A    between atoms: C14_20  and  C15_21 
REMARK   10  A    between atoms: C14_20  and  C16_24 
REMARK   11  A    between atoms: N5_36  and  C24_38 
REMARK   12  A    between atoms: C24_38  and  C25_39 
REMARK   13  A    between atoms: C24_38  and  C28_44 
REMARK   14  A    between atoms: C25_39  and  C26_40 
REMARK   15  A    between atoms: C26_40  and  C27_41 
ROOT
HETATM    1  C7  UNL     1      11.179  17.306  15.432  1.00  0.00     0.115 C 
HETATM    2  C8  UNL     1      10.774  17.881  14.088  1.00  0.00     0.039 C 
HETATM    3  C9  UNL     1       9.259  17.904  14.034  1.00  0.00     0.137 C 
HETATM    4  N2  UNL     1       8.854  17.025  15.164  1.00  0.00    -0.282 N 
HETATM    5  C22 UNL     1       9.862  17.160  16.131  1.00  0.00     0.235 C 
HETATM    6  O4  UNL     1       9.732  17.166  17.368  1.00  0.00    -0.272 OA
ENDROOT
BRANCH   1   7
HETATM    7  C6  UNL     1      12.121  18.190  16.160  1.00  0.00    -0.014 A 
HETATM    8  C5  UNL     1      12.551  19.408  15.695  1.00  0.00     0.099 A 
HETATM    9  N1  UNL     1      13.411  20.150  16.404  1.00  0.00    -0.355 N 
HETATM   10  C4  UNL     1      13.905  19.748  17.613  1.00  0.00     0.086 A 
ATOM     11  H1  UNL     1      13.709  21.050  16.027  1.00  0.00     0.166 HD
HETATM   12  N4  UNL     1      13.476  18.568  18.042  1.00  0.00    -0.355 N 
HETATM   13  C23 UNL     1      12.626  17.777  17.398  1.00  0.00     0.099 A 
ATOM     14  H4  UNL     1      13.828  18.241  18.943  1.00  0.00     0.166 HD
BRANCH  10  15
HETATM   15  C3  UNL     1      14.850  20.596  18.363  1.00  0.00     0.128 C 
BRANCH  15  16
HETATM   16  C2  UNL     1      14.437  22.020  18.380  1.00  0.00    -0.014 C 
HETATM   17  C1  UNL     1      13.206  22.276  19.246  1.00  0.00     0.063 C 
HETATM   18  N5  UNL     1      14.933  22.989  17.844  1.00  0.00    -0.382 N 
ATOM     19  H5  UNL     1      14.390  23.813  18.100  1.00  0.00     0.160 HD
BRANCH  18  20
HETATM   20  C24 UNL     1      15.954  23.384  17.021  1.00  0.00     0.183 C 
BRANCH  20  21
HETATM   21  C25 UNL     1      17.325  23.436  17.664  1.00  0.00     0.046 C 
BRANCH  21  22
HETATM   22  C26 UNL     1      17.592  24.643  18.484  1.00  0.00     0.116 C 
BRANCH  22  23
HETATM   23  C27 UNL     1      17.130  24.621  19.867  1.00  0.00     0.172 C 
HETATM   24  O5  UNL     1      18.025  24.500  20.775  1.00  0.00    -0.648 OA
HETATM   25  O6  UNL     1      15.844  24.719  20.309  1.00  0.00    -0.648 OA
ENDBRANCH  22  23
ENDBRANCH  21  22
ENDBRANCH  20  21
BRANCH  20  26
HETATM   26  C28 UNL     1      16.126  22.704  15.719  1.00  0.00     0.196 C 
HETATM   27  O7  UNL     1      17.301  22.419  15.297  1.00  0.00    -0.646 OA
HETATM   28  O8  UNL     1      15.105  22.325  14.868  1.00  0.00    -0.646 OA
ENDBRANCH  20  26
ENDBRANCH  18  20
ENDBRANCH  15  16
ENDBRANCH  10  15
ENDBRANCH   1   7
BRANCH   4  29
HETATM   29  C10 UNL     1       7.679  16.271  15.160  1.00  0.00     0.234 C 
BRANCH  29  30
HETATM   30  O1  UNL     1       7.478  15.474  14.128  1.00  0.00    -0.332 OA
ATOM     31  H1  UNL     1       8.243  15.205  13.633  1.00  0.00     0.221 HD
ENDBRANCH  29  30
BRANCH  29  32
HETATM   32  N3  UNL     1       6.646  16.215  16.094  1.00  0.00    -0.285 N 
HETATM   33  C11 UNL     1       6.721  15.668  17.453  1.00  0.00     0.147 C 
HETATM   34  C12 UNL     1       5.979  16.628  18.299  1.00  0.00     0.025 C 
HETATM   35  C19 UNL     1       4.546  16.611  17.724  1.00  0.00     0.026 C 
HETATM   36  C20 UNL     1       3.750  17.780  18.193  1.00  0.00     0.029 C 
HETATM   37  C21 UNL     1       3.891  15.286  17.883  1.00  0.00     0.029 C 
HETATM   38  S1  UNL     1       5.005  16.782  15.953  1.00  0.00    -0.040 SA
BRANCH  34  39
HETATM   39  C13 UNL     1       5.986  16.486  19.748  1.00  0.00     0.023 C 
BRANCH  39  40
HETATM   40  C14 UNL     1       7.159  16.886  20.546  1.00  0.00     0.090 C 
BRANCH  40  41
HETATM   41  C15 UNL     1       7.659  15.946  21.548  1.00  0.00     0.177 C 
HETATM   42  O2  UNL     1       8.288  14.910  21.172  1.00  0.00    -0.648 OA
HETATM   43  O3  UNL     1       7.478  16.139  22.894  1.00  0.00    -0.648 OA
ENDBRANCH  40  41
BRANCH  40  44
HETATM   44  C16 UNL     1       6.876  18.190  21.276  1.00  0.00    -0.008 C 
HETATM   45  C17 UNL     1       7.557  19.365  20.635  1.00  0.00     0.010 C 
HETATM   46  C18 UNL     1       5.425  18.470  21.478  1.00  0.00     0.010 C 
ENDBRANCH  40  44
ENDBRANCH  39  40
ENDBRANCH  34  39
ENDBRANCH  29  32
ENDBRANCH   4  29
TORSDOF 15
ENDMDL
