MODEL 1
REMARK VINA RESULT: -9.346725348      0.000      0.000
REMARK  13 active torsions:
REMARK  status: ('A' for Active; 'I' for Inactive)
REMARK    1  A    between atoms: C2_2  and  C3_3 
REMARK    2  A    between atoms: C3_3  and  C4_4 
REMARK    3  A    between atoms: C4_4  and  C5_5 
REMARK    4  A    between atoms: C5_5  and  C6_6 
REMARK       I    between atoms: C6_6  and  N1_8 
REMARK       I    between atoms: N1_8  and  C7_10 
REMARK    5  A    between atoms: C7_10  and  C8_12 
REMARK    6  A    between atoms: C10_16  and  C11_17 
REMARK       I    between atoms: C11_17  and  N3_19 
REMARK    7  A    between atoms: N3_19  and  C12_21 
REMARK    8  A    between atoms: C16_25  and  C17_26 
REMARK    9  A    between atoms: C17_26  and  C18_27 
REMARK   10  A    between atoms: C18_27  and  C19_28 
REMARK   11  A    between atoms: C19_28  and  N4_29 
REMARK   12  A    between atoms: C28_42  and  C29_43 
REMARK   13  A    between atoms: C29_43  and  C30_44 
REMARK       I    between atoms: C30_44  and  N7_46 
ROOT
HETATM    1  C8  UNL     1      12.251  20.704  17.716  1.00  0.00     0.119 C 
HETATM    2  C9  UNL     1      10.756  20.649  17.591  1.00  0.00     0.097 C 
HETATM    3  N2  UNL     1      10.313  19.565  18.441  1.00  0.00    -0.403 N 
ATOM      4  H2  UNL     1      10.835  19.263  19.264  1.00  0.00     0.154 HD
HETATM    5  C10 UNL     1       9.084  18.945  18.037  1.00  0.00     0.174 C 
HETATM    6  C16 UNL     1       9.730  17.528  17.588  1.00  0.00     0.027 C 
HETATM    7  C23 UNL     1      10.699  17.982  16.601  1.00  0.00    -0.014 A 
HETATM    8  C24 UNL     1      10.233  19.073  15.674  1.00  0.00     0.025 C 
HETATM    9  C25 UNL     1      10.754  18.607  14.365  1.00  0.00    -0.024 C 
HETATM   10  C26 UNL     1      11.655  17.646  14.543  1.00  0.00    -0.024 C 
HETATM   11  C27 UNL     1      11.842  17.342  15.993  1.00  0.00     0.024 A 
HETATM   12  C28 UNL     1      12.079  18.387  16.974  1.00  0.00     0.023 A 
HETATM   13  C29 UNL     1      12.323  19.828  16.535  1.00  0.00     0.066 C 
HETATM   14  C33 UNL     1      10.939  20.279  16.169  1.00  0.00     0.036 C 
ENDROOT
BRANCH   1  15
HETATM   15  C7  UNL     1      12.841  22.001  17.836  1.00  0.00     0.231 C 
HETATM   16  N1  UNL     1      14.144  22.393  18.097  1.00  0.00    -0.297 N 
HETATM   17  C6  UNL     1      14.440  23.718  18.548  1.00  0.00     0.224 C 
ATOM     18  H1  UNL     1      14.905  21.726  17.964  1.00  0.00     0.171 HD
HETATM   19  O1  UNL     1      13.631  24.654  18.444  1.00  0.00    -0.273 OA
HETATM   20  O2  UNL     1      12.011  22.984  17.690  1.00  0.00    -0.273 OA
BRANCH  17  21
HETATM   21  C5  UNL     1      15.807  23.849  19.181  1.00  0.00     0.103 C 
BRANCH  21  22
HETATM   22  C4  UNL     1      15.807  24.788  20.324  1.00  0.00     0.009 C 
BRANCH  22  23
HETATM   23  C3  UNL     1      16.953  25.706  20.503  1.00  0.00     0.000 C 
BRANCH  23  24
HETATM   24  C2  UNL     1      17.992  25.346  19.449  1.00  0.00    -0.005 C 
HETATM   25  C1  UNL     1      18.219  26.500  18.532  1.00  0.00     0.005 C 
ENDBRANCH  23  24
ENDBRANCH  22  23
ENDBRANCH  21  22
ENDBRANCH  17  21
ENDBRANCH   1  15
BRANCH  13  26
HETATM   26  C30 UNL     1      13.361  19.980  15.530  1.00  0.00     0.229 C 
HETATM   27  O4  UNL     1      13.150  20.381  14.347  1.00  0.00    -0.272 OA
HETATM   28  N7  UNL     1      14.743  19.692  15.814  1.00  0.00    -0.360 N 
HETATM   29  C31 UNL     1      15.769  19.912  14.775  1.00  0.00     0.152 C 
HETATM   30  C32 UNL     1      15.258  19.189  17.048  1.00  0.00     0.152 C 
ENDBRANCH  13  26
BRANCH   5  31
HETATM   31  C11 UNL     1       8.400  18.570  19.332  1.00  0.00     0.241 C 
HETATM   32  O3  UNL     1       9.085  18.242  20.303  1.00  0.00    -0.271 OA
HETATM   33  N3  UNL     1       6.988  18.605  19.448  1.00  0.00    -0.351 N 
ATOM     34  H3  UNL     1       6.421  18.921  18.662  1.00  0.00     0.163 HD
BRANCH  33  35
HETATM   35  C12 UNL     1       6.342  18.191  20.692  1.00  0.00     0.022 C 
HETATM   36  C13 UNL     1       6.864  18.862  21.919  1.00  0.00     0.037 C 
HETATM   37  C14 UNL     1       6.224  16.719  20.704  1.00  0.00     0.037 C 
HETATM   38  C15 UNL     1       4.874  18.714  20.538  1.00  0.00     0.037 C 
ENDBRANCH  33  35
ENDBRANCH   5  31
BRANCH   6  39
HETATM   39  C17 UNL     1       8.696  16.576  17.228  1.00  0.00     0.010 C 
BRANCH  39  40
HETATM   40  C18 UNL     1       8.688  16.043  15.869  1.00  0.00     0.022 C 
BRANCH  40  41
HETATM   41  C19 UNL     1       7.762  16.024  14.791  1.00  0.00     0.150 C 
BRANCH  41  42
HETATM   42  N4  UNL     1       6.718  14.986  14.882  1.00  0.00    -0.281 N 
HETATM   43  N5  UNL     1       6.669  13.743  14.531  1.00  0.00    -0.241 N 
HETATM   44  N6  UNL     1       5.479  13.221  14.868  1.00  0.00    -0.295 N 
ATOM     45  H5  UNL     1       7.423  13.235  14.067  1.00  0.00     0.208 HD
HETATM   46  C20 UNL     1       4.735  14.161  15.461  1.00  0.00     0.134 A 
ATOM     47  H6  UNL     1       5.187  12.259  14.698  1.00  0.00     0.187 HD
HETATM   48  C21 UNL     1       5.519  15.288  15.472  1.00  0.00     0.043 A 
HETATM   49  C22 UNL     1       5.130  16.601  16.008  1.00  0.00     0.071 C 
ENDBRANCH  41  42
ENDBRANCH  40  41
ENDBRANCH  39  40
ENDBRANCH   6  39
TORSDOF 13
ENDMDL
MODEL 2
REMARK VINA RESULT: -9.206004544      2.238     10.262
REMARK  13 active torsions:
REMARK  status: ('A' for Active; 'I' for Inactive)
REMARK    1  A    between atoms: C2_2  and  C3_3 
REMARK    2  A    between atoms: C3_3  and  C4_4 
REMARK    3  A    between atoms: C4_4  and  C5_5 
REMARK    4  A    between atoms: C5_5  and  C6_6 
REMARK       I    between atoms: C6_6  and  N1_8 
REMARK       I    between atoms: N1_8  and  C7_10 
REMARK    5  A    between atoms: C7_10  and  C8_12 
REMARK    6  A    between atoms: C10_16  and  C11_17 
REMARK       I    between atoms: C11_17  and  N3_19 
REMARK    7  A    between atoms: N3_19  and  C12_21 
REMARK    8  A    between atoms: C16_25  and  C17_26 
REMARK    9  A    between atoms: C17_26  and  C18_27 
REMARK   10  A    between atoms: C18_27  and  C19_28 
REMARK   11  A    between atoms: C19_28  and  N4_29 
REMARK   12  A    between atoms: C28_42  and  C29_43 
REMARK   13  A    between atoms: C29_43  and  C30_44 
REMARK       I    between atoms: C30_44  and  N7_46 
ROOT
HETATM    1  C8  UNL     1       9.784  17.965  18.371  1.00  0.00     0.119 C 
HETATM    2  C9  UNL     1       9.903  19.168  17.480  1.00  0.00     0.097 C 
HETATM    3  N2  UNL     1      11.314  19.339  17.207  1.00  0.00    -0.403 N 
ATOM      4  H2  UNL     1      11.973  18.561  17.217  1.00  0.00     0.154 HD
HETATM    5  C10 UNL     1      11.714  20.687  16.922  1.00  0.00     0.174 C 
HETATM    6  C16 UNL     1      12.565  20.918  18.281  1.00  0.00     0.027 C 
HETATM    7  C23 UNL     1      11.546  20.636  19.281  1.00  0.00    -0.014 A 
HETATM    8  C24 UNL     1      10.173  21.185  18.995  1.00  0.00     0.025 C 
HETATM    9  C25 UNL     1       9.772  21.715  20.322  1.00  0.00    -0.024 C 
HETATM   10  C26 UNL     1      10.576  21.244  21.269  1.00  0.00    -0.024 C 
HETATM   11  C27 UNL     1      11.622  20.347  20.695  1.00  0.00     0.024 A 
HETATM   12  C28 UNL     1      11.290  19.262  19.785  1.00  0.00     0.023 A 
HETATM   13  C29 UNL     1       9.836  18.885  19.520  1.00  0.00     0.066 C 
HETATM   14  C33 UNL     1       9.392  19.987  18.604  1.00  0.00     0.036 C 
ENDROOT
BRANCH   1  15
HETATM   15  C7  UNL     1       8.729  17.047  18.077  1.00  0.00     0.231 C 
HETATM   16  N1  UNL     1       8.008  16.823  16.915  1.00  0.00    -0.297 N 
HETATM   17  C6  UNL     1       6.754  16.133  16.946  1.00  0.00     0.224 C 
ATOM     18  H1  UNL     1       8.376  17.155  16.024  1.00  0.00     0.171 HD
HETATM   19  O1  UNL     1       6.394  15.449  17.918  1.00  0.00    -0.273 OA
HETATM   20  O2  UNL     1       8.373  16.301  19.074  1.00  0.00    -0.273 OA
BRANCH  17  21
HETATM   21  C5  UNL     1       5.917  16.347  15.705  1.00  0.00     0.103 C 
BRANCH  21  22
HETATM   22  C4  UNL     1       5.626  15.079  15.001  1.00  0.00     0.009 C 
BRANCH  22  23
HETATM   23  C3  UNL     1       6.728  14.126  14.746  1.00  0.00     0.000 C 
BRANCH  23  24
HETATM   24  C2  UNL     1       7.631  14.749  13.690  1.00  0.00    -0.005 C 
HETATM   25  C1  UNL     1       9.021  14.885  14.214  1.00  0.00     0.005 C 
ENDBRANCH  23  24
ENDBRANCH  22  23
ENDBRANCH  21  22
ENDBRANCH  17  21
ENDBRANCH   1  15
BRANCH  13  26
HETATM   26  C30 UNL     1       9.048  18.657  20.719  1.00  0.00     0.229 C 
HETATM   27  O4  UNL     1       9.520  18.199  21.801  1.00  0.00    -0.272 OA
HETATM   28  N7  UNL     1       7.640  18.953  20.772  1.00  0.00    -0.360 N 
HETATM   29  C31 UNL     1       6.893  18.753  22.031  1.00  0.00     0.152 C 
HETATM   30  C32 UNL     1       6.844  19.439  19.690  1.00  0.00     0.152 C 
ENDBRANCH  13  26
BRANCH   5  31
HETATM   31  C11 UNL     1      12.814  20.550  15.894  1.00  0.00     0.241 C 
HETATM   32  O3  UNL     1      13.107  19.431  15.469  1.00  0.00    -0.271 OA
HETATM   33  N3  UNL     1      13.501  21.689  15.404  1.00  0.00    -0.351 N 
ATOM     34  H3  UNL     1      13.230  22.621  15.719  1.00  0.00     0.163 HD
BRANCH  33  35
HETATM   35  C12 UNL     1      14.595  21.534  14.448  1.00  0.00     0.022 C 
HETATM   36  C13 UNL     1      14.167  21.412  13.024  1.00  0.00     0.037 C 
HETATM   37  C14 UNL     1      15.552  20.537  14.972  1.00  0.00     0.037 C 
HETATM   38  C15 UNL     1      15.352  22.902  14.528  1.00  0.00     0.037 C 
ENDBRANCH  33  35
ENDBRANCH   5  31
BRANCH   6  39
HETATM   39  C17 UNL     1      13.245  22.200  18.257  1.00  0.00     0.010 C 
BRANCH  39  40
HETATM   40  C18 UNL     1      14.414  22.380  19.114  1.00  0.00     0.022 C 
BRANCH  40  41
HETATM   41  C19 UNL     1      15.307  23.448  19.400  1.00  0.00     0.150 C 
BRANCH  41  42
HETATM   42  N4  UNL     1      16.546  23.457  18.599  1.00  0.00    -0.281 N 
HETATM   43  N5  UNL     1      17.031  22.658  17.706  1.00  0.00    -0.241 N 
HETATM   44  N6  UNL     1      18.197  23.142  17.248  1.00  0.00    -0.295 N 
ATOM     45  H5  UNL     1      16.593  21.790  17.396  1.00  0.00     0.208 HD
HETATM   46  C20 UNL     1      18.471  24.296  17.866  1.00  0.00     0.134 A 
ATOM     47  H6  UNL     1      18.783  22.699  16.541  1.00  0.00     0.187 HD
HETATM   48  C21 UNL     1      17.423  24.501  18.728  1.00  0.00     0.043 A 
HETATM   49  C22 UNL     1      17.277  25.639  19.649  1.00  0.00     0.071 C 
ENDBRANCH  41  42
ENDBRANCH  40  41
ENDBRANCH  39  40
ENDBRANCH   6  39
TORSDOF 13
ENDMDL
MODEL 3
REMARK VINA RESULT: -9.116553444      2.234     10.230
REMARK  13 active torsions:
REMARK  status: ('A' for Active; 'I' for Inactive)
REMARK    1  A    between atoms: C2_2  and  C3_3 
REMARK    2  A    between atoms: C3_3  and  C4_4 
REMARK    3  A    between atoms: C4_4  and  C5_5 
REMARK    4  A    between atoms: C5_5  and  C6_6 
REMARK       I    between atoms: C6_6  and  N1_8 
REMARK       I    between atoms: N1_8  and  C7_10 
REMARK    5  A    between atoms: C7_10  and  C8_12 
REMARK    6  A    between atoms: C10_16  and  C11_17 
REMARK       I    between atoms: C11_17  and  N3_19 
REMARK    7  A    between atoms: N3_19  and  C12_21 
REMARK    8  A    between atoms: C16_25  and  C17_26 
REMARK    9  A    between atoms: C17_26  and  C18_27 
REMARK   10  A    between atoms: C18_27  and  C19_28 
REMARK   11  A    between atoms: C19_28  and  N4_29 
REMARK   12  A    between atoms: C28_42  and  C29_43 
REMARK   13  A    between atoms: C29_43  and  C30_44 
REMARK       I    between atoms: C30_44  and  N7_46 
ROOT
HETATM    1  C8  UNL     1       9.692  17.780  17.876  1.00  0.00     0.119 C 
HETATM    2  C9  UNL     1       9.836  19.066  17.113  1.00  0.00     0.097 C 
HETATM    3  N2  UNL     1      11.252  19.238  16.866  1.00  0.00    -0.403 N 
ATOM      4  H2  UNL     1      11.898  18.452  16.800  1.00  0.00     0.154 HD
HETATM    5  C10 UNL     1      11.677  20.601  16.723  1.00  0.00     0.174 C 
HETATM    6  C16 UNL     1      12.522  20.678  18.103  1.00  0.00     0.027 C 
HETATM    7  C23 UNL     1      11.491  20.313  19.063  1.00  0.00    -0.014 A 
HETATM    8  C24 UNL     1      10.130  20.911  18.828  1.00  0.00     0.025 C 
HETATM    9  C25 UNL     1       9.729  21.311  20.200  1.00  0.00    -0.024 C 
HETATM   10  C26 UNL     1      10.518  20.731  21.098  1.00  0.00    -0.024 C 
HETATM   11  C27 UNL     1      11.553  19.879  20.440  1.00  0.00     0.024 A 
HETATM   12  C28 UNL     1      11.209  18.899  19.423  1.00  0.00     0.023 A 
HETATM   13  C29 UNL     1       9.750  18.576  19.113  1.00  0.00     0.066 C 
HETATM   14  C33 UNL     1       9.332  19.773  18.312  1.00  0.00     0.036 C 
ENDROOT
BRANCH   1  15
HETATM   15  C7  UNL     1       8.623  16.915  17.484  1.00  0.00     0.231 C 
HETATM   16  N1  UNL     1       7.550  17.115  16.631  1.00  0.00    -0.297 N 
HETATM   17  C6  UNL     1       6.403  16.261  16.676  1.00  0.00     0.224 C 
ATOM     18  H1  UNL     1       7.578  17.883  15.960  1.00  0.00     0.171 HD
HETATM   19  O1  UNL     1       6.418  15.152  17.235  1.00  0.00    -0.273 OA
HETATM   20  O2  UNL     1       8.653  15.742  18.032  1.00  0.00    -0.273 OA
BRANCH  17  21
HETATM   21  C5  UNL     1       5.182  16.854  16.009  1.00  0.00     0.103 C 
BRANCH  21  22
HETATM   22  C4  UNL     1       3.974  16.746  16.855  1.00  0.00     0.009 C 
BRANCH  22  23
HETATM   23  C3  UNL     1       3.845  17.616  18.044  1.00  0.00     0.000 C 
BRANCH  23  24
HETATM   24  C2  UNL     1       2.908  18.758  17.672  1.00  0.00    -0.005 C 
HETATM   25  C1  UNL     1       3.155  19.936  18.552  1.00  0.00     0.005 C 
ENDBRANCH  23  24
ENDBRANCH  22  23
ENDBRANCH  21  22
ENDBRANCH  17  21
ENDBRANCH   1  15
BRANCH  13  26
HETATM   26  C30 UNL     1       8.951  18.240  20.278  1.00  0.00     0.229 C 
HETATM   27  O4  UNL     1       9.386  17.586  21.272  1.00  0.00    -0.272 OA
HETATM   28  N7  UNL     1       7.575  18.647  20.399  1.00  0.00    -0.360 N 
HETATM   29  C31 UNL     1       6.819  18.326  21.628  1.00  0.00     0.152 C 
HETATM   30  C32 UNL     1       6.820  19.357  19.417  1.00  0.00     0.152 C 
ENDBRANCH  13  26
BRANCH   5  31
HETATM   31  C11 UNL     1      12.781  20.552  15.692  1.00  0.00     0.241 C 
HETATM   32  O3  UNL     1      13.074  19.473  15.173  1.00  0.00    -0.271 OA
HETATM   33  N3  UNL     1      13.472  21.727  15.305  1.00  0.00    -0.351 N 
ATOM     34  H3  UNL     1      13.201  22.629  15.698  1.00  0.00     0.163 HD
BRANCH  33  35
HETATM   35  C12 UNL     1      14.571  21.653  14.345  1.00  0.00     0.022 C 
HETATM   36  C13 UNL     1      14.146  21.585  12.916  1.00  0.00     0.037 C 
HETATM   37  C14 UNL     1      15.559  20.663  14.822  1.00  0.00     0.037 C 
HETATM   38  C15 UNL     1      15.284  23.039  14.490  1.00  0.00     0.037 C 
ENDBRANCH  33  35
ENDBRANCH   5  31
BRANCH   6  39
HETATM   39  C17 UNL     1      13.224  21.944  18.213  1.00  0.00     0.010 C 
BRANCH  39  40
HETATM   40  C18 UNL     1      14.363  22.027  19.124  1.00  0.00     0.022 C 
BRANCH  40  41
HETATM   41  C19 UNL     1      15.272  23.044  19.520  1.00  0.00     0.150 C 
BRANCH  41  42
HETATM   42  N4  UNL     1      16.458  23.193  18.655  1.00  0.00    -0.281 N 
HETATM   43  N5  UNL     1      16.873  22.568  17.602  1.00  0.00    -0.241 N 
HETATM   44  N6  UNL     1      18.016  23.120  17.166  1.00  0.00    -0.295 N 
ATOM     45  H5  UNL     1      16.402  21.774  17.168  1.00  0.00     0.208 HD
HETATM   46  C20 UNL     1      18.348  24.140  17.964  1.00  0.00     0.134 A 
ATOM     47  H6  UNL     1      18.549  22.810  16.353  1.00  0.00     0.187 HD
HETATM   48  C21 UNL     1      17.360  24.190  18.916  1.00  0.00     0.043 A 
HETATM   49  C22 UNL     1      17.292  25.141  20.035  1.00  0.00     0.071 C 
ENDBRANCH  41  42
ENDBRANCH  40  41
ENDBRANCH  39  40
ENDBRANCH   6  39
TORSDOF 13
ENDMDL
MODEL 4
REMARK VINA RESULT: -9.075830818      0.739      1.005
REMARK  13 active torsions:
REMARK  status: ('A' for Active; 'I' for Inactive)
REMARK    1  A    between atoms: C2_2  and  C3_3 
REMARK    2  A    between atoms: C3_3  and  C4_4 
REMARK    3  A    between atoms: C4_4  and  C5_5 
REMARK    4  A    between atoms: C5_5  and  C6_6 
REMARK       I    between atoms: C6_6  and  N1_8 
REMARK       I    between atoms: N1_8  and  C7_10 
REMARK    5  A    between atoms: C7_10  and  C8_12 
REMARK    6  A    between atoms: C10_16  and  C11_17 
REMARK       I    between atoms: C11_17  and  N3_19 
REMARK    7  A    between atoms: N3_19  and  C12_21 
REMARK    8  A    between atoms: C16_25  and  C17_26 
REMARK    9  A    between atoms: C17_26  and  C18_27 
REMARK   10  A    between atoms: C18_27  and  C19_28 
REMARK   11  A    between atoms: C19_28  and  N4_29 
REMARK   12  A    between atoms: C28_42  and  C29_43 
REMARK   13  A    between atoms: C29_43  and  C30_44 
REMARK       I    between atoms: C30_44  and  N7_46 
ROOT
HETATM    1  C8  UNL     1      12.295  20.807  17.690  1.00  0.00     0.119 C 
HETATM    2  C9  UNL     1      10.802  20.706  17.566  1.00  0.00     0.097 C 
HETATM    3  N2  UNL     1      10.389  19.636  18.449  1.00  0.00    -0.403 N 
ATOM      4  H2  UNL     1      10.918  19.375  19.281  1.00  0.00     0.154 HD
HETATM    5  C10 UNL     1       9.178  18.970  18.064  1.00  0.00     0.174 C 
HETATM    6  C16 UNL     1       9.864  17.559  17.659  1.00  0.00     0.027 C 
HETATM    7  C23 UNL     1      10.820  18.010  16.659  1.00  0.00    -0.014 A 
HETATM    8  C24 UNL     1      10.326  19.058  15.698  1.00  0.00     0.025 C 
HETATM    9  C25 UNL     1      10.861  18.567  14.405  1.00  0.00    -0.024 C 
HETATM   10  C26 UNL     1      11.788  17.638  14.612  1.00  0.00    -0.024 C 
HETATM   11  C27 UNL     1      11.982  17.383  16.071  1.00  0.00     0.024 A 
HETATM   12  C28 UNL     1      12.188  18.464  17.020  1.00  0.00     0.023 A 
HETATM   13  C29 UNL     1      12.392  19.897  16.536  1.00  0.00     0.066 C 
HETATM   14  C33 UNL     1      10.997  20.297  16.157  1.00  0.00     0.036 C 
ENDROOT
BRANCH   1  15
HETATM   15  C7  UNL     1      12.848  22.123  17.770  1.00  0.00     0.231 C 
HETATM   16  N1  UNL     1      14.152  22.558  17.944  1.00  0.00    -0.297 N 
HETATM   17  C6  UNL     1      14.433  23.894  18.374  1.00  0.00     0.224 C 
ATOM     18  H1  UNL     1      14.924  21.916  17.763  1.00  0.00     0.171 HD
HETATM   19  O1  UNL     1      13.588  24.802  18.324  1.00  0.00    -0.273 OA
HETATM   20  O2  UNL     1      11.978  23.078  17.679  1.00  0.00    -0.273 OA
BRANCH  17  21
HETATM   21  C5  UNL     1      15.834  24.071  18.916  1.00  0.00     0.103 C 
BRANCH  21  22
HETATM   22  C4  UNL     1      15.871  24.975  20.087  1.00  0.00     0.009 C 
BRANCH  22  23
HETATM   23  C3  UNL     1      17.047  25.849  20.286  1.00  0.00     0.000 C 
BRANCH  23  24
HETATM   24  C2  UNL     1      18.080  25.467  19.234  1.00  0.00    -0.005 C 
HETATM   25  C1  UNL     1      18.359  26.627  18.340  1.00  0.00     0.005 C 
ENDBRANCH  23  24
ENDBRANCH  22  23
ENDBRANCH  21  22
ENDBRANCH  17  21
ENDBRANCH   1  15
BRANCH  13  26
HETATM   26  C30 UNL     1      13.427  20.047  15.528  1.00  0.00     0.229 C 
HETATM   27  O4  UNL     1      13.210  20.440  14.343  1.00  0.00    -0.272 OA
HETATM   28  N7  UNL     1      14.811  19.767  15.810  1.00  0.00    -0.360 N 
HETATM   29  C31 UNL     1      15.833  19.985  14.766  1.00  0.00     0.152 C 
HETATM   30  C32 UNL     1      15.332  19.275  17.045  1.00  0.00     0.152 C 
ENDBRANCH  13  26
BRANCH   5  31
HETATM   31  C11 UNL     1       8.504  18.616  19.369  1.00  0.00     0.241 C 
HETATM   32  O3  UNL     1       9.196  18.331  20.349  1.00  0.00    -0.271 OA
HETATM   33  N3  UNL     1       7.091  18.623  19.487  1.00  0.00    -0.351 N 
ATOM     34  H3  UNL     1       6.517  18.903  18.692  1.00  0.00     0.163 HD
BRANCH  33  35
HETATM   35  C12 UNL     1       6.455  18.229  20.742  1.00  0.00     0.022 C 
HETATM   36  C13 UNL     1       6.967  18.940  21.950  1.00  0.00     0.037 C 
HETATM   37  C14 UNL     1       6.363  16.756  20.792  1.00  0.00     0.037 C 
HETATM   38  C15 UNL     1       4.977  18.722  20.579  1.00  0.00     0.037 C 
ENDBRANCH  33  35
ENDBRANCH   5  31
BRANCH   6  39
HETATM   39  C17 UNL     1       8.857  16.568  17.328  1.00  0.00     0.010 C 
BRANCH  39  40
HETATM   40  C18 UNL     1       8.744  16.132  15.939  1.00  0.00     0.022 C 
BRANCH  40  41
HETATM   41  C19 UNL     1       7.745  16.206  14.931  1.00  0.00     0.150 C 
BRANCH  41  42
HETATM   42  N4  UNL     1       6.356  16.225  15.427  1.00  0.00    -0.281 N 
HETATM   43  N5  UNL     1       5.616  17.144  15.956  1.00  0.00    -0.241 N 
HETATM   44  N6  UNL     1       4.392  16.651  16.209  1.00  0.00    -0.295 N 
ATOM     45  H5  UNL     1       5.916  18.099  16.151  1.00  0.00     0.208 HD
HETATM   46  C20 UNL     1       4.342  15.371  15.827  1.00  0.00     0.134 A 
ATOM     47  H6  UNL     1       3.622  17.172  16.628  1.00  0.00     0.187 HD
HETATM   48  C21 UNL     1       5.591  15.094  15.329  1.00  0.00     0.043 A 
HETATM   49  C22 UNL     1       6.037  13.796  14.799  1.00  0.00     0.071 C 
ENDBRANCH  41  42
ENDBRANCH  40  41
ENDBRANCH  39  40
ENDBRANCH   6  39
TORSDOF 13
ENDMDL
MODEL 5
REMARK VINA RESULT: -9.052697590      2.304      9.345
REMARK  13 active torsions:
REMARK  status: ('A' for Active; 'I' for Inactive)
REMARK    1  A    between atoms: C2_2  and  C3_3 
REMARK    2  A    between atoms: C3_3  and  C4_4 
REMARK    3  A    between atoms: C4_4  and  C5_5 
REMARK    4  A    between atoms: C5_5  and  C6_6 
REMARK       I    between atoms: C6_6  and  N1_8 
REMARK       I    between atoms: N1_8  and  C7_10 
REMARK    5  A    between atoms: C7_10  and  C8_12 
REMARK    6  A    between atoms: C10_16  and  C11_17 
REMARK       I    between atoms: C11_17  and  N3_19 
REMARK    7  A    between atoms: N3_19  and  C12_21 
REMARK    8  A    between atoms: C16_25  and  C17_26 
REMARK    9  A    between atoms: C17_26  and  C18_27 
REMARK   10  A    between atoms: C18_27  and  C19_28 
REMARK   11  A    between atoms: C19_28  and  N4_29 
REMARK   12  A    between atoms: C28_42  and  C29_43 
REMARK   13  A    between atoms: C29_43  and  C30_44 
REMARK       I    between atoms: C30_44  and  N7_46 
ROOT
HETATM    1  C8  UNL     1       9.600  19.138  18.214  1.00  0.00     0.119 C 
HETATM    2  C9  UNL     1      11.052  19.178  18.596  1.00  0.00     0.097 C 
HETATM    3  N2  UNL     1      11.571  20.434  18.100  1.00  0.00    -0.403 N 
ATOM      4  H2  UNL     1      10.985  21.259  17.972  1.00  0.00     0.154 HD
HETATM    5  C10 UNL     1      12.975  20.430  17.801  1.00  0.00     0.174 C 
HETATM    6  C16 UNL     1      12.822  20.550  16.193  1.00  0.00     0.027 C 
HETATM    7  C23 UNL     1      11.996  19.383  15.920  1.00  0.00    -0.014 A 
HETATM    8  C24 UNL     1      12.348  18.134  16.682  1.00  0.00     0.025 C 
HETATM    9  C25 UNL     1      12.247  17.093  15.630  1.00  0.00    -0.024 C 
HETATM   10  C26 UNL     1      11.607  17.571  14.568  1.00  0.00    -0.024 C 
HETATM   11  C27 UNL     1      11.207  18.995  14.773  1.00  0.00     0.024 A 
HETATM   12  C28 UNL     1      10.512  19.434  15.971  1.00  0.00     0.023 A 
HETATM   13  C29 UNL     1      10.002  18.421  16.993  1.00  0.00     0.066 C 
HETATM   14  C33 UNL     1      11.268  18.025  17.693  1.00  0.00     0.036 C 
ENDROOT
BRANCH   1  15
HETATM   15  C7  UNL     1       8.685  18.661  19.204  1.00  0.00     0.231 C 
HETATM   16  N1  UNL     1       7.301  18.682  19.256  1.00  0.00    -0.297 N 
HETATM   17  C6  UNL     1       6.606  18.501  20.494  1.00  0.00     0.224 C 
ATOM     18  H1  UNL     1       6.768  18.828  18.398  1.00  0.00     0.171 HD
HETATM   19  O1  UNL     1       7.154  18.026  21.502  1.00  0.00    -0.273 OA
HETATM   20  O2  UNL     1       9.247  18.129  20.243  1.00  0.00    -0.273 OA
BRANCH  17  21
HETATM   21  C5  UNL     1       5.168  18.967  20.453  1.00  0.00     0.103 C 
BRANCH  21  22
HETATM   22  C4  UNL     1       4.457  18.485  19.248  1.00  0.00     0.009 C 
BRANCH  22  23
HETATM   23  C3  UNL     1       3.444  19.355  18.612  1.00  0.00     0.000 C 
BRANCH  23  24
HETATM   24  C2  UNL     1       3.209  20.536  19.545  1.00  0.00    -0.005 C 
HETATM   25  C1  UNL     1       3.450  21.819  18.825  1.00  0.00     0.005 C 
ENDBRANCH  23  24
ENDBRANCH  22  23
ENDBRANCH  21  22
ENDBRANCH  17  21
ENDBRANCH   1  15
BRANCH  13  26
HETATM   26  C30 UNL     1       9.192  17.357  16.427  1.00  0.00     0.229 C 
HETATM   27  O4  UNL     1       9.216  16.157  16.832  1.00  0.00    -0.272 OA
HETATM   28  N7  UNL     1       8.270  17.594  15.347  1.00  0.00    -0.360 N 
HETATM   29  C31 UNL     1       7.429  16.490  14.841  1.00  0.00     0.152 C 
HETATM   30  C32 UNL     1       8.068  18.838  14.675  1.00  0.00     0.152 C 
ENDBRANCH  13  26
BRANCH   5  31
HETATM   31  C11 UNL     1      13.448  21.819  18.166  1.00  0.00     0.241 C 
HETATM   32  O3  UNL     1      12.624  22.732  18.259  1.00  0.00    -0.271 OA
HETATM   33  N3  UNL     1      14.818  22.081  18.416  1.00  0.00    -0.351 N 
ATOM     34  H3  UNL     1      15.495  21.319  18.385  1.00  0.00     0.163 HD
BRANCH  33  35
HETATM   35  C12 UNL     1      15.264  23.440  18.717  1.00  0.00     0.022 C 
HETATM   36  C13 UNL     1      15.359  23.756  20.172  1.00  0.00     0.037 C 
HETATM   37  C14 UNL     1      14.536  24.388  17.848  1.00  0.00     0.037 C 
HETATM   38  C15 UNL     1      16.742  23.468  18.199  1.00  0.00     0.037 C 
ENDBRANCH  33  35
ENDBRANCH   5  31
BRANCH   6  39
HETATM   39  C17 UNL     1      14.118  20.706  15.558  1.00  0.00     0.010 C 
BRANCH  39  40
HETATM   40  C18 UNL     1      14.329  21.863  14.692  1.00  0.00     0.022 C 
BRANCH  40  41
HETATM   41  C19 UNL     1      14.985  22.096  13.452  1.00  0.00     0.150 C 
BRANCH  41  42
HETATM   42  N4  UNL     1      15.948  23.213  13.455  1.00  0.00    -0.281 N 
HETATM   43  N5  UNL     1      15.893  24.432  13.027  1.00  0.00    -0.241 N 
HETATM   44  N6  UNL     1      17.047  25.062  13.303  1.00  0.00    -0.295 N 
ATOM     45  H5  UNL     1      15.095  24.851  12.551  1.00  0.00     0.208 HD
HETATM   46  C20 UNL     1      17.872  24.221  13.935  1.00  0.00     0.134 A 
ATOM     47  H6  UNL     1      17.260  26.032  13.068  1.00  0.00     0.187 HD
HETATM   48  C21 UNL     1      17.177  23.041  14.033  1.00  0.00     0.043 A 
HETATM   49  C22 UNL     1      17.677  21.797  14.639  1.00  0.00     0.071 C 
ENDBRANCH  41  42
ENDBRANCH  40  41
ENDBRANCH  39  40
ENDBRANCH   6  39
TORSDOF 13
ENDMDL
