MODEL 1
REMARK VINA RESULT: -8.377718000      0.000      0.000
REMARK  18 active torsions:
REMARK  status: ('A' for Active; 'I' for Inactive)
REMARK    1  A    between atoms: C2_2  and  C3_3 
REMARK    2  A    between atoms: C3_3  and  N1_4 
REMARK    3  A    between atoms: N1_4  and  C4_5 
REMARK    4  A    between atoms: N1_4  and  C14_17 
REMARK    5  A    between atoms: C4_5  and  O1_6 
REMARK    6  A    between atoms: C4_5  and  C5_8 
REMARK    7  A    between atoms: C5_8  and  C6_9 
REMARK    8  A    between atoms: C6_9  and  C7_10 
REMARK    9  A    between atoms: C7_10  and  C8_11 
REMARK   10  A    between atoms: C8_11  and  C9_12 
REMARK   11  A    between atoms: C9_12  and  C10_13 
REMARK   12  A    between atoms: C10_13  and  C11_14 
REMARK   13  A    between atoms: C11_14  and  C12_15 
REMARK   14  A    between atoms: C17_22  and  C18_23 
REMARK   15  A    between atoms: C20_26  and  O5_28 
REMARK   16  A    between atoms: N2_31  and  C23_32 
REMARK   17  A    between atoms: C23_32  and  C24_33 
REMARK   18  A    between atoms: C28_37  and  N3_38 
ROOT
HETATM    1  C14 UNL     1      10.461  19.667  16.124  1.00  0.00     0.207 C 
HETATM    2  C15 UNL     1       9.723  19.508  17.377  1.00  0.00     0.090 C 
HETATM    3  C16 UNL     1       9.836  20.349  18.533  1.00  0.00     0.282 C 
HETATM    4  O2  UNL     1      10.571  21.345  18.583  1.00  0.00    -0.260 OA
HETATM    5  O3  UNL     1       9.058  19.982  19.615  1.00  0.00    -0.302 OA
HETATM    6  C17 UNL     1       9.115  18.861  20.430  1.00  0.00     0.240 C 
HETATM    7  C20 UNL     1       7.866  17.979  20.468  1.00  0.00     0.119 C 
HETATM    8  C21 UNL     1       8.329  16.729  21.248  1.00  0.00     0.055 C 
HETATM    9  C22 UNL     1       7.398  17.588  19.130  1.00  0.00     0.106 C 
HETATM   10  N2  UNL     1       6.481  16.520  18.931  1.00  0.00    -0.336 N 
HETATM   11  C28 UNL     1       6.408  16.092  17.572  1.00  0.00     0.359 C 
HETATM   12  C29 UNL     1       7.759  16.030  16.914  1.00  0.00     0.199 C 
HETATM   13  O6  UNL     1       8.564  15.197  17.192  1.00  0.00    -0.291 OA
HETATM   14  C30 UNL     1       8.129  17.053  15.860  1.00  0.00     0.154 C 
HETATM   15  C31 UNL     1       7.606  16.372  14.560  1.00  0.00     0.040 C 
HETATM   16  N4  UNL     1       9.548  17.237  15.727  1.00  0.00    -0.348 N 
ATOM     17  H4  UNL     1      10.080  16.383  15.897  1.00  0.00     0.163 HD
HETATM   18  C32 UNL     1      10.349  18.326  15.416  1.00  0.00     0.245 C 
HETATM   19  O7  UNL     1      11.141  18.283  14.402  1.00  0.00    -0.271 OA
ENDROOT
BRANCH   1  20
HETATM   20  N1  UNL     1      11.877  19.893  16.333  1.00  0.00    -0.342 N 
BRANCH  20  21
HETATM   21  C3  UNL     1      12.503  21.058  15.627  1.00  0.00     0.152 C 
BRANCH  21  22
HETATM   22  C2  UNL     1      13.613  20.629  14.739  1.00  0.00    -0.017 C 
HETATM   23  C1  UNL     1      14.747  21.281  14.582  1.00  0.00     0.008 C 
ENDBRANCH  21  22
ENDBRANCH  20  21
BRANCH  20  24
HETATM   24  C4  UNL     1      12.768  19.125  17.052  1.00  0.00     0.138 C 
BRANCH  24  25
HETATM   25  O1  UNL     1      12.787  17.854  16.671  1.00  0.00    -0.346 OA
ATOM     26  H1  UNL     1      12.560  17.251  17.370  1.00  0.00     0.219 HD
ENDBRANCH  24  25
BRANCH  24  27
HETATM   27  C5  UNL     1      13.669  19.394  18.103  1.00  0.00     0.052 C 
BRANCH  27  28
HETATM   28  C6  UNL     1      14.890  19.824  18.203  1.00  0.00    -0.022 C 
BRANCH  28  29
HETATM   29  C7  UNL     1      15.093  21.321  18.373  1.00  0.00     0.027 C 
BRANCH  29  30
HETATM   30  C8  UNL     1      13.918  21.968  19.049  1.00  0.00     0.004 C 
BRANCH  30  31
HETATM   31  C9  UNL     1      13.612  23.238  18.246  1.00  0.00     0.000 C 
BRANCH  31  32
HETATM   32  C10 UNL     1      14.847  24.008  17.895  1.00  0.00     0.000 C 
BRANCH  32  33
HETATM   33  C11 UNL     1      14.889  25.325  18.592  1.00  0.00    -0.000 C 
BRANCH  33  34
HETATM   34  C12 UNL     1      16.150  25.527  19.378  1.00  0.00    -0.005 C 
HETATM   35  C13 UNL     1      16.071  24.663  20.634  1.00  0.00     0.005 C 
ENDBRANCH  33  34
ENDBRANCH  32  33
ENDBRANCH  31  32
ENDBRANCH  30  31
ENDBRANCH  29  30
ENDBRANCH  28  29
ENDBRANCH  27  28
ENDBRANCH  24  27
ENDBRANCH  20  24
ENDBRANCH   1  20
BRANCH   6  36
HETATM   36  C18 UNL     1       9.224  19.400  21.843  1.00  0.00     0.155 C 
HETATM   37  C19 UNL     1       9.262  20.838  22.161  1.00  0.00     0.094 C 
HETATM   38  O4  UNL     1       9.283  18.614  22.775  1.00  0.00    -0.295 OA
ENDBRANCH   6  36
BRANCH   7  39
HETATM   39  O5  UNL     1       6.941  18.621  21.280  1.00  0.00    -0.382 OA
ATOM     40  H5  UNL     1       7.379  18.814  22.100  1.00  0.00     0.211 HD
ENDBRANCH   7  39
BRANCH  11  41
HETATM   41  N3  UNL     1       5.557  16.908  16.724  1.00  0.00    -0.051 N 
ATOM     42  H33 UNL     1       4.682  16.421  16.527  1.00  0.00     0.277 HD
ATOM     43  H32 UNL     1       5.200  17.708  17.246  1.00  0.00     0.277 HD
ATOM     44  H31 UNL     1       5.993  17.217  15.856  1.00  0.00     0.277 HD
ENDBRANCH  11  41
BRANCH  10  45
HETATM   45  C23 UNL     1       5.467  16.318  19.824  1.00  0.00     0.074 C 
BRANCH  45  46
HETATM   46  C24 UNL     1       4.180  17.081  19.739  1.00  0.00    -0.019 C 
HETATM   47  C25 UNL     1       3.066  16.332  19.053  1.00  0.00     0.020 C 
HETATM   48  C26 UNL     1       4.252  18.505  19.301  1.00  0.00     0.020 C 
HETATM   49  C27 UNL     1       3.651  17.178  21.230  1.00  0.00     0.020 C 
ENDBRANCH  45  46
ENDBRANCH  10  45
TORSDOF 18
ENDMDL
MODEL 2
REMARK VINA RESULT: -8.260042032      0.794      1.728
REMARK  18 active torsions:
REMARK  status: ('A' for Active; 'I' for Inactive)
REMARK    1  A    between atoms: C2_2  and  C3_3 
REMARK    2  A    between atoms: C3_3  and  N1_4 
REMARK    3  A    between atoms: N1_4  and  C4_5 
REMARK    4  A    between atoms: N1_4  and  C14_17 
REMARK    5  A    between atoms: C4_5  and  O1_6 
REMARK    6  A    between atoms: C4_5  and  C5_8 
REMARK    7  A    between atoms: C5_8  and  C6_9 
REMARK    8  A    between atoms: C6_9  and  C7_10 
REMARK    9  A    between atoms: C7_10  and  C8_11 
REMARK   10  A    between atoms: C8_11  and  C9_12 
REMARK   11  A    between atoms: C9_12  and  C10_13 
REMARK   12  A    between atoms: C10_13  and  C11_14 
REMARK   13  A    between atoms: C11_14  and  C12_15 
REMARK   14  A    between atoms: C17_22  and  C18_23 
REMARK   15  A    between atoms: C20_26  and  O5_28 
REMARK   16  A    between atoms: N2_31  and  C23_32 
REMARK   17  A    between atoms: C23_32  and  C24_33 
REMARK   18  A    between atoms: C28_37  and  N3_38 
ROOT
HETATM    1  C14 UNL     1      10.424  19.552  15.908  1.00  0.00     0.207 C 
HETATM    2  C15 UNL     1       9.727  19.461  17.191  1.00  0.00     0.090 C 
HETATM    3  C16 UNL     1       9.893  20.351  18.303  1.00  0.00     0.282 C 
HETATM    4  O2  UNL     1      10.645  21.336  18.284  1.00  0.00    -0.260 OA
HETATM    5  O3  UNL     1       9.148  20.046  19.427  1.00  0.00    -0.302 OA
HETATM    6  C17 UNL     1       9.216  18.961  20.289  1.00  0.00     0.240 C 
HETATM    7  C20 UNL     1       7.956  18.103  20.409  1.00  0.00     0.119 C 
HETATM    8  C21 UNL     1       8.426  16.881  21.228  1.00  0.00     0.055 C 
HETATM    9  C22 UNL     1       7.435  17.661  19.106  1.00  0.00     0.106 C 
HETATM   10  N2  UNL     1       6.495  16.601  18.987  1.00  0.00    -0.336 N 
HETATM   11  C28 UNL     1       6.368  16.114  17.651  1.00  0.00     0.359 C 
HETATM   12  C29 UNL     1       7.695  16.000  16.952  1.00  0.00     0.199 C 
HETATM   13  O6  UNL     1       8.495  15.167  17.240  1.00  0.00    -0.291 OA
HETATM   14  C30 UNL     1       8.043  16.969  15.841  1.00  0.00     0.154 C 
HETATM   15  C31 UNL     1       7.465  16.240  14.591  1.00  0.00     0.040 C 
HETATM   16  N4  UNL     1       9.459  17.123  15.651  1.00  0.00    -0.348 N 
ATOM     17  H4  UNL     1       9.984  16.269  15.841  1.00  0.00     0.163 HD
HETATM   18  C32 UNL     1      10.266  18.183  15.265  1.00  0.00     0.245 C 
HETATM   19  O7  UNL     1      11.021  18.082  14.227  1.00  0.00    -0.271 OA
ENDROOT
BRANCH   1  20
HETATM   20  N1  UNL     1      11.849  19.763  16.058  1.00  0.00    -0.342 N 
BRANCH  20  21
HETATM   21  C3  UNL     1      12.601  18.805  16.931  1.00  0.00     0.152 C 
BRANCH  21  22
HETATM   22  C2  UNL     1      13.430  19.515  17.938  1.00  0.00    -0.017 C 
HETATM   23  C1  UNL     1      14.741  19.425  18.034  1.00  0.00     0.008 C 
ENDBRANCH  21  22
ENDBRANCH  20  21
BRANCH  20  24
HETATM   24  C4  UNL     1      12.619  20.789  15.553  1.00  0.00     0.138 C 
BRANCH  24  25
HETATM   25  O1  UNL     1      12.315  21.972  16.070  1.00  0.00    -0.346 OA
ATOM     26  H1  UNL     1      11.490  22.318  15.750  1.00  0.00     0.219 HD
ENDBRANCH  24  25
BRANCH  24  27
HETATM   27  C5  UNL     1      13.665  20.857  14.609  1.00  0.00     0.052 C 
BRANCH  27  28
HETATM   28  C6  UNL     1      14.610  21.699  14.316  1.00  0.00    -0.022 C 
BRANCH  28  29
HETATM   29  C7  UNL     1      15.792  21.779  15.267  1.00  0.00     0.027 C 
BRANCH  29  30
HETATM   30  C8  UNL     1      15.853  23.106  15.970  1.00  0.00     0.004 C 
BRANCH  30  31
HETATM   31  C9  UNL     1      16.000  22.789  17.463  1.00  0.00     0.000 C 
BRANCH  31  32
HETATM   32  C10 UNL     1      14.870  23.334  18.280  1.00  0.00     0.000 C 
BRANCH  32  33
HETATM   33  C11 UNL     1      15.295  23.627  19.678  1.00  0.00    -0.000 C 
BRANCH  33  34
HETATM   34  C12 UNL     1      15.730  25.049  19.868  1.00  0.00    -0.005 C 
HETATM   35  C13 UNL     1      16.969  25.054  20.758  1.00  0.00     0.005 C 
ENDBRANCH  33  34
ENDBRANCH  32  33
ENDBRANCH  31  32
ENDBRANCH  30  31
ENDBRANCH  29  30
ENDBRANCH  28  29
ENDBRANCH  27  28
ENDBRANCH  24  27
ENDBRANCH  20  24
ENDBRANCH   1  20
BRANCH   6  36
HETATM   36  C18 UNL     1       9.382  19.561  21.671  1.00  0.00     0.155 C 
HETATM   37  C19 UNL     1       9.524  21.006  21.917  1.00  0.00     0.094 C 
HETATM   38  O4  UNL     1       9.401  18.819  22.641  1.00  0.00    -0.295 OA
ENDBRANCH   6  36
BRANCH   7  39
HETATM   39  O5  UNL     1       7.069  18.796  21.222  1.00  0.00    -0.382 OA
ATOM     40  H5  UNL     1       6.317  18.232  21.356  1.00  0.00     0.211 HD
ENDBRANCH   7  39
BRANCH  11  41
HETATM   41  N3  UNL     1       5.501  16.906  16.798  1.00  0.00    -0.051 N 
ATOM     42  H33 UNL     1       4.527  16.632  16.931  1.00  0.00     0.277 HD
ATOM     43  H32 UNL     1       5.460  17.869  17.130  1.00  0.00     0.277 HD
ATOM     44  H31 UNL     1       5.743  16.884  15.808  1.00  0.00     0.277 HD
ENDBRANCH  11  41
BRANCH  10  45
HETATM   45  C23 UNL     1       5.510  16.456  19.922  1.00  0.00     0.074 C 
BRANCH  45  46
HETATM   46  C24 UNL     1       4.235  17.240  19.849  1.00  0.00    -0.019 C 
HETATM   47  C25 UNL     1       3.081  16.481  19.244  1.00  0.00     0.020 C 
HETATM   48  C26 UNL     1       4.316  18.640  19.340  1.00  0.00     0.020 C 
HETATM   49  C27 UNL     1       3.767  17.419  21.354  1.00  0.00     0.020 C 
ENDBRANCH  45  46
ENDBRANCH  10  45
TORSDOF 18
ENDMDL
MODEL 3
REMARK VINA RESULT: -8.221626096      1.834      4.488
REMARK  18 active torsions:
REMARK  status: ('A' for Active; 'I' for Inactive)
REMARK    1  A    between atoms: C2_2  and  C3_3 
REMARK    2  A    between atoms: C3_3  and  N1_4 
REMARK    3  A    between atoms: N1_4  and  C4_5 
REMARK    4  A    between atoms: N1_4  and  C14_17 
REMARK    5  A    between atoms: C4_5  and  O1_6 
REMARK    6  A    between atoms: C4_5  and  C5_8 
REMARK    7  A    between atoms: C5_8  and  C6_9 
REMARK    8  A    between atoms: C6_9  and  C7_10 
REMARK    9  A    between atoms: C7_10  and  C8_11 
REMARK   10  A    between atoms: C8_11  and  C9_12 
REMARK   11  A    between atoms: C9_12  and  C10_13 
REMARK   12  A    between atoms: C10_13  and  C11_14 
REMARK   13  A    between atoms: C11_14  and  C12_15 
REMARK   14  A    between atoms: C17_22  and  C18_23 
REMARK   15  A    between atoms: C20_26  and  O5_28 
REMARK   16  A    between atoms: N2_31  and  C23_32 
REMARK   17  A    between atoms: C23_32  and  C24_33 
REMARK   18  A    between atoms: C28_37  and  N3_38 
ROOT
HETATM    1  C14 UNL     1      12.086  19.455  19.310  1.00  0.00     0.207 C 
HETATM    2  C15 UNL     1      11.332  18.528  18.465  1.00  0.00     0.090 C 
HETATM    3  C16 UNL     1      11.842  17.827  17.323  1.00  0.00     0.282 C 
HETATM    4  O2  UNL     1      13.015  17.914  16.935  1.00  0.00    -0.260 OA
HETATM    5  O3  UNL     1      10.930  17.026  16.661  1.00  0.00    -0.302 OA
HETATM    6  C17 UNL     1       9.789  17.357  15.945  1.00  0.00     0.240 C 
HETATM    7  C20 UNL     1       8.470  16.770  16.451  1.00  0.00     0.119 C 
HETATM    8  C21 UNL     1       7.401  17.504  15.611  1.00  0.00     0.055 C 
HETATM    9  C22 UNL     1       8.241  17.022  17.882  1.00  0.00     0.106 C 
HETATM   10  N2  UNL     1       6.960  16.873  18.482  1.00  0.00    -0.336 N 
HETATM   11  C28 UNL     1       6.876  17.469  19.775  1.00  0.00     0.359 C 
HETATM   12  C29 UNL     1       7.564  18.805  19.840  1.00  0.00     0.199 C 
HETATM   13  O6  UNL     1       7.124  19.773  19.303  1.00  0.00    -0.291 OA
HETATM   14  C30 UNL     1       8.862  18.945  20.609  1.00  0.00     0.154 C 
HETATM   15  C31 UNL     1       8.348  19.283  22.040  1.00  0.00     0.040 C 
HETATM   16  N4  UNL     1       9.669  20.043  20.154  1.00  0.00    -0.348 N 
ATOM     17  H4  UNL     1       9.119  20.836  19.826  1.00  0.00     0.163 HD
HETATM   18  C32 UNL     1      11.038  20.255  20.066  1.00  0.00     0.245 C 
HETATM   19  O7  UNL     1      11.583  21.247  20.680  1.00  0.00    -0.271 OA
ENDROOT
BRANCH   1  20
HETATM   20  N1  UNL     1      12.849  20.418  18.542  1.00  0.00    -0.342 N 
BRANCH  20  21
HETATM   21  C3  UNL     1      12.111  21.223  17.515  1.00  0.00     0.152 C 
BRANCH  21  22
HETATM   22  C2  UNL     1      12.893  21.359  16.260  1.00  0.00    -0.017 C 
HETATM   23  C1  UNL     1      12.654  20.695  15.147  1.00  0.00     0.008 C 
ENDBRANCH  21  22
ENDBRANCH  20  21
BRANCH  20  24
HETATM   24  C4  UNL     1      14.206  20.655  18.575  1.00  0.00     0.138 C 
BRANCH  24  25
HETATM   25  O1  UNL     1      14.932  19.561  18.386  1.00  0.00    -0.346 OA
ATOM     26  H1  UNL     1      15.821  19.745  18.107  1.00  0.00     0.219 HD
ENDBRANCH  24  25
BRANCH  24  27
HETATM   27  C5  UNL     1      14.996  21.809  18.763  1.00  0.00     0.052 C 
BRANCH  27  28
HETATM   28  C6  UNL     1      14.799  23.019  19.193  1.00  0.00    -0.022 C 
BRANCH  28  29
HETATM   29  C7  UNL     1      14.592  24.105  18.151  1.00  0.00     0.027 C 
BRANCH  29  30
HETATM   30  C8  UNL     1      14.885  25.471  18.704  1.00  0.00     0.004 C 
BRANCH  30  31
HETATM   31  C9  UNL     1      15.667  25.244  20.004  1.00  0.00     0.000 C 
BRANCH  31  32
HETATM   32  C10 UNL     1      17.015  25.895  19.984  1.00  0.00     0.000 C 
BRANCH  32  33
HETATM   33  C11 UNL     1      18.086  24.928  19.609  1.00  0.00    -0.000 C 
BRANCH  33  34
HETATM   34  C12 UNL     1      18.454  25.002  18.158  1.00  0.00    -0.005 C 
HETATM   35  C13 UNL     1      18.307  23.608  17.558  1.00  0.00     0.005 C 
ENDBRANCH  33  34
ENDBRANCH  32  33
ENDBRANCH  31  32
ENDBRANCH  30  31
ENDBRANCH  29  30
ENDBRANCH  28  29
ENDBRANCH  27  28
ENDBRANCH  24  27
ENDBRANCH  20  24
ENDBRANCH   1  20
BRANCH   6  36
HETATM   36  C18 UNL     1       9.973  16.717  14.583  1.00  0.00     0.155 C 
HETATM   37  C19 UNL     1      10.031  17.487  13.328  1.00  0.00     0.094 C 
HETATM   38  O4  UNL     1      10.081  15.504  14.506  1.00  0.00    -0.295 OA
ENDBRANCH   6  36
BRANCH   7  39
HETATM   39  O5  UNL     1       8.435  15.443  16.048  1.00  0.00    -0.382 OA
ATOM     40  H5  UNL     1       7.713  15.032  16.508  1.00  0.00     0.211 HD
ENDBRANCH   7  39
BRANCH  11  41
HETATM   41  N3  UNL     1       7.414  16.658  20.853  1.00  0.00    -0.051 N 
ATOM     42  H33 UNL     1       7.888  15.837  20.476  1.00  0.00     0.277 HD
ATOM     43  H32 UNL     1       8.204  17.131  21.292  1.00  0.00     0.277 HD
ATOM     44  H31 UNL     1       6.732  16.380  21.558  1.00  0.00     0.277 HD
ENDBRANCH  11  41
BRANCH  10  45
HETATM   45  C23 UNL     1       6.135  15.862  18.080  1.00  0.00     0.074 C 
BRANCH  45  46
HETATM   46  C24 UNL     1       4.684  16.098  17.792  1.00  0.00    -0.019 C 
HETATM   47  C25 UNL     1       4.360  17.513  17.387  1.00  0.00     0.020 C 
HETATM   48  C26 UNL     1       3.692  15.549  18.762  1.00  0.00     0.020 C 
HETATM   49  C27 UNL     1       4.384  15.290  16.460  1.00  0.00     0.020 C 
ENDBRANCH  45  46
ENDBRANCH  10  45
TORSDOF 18
ENDMDL
MODEL 4
REMARK VINA RESULT: -8.174658868      1.815      4.339
REMARK  18 active torsions:
REMARK  status: ('A' for Active; 'I' for Inactive)
REMARK    1  A    between atoms: C2_2  and  C3_3 
REMARK    2  A    between atoms: C3_3  and  N1_4 
REMARK    3  A    between atoms: N1_4  and  C4_5 
REMARK    4  A    between atoms: N1_4  and  C14_17 
REMARK    5  A    between atoms: C4_5  and  O1_6 
REMARK    6  A    between atoms: C4_5  and  C5_8 
REMARK    7  A    between atoms: C5_8  and  C6_9 
REMARK    8  A    between atoms: C6_9  and  C7_10 
REMARK    9  A    between atoms: C7_10  and  C8_11 
REMARK   10  A    between atoms: C8_11  and  C9_12 
REMARK   11  A    between atoms: C9_12  and  C10_13 
REMARK   12  A    between atoms: C10_13  and  C11_14 
REMARK   13  A    between atoms: C11_14  and  C12_15 
REMARK   14  A    between atoms: C17_22  and  C18_23 
REMARK   15  A    between atoms: C20_26  and  O5_28 
REMARK   16  A    between atoms: N2_31  and  C23_32 
REMARK   17  A    between atoms: C23_32  and  C24_33 
REMARK   18  A    between atoms: C28_37  and  N3_38 
ROOT
HETATM    1  C14 UNL     1      11.920  19.361  19.370  1.00  0.00     0.207 C 
HETATM    2  C15 UNL     1      11.193  18.446  18.490  1.00  0.00     0.090 C 
HETATM    3  C16 UNL     1      11.734  17.773  17.345  1.00  0.00     0.282 C 
HETATM    4  O2  UNL     1      12.916  17.878  16.986  1.00  0.00    -0.260 OA
HETATM    5  O3  UNL     1      10.845  16.979  16.646  1.00  0.00    -0.302 OA
HETATM    6  C17 UNL     1       9.717  17.316  15.912  1.00  0.00     0.240 C 
HETATM    7  C20 UNL     1       8.392  16.708  16.376  1.00  0.00     0.119 C 
HETATM    8  C21 UNL     1       7.336  17.451  15.527  1.00  0.00     0.055 C 
HETATM    9  C22 UNL     1       8.129  16.929  17.806  1.00  0.00     0.106 C 
HETATM   10  N2  UNL     1       6.836  16.757  18.374  1.00  0.00    -0.336 N 
HETATM   11  C28 UNL     1       6.718  17.325  19.677  1.00  0.00     0.359 C 
HETATM   12  C29 UNL     1       7.393  18.664  19.784  1.00  0.00     0.199 C 
HETATM   13  O6  UNL     1       6.957  19.640  19.258  1.00  0.00    -0.291 OA
HETATM   14  C30 UNL     1       8.672  18.799  20.585  1.00  0.00     0.154 C 
HETATM   15  C31 UNL     1       8.124  19.103  22.011  1.00  0.00     0.040 C 
HETATM   16  N4  UNL     1       9.481  19.912  20.172  1.00  0.00    -0.348 N 
ATOM     17  H4  UNL     1       8.931  20.708  19.848  1.00  0.00     0.163 HD
HETATM   18  C32 UNL     1      10.849  20.137  20.119  1.00  0.00     0.245 C 
HETATM   19  O7  UNL     1      11.372  21.121  20.766  1.00  0.00    -0.271 OA
ENDROOT
BRANCH   1  20
HETATM   20  N1  UNL     1      12.692  20.346  18.640  1.00  0.00    -0.342 N 
BRANCH  20  21
HETATM   21  C3  UNL     1      11.953  21.229  17.680  1.00  0.00     0.152 C 
BRANCH  21  22
HETATM   22  C2  UNL     1      12.661  21.338  16.379  1.00  0.00    -0.017 C 
HETATM   23  C1  UNL     1      12.401  20.602  15.317  1.00  0.00     0.008 C 
ENDBRANCH  21  22
ENDBRANCH  20  21
BRANCH  20  24
HETATM   24  C4  UNL     1      14.056  20.544  18.652  1.00  0.00     0.138 C 
BRANCH  24  25
HETATM   25  O1  UNL     1      14.746  19.428  18.451  1.00  0.00    -0.346 OA
ATOM     26  H1  UNL     1      15.334  19.218  19.167  1.00  0.00     0.219 HD
ENDBRANCH  24  25
BRANCH  24  27
HETATM   27  C5  UNL     1      14.882  21.673  18.828  1.00  0.00     0.052 C 
BRANCH  27  28
HETATM   28  C6  UNL     1      15.742  22.326  18.106  1.00  0.00    -0.022 C 
BRANCH  28  29
HETATM   29  C7  UNL     1      15.270  23.615  17.453  1.00  0.00     0.027 C 
BRANCH  29  30
HETATM   30  C8  UNL     1      14.159  24.260  18.232  1.00  0.00     0.004 C 
BRANCH  30  31
HETATM   31  C9  UNL     1      14.567  25.726  18.420  1.00  0.00     0.000 C 
BRANCH  31  32
HETATM   32  C10 UNL     1      15.980  25.874  18.891  1.00  0.00     0.000 C 
BRANCH  32  33
HETATM   33  C11 UNL     1      16.139  25.417  20.301  1.00  0.00    -0.000 C 
BRANCH  33  34
HETATM   34  C12 UNL     1      17.496  24.844  20.577  1.00  0.00    -0.005 C 
HETATM   35  C13 UNL     1      18.341  24.993  19.316  1.00  0.00     0.005 C 
ENDBRANCH  33  34
ENDBRANCH  32  33
ENDBRANCH  31  32
ENDBRANCH  30  31
ENDBRANCH  29  30
ENDBRANCH  28  29
ENDBRANCH  27  28
ENDBRANCH  24  27
ENDBRANCH  20  24
ENDBRANCH   1  20
BRANCH   6  36
HETATM   36  C18 UNL     1       9.937  16.707  14.541  1.00  0.00     0.155 C 
HETATM   37  C19 UNL     1      10.044  17.504  13.307  1.00  0.00     0.094 C 
HETATM   38  O4  UNL     1      10.033  15.494  14.439  1.00  0.00    -0.295 OA
ENDBRANCH   6  36
BRANCH   7  39
HETATM   39  O5  UNL     1       8.377  15.390  15.945  1.00  0.00    -0.382 OA
ATOM     40  H5  UNL     1       8.443  14.843  16.719  1.00  0.00     0.211 HD
ENDBRANCH   7  39
BRANCH  11  41
HETATM   41  N3  UNL     1       7.239  16.496  20.749  1.00  0.00    -0.051 N 
ATOM     42  H33 UNL     1       6.858  15.552  20.684  1.00  0.00     0.277 HD
ATOM     43  H32 UNL     1       8.228  16.298  20.596  1.00  0.00     0.277 HD
ATOM     44  H31 UNL     1       7.095  16.872  21.686  1.00  0.00     0.277 HD
ENDBRANCH  11  41
BRANCH  10  45
HETATM   45  C23 UNL     1       6.028  15.747  17.932  1.00  0.00     0.074 C 
BRANCH  45  46
HETATM   46  C24 UNL     1       4.671  16.019  17.359  1.00  0.00    -0.019 C 
HETATM   47  C25 UNL     1       4.381  15.269  16.084  1.00  0.00     0.020 C 
HETATM   48  C26 UNL     1       4.227  17.441  17.288  1.00  0.00     0.020 C 
HETATM   49  C27 UNL     1       3.648  15.362  18.376  1.00  0.00     0.020 C 
ENDBRANCH  45  46
ENDBRANCH  10  45
TORSDOF 18
ENDMDL
MODEL 5
REMARK VINA RESULT: -7.975996893      0.999      1.590
REMARK  18 active torsions:
REMARK  status: ('A' for Active; 'I' for Inactive)
REMARK    1  A    between atoms: C2_2  and  C3_3 
REMARK    2  A    between atoms: C3_3  and  N1_4 
REMARK    3  A    between atoms: N1_4  and  C4_5 
REMARK    4  A    between atoms: N1_4  and  C14_17 
REMARK    5  A    between atoms: C4_5  and  O1_6 
REMARK    6  A    between atoms: C4_5  and  C5_8 
REMARK    7  A    between atoms: C5_8  and  C6_9 
REMARK    8  A    between atoms: C6_9  and  C7_10 
REMARK    9  A    between atoms: C7_10  and  C8_11 
REMARK   10  A    between atoms: C8_11  and  C9_12 
REMARK   11  A    between atoms: C9_12  and  C10_13 
REMARK   12  A    between atoms: C10_13  and  C11_14 
REMARK   13  A    between atoms: C11_14  and  C12_15 
REMARK   14  A    between atoms: C17_22  and  C18_23 
REMARK   15  A    between atoms: C20_26  and  O5_28 
REMARK   16  A    between atoms: N2_31  and  C23_32 
REMARK   17  A    between atoms: C23_32  and  C24_33 
REMARK   18  A    between atoms: C28_37  and  N3_38 
ROOT
HETATM    1  C14 UNL     1      10.574  19.679  16.113  1.00  0.00     0.207 C 
HETATM    2  C15 UNL     1       9.826  19.530  17.361  1.00  0.00     0.090 C 
HETATM    3  C16 UNL     1       9.941  20.371  18.516  1.00  0.00     0.282 C 
HETATM    4  O2  UNL     1      10.688  21.358  18.571  1.00  0.00    -0.260 OA
HETATM    5  O3  UNL     1       9.152  20.014  19.594  1.00  0.00    -0.302 OA
HETATM    6  C17 UNL     1       9.190  18.893  20.410  1.00  0.00     0.240 C 
HETATM    7  C20 UNL     1       7.930  18.026  20.440  1.00  0.00     0.119 C 
HETATM    8  C21 UNL     1       8.373  16.771  21.224  1.00  0.00     0.055 C 
HETATM    9  C22 UNL     1       7.466  17.640  19.099  1.00  0.00     0.106 C 
HETATM   10  N2  UNL     1       6.538  16.582  18.895  1.00  0.00    -0.336 N 
HETATM   11  C28 UNL     1       6.468  16.154  17.535  1.00  0.00     0.359 C 
HETATM   12  C29 UNL     1       7.823  16.075  16.887  1.00  0.00     0.199 C 
HETATM   13  O6  UNL     1       8.616  15.233  17.171  1.00  0.00    -0.291 OA
HETATM   14  C30 UNL     1       8.212  17.093  15.834  1.00  0.00     0.154 C 
HETATM   15  C31 UNL     1       7.690  16.418  14.531  1.00  0.00     0.040 C 
HETATM   16  N4  UNL     1       9.634  17.260  15.711  1.00  0.00    -0.348 N 
ATOM     17  H4  UNL     1      10.154  16.400  15.885  1.00  0.00     0.163 HD
HETATM   18  C32 UNL     1      10.450  18.339  15.405  1.00  0.00     0.245 C 
HETATM   19  O7  UNL     1      11.248  18.286  14.395  1.00  0.00    -0.271 OA
ENDROOT
BRANCH   1  20
HETATM   20  N1  UNL     1      11.991  19.888  16.330  1.00  0.00    -0.342 N 
BRANCH  20  21
HETATM   21  C3  UNL     1      12.622  21.082  15.680  1.00  0.00     0.152 C 
BRANCH  21  22
HETATM   22  C2  UNL     1      13.694  20.687  14.731  1.00  0.00    -0.017 C 
HETATM   23  C1  UNL     1      14.108  21.418  13.716  1.00  0.00     0.008 C 
ENDBRANCH  21  22
ENDBRANCH  20  21
BRANCH  20  24
HETATM   24  C4  UNL     1      12.878  19.083  17.012  1.00  0.00     0.138 C 
BRANCH  24  25
HETATM   25  O1  UNL     1      12.837  17.815  16.623  1.00  0.00    -0.346 OA
ATOM     26  H1  UNL     1      13.684  17.386  16.657  1.00  0.00     0.219 HD
ENDBRANCH  24  25
BRANCH  24  27
HETATM   27  C5  UNL     1      13.826  19.311  18.031  1.00  0.00     0.052 C 
BRANCH  27  28
HETATM   28  C6  UNL     1      14.684  20.243  18.321  1.00  0.00    -0.022 C 
BRANCH  28  29
HETATM   29  C7  UNL     1      14.183  21.426  19.132  1.00  0.00     0.027 C 
BRANCH  29  30
HETATM   30  C8  UNL     1      14.413  22.728  18.418  1.00  0.00     0.004 C 
BRANCH  30  31
HETATM   31  C9  UNL     1      15.841  22.662  17.863  1.00  0.00     0.000 C 
BRANCH  31  32
HETATM   32  C10 UNL     1      15.942  23.203  16.471  1.00  0.00     0.000 C 
BRANCH  32  33
HETATM   33  C11 UNL     1      17.356  23.487  16.094  1.00  0.00    -0.000 C 
BRANCH  33  34
HETATM   34  C12 UNL     1      17.662  23.128  14.671  1.00  0.00    -0.005 C 
HETATM   35  C13 UNL     1      18.137  21.679  14.637  1.00  0.00     0.005 C 
ENDBRANCH  33  34
ENDBRANCH  32  33
ENDBRANCH  31  32
ENDBRANCH  30  31
ENDBRANCH  29  30
ENDBRANCH  28  29
ENDBRANCH  27  28
ENDBRANCH  24  27
ENDBRANCH  20  24
ENDBRANCH   1  20
BRANCH   6  36
HETATM   36  C18 UNL     1       9.296  19.432  21.823  1.00  0.00     0.155 C 
HETATM   37  C19 UNL     1       9.327  20.870  22.142  1.00  0.00     0.094 C 
HETATM   38  O4  UNL     1       9.359  18.646  22.755  1.00  0.00    -0.295 OA
ENDBRANCH   6  36
BRANCH   7  39
HETATM   39  O5  UNL     1       7.007  18.679  21.245  1.00  0.00    -0.382 OA
ATOM     40  H5  UNL     1       6.149  18.513  20.875  1.00  0.00     0.211 HD
ENDBRANCH   7  39
BRANCH  11  41
HETATM   41  N3  UNL     1       5.633  16.979  16.682  1.00  0.00    -0.051 N 
ATOM     42  H33 UNL     1       5.747  17.965  16.920  1.00  0.00     0.277 HD
ATOM     43  H32 UNL     1       5.997  16.986  15.729  1.00  0.00     0.277 HD
ATOM     44  H31 UNL     1       4.645  16.727  16.681  1.00  0.00     0.277 HD
ENDBRANCH  11  41
BRANCH  10  45
HETATM   45  C23 UNL     1       5.515  16.394  19.781  1.00  0.00     0.074 C 
BRANCH  45  46
HETATM   46  C24 UNL     1       4.234  17.164  19.680  1.00  0.00    -0.019 C 
HETATM   47  C25 UNL     1       3.125  16.422  18.978  1.00  0.00     0.020 C 
HETATM   48  C26 UNL     1       4.320  18.588  19.246  1.00  0.00     0.020 C 
HETATM   49  C27 UNL     1       3.686  17.262  21.165  1.00  0.00     0.020 C 
ENDBRANCH  45  46
ENDBRANCH  10  45
TORSDOF 18
ENDMDL
