MODEL 1
REMARK VINA RESULT: -9.483722827      0.000      0.000
REMARK  12 active torsions:
REMARK  status: ('A' for Active; 'I' for Inactive)
REMARK    1  A    between atoms: S1_3  and  C3_5 
REMARK    2  A    between atoms: S1_3  and  N5_38 
REMARK    3  A    between atoms: C6_8  and  C7_9 
REMARK    4  A    between atoms: C7_9  and  C8_11 
REMARK       I    between atoms: C8_11  and  N1_13 
REMARK    5  A    between atoms: N1_13  and  C9_15 
REMARK    6  A    between atoms: C9_15  and  C11_17 
REMARK    7  A    between atoms: C9_15  and  C15_21 
REMARK    8  A    between atoms: C11_17  and  C12_18 
REMARK    9  A    between atoms: C15_21  and  C16_23 
REMARK       I    between atoms: C16_23  and  N2_25 
REMARK   10  A    between atoms: N2_25  and  C17_27 
REMARK   11  A    between atoms: C17_27  and  C18_28 
REMARK   12  A    between atoms: N5_38  and  C24_40 
ROOT
HETATM    1  C1  UNL     1      11.129  18.174  15.777  1.00  0.00     0.028 C 
HETATM    2  C2  UNL     1      11.619  18.788  16.710  1.00  0.00    -0.000 C 
HETATM    3  S1  UNL     1      12.388  19.789  18.361  1.00  0.00     0.129 S 
HETATM    4  O1  UNL     1      13.627  18.503  18.401  1.00  0.00    -0.231 OA
ENDROOT
BRANCH   3   5
HETATM    5  C3  UNL     1      10.763  19.668  19.373  1.00  0.00     0.058 A 
HETATM    6  C4  UNL     1       9.979  18.500  19.327  1.00  0.00     0.039 A 
HETATM    7  C5  UNL     1       8.821  18.298  20.022  1.00  0.00     0.026 A 
HETATM    8  C6  UNL     1       7.922  17.227  20.100  1.00  0.00     0.116 A 
HETATM    9  C19 UNL     1       8.359  19.280  20.832  1.00  0.00     0.061 A 
HETATM   10  N3  UNL     1       6.952  17.596  20.952  1.00  0.00    -0.295 N 
HETATM   11  N4  UNL     1       7.220  18.833  21.390  1.00  0.00    -0.299 N 
ATOM     12  H3  UNL     1       6.148  17.030  21.220  1.00  0.00     0.187 HD
ATOM     13  H4  UNL     1       6.644  19.359  22.048  1.00  0.00     0.187 HD
HETATM   14  C20 UNL     1       9.055  20.442  20.937  1.00  0.00     0.040 A 
HETATM   15  C21 UNL     1      10.221  20.616  20.222  1.00  0.00    -0.039 A 
HETATM   16  C22 UNL     1      10.933  21.901  20.432  1.00  0.00     0.050 C 
BRANCH   8  17
HETATM   17  C7  UNL     1       8.080  15.999  19.370  1.00  0.00     0.267 C 
HETATM   18  O2  UNL     1       8.673  14.977  19.861  1.00  0.00    -0.280 OA
BRANCH  17  19
HETATM   19  C8  UNL     1       7.589  15.765  17.996  1.00  0.00     0.295 C 
HETATM   20  O3  UNL     1       8.296  15.047  17.297  1.00  0.00    -0.264 OA
HETATM   21  N1  UNL     1       6.397  16.334  17.547  1.00  0.00    -0.338 N 
ATOM     22  H1  UNL     1       5.929  16.914  18.243  1.00  0.00     0.164 HD
BRANCH  21  23
HETATM   23  C9  UNL     1       5.707  16.262  16.303  1.00  0.00     0.100 C 
HETATM   24  C10 UNL     1       5.612  14.733  15.967  1.00  0.00     0.047 C 
BRANCH  23  25
HETATM   25  C11 UNL     1       6.356  16.835  15.115  1.00  0.00     0.043 C 
BRANCH  25  26
HETATM   26  C12 UNL     1       7.743  17.275  15.059  1.00  0.00    -0.020 C 
HETATM   27  C13 UNL     1       8.025  18.593  14.388  1.00  0.00     0.009 C 
HETATM   28  C14 UNL     1       8.490  16.239  14.177  1.00  0.00     0.009 C 
ENDBRANCH  25  26
ENDBRANCH  23  25
BRANCH  23  29
HETATM   29  C15 UNL     1       4.279  16.666  16.429  1.00  0.00     0.244 C 
HETATM   30  O4  UNL     1       3.559  16.403  15.405  1.00  0.00    -0.284 OA
BRANCH  29  31
HETATM   31  C16 UNL     1       3.640  17.296  17.531  1.00  0.00     0.290 C 
HETATM   32  O5  UNL     1       3.241  16.670  18.531  1.00  0.00    -0.264 OA
HETATM   33  N2  UNL     1       3.423  18.699  17.538  1.00  0.00    -0.348 N 
ATOM     34  H2  UNL     1       3.737  19.246  16.736  1.00  0.00     0.163 HD
BRANCH  33  35
HETATM   35  C17 UNL     1       2.783  19.382  18.627  1.00  0.00     0.192 C 
BRANCH  35  36
HETATM   36  C18 UNL     1       3.759  20.077  19.482  1.00  0.00     0.250 C 
HETATM   37  O6  UNL     1       4.809  19.540  19.793  1.00  0.00    -0.305 OA
ENDBRANCH  35  36
ENDBRANCH  33  35
ENDBRANCH  29  31
ENDBRANCH  23  29
ENDBRANCH  21  23
ENDBRANCH  17  19
ENDBRANCH   8  17
ENDBRANCH   3   5
BRANCH   3  38
HETATM   38  N5  UNL     1      12.579  21.310  17.160  1.00  0.00    -0.297 N 
HETATM   39  C23 UNL     1      11.334  21.959  16.826  1.00  0.00     0.167 C 
BRANCH  38  40
HETATM   40  C24 UNL     1      13.770  21.804  16.658  1.00  0.00     0.054 A 
HETATM   41  C25 UNL     1      14.211  21.593  15.380  1.00  0.00    -0.034 A 
HETATM   42  C26 UNL     1      13.381  20.839  14.419  1.00  0.00     0.050 C 
HETATM   43  C27 UNL     1      15.452  22.109  14.934  1.00  0.00     0.009 A 
HETATM   44  C28 UNL     1      16.250  22.842  15.778  1.00  0.00     0.001 A 
HETATM   45  C29 UNL     1      15.828  23.071  17.069  1.00  0.00     0.009 A 
HETATM   46  C30 UNL     1      14.599  22.555  17.502  1.00  0.00    -0.034 A 
HETATM   47  C31 UNL     1      14.223  22.863  18.883  1.00  0.00     0.050 C 
ENDBRANCH  38  40
ENDBRANCH   3  38
TORSDOF 12
ENDMDL
MODEL 2
REMARK VINA RESULT: -9.453236861      0.047      1.293
REMARK  12 active torsions:
REMARK  status: ('A' for Active; 'I' for Inactive)
REMARK    1  A    between atoms: S1_3  and  C3_5 
REMARK    2  A    between atoms: S1_3  and  N5_38 
REMARK    3  A    between atoms: C6_8  and  C7_9 
REMARK    4  A    between atoms: C7_9  and  C8_11 
REMARK       I    between atoms: C8_11  and  N1_13 
REMARK    5  A    between atoms: N1_13  and  C9_15 
REMARK    6  A    between atoms: C9_15  and  C11_17 
REMARK    7  A    between atoms: C9_15  and  C15_21 
REMARK    8  A    between atoms: C11_17  and  C12_18 
REMARK    9  A    between atoms: C15_21  and  C16_23 
REMARK       I    between atoms: C16_23  and  N2_25 
REMARK   10  A    between atoms: N2_25  and  C17_27 
REMARK   11  A    between atoms: C17_27  and  C18_28 
REMARK   12  A    between atoms: N5_38  and  C24_40 
ROOT
HETATM    1  C1  UNL     1      11.117  18.202  15.766  1.00  0.00     0.028 C 
HETATM    2  C2  UNL     1      11.614  18.803  16.704  1.00  0.00    -0.000 C 
HETATM    3  S1  UNL     1      12.391  19.780  18.366  1.00  0.00     0.129 S 
HETATM    4  O1  UNL     1      13.614  18.478  18.397  1.00  0.00    -0.231 OA
ENDROOT
BRANCH   3   5
HETATM    5  C3  UNL     1      10.763  19.670  19.373  1.00  0.00     0.058 A 
HETATM    6  C4  UNL     1       9.975  18.504  19.332  1.00  0.00     0.039 A 
HETATM    7  C5  UNL     1       8.815  18.309  20.025  1.00  0.00     0.026 A 
HETATM    8  C6  UNL     1       7.913  17.241  20.106  1.00  0.00     0.116 A 
HETATM    9  C19 UNL     1       8.354  19.297  20.828  1.00  0.00     0.061 A 
HETATM   10  N3  UNL     1       6.942  17.618  20.953  1.00  0.00    -0.295 N 
HETATM   11  N4  UNL     1       7.211  18.856  21.385  1.00  0.00    -0.299 N 
ATOM     12  H3  UNL     1       6.135  17.056  21.222  1.00  0.00     0.187 HD
ATOM     13  H4  UNL     1       6.636  19.388  22.039  1.00  0.00     0.187 HD
HETATM   14  C20 UNL     1       9.053  20.458  20.928  1.00  0.00     0.040 A 
HETATM   15  C21 UNL     1      10.222  20.624  20.216  1.00  0.00    -0.039 A 
HETATM   16  C22 UNL     1      10.937  21.907  20.421  1.00  0.00     0.050 C 
BRANCH   8  17
HETATM   17  C7  UNL     1       8.069  16.008  19.384  1.00  0.00     0.267 C 
HETATM   18  O2  UNL     1       8.653  14.986  19.884  1.00  0.00    -0.280 OA
BRANCH  17  19
HETATM   19  C8  UNL     1       7.586  15.770  18.008  1.00  0.00     0.295 C 
HETATM   20  O3  UNL     1       8.298  15.051  17.315  1.00  0.00    -0.264 OA
HETATM   21  N1  UNL     1       6.395  16.336  17.550  1.00  0.00    -0.338 N 
ATOM     22  H1  UNL     1       5.923  16.917  18.242  1.00  0.00     0.164 HD
BRANCH  21  23
HETATM   23  C9  UNL     1       5.712  16.259  16.303  1.00  0.00     0.100 C 
HETATM   24  C10 UNL     1       5.645  14.731  15.957  1.00  0.00     0.047 C 
BRANCH  23  25
HETATM   25  C11 UNL     1       6.357  16.851  15.122  1.00  0.00     0.043 C 
BRANCH  25  26
HETATM   26  C12 UNL     1       7.745  17.288  15.066  1.00  0.00    -0.020 C 
HETATM   27  C13 UNL     1       8.031  18.599  14.384  1.00  0.00     0.009 C 
HETATM   28  C14 UNL     1       8.492  16.243  14.194  1.00  0.00     0.009 C 
ENDBRANCH  25  26
ENDBRANCH  23  25
BRANCH  23  29
HETATM   29  C15 UNL     1       4.277  16.638  16.425  1.00  0.00     0.244 C 
HETATM   30  O4  UNL     1       3.560  16.341  15.408  1.00  0.00    -0.284 OA
BRANCH  29  31
HETATM   31  C16 UNL     1       3.628  17.277  17.516  1.00  0.00     0.290 C 
HETATM   32  O5  UNL     1       3.204  16.656  18.509  1.00  0.00    -0.264 OA
HETATM   33  N2  UNL     1       3.431  18.683  17.519  1.00  0.00    -0.348 N 
ATOM     34  H2  UNL     1       3.766  19.225  16.723  1.00  0.00     0.163 HD
BRANCH  33  35
HETATM   35  C17 UNL     1       2.782  19.374  18.598  1.00  0.00     0.192 C 
BRANCH  35  36
HETATM   36  C18 UNL     1       3.750  20.089  19.445  1.00  0.00     0.250 C 
HETATM   37  O6  UNL     1       4.751  19.528  19.858  1.00  0.00    -0.305 OA
ENDBRANCH  35  36
ENDBRANCH  33  35
ENDBRANCH  29  31
ENDBRANCH  23  29
ENDBRANCH  21  23
ENDBRANCH  17  19
ENDBRANCH   8  17
ENDBRANCH   3   5
BRANCH   3  38
HETATM   38  N5  UNL     1      12.603  21.309  17.179  1.00  0.00    -0.297 N 
HETATM   39  C23 UNL     1      11.359  21.923  16.780  1.00  0.00     0.167 C 
BRANCH  38  40
HETATM   40  C24 UNL     1      13.804  21.838  16.742  1.00  0.00     0.054 A 
HETATM   41  C25 UNL     1      14.649  22.576  17.526  1.00  0.00    -0.034 A 
HETATM   42  C26 UNL     1      14.331  22.811  18.949  1.00  0.00     0.050 C 
HETATM   43  C27 UNL     1      15.856  23.108  17.011  1.00  0.00     0.009 A 
HETATM   44  C28 UNL     1      16.213  22.895  15.702  1.00  0.00     0.001 A 
HETATM   45  C29 UNL     1      15.382  22.155  14.892  1.00  0.00     0.009 A 
HETATM   46  C30 UNL     1      14.189  21.632  15.410  1.00  0.00    -0.034 A 
HETATM   47  C31 UNL     1      13.377  20.842  14.484  1.00  0.00     0.050 C 
ENDBRANCH  38  40
ENDBRANCH   3  38
TORSDOF 12
ENDMDL
MODEL 3
REMARK VINA RESULT: -9.186787204      3.752     10.864
REMARK  12 active torsions:
REMARK  status: ('A' for Active; 'I' for Inactive)
REMARK    1  A    between atoms: S1_3  and  C3_5 
REMARK    2  A    between atoms: S1_3  and  N5_38 
REMARK    3  A    between atoms: C6_8  and  C7_9 
REMARK    4  A    between atoms: C7_9  and  C8_11 
REMARK       I    between atoms: C8_11  and  N1_13 
REMARK    5  A    between atoms: N1_13  and  C9_15 
REMARK    6  A    between atoms: C9_15  and  C11_17 
REMARK    7  A    between atoms: C9_15  and  C15_21 
REMARK    8  A    between atoms: C11_17  and  C12_18 
REMARK    9  A    between atoms: C15_21  and  C16_23 
REMARK       I    between atoms: C16_23  and  N2_25 
REMARK   10  A    between atoms: N2_25  and  C17_27 
REMARK   11  A    between atoms: C17_27  and  C18_28 
REMARK   12  A    between atoms: N5_38  and  C24_40 
ROOT
HETATM    1  C1  UNL     1      11.506  17.103  14.790  1.00  0.00     0.028 C 
HETATM    2  C2  UNL     1      10.449  17.500  15.251  1.00  0.00    -0.000 C 
HETATM    3  S1  UNL     1       8.696  18.260  16.068  1.00  0.00     0.129 S 
HETATM    4  O1  UNL     1       8.343  18.862  14.424  1.00  0.00    -0.231 OA
ENDROOT
BRANCH   3   5
HETATM    5  C3  UNL     1       9.601  19.337  17.373  1.00  0.00     0.058 A 
HETATM    6  C4  UNL     1      10.760  20.057  17.025  1.00  0.00     0.039 A 
HETATM    7  C5  UNL     1      11.467  20.870  17.865  1.00  0.00     0.026 A 
HETATM    8  C6  UNL     1      12.619  21.648  17.702  1.00  0.00     0.116 A 
HETATM    9  C19 UNL     1      11.049  21.019  19.143  1.00  0.00     0.061 A 
HETATM   10  N3  UNL     1      12.857  22.240  18.883  1.00  0.00    -0.295 N 
HETATM   11  N4  UNL     1      11.910  21.857  19.748  1.00  0.00    -0.299 N 
ATOM     12  H3  UNL     1      13.630  22.873  19.087  1.00  0.00     0.187 HD
ATOM     13  H4  UNL     1      11.849  22.157  20.721  1.00  0.00     0.187 HD
HETATM   14  C20 UNL     1       9.938  20.360  19.565  1.00  0.00     0.040 A 
HETATM   15  C21 UNL     1       9.245  19.546  18.693  1.00  0.00    -0.039 A 
HETATM   16  C22 UNL     1       8.022  18.901  19.231  1.00  0.00     0.050 C 
BRANCH   8  17
HETATM   17  C7  UNL     1      13.352  21.740  16.468  1.00  0.00     0.267 C 
HETATM   18  O2  UNL     1      12.780  21.738  15.324  1.00  0.00    -0.280 OA
BRANCH  17  19
HETATM   19  C8  UNL     1      14.822  21.849  16.368  1.00  0.00     0.295 C 
HETATM   20  O3  UNL     1      15.458  21.190  17.185  1.00  0.00    -0.264 OA
HETATM   21  N1  UNL     1      15.426  22.653  15.401  1.00  0.00    -0.338 N 
ATOM     22  H1  UNL     1      14.763  23.144  14.802  1.00  0.00     0.164 HD
BRANCH  21  23
HETATM   23  C9  UNL     1      16.789  22.919  15.086  1.00  0.00     0.100 C 
HETATM   24  C10 UNL     1      17.407  21.531  14.697  1.00  0.00     0.047 C 
BRANCH  23  25
HETATM   25  C11 UNL     1      17.668  23.396  16.163  1.00  0.00     0.043 C 
BRANCH  25  26
HETATM   26  C12 UNL     1      17.321  24.442  17.116  1.00  0.00    -0.020 C 
HETATM   27  C13 UNL     1      18.305  25.566  17.300  1.00  0.00     0.009 C 
HETATM   28  C14 UNL     1      17.270  23.758  18.509  1.00  0.00     0.009 C 
ENDBRANCH  25  26
ENDBRANCH  23  25
BRANCH  23  29
HETATM   29  C15 UNL     1      16.931  23.712  13.834  1.00  0.00     0.244 C 
HETATM   30  O4  UNL     1      15.988  23.545  12.987  1.00  0.00    -0.284 OA
BRANCH  29  31
HETATM   31  C16 UNL     1      17.972  24.612  13.480  1.00  0.00     0.290 C 
HETATM   32  O5  UNL     1      19.020  24.246  12.913  1.00  0.00    -0.264 OA
HETATM   33  N2  UNL     1      17.859  25.999  13.762  1.00  0.00    -0.348 N 
ATOM     34  H2  UNL     1      17.015  26.336  14.225  1.00  0.00     0.163 HD
BRANCH  33  35
HETATM   35  C17 UNL     1      18.884  26.947  13.424  1.00  0.00     0.192 C 
BRANCH  35  36
HETATM   36  C18 UNL     1      18.579  28.287  13.952  1.00  0.00     0.250 C 
HETATM   37  O6  UNL     1      18.169  28.429  15.092  1.00  0.00    -0.305 OA
ENDBRANCH  35  36
ENDBRANCH  33  35
ENDBRANCH  29  31
ENDBRANCH  23  29
ENDBRANCH  21  23
ENDBRANCH  17  19
ENDBRANCH   8  17
ENDBRANCH   3   5
BRANCH   3  38
HETATM   38  N5  UNL     1       8.301  16.417  16.554  1.00  0.00    -0.297 N 
HETATM   39  C23 UNL     1       9.116  15.902  17.628  1.00  0.00     0.167 C 
BRANCH  38  40
HETATM   40  C24 UNL     1       7.321  15.620  15.989  1.00  0.00     0.054 A 
HETATM   41  C25 UNL     1       7.505  14.855  14.869  1.00  0.00    -0.034 A 
HETATM   42  C26 UNL     1       8.826  14.799  14.211  1.00  0.00     0.050 C 
HETATM   43  C27 UNL     1       6.452  14.077  14.328  1.00  0.00     0.009 A 
HETATM   44  C28 UNL     1       5.212  14.069  14.918  1.00  0.00     0.001 A 
HETATM   45  C29 UNL     1       5.001  14.829  16.046  1.00  0.00     0.009 A 
HETATM   46  C30 UNL     1       6.048  15.597  16.575  1.00  0.00    -0.034 A 
HETATM   47  C31 UNL     1       5.740  16.359  17.786  1.00  0.00     0.050 C 
ENDBRANCH  38  40
ENDBRANCH   3  38
TORSDOF 12
ENDMDL
MODEL 4
REMARK VINA RESULT: -9.045771642      1.229      1.647
REMARK  12 active torsions:
REMARK  status: ('A' for Active; 'I' for Inactive)
REMARK    1  A    between atoms: S1_3  and  C3_5 
REMARK    2  A    between atoms: S1_3  and  N5_38 
REMARK    3  A    between atoms: C6_8  and  C7_9 
REMARK    4  A    between atoms: C7_9  and  C8_11 
REMARK       I    between atoms: C8_11  and  N1_13 
REMARK    5  A    between atoms: N1_13  and  C9_15 
REMARK    6  A    between atoms: C9_15  and  C11_17 
REMARK    7  A    between atoms: C9_15  and  C15_21 
REMARK    8  A    between atoms: C11_17  and  C12_18 
REMARK    9  A    between atoms: C15_21  and  C16_23 
REMARK       I    between atoms: C16_23  and  N2_25 
REMARK   10  A    between atoms: N2_25  and  C17_27 
REMARK   11  A    between atoms: C17_27  and  C18_28 
REMARK   12  A    between atoms: N5_38  and  C24_40 
ROOT
HETATM    1  C1  UNL     1      10.300  18.976  15.496  1.00  0.00     0.028 C 
HETATM    2  C2  UNL     1      11.042  19.250  16.425  1.00  0.00    -0.000 C 
HETATM    3  S1  UNL     1      12.239  19.671  18.070  1.00  0.00     0.129 S 
HETATM    4  O1  UNL     1      13.135  18.189  17.635  1.00  0.00    -0.231 OA
ENDROOT
BRANCH   3   5
HETATM    5  C3  UNL     1      10.783  19.649  19.318  1.00  0.00     0.058 A 
HETATM    6  C4  UNL     1       9.809  18.634  19.261  1.00  0.00     0.039 A 
HETATM    7  C5  UNL     1       8.747  18.509  20.111  1.00  0.00     0.026 A 
HETATM    8  C6  UNL     1       7.698  17.587  20.207  1.00  0.00     0.116 A 
HETATM    9  C19 UNL     1       8.586  19.418  21.101  1.00  0.00     0.061 A 
HETATM   10  N3  UNL     1       6.941  17.969  21.248  1.00  0.00    -0.295 N 
HETATM   11  N4  UNL     1       7.479  19.071  21.783  1.00  0.00    -0.299 N 
ATOM     12  H3  UNL     1       6.098  17.497  21.576  1.00  0.00     0.187 HD
ATOM     13  H4  UNL     1       7.106  19.575  22.589  1.00  0.00     0.187 HD
HETATM   14  C20 UNL     1       9.480  20.433  21.230  1.00  0.00     0.040 A 
HETATM   15  C21 UNL     1      10.543  20.531  20.356  1.00  0.00    -0.039 A 
HETATM   16  C22 UNL     1      11.489  21.648  20.600  1.00  0.00     0.050 C 
BRANCH   8  17
HETATM   17  C7  UNL     1       7.532  16.471  19.316  1.00  0.00     0.267 C 
HETATM   18  O2  UNL     1       8.126  15.352  19.495  1.00  0.00    -0.280 OA
BRANCH  17  19
HETATM   19  C8  UNL     1       6.675  16.474  18.112  1.00  0.00     0.295 C 
HETATM   20  O3  UNL     1       7.216  16.855  17.079  1.00  0.00    -0.264 OA
HETATM   21  N1  UNL     1       5.343  16.065  18.171  1.00  0.00    -0.338 N 
ATOM     22  H1  UNL     1       5.038  15.786  19.103  1.00  0.00     0.164 HD
BRANCH  21  23
HETATM   23  C9  UNL     1       4.325  15.961  17.180  1.00  0.00     0.100 C 
HETATM   24  C10 UNL     1       3.305  14.908  17.738  1.00  0.00     0.047 C 
BRANCH  23  25
HETATM   25  C11 UNL     1       4.692  15.420  15.863  1.00  0.00     0.043 C 
BRANCH  25  26
HETATM   26  C12 UNL     1       5.361  14.145  15.647  1.00  0.00    -0.020 C 
HETATM   27  C13 UNL     1       6.617  14.153  14.818  1.00  0.00     0.009 C 
HETATM   28  C14 UNL     1       4.375  13.274  14.823  1.00  0.00     0.009 C 
ENDBRANCH  25  26
ENDBRANCH  23  25
BRANCH  23  29
HETATM   29  C15 UNL     1       3.506  17.201  17.084  1.00  0.00     0.244 C 
HETATM   30  O4  UNL     1       3.102  17.482  15.904  1.00  0.00    -0.284 OA
BRANCH  29  31
HETATM   31  C16 UNL     1       3.132  18.089  18.129  1.00  0.00     0.290 C 
HETATM   32  O5  UNL     1       2.066  17.977  18.762  1.00  0.00    -0.264 OA
HETATM   33  N2  UNL     1       3.979  19.165  18.504  1.00  0.00    -0.348 N 
ATOM     34  H2  UNL     1       4.862  19.288  18.008  1.00  0.00     0.163 HD
BRANCH  33  35
HETATM   35  C17 UNL     1       3.645  20.087  19.553  1.00  0.00     0.192 C 
BRANCH  35  36
HETATM   36  C18 UNL     1       3.184  21.378  19.014  1.00  0.00     0.250 C 
HETATM   37  O6  UNL     1       3.978  22.176  18.546  1.00  0.00    -0.305 OA
ENDBRANCH  35  36
ENDBRANCH  33  35
ENDBRANCH  29  31
ENDBRANCH  23  29
ENDBRANCH  21  23
ENDBRANCH  17  19
ENDBRANCH   8  17
ENDBRANCH   3   5
BRANCH   3  38
HETATM   38  N5  UNL     1      12.618  21.357  17.173  1.00  0.00    -0.297 N 
HETATM   39  C23 UNL     1      11.488  22.251  17.093  1.00  0.00     0.167 C 
BRANCH  38  40
HETATM   40  C24 UNL     1      13.843  21.747  16.662  1.00  0.00     0.054 A 
HETATM   41  C25 UNL     1      14.238  21.536  15.368  1.00  0.00    -0.034 A 
HETATM   42  C26 UNL     1      13.320  20.901  14.402  1.00  0.00     0.050 C 
HETATM   43  C27 UNL     1      15.516  21.942  14.913  1.00  0.00     0.009 A 
HETATM   44  C28 UNL     1      16.398  22.563  15.763  1.00  0.00     0.001 A 
HETATM   45  C29 UNL     1      16.025  22.789  17.069  1.00  0.00     0.009 A 
HETATM   46  C30 UNL     1      14.758  22.383  17.511  1.00  0.00    -0.034 A 
HETATM   47  C31 UNL     1      14.439  22.680  18.908  1.00  0.00     0.050 C 
ENDBRANCH  38  40
ENDBRANCH   3  38
TORSDOF 12
ENDMDL
MODEL 5
REMARK VINA RESULT: -8.980569591      4.678     12.083
REMARK  12 active torsions:
REMARK  status: ('A' for Active; 'I' for Inactive)
REMARK    1  A    between atoms: S1_3  and  C3_5 
REMARK    2  A    between atoms: S1_3  and  N5_38 
REMARK    3  A    between atoms: C6_8  and  C7_9 
REMARK    4  A    between atoms: C7_9  and  C8_11 
REMARK       I    between atoms: C8_11  and  N1_13 
REMARK    5  A    between atoms: N1_13  and  C9_15 
REMARK    6  A    between atoms: C9_15  and  C11_17 
REMARK    7  A    between atoms: C9_15  and  C15_21 
REMARK    8  A    between atoms: C11_17  and  C12_18 
REMARK    9  A    between atoms: C15_21  and  C16_23 
REMARK       I    between atoms: C16_23  and  N2_25 
REMARK   10  A    between atoms: N2_25  and  C17_27 
REMARK   11  A    between atoms: C17_27  and  C18_28 
REMARK   12  A    between atoms: N5_38  and  C24_40 
ROOT
HETATM    1  C1  UNL     1      14.641  22.161  19.429  1.00  0.00     0.028 C 
HETATM    2  C2  UNL     1      14.203  21.325  18.656  1.00  0.00    -0.000 C 
HETATM    3  S1  UNL     1      13.531  19.928  17.271  1.00  0.00     0.129 S 
HETATM    4  O1  UNL     1      14.497  18.742  18.193  1.00  0.00    -0.231 OA
ENDROOT
BRANCH   3   5
HETATM    5  C3  UNL     1      14.246  20.868  15.760  1.00  0.00     0.058 A 
HETATM    6  C4  UNL     1      15.524  21.457  15.824  1.00  0.00     0.039 A 
HETATM    7  C5  UNL     1      16.137  22.126  14.804  1.00  0.00     0.026 A 
HETATM    8  C6  UNL     1      17.376  22.767  14.685  1.00  0.00     0.116 A 
HETATM    9  C19 UNL     1      15.495  22.253  13.619  1.00  0.00     0.061 A 
HETATM   10  N3  UNL     1      17.441  23.257  13.437  1.00  0.00    -0.295 N 
HETATM   11  N4  UNL     1      16.305  22.946  12.799  1.00  0.00    -0.299 N 
ATOM     12  H3  UNL     1      18.222  23.779  13.041  1.00  0.00     0.187 HD
ATOM     13  H4  UNL     1      16.087  23.196  11.834  1.00  0.00     0.187 HD
HETATM   14  C20 UNL     1      14.257  21.714  13.469  1.00  0.00     0.040 A 
HETATM   15  C21 UNL     1      13.663  21.044  14.518  1.00  0.00    -0.039 A 
HETATM   16  C22 UNL     1      12.329  20.454  14.247  1.00  0.00     0.050 C 
BRANCH   8  17
HETATM   17  C7  UNL     1      18.341  22.843  15.748  1.00  0.00     0.267 C 
HETATM   18  O2  UNL     1      19.253  21.962  15.916  1.00  0.00    -0.280 OA
BRANCH  17  19
HETATM   19  C8  UNL     1      18.400  23.922  16.756  1.00  0.00     0.295 C 
HETATM   20  O3  UNL     1      18.677  23.564  17.897  1.00  0.00    -0.264 OA
HETATM   21  N1  UNL     1      18.156  25.251  16.411  1.00  0.00    -0.338 N 
ATOM     22  H1  UNL     1      17.930  25.385  15.425  1.00  0.00     0.164 HD
BRANCH  21  23
HETATM   23  C9  UNL     1      18.161  26.457  17.167  1.00  0.00     0.100 C 
HETATM   24  C10 UNL     1      19.403  26.349  18.118  1.00  0.00     0.047 C 
BRANCH  23  25
HETATM   25  C11 UNL     1      17.042  26.702  18.090  1.00  0.00     0.043 C 
BRANCH  25  26
HETATM   26  C12 UNL     1      16.145  25.673  18.597  1.00  0.00    -0.020 C 
HETATM   27  C13 UNL     1      14.666  25.924  18.480  1.00  0.00     0.009 C 
HETATM   28  C14 UNL     1      16.392  25.601  20.128  1.00  0.00     0.009 C 
ENDBRANCH  25  26
ENDBRANCH  23  25
BRANCH  23  29
HETATM   29  C15 UNL     1      18.484  27.645  16.328  1.00  0.00     0.244 C 
HETATM   30  O4  UNL     1      18.428  28.763  16.946  1.00  0.00    -0.284 OA
BRANCH  29  31
HETATM   31  C16 UNL     1      18.838  27.677  14.953  1.00  0.00     0.290 C 
HETATM   32  O5  UNL     1      20.017  27.745  14.559  1.00  0.00    -0.264 OA
HETATM   33  N2  UNL     1      17.838  27.632  13.946  1.00  0.00    -0.348 N 
ATOM     34  H2  UNL     1      16.860  27.576  14.230  1.00  0.00     0.163 HD
BRANCH  33  35
HETATM   35  C17 UNL     1      18.146  27.662  12.543  1.00  0.00     0.192 C 
BRANCH  35  36
HETATM   36  C18 UNL     1      17.122  26.964  11.748  1.00  0.00     0.250 C 
HETATM   37  O6  UNL     1      16.636  25.917  12.139  1.00  0.00    -0.305 OA
ENDBRANCH  35  36
ENDBRANCH  33  35
ENDBRANCH  29  31
ENDBRANCH  23  29
ENDBRANCH  21  23
ENDBRANCH  17  19
ENDBRANCH   8  17
ENDBRANCH   3   5
BRANCH   3  38
HETATM   38  N5  UNL     1      11.744  20.424  17.864  1.00  0.00    -0.297 N 
HETATM   39  C23 UNL     1      11.349  21.762  17.494  1.00  0.00     0.167 C 
BRANCH  38  40
HETATM   40  C24 UNL     1      10.862  19.611  18.552  1.00  0.00     0.054 A 
HETATM   41  C25 UNL     1      10.713  19.617  19.913  1.00  0.00    -0.034 A 
HETATM   42  C26 UNL     1      11.481  20.567  20.743  1.00  0.00     0.050 C 
HETATM   43  C27 UNL     1       9.806  18.742  20.559  1.00  0.00     0.009 A 
HETATM   44  C28 UNL     1       9.046  17.859  19.832  1.00  0.00     0.001 A 
HETATM   45  C29 UNL     1       9.175  17.834  18.461  1.00  0.00     0.009 A 
HETATM   46  C30 UNL     1      10.076  18.702  17.830  1.00  0.00    -0.034 A 
HETATM   47  C31 UNL     1      10.134  18.620  16.370  1.00  0.00     0.050 C 
ENDBRANCH  38  40
ENDBRANCH   3  38
TORSDOF 12
ENDMDL
