MODEL 1
REMARK VINA RESULT: -8.394028590      0.000      0.000
REMARK  2 active torsions:
REMARK  status: ('A' for Active; 'I' for Inactive)
REMARK    1  A    between atoms: N1_1  and  C1_4 
REMARK    2  A    between atoms: C1_4  and  C2_5 
ROOT
HETATM    1  C2  UNL     1      11.279   3.925  13.187  1.00  0.00     0.087 C 
HETATM    2  C3  UNL     1      10.289   2.885  13.540  1.00  0.00     0.004 C 
HETATM    3  C4  UNL     1       9.721   3.259  14.910  1.00  0.00     0.016 C 
HETATM    4  C5  UNL     1      10.846   3.384  15.918  1.00  0.00     0.055 C 
HETATM    5  C6  UNL     1      11.747   4.503  15.488  1.00  0.00     0.021 C 
HETATM    6  C7  UNL     1      12.389   4.170  14.125  1.00  0.00    -0.020 C 
HETATM    7  C8  UNL     1      13.271   5.285  13.698  1.00  0.00     0.011 C 
HETATM    8  C9  UNL     1      14.209   4.862  12.617  1.00  0.00     0.001 C 
HETATM    9  C10 UNL     1      15.094   3.750  13.184  1.00  0.00     0.000 C 
HETATM   10  C11 UNL     1      14.169   2.558  13.348  1.00  0.00     0.006 C 
HETATM   11  C12 UNL     1      13.135   2.876  14.375  1.00  0.00     0.005 C 
HETATM   12  C13 UNL     1      12.190   1.762  14.657  1.00  0.00     0.059 C 
HETATM   13  C14 UNL     1      11.091   1.583  13.657  1.00  0.00     0.016 C 
HETATM   14  C15 UNL     1      11.515   2.044  16.006  1.00  0.00     0.237 C 
HETATM   15  O1  UNL     1      10.516   1.096  16.240  1.00  0.00    -0.194 OA
HETATM   16  O2  UNL     1      10.441   0.875  17.553  1.00  0.00    -0.195 OA
HETATM   17  C16 UNL     1      11.550   0.058  17.846  1.00  0.00     0.230 C 
HETATM   18  C17 UNL     1      11.273  -1.263  17.115  1.00  0.00     0.081 C 
HETATM   19  C18 UNL     1       9.813  -1.594  17.339  1.00  0.00     0.083 C 
HETATM   20  C19 UNL     1       9.547  -1.413  18.797  1.00  0.00     0.127 C 
HETATM   21  O3  UNL     1       8.411  -1.302  19.222  1.00  0.00    -0.298 OA
HETATM   22  C20 UNL     1      10.720  -1.375  19.701  1.00  0.00     0.083 C 
HETATM   23  C21 UNL     1      11.646  -0.232  19.319  1.00  0.00     0.081 C 
HETATM   24  O4  UNL     1      12.662   0.692  17.333  1.00  0.00    -0.195 OA
HETATM   25  O5  UNL     1      12.445   1.949  17.009  1.00  0.00    -0.194 OA
ENDROOT
BRANCH   1  26
HETATM   26  C1  UNL     1      11.133   4.585  12.082  1.00  0.00    -0.072 C 
BRANCH  26  27
HETATM   27  N1  UNL     1      10.734   5.345  11.111  1.00  0.00    -0.369 N 
ATOM     28  H12 UNL     1      10.567   6.126  11.744  1.00  0.00     0.165 HD
ATOM     29  H11 UNL     1      10.464   5.748  10.214  1.00  0.00     0.165 HD
ENDBRANCH  26  27
ENDBRANCH   1  26
TORSDOF 2
ENDMDL
MODEL 2
REMARK VINA RESULT: -7.726306003      0.914      1.023
REMARK  2 active torsions:
REMARK  status: ('A' for Active; 'I' for Inactive)
REMARK    1  A    between atoms: N1_1  and  C1_4 
REMARK    2  A    between atoms: C1_4  and  C2_5 
ROOT
HETATM    1  C2  UNL     1      11.594   3.746  13.448  1.00  0.00     0.087 C 
HETATM    2  C3  UNL     1      10.756   2.641  13.960  1.00  0.00     0.004 C 
HETATM    3  C4  UNL     1      10.056   3.159  15.218  1.00  0.00     0.016 C 
HETATM    4  C5  UNL     1      11.085   3.644  16.218  1.00  0.00     0.055 C 
HETATM    5  C6  UNL     1      11.828   4.798  15.614  1.00  0.00     0.021 C 
HETATM    6  C7  UNL     1      12.595   4.333  14.358  1.00  0.00    -0.020 C 
HETATM    7  C8  UNL     1      13.320   5.480  13.757  1.00  0.00     0.011 C 
HETATM    8  C9  UNL     1      14.374   5.027  12.803  1.00  0.00     0.001 C 
HETATM    9  C10 UNL     1      15.384   4.194  13.596  1.00  0.00     0.000 C 
HETATM   10  C11 UNL     1      14.644   2.917  13.953  1.00  0.00     0.006 C 
HETATM   11  C12 UNL     1      13.514   3.244  14.870  1.00  0.00     0.005 C 
HETATM   12  C13 UNL     1      12.736   2.061  15.326  1.00  0.00     0.059 C 
HETATM   13  C14 UNL     1      11.740   1.528  14.344  1.00  0.00     0.016 C 
HETATM   14  C15 UNL     1      11.946   2.469  16.577  1.00  0.00     0.237 C 
HETATM   15  O1  UNL     1      11.091   1.429  16.954  1.00  0.00    -0.194 OA
HETATM   16  O2  UNL     1      10.973   1.439  18.282  1.00  0.00    -0.195 OA
HETATM   17  C16 UNL     1      12.174   0.880  18.757  1.00  0.00     0.230 C 
HETATM   18  C17 UNL     1      12.148  -0.579  18.280  1.00  0.00     0.081 C 
HETATM   19  C18 UNL     1      10.745  -1.096  18.516  1.00  0.00     0.083 C 
HETATM   20  C19 UNL     1      10.367  -0.701  19.905  1.00  0.00     0.127 C 
HETATM   21  O3  UNL     1       9.204  -0.700  20.267  1.00  0.00    -0.298 OA
HETATM   22  C20 UNL     1      11.463  -0.310  20.822  1.00  0.00     0.083 C 
HETATM   23  C21 UNL     1      12.224   0.880  20.261  1.00  0.00     0.081 C 
HETATM   24  O4  UNL     1      13.205   1.582  18.168  1.00  0.00    -0.195 OA
HETATM   25  O5  UNL     1      12.817   2.708  17.608  1.00  0.00    -0.194 OA
ENDROOT
BRANCH   1  26
HETATM   26  C1  UNL     1      11.416   4.164  12.236  1.00  0.00    -0.072 C 
BRANCH  26  27
HETATM   27  N1  UNL     1      10.948   4.607  11.111  1.00  0.00    -0.369 N 
ATOM     28  H12 UNL     1      10.027   4.767  11.518  1.00  0.00     0.165 HD
ATOM     29  H11 UNL     1      10.802   4.911  10.148  1.00  0.00     0.165 HD
ENDBRANCH  26  27
ENDBRANCH   1  26
TORSDOF 2
ENDMDL
MODEL 3
REMARK VINA RESULT: -7.534600629      3.150      4.881
REMARK  2 active torsions:
REMARK  status: ('A' for Active; 'I' for Inactive)
REMARK    1  A    between atoms: N1_1  and  C1_4 
REMARK    2  A    between atoms: C1_4  and  C2_5 
ROOT
HETATM    1  C2  UNL     1      13.189   3.041  17.782  1.00  0.00     0.087 C 
HETATM    2  C3  UNL     1      11.730   3.250  17.673  1.00  0.00     0.004 C 
HETATM    3  C4  UNL     1      11.076   1.870  17.752  1.00  0.00     0.016 C 
HETATM    4  C5  UNL     1      11.636   0.971  16.669  1.00  0.00     0.055 C 
HETATM    5  C6  UNL     1      13.102   0.784  16.918  1.00  0.00     0.021 C 
HETATM    6  C7  UNL     1      13.833   2.139  16.810  1.00  0.00    -0.020 C 
HETATM    7  C8  UNL     1      15.283   1.951  17.068  1.00  0.00     0.011 C 
HETATM    8  C9  UNL     1      16.082   3.118  16.594  1.00  0.00     0.001 C 
HETATM    9  C10 UNL     1      15.882   3.229  15.081  1.00  0.00     0.000 C 
HETATM   10  C11 UNL     1      14.443   3.680  14.907  1.00  0.00     0.006 C 
HETATM   11  C12 UNL     1      13.530   2.610  15.404  1.00  0.00     0.005 C 
HETATM   12  C13 UNL     1      12.083   2.920  15.246  1.00  0.00     0.059 C 
HETATM   13  C14 UNL     1      11.507   3.842  16.276  1.00  0.00     0.016 C 
HETATM   14  C15 UNL     1      11.304   1.603  15.349  1.00  0.00     0.237 C 
HETATM   15  O1  UNL     1       9.931   1.867  15.350  1.00  0.00    -0.194 OA
HETATM   16  O2  UNL     1       9.305   0.855  14.748  1.00  0.00    -0.195 OA
HETATM   17  C16 UNL     1       9.536   1.053  13.373  1.00  0.00     0.230 C 
HETATM   18  C17 UNL     1       8.796   2.354  13.031  1.00  0.00     0.081 C 
HETATM   19  C18 UNL     1       7.455   2.297  13.730  1.00  0.00     0.083 C 
HETATM   20  C19 UNL     1       6.878   0.949  13.451  1.00  0.00     0.127 C 
HETATM   21  O3  UNL     1       5.969   0.499  14.125  1.00  0.00    -0.298 OA
HETATM   22  C20 UNL     1       7.457   0.184  12.322  1.00  0.00     0.083 C 
HETATM   23  C21 UNL     1       8.941  -0.056  12.550  1.00  0.00     0.081 C 
HETATM   24  O4  UNL     1      10.898   1.194  13.211  1.00  0.00    -0.195 OA
HETATM   25  O5  UNL     1      11.592   0.817  14.264  1.00  0.00    -0.194 OA
ENDROOT
BRANCH   1  26
HETATM   26  C1  UNL     1      13.844   3.642  18.724  1.00  0.00    -0.072 C 
BRANCH  26  27
HETATM   27  N1  UNL     1      14.296   4.107  19.846  1.00  0.00    -0.369 N 
ATOM     28  H12 UNL     1      14.530   5.004  19.421  1.00  0.00     0.165 HD
ATOM     29  H11 UNL     1      14.591   4.256  20.811  1.00  0.00     0.165 HD
ENDBRANCH  26  27
ENDBRANCH   1  26
TORSDOF 2
ENDMDL
MODEL 4
REMARK VINA RESULT: -7.441118490      3.677      7.395
REMARK  2 active torsions:
REMARK  status: ('A' for Active; 'I' for Inactive)
REMARK    1  A    between atoms: N1_1  and  C1_4 
REMARK    2  A    between atoms: C1_4  and  C2_5 
ROOT
HETATM    1  C2  UNL     1      11.520   4.003  14.154  1.00  0.00     0.087 C 
HETATM    2  C3  UNL     1      12.226   5.033  13.363  1.00  0.00     0.004 C 
HETATM    3  C4  UNL     1      13.043   4.296  12.301  1.00  0.00     0.016 C 
HETATM    4  C5  UNL     1      13.976   3.304  12.964  1.00  0.00     0.055 C 
HETATM    5  C6  UNL     1      13.149   2.279  13.681  1.00  0.00     0.021 C 
HETATM    6  C7  UNL     1      12.328   2.953  14.800  1.00  0.00    -0.020 C 
HETATM    7  C8  UNL     1      11.503   1.937  15.501  1.00  0.00     0.011 C 
HETATM    8  C9  UNL     1      11.009   2.439  16.815  1.00  0.00     0.001 C 
HETATM    9  C10 UNL     1      12.233   2.734  17.685  1.00  0.00     0.000 C 
HETATM   10  C11 UNL     1      12.881   3.952  17.051  1.00  0.00     0.006 C 
HETATM   11  C12 UNL     1      13.373   3.593  15.690  1.00  0.00     0.005 C 
HETATM   12  C13 UNL     1      14.070   4.700  14.980  1.00  0.00     0.059 C 
HETATM   13  C14 UNL     1      13.176   5.723  14.350  1.00  0.00     0.016 C 
HETATM   14  C15 UNL     1      14.902   4.086  13.848  1.00  0.00     0.237 C 
HETATM   15  O1  UNL     1      15.459   5.103  13.067  1.00  0.00    -0.194 OA
HETATM   16  O2  UNL     1      16.640   4.687  12.609  1.00  0.00    -0.195 OA
HETATM   17  C16 UNL     1      17.513   4.791  13.709  1.00  0.00     0.230 C 
HETATM   18  C17 UNL     1      17.608   6.296  13.996  1.00  0.00     0.081 C 
HETATM   19  C18 UNL     1      17.738   6.995  12.660  1.00  0.00     0.083 C 
HETATM   20  C19 UNL     1      18.782   6.259  11.887  1.00  0.00     0.127 C 
HETATM   21  O3  UNL     1      18.883   6.389  10.681  1.00  0.00    -0.298 OA
HETATM   22  C20 UNL     1      19.687   5.368  12.648  1.00  0.00     0.083 C 
HETATM   23  C21 UNL     1      18.890   4.292  13.367  1.00  0.00     0.081 C 
HETATM   24  O4  UNL     1      16.922   4.116  14.756  1.00  0.00    -0.195 OA
HETATM   25  O5  UNL     1      15.923   3.345  14.384  1.00  0.00    -0.194 OA
ENDROOT
BRANCH   1  26
HETATM   26  C1  UNL     1      10.229   4.051  14.243  1.00  0.00    -0.072 C 
BRANCH  26  27
HETATM   27  N1  UNL     1       8.958   4.223  14.056  1.00  0.00    -0.369 N 
ATOM     28  H12 UNL     1       9.015   3.863  13.103  1.00  0.00     0.165 HD
ATOM     29  H11 UNL     1       7.965   4.440  14.133  1.00  0.00     0.165 HD
ENDBRANCH  26  27
ENDBRANCH   1  26
TORSDOF 2
ENDMDL
MODEL 5
REMARK VINA RESULT: -7.050929947      3.124      7.111
REMARK  2 active torsions:
REMARK  status: ('A' for Active; 'I' for Inactive)
REMARK    1  A    between atoms: N1_1  and  C1_4 
REMARK    2  A    between atoms: C1_4  and  C2_5 
ROOT
HETATM    1  C2  UNL     1      12.780   0.304  19.755  1.00  0.00     0.087 C 
HETATM    2  C3  UNL     1      13.847   0.679  18.802  1.00  0.00     0.004 C 
HETATM    3  C4  UNL     1      13.892   2.207  18.763  1.00  0.00     0.016 C 
HETATM    4  C5  UNL     1      12.530   2.753  18.384  1.00  0.00     0.055 C 
HETATM    5  C6  UNL     1      11.549   2.363  19.448  1.00  0.00     0.021 C 
HETATM    6  C7  UNL     1      11.423   0.826  19.512  1.00  0.00    -0.020 C 
HETATM    7  C8  UNL     1      10.458   0.444  20.574  1.00  0.00     0.011 C 
HETATM    8  C9  UNL     1      10.000  -0.967  20.419  1.00  0.00     0.001 C 
HETATM    9  C10 UNL     1       9.284  -1.073  19.071  1.00  0.00     0.000 C 
HETATM   10  C11 UNL     1      10.382  -0.933  18.032  1.00  0.00     0.006 C 
HETATM   11  C12 UNL     1      10.970   0.435  18.121  1.00  0.00     0.005 C 
HETATM   12  C13 UNL     1      12.034   0.710  17.118  1.00  0.00     0.059 C 
HETATM   13  C14 UNL     1      13.383   0.146  17.441  1.00  0.00     0.016 C 
HETATM   14  C15 UNL     1      12.206   2.230  17.015  1.00  0.00     0.237 C 
HETATM   15  O1  UNL     1      13.295   2.527  16.190  1.00  0.00    -0.194 OA
HETATM   16  O2  UNL     1      13.042   3.668  15.549  1.00  0.00    -0.195 OA
HETATM   17  C16 UNL     1      12.125   3.320  14.538  1.00  0.00     0.230 C 
HETATM   18  C17 UNL     1      12.909   2.398  13.594  1.00  0.00     0.081 C 
HETATM   19  C18 UNL     1      14.279   3.015  13.410  1.00  0.00     0.083 C 
HETATM   20  C19 UNL     1      14.065   4.464  13.120  1.00  0.00     0.127 C 
HETATM   21  O3  UNL     1      14.971   5.270  13.235  1.00  0.00    -0.298 OA
HETATM   22  C20 UNL     1      12.710   4.877  12.689  1.00  0.00     0.083 C 
HETATM   23  C21 UNL     1      11.685   4.527  13.756  1.00  0.00     0.081 C 
HETATM   24  O4  UNL     1      11.088   2.648  15.150  1.00  0.00    -0.195 OA
HETATM   25  O5  UNL     1      11.080   2.779  16.459  1.00  0.00    -0.194 OA
ENDROOT
BRANCH   1  26
HETATM   26  C1  UNL     1      13.072  -0.453  20.763  1.00  0.00    -0.072 C 
BRANCH  26  27
HETATM   27  N1  UNL     1      13.603  -1.287  21.601  1.00  0.00    -0.369 N 
ATOM     28  H12 UNL     1      12.707  -1.452  22.059  1.00  0.00     0.165 HD
ATOM     29  H11 UNL     1      14.222  -1.893  22.141  1.00  0.00     0.165 HD
ENDBRANCH  26  27
ENDBRANCH   1  26
TORSDOF 2
ENDMDL
