MODEL 1
REMARK VINA RESULT: -7.316659055      0.000      0.000
REMARK  1 active torsions:
REMARK  status: ('A' for Active; 'I' for Inactive)
REMARK    1  A    between atoms: N1_9  and  C9_10 
ROOT
HETATM    1  C1  UNL     1      15.712   5.005  12.625  1.00  0.00     0.000 C 
HETATM    2  C2  UNL     1      14.464   4.888  13.467  1.00  0.00     0.000 C 
HETATM    3  C3  UNL     1      13.307   4.502  12.534  1.00  0.00     0.000 C 
HETATM    4  C4  UNL     1      11.999   4.909  13.155  1.00  0.00     0.000 C 
HETATM    5  C5  UNL     1      10.868   3.971  12.810  1.00  0.00     0.000 C 
HETATM    6  C6  UNL     1      11.021   2.652  13.522  1.00  0.00     0.002 C 
HETATM    7  C7  UNL     1      11.169   2.956  15.020  1.00  0.00     0.020 C 
HETATM    8  C8  UNL     1      10.699   1.752  15.751  1.00  0.00     0.125 C 
HETATM    9  N1  UNL     1      11.427   1.430  16.932  1.00  0.00    -0.360 N 
HETATM   10  C12 UNL     1      12.635   2.032  17.391  1.00  0.00     0.135 C 
HETATM   11  C13 UNL     1      13.876   1.310  16.869  1.00  0.00     0.093 C 
HETATM   12  S2  UNL     1      15.309   2.047  17.707  1.00  0.00    -0.167 SA
HETATM   13  C14 UNL     1      16.841   1.209  17.234  1.00  0.00     0.074 C 
HETATM   14  C15 UNL     1      17.898   2.255  16.951  1.00  0.00     0.010 C 
HETATM   15  C16 UNL     1      18.446   2.127  15.548  1.00  0.00     0.001 C 
HETATM   16  C17 UNL     1      18.418   3.457  14.807  1.00  0.00     0.000 C 
HETATM   17  C18 UNL     1      17.255   3.449  13.821  1.00  0.00     0.000 C 
HETATM   18  C19 UNL     1      16.972   4.874  13.451  1.00  0.00     0.000 C 
ENDROOT
BRANCH   9  19
HETATM   19  C9  UNL     1      10.866   0.373  17.744  1.00  0.00     0.154 C 
HETATM   20  N2  UNL     1      10.692   0.513  19.001  1.00  0.00    -0.369 N 
HETATM   21  C10 UNL     1      10.159  -0.418  19.930  1.00  0.00     0.138 C 
ATOM     22  H2  UNL     1      10.973   1.414  19.389  1.00  0.00     0.161 HD
HETATM   23  C11 UNL     1       9.341  -1.529  19.331  1.00  0.00     0.142 C 
HETATM   24  N3  UNL     1      10.141  -2.296  18.359  1.00  0.00    -0.170 NA
HETATM   25  S1  UNL     1      10.390  -1.181  17.013  1.00  0.00     0.011 SA
ENDBRANCH   9  19
TORSDOF 1
ENDMDL
MODEL 2
REMARK VINA RESULT: -7.203167589      2.209      3.266
REMARK  1 active torsions:
REMARK  status: ('A' for Active; 'I' for Inactive)
REMARK    1  A    between atoms: N1_9  and  C9_10 
ROOT
HETATM    1  C1  UNL     1      11.733   5.059  12.037  1.00  0.00     0.000 C 
HETATM    2  C2  UNL     1      10.758   4.274  12.882  1.00  0.00     0.000 C 
HETATM    3  C3  UNL     1       9.887   3.437  11.934  1.00  0.00     0.000 C 
HETATM    4  C4  UNL     1       8.589   3.092  12.610  1.00  0.00     0.000 C 
HETATM    5  C5  UNL     1       8.049   1.746  12.194  1.00  0.00     0.000 C 
HETATM    6  C6  UNL     1       8.875   0.627  12.774  1.00  0.00     0.002 C 
HETATM    7  C7  UNL     1       8.943   0.850  14.292  1.00  0.00     0.020 C 
HETATM    8  C8  UNL     1       9.173  -0.479  14.912  1.00  0.00     0.125 C 
HETATM    9  N1  UNL     1      10.034  -0.486  16.046  1.00  0.00    -0.360 N 
HETATM   10  C12 UNL     1      10.813   0.600  16.543  1.00  0.00     0.135 C 
HETATM   11  C13 UNL     1      12.215   0.631  15.936  1.00  0.00     0.093 C 
HETATM   12  S2  UNL     1      13.146   1.917  16.819  1.00  0.00    -0.167 SA
HETATM   13  C14 UNL     1      14.861   1.988  16.247  1.00  0.00     0.074 C 
HETATM   14  C15 UNL     1      15.245   3.438  16.049  1.00  0.00     0.010 C 
HETATM   15  C16 UNL     1      15.700   3.706  14.632  1.00  0.00     0.001 C 
HETATM   16  C17 UNL     1      14.976   4.898  14.022  1.00  0.00     0.000 C 
HETATM   17  C18 UNL     1      13.910   4.388  13.056  1.00  0.00     0.000 C 
HETATM   18  C19 UNL     1      12.940   5.508  12.828  1.00  0.00     0.000 C 
ENDROOT
BRANCH   9  19
HETATM   19  C9  UNL     1      10.117  -1.739  16.762  1.00  0.00     0.154 C 
HETATM   20  N2  UNL     1      10.460  -2.822  16.179  1.00  0.00    -0.369 N 
HETATM   21  C10 UNL     1      10.590  -4.123  16.732  1.00  0.00     0.138 C 
ATOM     22  H2  UNL     1      10.670  -2.742  15.183  1.00  0.00     0.161 HD
HETATM   23  C11 UNL     1      10.734  -4.174  18.228  1.00  0.00     0.142 C 
HETATM   24  N3  UNL     1       9.578  -3.538  18.884  1.00  0.00    -0.170 NA
HETATM   25  S1  UNL     1       9.743  -1.822  18.502  1.00  0.00     0.011 SA
ENDBRANCH   9  19
TORSDOF 1
ENDMDL
MODEL 3
REMARK VINA RESULT: -7.082609662      1.941      4.876
REMARK  1 active torsions:
REMARK  status: ('A' for Active; 'I' for Inactive)
REMARK    1  A    between atoms: N1_9  and  C9_10 
ROOT
HETATM    1  C1  UNL     1      15.274   4.677  13.401  1.00  0.00     0.000 C 
HETATM    2  C2  UNL     1      15.228   3.477  14.317  1.00  0.00     0.000 C 
HETATM    3  C3  UNL     1      15.959   3.852  15.614  1.00  0.00     0.000 C 
HETATM    4  C4  UNL     1      16.437   2.604  16.305  1.00  0.00     0.000 C 
HETATM    5  C5  UNL     1      16.430   2.726  17.809  1.00  0.00     0.000 C 
HETATM    6  C6  UNL     1      15.022   2.721  18.347  1.00  0.00     0.002 C 
HETATM    7  C7  UNL     1      14.329   1.465  17.801  1.00  0.00     0.020 C 
HETATM    8  C8  UNL     1      13.249   1.118  18.760  1.00  0.00     0.125 C 
HETATM    9  N1  UNL     1      12.051   0.617  18.178  1.00  0.00    -0.360 N 
HETATM   10  C12 UNL     1      11.722   0.565  16.791  1.00  0.00     0.135 C 
HETATM   11  C13 UNL     1      10.991   1.823  16.324  1.00  0.00     0.093 C 
HETATM   12  S2  UNL     1      10.451   1.517  14.616  1.00  0.00    -0.167 SA
HETATM   13  C14 UNL     1       9.489   2.909  13.978  1.00  0.00     0.074 C 
HETATM   14  C15 UNL     1       9.960   3.220  12.574  1.00  0.00     0.010 C 
HETATM   15  C16 UNL     1      10.437   4.649  12.450  1.00  0.00     0.001 C 
HETATM   16  C17 UNL     1      11.818   4.730  11.811  1.00  0.00     0.000 C 
HETATM   17  C18 UNL     1      12.851   5.002  12.900  1.00  0.00     0.000 C 
HETATM   18  C19 UNL     1      14.194   4.631  12.346  1.00  0.00     0.000 C 
ENDROOT
BRANCH   9  19
HETATM   19  C9  UNL     1      11.068   0.109  19.109  1.00  0.00     0.154 C 
HETATM   20  N2  UNL     1      11.068   0.454  20.338  1.00  0.00    -0.369 N 
HETATM   21  C10 UNL     1      10.181   0.050  21.371  1.00  0.00     0.138 C 
ATOM     22  H2  UNL     1      11.802   1.106  20.615  1.00  0.00     0.161 HD
HETATM   23  C11 UNL     1       8.869  -0.518  20.906  1.00  0.00     0.142 C 
HETATM   24  N3  UNL     1       9.088  -1.691  20.041  1.00  0.00    -0.170 NA
HETATM   25  S1  UNL     1       9.805  -1.028  18.571  1.00  0.00     0.011 SA
ENDBRANCH   9  19
TORSDOF 1
ENDMDL
MODEL 4
REMARK VINA RESULT: -6.945303133      1.161      1.354
REMARK  1 active torsions:
REMARK  status: ('A' for Active; 'I' for Inactive)
REMARK    1  A    between atoms: N1_9  and  C9_10 
ROOT
HETATM    1  C1  UNL     1      15.217   5.154  13.131  1.00  0.00     0.000 C 
HETATM    2  C2  UNL     1      13.934   4.792  13.841  1.00  0.00     0.000 C 
HETATM    3  C3  UNL     1      12.909   4.384  12.774  1.00  0.00     0.000 C 
HETATM    4  C4  UNL     1      11.517   4.557  13.316  1.00  0.00     0.000 C 
HETATM    5  C5  UNL     1      10.544   3.539  12.774  1.00  0.00     0.000 C 
HETATM    6  C6  UNL     1      10.811   2.173  13.353  1.00  0.00     0.002 C 
HETATM    7  C7  UNL     1      10.806   2.316  14.881  1.00  0.00     0.020 C 
HETATM    8  C8  UNL     1      10.440   0.988  15.436  1.00  0.00     0.125 C 
HETATM    9  N1  UNL     1      11.112   0.619  16.637  1.00  0.00    -0.360 N 
HETATM   10  C12 UNL     1      12.195   1.303  17.262  1.00  0.00     0.135 C 
HETATM   11  C13 UNL     1      13.554   0.798  16.778  1.00  0.00     0.093 C 
HETATM   12  S2  UNL     1      14.815   1.598  17.814  1.00  0.00    -0.167 SA
HETATM   13  C14 UNL     1      16.472   1.008  17.393  1.00  0.00     0.074 C 
HETATM   14  C15 UNL     1      17.405   2.197  17.317  1.00  0.00     0.010 C 
HETATM   15  C16 UNL     1      18.069   2.299  15.963  1.00  0.00     0.001 C 
HETATM   16  C17 UNL     1      17.927   3.694  15.368  1.00  0.00     0.000 C 
HETATM   17  C18 UNL     1      16.851   3.663  14.287  1.00  0.00     0.000 C 
HETATM   18  C19 UNL     1      16.417   5.078  14.047  1.00  0.00     0.000 C 
ENDROOT
BRANCH   9  19
HETATM   19  C9  UNL     1      10.632  -0.584  17.278  1.00  0.00     0.154 C 
HETATM   20  N2  UNL     1      10.550  -1.692  16.649  1.00  0.00    -0.369 N 
HETATM   21  C10 UNL     1      10.104  -2.952  17.129  1.00  0.00     0.138 C 
ATOM     22  H2  UNL     1      10.844  -1.669  15.673  1.00  0.00     0.161 HD
HETATM   23  C11 UNL     1      10.109  -3.109  18.625  1.00  0.00     0.142 C 
HETATM   24  N3  UNL     1       9.263  -2.080  19.258  1.00  0.00    -0.170 NA
HETATM   25  S1  UNL     1      10.132  -0.567  18.989  1.00  0.00     0.011 SA
ENDBRANCH   9  19
TORSDOF 1
ENDMDL
MODEL 5
REMARK VINA RESULT: -6.895369155      3.615      7.206
REMARK  1 active torsions:
REMARK  status: ('A' for Active; 'I' for Inactive)
REMARK    1  A    between atoms: N1_9  and  C9_10 
ROOT
HETATM    1  C1  UNL     1       8.781  -1.105  13.748  1.00  0.00     0.000 C 
HETATM    2  C2  UNL     1       9.306  -0.945  15.155  1.00  0.00     0.000 C 
HETATM    3  C3  UNL     1      10.295  -2.089  15.418  1.00  0.00     0.000 C 
HETATM    4  C4  UNL     1      10.414  -2.325  16.898  1.00  0.00     0.000 C 
HETATM    5  C5  UNL     1      11.793  -2.779  17.312  1.00  0.00     0.000 C 
HETATM    6  C6  UNL     1      12.787  -1.652  17.212  1.00  0.00     0.002 C 
HETATM    7  C7  UNL     1      12.228  -0.476  18.026  1.00  0.00     0.020 C 
HETATM    8  C8  UNL     1      13.390   0.342  18.454  1.00  0.00     0.125 C 
HETATM    9  N1  UNL     1      13.178   1.751  18.460  1.00  0.00    -0.360 N 
HETATM   10  C12 UNL     1      12.046   2.454  17.955  1.00  0.00     0.135 C 
HETATM   11  C13 UNL     1      12.221   2.855  16.491  1.00  0.00     0.093 C 
HETATM   12  S2  UNL     1      10.813   3.920  16.062  1.00  0.00    -0.167 SA
HETATM   13  C14 UNL     1      10.956   4.536  14.367  1.00  0.00     0.074 C 
HETATM   14  C15 UNL     1       9.609   4.406  13.690  1.00  0.00     0.010 C 
HETATM   15  C16 UNL     1       9.693   3.560  12.440  1.00  0.00     0.001 C 
HETATM   16  C17 UNL     1       8.638   2.461  12.428  1.00  0.00     0.000 C 
HETATM   17  C18 UNL     1       9.304   1.133  12.775  1.00  0.00     0.000 C 
HETATM   18  C19 UNL     1       8.221   0.187  13.197  1.00  0.00     0.000 C 
ENDROOT
BRANCH   9  19
HETATM   19  C9  UNL     1      14.239   2.540  19.046  1.00  0.00     0.154 C 
HETATM   20  N2  UNL     1      14.226   2.869  20.280  1.00  0.00    -0.369 N 
HETATM   21  C10 UNL     1      15.180   3.633  21.002  1.00  0.00     0.138 C 
ATOM     22  H2  UNL     1      13.424   2.540  20.818  1.00  0.00     0.161 HD
HETATM   23  C11 UNL     1      16.541   3.727  20.369  1.00  0.00     0.142 C 
HETATM   24  N3  UNL     1      16.447   4.315  19.021  1.00  0.00    -0.170 NA
HETATM   25  S1  UNL     1      15.618   3.088  18.060  1.00  0.00     0.011 SA
ENDBRANCH   9  19
TORSDOF 1
ENDMDL
