MODEL 1
REMARK VINA RESULT: -8.310753762      0.000      0.000
REMARK  1 active torsions:
REMARK  status: ('A' for Active; 'I' for Inactive)
REMARK    1  A    between atoms: C10_10  and  O1_11 
ROOT
HETATM    1  C1  UNL     1       9.800   4.983  13.654  1.00  0.00     0.046 C 
HETATM    2  C2  UNL     1      10.214   3.689  13.002  1.00  0.00     0.058 C 
HETATM    3  C3  UNL     1       8.963   3.049  12.447  1.00  0.00     0.038 C 
HETATM    4  C4  UNL     1       8.076   2.461  13.493  1.00  0.00     0.003 C 
HETATM    5  C5  UNL     1       7.650   1.050  13.132  1.00  0.00     0.000 C 
HETATM    6  C6  UNL     1       8.190   0.022  14.081  1.00  0.00     0.000 C 
HETATM    7  C7  UNL     1       9.494  -0.580  13.603  1.00  0.00     0.000 C 
HETATM    8  C8  UNL     1      10.494  -0.722  14.733  1.00  0.00     0.002 C 
HETATM    9  C9  UNL     1      11.744   0.093  14.427  1.00  0.00     0.032 C 
HETATM   10  C10 UNL     1      11.954   1.075  15.525  1.00  0.00     0.120 C 
HETATM   11  C11 UNL     1      12.781   2.268  15.144  1.00  0.00     0.069 C 
HETATM   12  C12 UNL     1      12.051   3.297  14.343  1.00  0.00     0.193 C 
HETATM   13  O2  UNL     1      10.900   2.836  13.799  1.00  0.00    -0.369 OA
HETATM   14  C13 UNL     1      13.028   3.904  13.374  1.00  0.00     0.255 C 
HETATM   15  C14 UNL     1      12.384   4.620  12.229  1.00  0.00     0.080 C 
HETATM   16  C15 UNL     1      11.087   4.040  11.802  1.00  0.00     0.043 C 
HETATM   17  O3  UNL     1      13.891   2.942  12.831  1.00  0.00    -0.192 OA
HETATM   18  O4  UNL     1      14.915   3.547  12.270  1.00  0.00    -0.195 OA
HETATM   19  C16 UNL     1      15.739   4.094  13.250  1.00  0.00     0.229 C 
HETATM   20  C17 UNL     1      16.808   3.084  13.559  1.00  0.00     0.074 C 
HETATM   21  C18 UNL     1      17.885   3.602  14.460  1.00  0.00     0.006 C 
HETATM   22  C19 UNL     1      18.300   5.015  14.147  1.00  0.00     0.000 C 
HETATM   23  C20 UNL     1      17.117   5.947  14.015  1.00  0.00     0.006 C 
HETATM   24  C21 UNL     1      16.295   5.433  12.839  1.00  0.00     0.074 C 
HETATM   25  O5  UNL     1      14.964   4.281  14.392  1.00  0.00    -0.195 OA
HETATM   26  O6  UNL     1      13.842   4.824  14.038  1.00  0.00    -0.192 OA
ENDROOT
BRANCH  10  27
HETATM   27  O1  UNL     1      10.762   1.448  16.160  1.00  0.00    -0.395 OA
ATOM     28  H1  UNL     1      10.740   2.368  16.398  1.00  0.00     0.210 HD
ENDBRANCH  10  27
TORSDOF 1
ENDMDL
MODEL 2
REMARK VINA RESULT: -7.444900150      3.270      5.427
REMARK  1 active torsions:
REMARK  status: ('A' for Active; 'I' for Inactive)
REMARK    1  A    between atoms: C10_10  and  O1_11 
ROOT
HETATM    1  C1  UNL     1      11.087  -1.528  14.763  1.00  0.00     0.046 C 
HETATM    2  C2  UNL     1      10.093  -0.475  15.182  1.00  0.00     0.058 C 
HETATM    3  C3  UNL     1       8.799  -0.771  14.461  1.00  0.00     0.038 C 
HETATM    4  C4  UNL     1       8.833  -0.436  13.007  1.00  0.00     0.003 C 
HETATM    5  C5  UNL     1       7.615   0.370  12.594  1.00  0.00     0.000 C 
HETATM    6  C6  UNL     1       7.961   1.761  12.155  1.00  0.00     0.000 C 
HETATM    7  C7  UNL     1       7.861   2.766  13.281  1.00  0.00     0.000 C 
HETATM    8  C8  UNL     1       9.026   3.737  13.272  1.00  0.00     0.002 C 
HETATM    9  C9  UNL     1       9.802   3.630  14.579  1.00  0.00     0.032 C 
HETATM   10  C10 UNL     1      11.215   3.283  14.266  1.00  0.00     0.120 C 
HETATM   11  C11 UNL     1      11.961   2.633  15.394  1.00  0.00     0.069 C 
HETATM   12  C12 UNL     1      11.636   1.189  15.600  1.00  0.00     0.193 C 
HETATM   13  O2  UNL     1      10.492   0.804  14.988  1.00  0.00    -0.369 OA
HETATM   14  C13 UNL     1      11.707   0.907  17.076  1.00  0.00     0.255 C 
HETATM   15  C14 UNL     1      11.004  -0.347  17.490  1.00  0.00     0.080 C 
HETATM   16  C15 UNL     1       9.813  -0.676  16.668  1.00  0.00     0.043 C 
HETATM   17  O3  UNL     1      11.170   1.957  17.835  1.00  0.00    -0.192 OA
HETATM   18  O4  UNL     1      11.551   1.825  19.087  1.00  0.00    -0.195 OA
HETATM   19  C16 UNL     1      12.909   2.106  19.202  1.00  0.00     0.229 C 
HETATM   20  C17 UNL     1      13.042   3.559  19.563  1.00  0.00     0.074 C 
HETATM   21  C18 UNL     1      14.439   3.969  19.908  1.00  0.00     0.006 C 
HETATM   22  C19 UNL     1      15.174   2.952  20.740  1.00  0.00     0.000 C 
HETATM   23  C20 UNL     1      15.074   1.557  20.165  1.00  0.00     0.006 C 
HETATM   24  C21 UNL     1      13.595   1.191  20.183  1.00  0.00     0.074 C 
HETATM   25  O5  UNL     1      13.486   1.907  17.950  1.00  0.00    -0.195 OA
HETATM   26  O6  UNL     1      13.041   0.788  17.471  1.00  0.00    -0.192 OA
ENDROOT
BRANCH  10  27
HETATM   27  O1  UNL     1      11.350   2.567  13.070  1.00  0.00    -0.395 OA
ATOM     28  H1  UNL     1      11.403   1.627  13.205  1.00  0.00     0.210 HD
ENDBRANCH  10  27
TORSDOF 1
ENDMDL
MODEL 3
REMARK VINA RESULT: -7.185454185      1.707      7.235
REMARK  1 active torsions:
REMARK  status: ('A' for Active; 'I' for Inactive)
REMARK    1  A    between atoms: C10_10  and  O1_11 
ROOT
HETATM    1  C1  UNL     1      12.920   2.773  17.919  1.00  0.00     0.046 C 
HETATM    2  C2  UNL     1      13.643   2.141  16.757  1.00  0.00     0.058 C 
HETATM    3  C3  UNL     1      15.114   2.130  17.101  1.00  0.00     0.038 C 
HETATM    4  C4  UNL     1      15.759   3.473  17.022  1.00  0.00     0.003 C 
HETATM    5  C5  UNL     1      17.055   3.422  16.233  1.00  0.00     0.000 C 
HETATM    6  C6  UNL     1      16.989   4.210  14.959  1.00  0.00     0.000 C 
HETATM    7  C7  UNL     1      16.593   3.359  13.772  1.00  0.00     0.000 C 
HETATM    8  C8  UNL     1      15.591   4.068  12.882  1.00  0.00     0.002 C 
HETATM    9  C9  UNL     1      14.301   3.262  12.807  1.00  0.00     0.032 C 
HETATM   10  C10 UNL     1      13.177   4.116  13.279  1.00  0.00     0.120 C 
HETATM   11  C11 UNL     1      11.979   3.356  13.766  1.00  0.00     0.069 C 
HETATM   12  C12 UNL     1      12.131   2.773  15.134  1.00  0.00     0.193 C 
HETATM   13  O2  UNL     1      13.416   2.719  15.554  1.00  0.00    -0.369 OA
HETATM   14  C13 UNL     1      11.384   1.467  15.162  1.00  0.00     0.255 C 
HETATM   15  C14 UNL     1      11.782   0.564  16.286  1.00  0.00     0.080 C 
HETATM   16  C15 UNL     1      13.207   0.681  16.685  1.00  0.00     0.043 C 
HETATM   17  O3  UNL     1      11.546   0.747  13.970  1.00  0.00    -0.192 OA
HETATM   18  O4  UNL     1      10.631  -0.196  13.907  1.00  0.00    -0.195 OA
HETATM   19  C16 UNL     1       9.380   0.371  13.685  1.00  0.00     0.229 C 
HETATM   20  C17 UNL     1       9.140   0.374  12.202  1.00  0.00     0.074 C 
HETATM   21  C18 UNL     1       7.753   0.780  11.816  1.00  0.00     0.006 C 
HETATM   22  C19 UNL     1       6.688   0.209  12.714  1.00  0.00     0.000 C 
HETATM   23  C20 UNL     1       6.998   0.418  14.179  1.00  0.00     0.006 C 
HETATM   24  C21 UNL     1       8.294  -0.335  14.455  1.00  0.00     0.074 C 
HETATM   25  O5  UNL     1       9.433   1.691  14.127  1.00  0.00    -0.195 OA
HETATM   26  O6  UNL     1      10.014   1.708  15.286  1.00  0.00    -0.192 OA
ENDROOT
BRANCH  10  27
HETATM   27  O1  UNL     1      13.583   5.095  14.195  1.00  0.00    -0.395 OA
ATOM     28  H1  UNL     1      13.043   5.877  14.165  1.00  0.00     0.210 HD
ENDBRANCH  10  27
TORSDOF 1
ENDMDL
MODEL 4
REMARK VINA RESULT: -7.181122889      3.588      5.373
REMARK  1 active torsions:
REMARK  status: ('A' for Active; 'I' for Inactive)
REMARK    1  A    between atoms: C10_10  and  O1_11 
ROOT
HETATM    1  C1  UNL     1      10.641   1.382  16.007  1.00  0.00     0.046 C 
HETATM    2  C2  UNL     1      11.035   2.820  15.785  1.00  0.00     0.058 C 
HETATM    3  C3  UNL     1      10.033   3.414  14.823  1.00  0.00     0.038 C 
HETATM    4  C4  UNL     1      10.204   2.949  13.416  1.00  0.00     0.003 C 
HETATM    5  C5  UNL     1      10.197   4.112  12.441  1.00  0.00     0.000 C 
HETATM    6  C6  UNL     1      11.513   4.295  11.747  1.00  0.00     0.000 C 
HETATM    7  C7  UNL     1      12.406   5.293  12.452  1.00  0.00     0.000 C 
HETATM    8  C8  UNL     1      13.842   4.812  12.518  1.00  0.00     0.002 C 
HETATM    9  C9  UNL     1      14.282   4.682  13.971  1.00  0.00     0.032 C 
HETATM   10  C10 UNL     1      14.715   3.279  14.213  1.00  0.00     0.120 C 
HETATM   11  C11 UNL     1      14.665   2.851  15.650  1.00  0.00     0.069 C 
HETATM   12  C12 UNL     1      13.294   2.532  16.154  1.00  0.00     0.193 C 
HETATM   13  O2  UNL     1      12.307   3.011  15.362  1.00  0.00    -0.369 OA
HETATM   14  C13 UNL     1      13.226   2.947  17.598  1.00  0.00     0.255 C 
HETATM   15  C14 UNL     1      11.833   3.099  18.121  1.00  0.00     0.080 C 
HETATM   16  C15 UNL     1      10.849   3.555  17.108  1.00  0.00     0.043 C 
HETATM   17  O3  UNL     1      13.891   4.161  17.824  1.00  0.00    -0.192 OA
HETATM   18  O4  UNL     1      14.093   4.309  19.115  1.00  0.00    -0.195 OA
HETATM   19  C16 UNL     1      15.064   3.411  19.549  1.00  0.00     0.229 C 
HETATM   20  C17 UNL     1      16.389   4.116  19.501  1.00  0.00     0.074 C 
HETATM   21  C18 UNL     1      17.509   3.340  20.119  1.00  0.00     0.006 C 
HETATM   22  C19 UNL     1      17.118   2.632  21.389  1.00  0.00     0.000 C 
HETATM   23  C20 UNL     1      15.840   1.840  21.236  1.00  0.00     0.006 C 
HETATM   24  C21 UNL     1      14.746   2.849  20.911  1.00  0.00     0.074 C 
HETATM   25  O5  UNL     1      15.092   2.353  18.643  1.00  0.00    -0.195 OA
HETATM   26  O6  UNL     1      13.871   1.999  18.394  1.00  0.00    -0.192 OA
ENDROOT
BRANCH  10  27
HETATM   27  O1  UNL     1      14.077   2.357  13.372  1.00  0.00    -0.395 OA
ATOM     28  H1  UNL     1      13.206   2.124  13.671  1.00  0.00     0.210 HD
ENDBRANCH  10  27
TORSDOF 1
ENDMDL
MODEL 5
REMARK VINA RESULT: -7.149942152      3.711      7.497
REMARK  1 active torsions:
REMARK  status: ('A' for Active; 'I' for Inactive)
REMARK    1  A    between atoms: C10_10  and  O1_11 
ROOT
HETATM    1  C1  UNL     1      11.871  -1.035  19.308  1.00  0.00     0.046 C 
HETATM    2  C2  UNL     1      12.822  -0.087  18.624  1.00  0.00     0.058 C 
HETATM    3  C3  UNL     1      14.088  -0.054  19.447  1.00  0.00     0.038 C 
HETATM    4  C4  UNL     1      13.952   0.702  20.727  1.00  0.00     0.003 C 
HETATM    5  C5  UNL     1      15.094   1.683  20.917  1.00  0.00     0.000 C 
HETATM    6  C6  UNL     1      14.640   3.112  20.898  1.00  0.00     0.000 C 
HETATM    7  C7  UNL     1      14.744   3.734  19.522  1.00  0.00     0.000 C 
HETATM    8  C8  UNL     1      13.525   4.572  19.192  1.00  0.00     0.002 C 
HETATM    9  C9  UNL     1      12.832   4.018  17.953  1.00  0.00     0.032 C 
HETATM   10  C10 UNL     1      11.427   3.677  18.305  1.00  0.00     0.120 C 
HETATM   11  C11 UNL     1      10.787   2.663  17.404  1.00  0.00     0.069 C 
HETATM   12  C12 UNL     1      11.209   1.253  17.661  1.00  0.00     0.193 C 
HETATM   13  O2  UNL     1      12.338   1.157  18.403  1.00  0.00    -0.369 OA
HETATM   14  C13 UNL     1      11.240   0.533  16.341  1.00  0.00     0.255 C 
HETATM   15  C14 UNL     1      12.039  -0.731  16.356  1.00  0.00     0.080 C 
HETATM   16  C15 UNL     1      13.199  -0.706  17.282  1.00  0.00     0.043 C 
HETATM   17  O3  UNL     1      11.756   1.341  15.318  1.00  0.00    -0.192 OA
HETATM   18  O4  UNL     1      11.455   0.808  14.153  1.00  0.00    -0.195 OA
HETATM   19  C16 UNL     1      10.091   0.939  13.908  1.00  0.00     0.229 C 
HETATM   20  C17 UNL     1       9.892   2.200  13.116  1.00  0.00     0.074 C 
HETATM   21  C18 UNL     1       8.495   2.382  12.611  1.00  0.00     0.006 C 
HETATM   22  C19 UNL     1       7.871   1.109  12.105  1.00  0.00     0.000 C 
HETATM   23  C20 UNL     1       8.021  -0.035  13.082  1.00  0.00     0.006 C 
HETATM   24  C21 UNL     1       9.518  -0.278  13.230  1.00  0.00     0.074 C 
HETATM   25  O5  UNL     1       9.457   1.086  15.140  1.00  0.00    -0.195 OA
HETATM   26  O6  UNL     1       9.940   0.200  15.953  1.00  0.00    -0.192 OA
ENDROOT
BRANCH  10  27
HETATM   27  O1  UNL     1      11.267   3.349  19.658  1.00  0.00    -0.395 OA
ATOM     28  H1  UNL     1      11.544   2.462  19.859  1.00  0.00     0.210 HD
ENDBRANCH  10  27
TORSDOF 1
ENDMDL
