MODEL 1
REMARK VINA RESULT: -7.565796368      0.000      0.000
REMARK  2 active torsions:
REMARK  status: ('A' for Active; 'I' for Inactive)
REMARK    1  A    between atoms: C15_17  and  O3_19 
REMARK    2  A    between atoms: C19_23  and  O4_24 
ROOT
HETATM    1  C1  UNL     1      15.252   1.337  20.381  1.00  0.00     0.015 C 
HETATM    2  C2  UNL     1      15.337   2.083  19.037  1.00  0.00     0.037 C 
HETATM    3  C3  UNL     1      16.582   2.887  19.070  1.00  0.00     0.014 C 
HETATM    4  C4  UNL     1      17.288   3.076  17.782  1.00  0.00     0.072 C 
HETATM    5  C5  UNL     1      16.680   2.376  16.605  1.00  0.00     0.196 C 
HETATM    6  C6  UNL     1      17.785   2.138  15.566  1.00  0.00     0.082 C 
HETATM    7  O1  UNL     1      15.744   3.159  16.013  1.00  0.00    -0.198 OA
HETATM    8  O2  UNL     1      14.695   3.461  16.705  1.00  0.00    -0.197 OA
HETATM    9  C7  UNL     1      13.747   2.492  16.578  1.00  0.00     0.204 C 
HETATM   10  C8  UNL     1      12.367   2.902  17.093  1.00  0.00     0.073 C 
HETATM   11  C9  UNL     1      11.551   1.787  16.419  1.00  0.00     0.015 C 
HETATM   12  C10 UNL     1      12.136   1.541  15.093  1.00  0.00    -0.028 C 
HETATM   13  C11 UNL     1      12.484   0.056  14.906  1.00  0.00     0.016 C 
HETATM   14  C12 UNL     1      11.301   1.924  13.902  1.00  0.00     0.033 C 
HETATM   15  C13 UNL     1      10.262   0.942  13.510  1.00  0.00     0.012 C 
HETATM   16  C14 UNL     1       8.846   1.249  13.833  1.00  0.00     0.042 C 
HETATM   17  C15 UNL     1       8.149   2.082  12.765  1.00  0.00     0.072 C 
HETATM   18  C16 UNL     1       6.951   2.726  13.411  1.00  0.00     0.050 C 
HETATM   19  C17 UNL     1       9.067   3.059  12.136  1.00  0.00     0.009 C 
HETATM   20  C18 UNL     1      10.175   3.583  12.590  1.00  0.00     0.010 C 
HETATM   21  C19 UNL     1      10.869   3.365  13.884  1.00  0.00     0.080 C 
HETATM   22  C20 UNL     1      12.048   4.270  14.047  1.00  0.00     0.043 C 
HETATM   23  C21 UNL     1      13.339   3.638  14.367  1.00  0.00     0.014 C 
HETATM   24  C22 UNL     1      13.387   2.371  15.084  1.00  0.00     0.060 C 
HETATM   25  O5  UNL     1      14.028   1.297  17.152  1.00  0.00    -0.322 OA
HETATM   26  C23 UNL     1      15.172   1.164  17.880  1.00  0.00     0.271 C 
HETATM   27  O6  UNL     1      16.254   1.140  17.010  1.00  0.00    -0.322 OA
ENDROOT
BRANCH  21  28
HETATM   28  O4  UNL     1       9.938   3.689  14.864  1.00  0.00    -0.385 OA
ATOM     29  H4  UNL     1       9.247   3.047  14.969  1.00  0.00     0.211 HD
ENDBRANCH  21  28
BRANCH  17  30
HETATM   30  O3  UNL     1       7.677   1.256  11.746  1.00  0.00    -0.386 OA
ATOM     31  H3  UNL     1       8.342   1.153  11.076  1.00  0.00     0.211 HD
ENDBRANCH  17  30
TORSDOF 2
ENDMDL
MODEL 2
REMARK VINA RESULT: -7.540872221      1.620      7.449
REMARK  2 active torsions:
REMARK  status: ('A' for Active; 'I' for Inactive)
REMARK    1  A    between atoms: C15_17  and  O3_19 
REMARK    2  A    between atoms: C19_23  and  O4_24 
ROOT
HETATM    1  C1  UNL     1       8.440   5.464  12.822  1.00  0.00     0.015 C 
HETATM    2  C2  UNL     1       8.628   4.073  13.456  1.00  0.00     0.037 C 
HETATM    3  C3  UNL     1       7.363   3.330  13.242  1.00  0.00     0.014 C 
HETATM    4  C4  UNL     1       7.475   1.866  13.046  1.00  0.00     0.072 C 
HETATM    5  C5  UNL     1       8.871   1.323  13.030  1.00  0.00     0.196 C 
HETATM    6  C6  UNL     1       8.866   0.013  12.228  1.00  0.00     0.082 C 
HETATM    7  O1  UNL     1       9.279   1.015  14.286  1.00  0.00    -0.198 OA
HETATM    8  O2  UNL     1       9.388   1.986  15.133  1.00  0.00    -0.197 OA
HETATM    9  C7  UNL     1      10.617   2.562  15.038  1.00  0.00     0.204 C 
HETATM   10  C8  UNL     1      10.956   3.498  16.198  1.00  0.00     0.073 C 
HETATM   11  C9  UNL     1      12.471   3.591  15.959  1.00  0.00     0.015 C 
HETATM   12  C10 UNL     1      12.938   2.268  15.520  1.00  0.00    -0.028 C 
HETATM   13  C11 UNL     1      13.712   2.364  14.195  1.00  0.00     0.016 C 
HETATM   14  C12 UNL     1      13.831   1.514  16.467  1.00  0.00     0.033 C 
HETATM   15  C13 UNL     1      15.259   1.908  16.447  1.00  0.00     0.012 C 
HETATM   16  C14 UNL     1      15.780   2.725  17.572  1.00  0.00     0.042 C 
HETATM   17  C15 UNL     1      16.254   1.891  18.755  1.00  0.00     0.072 C 
HETATM   18  C16 UNL     1      16.273   2.794  19.959  1.00  0.00     0.050 C 
HETATM   19  C17 UNL     1      15.425   0.679  18.948  1.00  0.00     0.009 C 
HETATM   20  C18 UNL     1      14.198   0.433  18.573  1.00  0.00     0.010 C 
HETATM   21  C19 UNL     1      13.239   1.292  17.833  1.00  0.00     0.080 C 
HETATM   22  C20 UNL     1      11.889   0.661  17.725  1.00  0.00     0.043 C 
HETATM   23  C21 UNL     1      11.311   0.539  16.377  1.00  0.00     0.014 C 
HETATM   24  C22 UNL     1      11.676   1.479  15.325  1.00  0.00     0.060 C 
HETATM   25  O5  UNL     1      10.869   3.258  13.903  1.00  0.00    -0.322 OA
HETATM   26  C23 UNL     1       9.873   3.411  12.985  1.00  0.00     0.271 C 
HETATM   27  O6  UNL     1       9.667   2.197  12.342  1.00  0.00    -0.322 OA
ENDROOT
BRANCH  21  28
HETATM   28  O4  UNL     1      13.115   2.450  18.591  1.00  0.00    -0.385 OA
ATOM     29  H4  UNL     1      13.796   2.560  19.244  1.00  0.00     0.211 HD
ENDBRANCH  21  28
BRANCH  17  30
HETATM   30  O3  UNL     1      17.562   1.457  18.542  1.00  0.00    -0.386 OA
ATOM     31  H3  UNL     1      17.846   0.912  19.266  1.00  0.00     0.211 HD
ENDBRANCH  17  30
TORSDOF 2
ENDMDL
MODEL 3
REMARK VINA RESULT: -7.434249039      2.290      7.410
REMARK  2 active torsions:
REMARK  status: ('A' for Active; 'I' for Inactive)
REMARK    1  A    between atoms: C15_17  and  O3_19 
REMARK    2  A    between atoms: C19_23  and  O4_24 
ROOT
HETATM    1  C1  UNL     1       9.397   3.198  12.380  1.00  0.00     0.015 C 
HETATM    2  C2  UNL     1       9.616   2.272  13.591  1.00  0.00     0.037 C 
HETATM    3  C3  UNL     1       8.578   1.216  13.518  1.00  0.00     0.014 C 
HETATM    4  C4  UNL     1       8.954  -0.125  14.020  1.00  0.00     0.072 C 
HETATM    5  C5  UNL     1      10.370  -0.264  14.490  1.00  0.00     0.196 C 
HETATM    6  C6  UNL     1      10.771  -1.741  14.372  1.00  0.00     0.082 C 
HETATM    7  O1  UNL     1      10.473   0.070  15.800  1.00  0.00    -0.198 OA
HETATM    8  O2  UNL     1      10.210   1.292  16.128  1.00  0.00    -0.197 OA
HETATM    9  C7  UNL     1      11.320   2.068  15.998  1.00  0.00     0.204 C 
HETATM   10  C8  UNL     1      11.198   3.442  16.656  1.00  0.00     0.073 C 
HETATM   11  C9  UNL     1      12.691   3.805  16.667  1.00  0.00     0.015 C 
HETATM   12  C10 UNL     1      13.449   2.579  16.953  1.00  0.00    -0.028 C 
HETATM   13  C11 UNL     1      14.522   2.325  15.882  1.00  0.00     0.016 C 
HETATM   14  C12 UNL     1      14.163   2.515  18.276  1.00  0.00     0.033 C 
HETATM   15  C13 UNL     1      15.471   3.210  18.328  1.00  0.00     0.012 C 
HETATM   16  C14 UNL     1      15.550   4.511  19.040  1.00  0.00     0.042 C 
HETATM   17  C15 UNL     1      15.813   4.368  20.533  1.00  0.00     0.072 C 
HETATM   18  C16 UNL     1      15.380   5.651  21.189  1.00  0.00     0.050 C 
HETATM   19  C17 UNL     1      15.154   3.170  21.102  1.00  0.00     0.009 C 
HETATM   20  C18 UNL     1      14.119   2.498  20.671  1.00  0.00     0.010 C 
HETATM   21  C19 UNL     1      13.273   2.720  19.472  1.00  0.00     0.080 C 
HETATM   22  C20 UNL     1      12.108   1.784  19.426  1.00  0.00     0.043 C 
HETATM   23  C21 UNL     1      11.931   0.993  18.198  1.00  0.00     0.014 C 
HETATM   24  C22 UNL     1      12.415   1.491  16.918  1.00  0.00     0.060 C 
HETATM   25  O5  UNL     1      11.756   2.289  14.734  1.00  0.00    -0.322 OA
HETATM   26  C23 UNL     1      11.025   1.808  13.689  1.00  0.00     0.271 C 
HETATM   27  O6  UNL     1      11.180   0.430  13.633  1.00  0.00    -0.322 OA
ENDROOT
BRANCH  21  28
HETATM   28  O4  UNL     1      12.782   4.015  19.597  1.00  0.00    -0.385 OA
ATOM     29  H4  UNL     1      11.839   4.080  19.511  1.00  0.00     0.211 HD
ENDBRANCH  21  28
BRANCH  17  30
HETATM   30  O3  UNL     1      17.181   4.225  20.765  1.00  0.00    -0.386 OA
ATOM     31  H3  UNL     1      17.433   4.717  21.538  1.00  0.00     0.211 HD
ENDBRANCH  17  30
TORSDOF 2
ENDMDL
MODEL 4
REMARK VINA RESULT: -7.090285998      2.830      7.818
REMARK  2 active torsions:
REMARK  status: ('A' for Active; 'I' for Inactive)
REMARK    1  A    between atoms: C15_17  and  O3_19 
REMARK    2  A    between atoms: C19_23  and  O4_24 
ROOT
HETATM    1  C1  UNL     1      11.087   2.665  12.991  1.00  0.00     0.015 C 
HETATM    2  C2  UNL     1      10.674   1.663  14.086  1.00  0.00     0.037 C 
HETATM    3  C3  UNL     1       9.459   0.969  13.596  1.00  0.00     0.014 C 
HETATM    4  C4  UNL     1       9.288  -0.444  14.003  1.00  0.00     0.072 C 
HETATM    5  C5  UNL     1      10.405  -1.019  14.820  1.00  0.00     0.196 C 
HETATM    6  C6  UNL     1      10.406  -2.542  14.625  1.00  0.00     0.082 C 
HETATM    7  O1  UNL     1      10.199  -0.790  16.141  1.00  0.00    -0.198 OA
HETATM    8  O2  UNL     1      10.193   0.440  16.539  1.00  0.00    -0.197 OA
HETATM    9  C7  UNL     1      11.458   0.854  16.819  1.00  0.00     0.204 C 
HETATM   10  C8  UNL     1      11.523   2.172  17.591  1.00  0.00     0.073 C 
HETATM   11  C9  UNL     1      12.985   2.073  18.055  1.00  0.00     0.015 C 
HETATM   12  C10 UNL     1      13.260   0.665  18.376  1.00  0.00    -0.028 C 
HETATM   13  C11 UNL     1      14.491   0.151  17.615  1.00  0.00     0.016 C 
HETATM   14  C12 UNL     1      13.500   0.333  19.824  1.00  0.00     0.033 C 
HETATM   15  C13 UNL     1      14.870   0.604  20.320  1.00  0.00     0.012 C 
HETATM   16  C14 UNL     1      15.083   1.789  21.189  1.00  0.00     0.042 C 
HETATM   17  C15 UNL     1      14.839   1.508  22.666  1.00  0.00     0.072 C 
HETATM   18  C16 UNL     1      14.596   2.832  23.339  1.00  0.00     0.050 C 
HETATM   19  C17 UNL     1      13.740   0.538  22.873  1.00  0.00     0.009 C 
HETATM   20  C18 UNL     1      12.739   0.224  22.093  1.00  0.00     0.010 C 
HETATM   21  C19 UNL     1      12.384   0.741  20.747  1.00  0.00     0.080 C 
HETATM   22  C20 UNL     1      11.077   0.198  20.265  1.00  0.00     0.043 C 
HETATM   23  C21 UNL     1      11.067  -0.450  18.944  1.00  0.00     0.014 C 
HETATM   24  C22 UNL     1      12.028  -0.062  17.919  1.00  0.00     0.060 C 
HETATM   25  O5  UNL     1      12.294   0.992  15.762  1.00  0.00    -0.322 OA
HETATM   26  C23 UNL     1      11.808   0.797  14.503  1.00  0.00     0.271 C 
HETATM   27  O6  UNL     1      11.591  -0.561  14.313  1.00  0.00    -0.322 OA
ENDROOT
BRANCH  21  28
HETATM   28  O4  UNL     1      12.250   2.116  20.901  1.00  0.00    -0.385 OA
ATOM     29  H4  UNL     1      12.763   2.477  21.613  1.00  0.00     0.211 HD
ENDBRANCH  21  28
BRANCH  17  30
HETATM   30  O3  UNL     1      15.982   0.954  23.242  1.00  0.00    -0.386 OA
ATOM     31  H3  UNL     1      16.156   0.100  22.864  1.00  0.00     0.211 HD
ENDBRANCH  17  30
TORSDOF 2
ENDMDL
MODEL 5
REMARK VINA RESULT: -7.085191348      1.535      1.917
REMARK  2 active torsions:
REMARK  status: ('A' for Active; 'I' for Inactive)
REMARK    1  A    between atoms: C15_17  and  O3_19 
REMARK    2  A    between atoms: C19_23  and  O4_24 
ROOT
HETATM    1  C1  UNL     1      13.971  -0.146  21.692  1.00  0.00     0.015 C 
HETATM    2  C2  UNL     1      14.300   0.623  20.399  1.00  0.00     0.037 C 
HETATM    3  C3  UNL     1      15.486   1.464  20.689  1.00  0.00     0.014 C 
HETATM    4  C4  UNL     1      16.429   1.694  19.571  1.00  0.00     0.072 C 
HETATM    5  C5  UNL     1      16.094   0.994  18.290  1.00  0.00     0.196 C 
HETATM    6  C6  UNL     1      17.393   0.806  17.493  1.00  0.00     0.082 C 
HETATM    7  O1  UNL     1      15.271   1.757  17.529  1.00  0.00    -0.198 OA
HETATM    8  O2  UNL     1      14.094   2.016  17.998  1.00  0.00    -0.197 OA
HETATM    9  C7  UNL     1      13.224   1.021  17.674  1.00  0.00     0.204 C 
HETATM   10  C8  UNL     1      11.756   1.381  17.904  1.00  0.00     0.073 C 
HETATM   11  C9  UNL     1      11.129   0.252  17.070  1.00  0.00     0.015 C 
HETATM   12  C10 UNL     1      11.976   0.044  15.887  1.00  0.00    -0.028 C 
HETATM   13  C11 UNL     1      12.403  -1.426  15.760  1.00  0.00     0.016 C 
HETATM   14  C12 UNL     1      11.386   0.420  14.555  1.00  0.00     0.033 C 
HETATM   15  C13 UNL     1      10.480  -0.587  13.953  1.00  0.00     0.012 C 
HETATM   16  C14 UNL     1       9.018  -0.329  13.987  1.00  0.00     0.042 C 
HETATM   17  C15 UNL     1       8.523   0.500  12.809  1.00  0.00     0.072 C 
HETATM   18  C16 UNL     1       7.199   1.096  13.206  1.00  0.00     0.050 C 
HETATM   19  C17 UNL     1       9.516   1.513  12.386  1.00  0.00     0.009 C 
HETATM   20  C18 UNL     1      10.493   2.063  13.058  1.00  0.00     0.010 C 
HETATM   21  C19 UNL     1      10.919   1.848  14.464  1.00  0.00     0.080 C 
HETATM   22  C20 UNL     1      12.011   2.785  14.869  1.00  0.00     0.043 C 
HETATM   23  C21 UNL     1      13.231   2.188  15.436  1.00  0.00     0.014 C 
HETATM   24  C22 UNL     1      13.176   0.912  16.137  1.00  0.00     0.060 C 
HETATM   25  O5  UNL     1      13.423  -0.173  18.282  1.00  0.00    -0.322 OA
HETATM   26  C23 UNL     1      14.402  -0.282  19.224  1.00  0.00     0.271 C 
HETATM   27  O6  UNL     1      15.637  -0.260  18.590  1.00  0.00    -0.322 OA
ENDROOT
BRANCH  21  28
HETATM   28  O4  UNL     1       9.800   2.128  15.239  1.00  0.00    -0.385 OA
ATOM     29  H4  UNL     1       9.225   1.384  15.371  1.00  0.00     0.211 HD
ENDBRANCH  21  28
BRANCH  17  30
HETATM   30  O3  UNL     1       8.292  -0.325  11.708  1.00  0.00    -0.386 OA
ATOM     31  H3  UNL     1       7.424  -0.707  11.764  1.00  0.00     0.211 HD
ENDBRANCH  17  30
TORSDOF 2
ENDMDL
