MODEL 1
REMARK VINA RESULT: -8.188722640      0.000      0.000
REMARK  3 active torsions:
REMARK  status: ('A' for Active; 'I' for Inactive)
REMARK    1  A    between atoms: C8_8  and  O1_9 
REMARK    2  A    between atoms: C13_15  and  C14_16 
REMARK    3  A    between atoms: C18_20  and  O2_21 
ROOT
HETATM    1  C1  UNL     1      11.746   0.006  16.673  1.00  0.00     0.015 C 
HETATM    2  C2  UNL     1      12.461   1.348  16.539  1.00  0.00    -0.047 C 
HETATM    3  C3  UNL     1      13.888   1.153  16.954  1.00  0.00     0.015 C 
HETATM    4  C4  UNL     1      11.821   2.331  17.461  1.00  0.00     0.010 C 
HETATM    5  C5  UNL     1      11.034   3.264  16.579  1.00  0.00     0.019 C 
HETATM    6  C6  UNL     1      11.709   3.237  15.222  1.00  0.00     0.054 C 
HETATM    7  C7  UNL     1      12.323   1.905  15.122  1.00  0.00     0.027 C 
HETATM    8  C8  UNL     1      12.849   4.264  15.374  1.00  0.00     0.209 C 
HETATM    9  C9  UNL     1      12.476   5.353  14.361  1.00  0.00     0.116 C 
HETATM   10  C10 UNL     1      11.942   4.467  13.322  1.00  0.00     0.133 C 
HETATM   11  C11 UNL     1      11.211   4.990  12.193  1.00  0.00     0.045 C 
HETATM   12  C12 UNL     1      10.443   3.721  11.783  1.00  0.00     0.011 C 
HETATM   13  C13 UNL     1      10.353   2.881  13.047  1.00  0.00     0.032 C 
HETATM   14  C18 UNL     1      10.844   3.708  14.111  1.00  0.00     0.109 C 
HETATM   15  O3  UNL     1      12.848   3.508  12.934  1.00  0.00    -0.223 OA
HETATM   16  O4  UNL     1      13.825   3.954  12.216  1.00  0.00    -0.197 OA
HETATM   17  C19 UNL     1      14.982   4.131  12.941  1.00  0.00     0.229 C 
HETATM   18  C20 UNL     1      15.785   5.224  12.232  1.00  0.00     0.074 C 
HETATM   19  C21 UNL     1      17.215   4.864  12.470  1.00  0.00     0.006 C 
HETATM   20  C22 UNL     1      17.185   3.343  12.301  1.00  0.00     0.006 C 
HETATM   21  C23 UNL     1      15.853   2.909  12.861  1.00  0.00     0.074 C 
HETATM   22  O5  UNL     1      14.774   4.576  14.235  1.00  0.00    -0.195 OA
HETATM   23  O6  UNL     1      14.070   3.767  14.959  1.00  0.00    -0.197 OA
ENDROOT
BRANCH   8  24
HETATM   24  O1  UNL     1      12.997   4.763  16.631  1.00  0.00    -0.362 OA
ATOM     25  H1  UNL     1      13.139   5.701  16.670  1.00  0.00     0.213 HD
ENDBRANCH   8  24
BRANCH  14  26
HETATM   26  O2  UNL     1       9.920   4.599  14.628  1.00  0.00    -0.385 OA
ATOM     27  H2  UNL     1       9.794   4.398  15.548  1.00  0.00     0.210 HD
ENDBRANCH  14  26
BRANCH  13  28
HETATM   28  C14 UNL     1       9.029   2.235  13.070  1.00  0.00    -0.045 C 
HETATM   29  C15 UNL     1       8.972   1.185  14.207  1.00  0.00     0.015 C 
HETATM   30  C16 UNL     1       8.667   1.384  11.867  1.00  0.00     0.015 C 
HETATM   31  C17 UNL     1       7.844   3.114  13.289  1.00  0.00     0.015 C 
ENDBRANCH  13  28
TORSDOF 3
ENDMDL
MODEL 2
REMARK VINA RESULT: -7.915146608      2.384      5.401
REMARK  3 active torsions:
REMARK  status: ('A' for Active; 'I' for Inactive)
REMARK    1  A    between atoms: C8_8  and  O1_9 
REMARK    2  A    between atoms: C13_15  and  C14_16 
REMARK    3  A    between atoms: C18_20  and  O2_21 
ROOT
HETATM    1  C1  UNL     1      10.931   5.352  14.062  1.00  0.00     0.015 C 
HETATM    2  C2  UNL     1      11.902   4.392  14.744  1.00  0.00    -0.047 C 
HETATM    3  C3  UNL     1      12.586   5.138  15.850  1.00  0.00     0.015 C 
HETATM    4  C4  UNL     1      12.926   3.954  13.752  1.00  0.00     0.010 C 
HETATM    5  C5  UNL     1      12.583   2.526  13.416  1.00  0.00     0.019 C 
HETATM    6  C6  UNL     1      11.840   1.974  14.616  1.00  0.00     0.054 C 
HETATM    7  C7  UNL     1      11.181   3.135  15.231  1.00  0.00     0.027 C 
HETATM    8  C8  UNL     1      12.975   1.530  15.561  1.00  0.00     0.209 C 
HETATM    9  C9  UNL     1      12.780   0.012  15.653  1.00  0.00     0.116 C 
HETATM   10  C10 UNL     1      11.314   0.009  15.638  1.00  0.00     0.133 C 
HETATM   11  C11 UNL     1      10.568  -1.213  15.466  1.00  0.00     0.045 C 
HETATM   12  C12 UNL     1       9.234  -0.623  14.971  1.00  0.00     0.011 C 
HETATM   13  C13 UNL     1       9.594   0.716  14.351  1.00  0.00     0.032 C 
HETATM   14  C18 UNL     1      11.027   0.769  14.316  1.00  0.00     0.109 C 
HETATM   15  O3  UNL     1      10.779   0.790  16.636  1.00  0.00    -0.223 OA
HETATM   16  O4  UNL     1      10.884   0.289  17.822  1.00  0.00    -0.197 OA
HETATM   17  C19 UNL     1      11.919   0.840  18.544  1.00  0.00     0.229 C 
HETATM   18  C20 UNL     1      12.361  -0.214  19.560  1.00  0.00     0.074 C 
HETATM   19  C21 UNL     1      12.820   0.567  20.748  1.00  0.00     0.006 C 
HETATM   20  C22 UNL     1      11.768   1.676  20.816  1.00  0.00     0.006 C 
HETATM   21  C23 UNL     1      11.431   1.991  19.379  1.00  0.00     0.074 C 
HETATM   22  O5  UNL     1      13.036   1.145  17.785  1.00  0.00    -0.195 OA
HETATM   23  O6  UNL     1      12.812   2.008  16.848  1.00  0.00    -0.197 OA
ENDROOT
BRANCH   8  24
HETATM   24  O1  UNL     1      14.226   1.861  15.139  1.00  0.00    -0.362 OA
ATOM     25  H1  UNL     1      14.917   1.303  15.474  1.00  0.00     0.213 HD
ENDBRANCH   8  24
BRANCH  14  26
HETATM   26  O2  UNL     1      11.607   0.108  13.247  1.00  0.00    -0.385 OA
ATOM     27  H2  UNL     1      11.286  -0.786  13.239  1.00  0.00     0.210 HD
ENDBRANCH  14  26
BRANCH  13  28
HETATM   28  C14 UNL     1       8.750   0.907  13.158  1.00  0.00    -0.045 C 
HETATM   29  C15 UNL     1       7.271   1.095  13.580  1.00  0.00     0.015 C 
HETATM   30  C16 UNL     1       8.636  -0.275  12.212  1.00  0.00     0.015 C 
HETATM   31  C17 UNL     1       9.058   2.073  12.281  1.00  0.00     0.015 C 
ENDBRANCH  13  28
TORSDOF 3
ENDMDL
MODEL 3
REMARK VINA RESULT: -7.797467020      2.660      5.436
REMARK  3 active torsions:
REMARK  status: ('A' for Active; 'I' for Inactive)
REMARK    1  A    between atoms: C8_8  and  O1_9 
REMARK    2  A    between atoms: C13_15  and  C14_16 
REMARK    3  A    between atoms: C18_20  and  O2_21 
ROOT
HETATM    1  C1  UNL     1      11.296   4.924  16.275  1.00  0.00     0.015 C 
HETATM    2  C2  UNL     1      11.772   3.604  15.672  1.00  0.00    -0.047 C 
HETATM    3  C3  UNL     1      12.708   2.962  16.652  1.00  0.00     0.015 C 
HETATM    4  C4  UNL     1      12.515   3.889  14.411  1.00  0.00     0.010 C 
HETATM    5  C5  UNL     1      11.601   3.457  13.294  1.00  0.00     0.019 C 
HETATM    6  C6  UNL     1      10.695   2.390  13.875  1.00  0.00     0.054 C 
HETATM    7  C7  UNL     1      10.588   2.710  15.305  1.00  0.00     0.027 C 
HETATM    8  C8  UNL     1      11.537   1.104  13.747  1.00  0.00     0.209 C 
HETATM    9  C9  UNL     1      10.719   0.245  12.776  1.00  0.00     0.116 C 
HETATM   10  C10 UNL     1       9.390   0.631  13.257  1.00  0.00     0.133 C 
HETATM   11  C11 UNL     1       8.197   0.285  12.524  1.00  0.00     0.045 C 
HETATM   12  C12 UNL     1       7.236   1.344  13.096  1.00  0.00     0.011 C 
HETATM   13  C13 UNL     1       8.128   2.482  13.563  1.00  0.00     0.032 C 
HETATM   14  C18 UNL     1       9.449   2.172  13.098  1.00  0.00     0.109 C 
HETATM   15  O3  UNL     1       9.235   0.405  14.606  1.00  0.00    -0.223 OA
HETATM   16  O4  UNL     1       9.120  -0.840  14.930  1.00  0.00    -0.197 OA
HETATM   17  C19 UNL     1      10.291  -1.375  15.418  1.00  0.00     0.229 C 
HETATM   18  C20 UNL     1      10.247  -2.876  15.127  1.00  0.00     0.074 C 
HETATM   19  C21 UNL     1      10.994  -3.507  16.257  1.00  0.00     0.006 C 
HETATM   20  C22 UNL     1      10.509  -2.681  17.450  1.00  0.00     0.006 C 
HETATM   21  C23 UNL     1      10.335  -1.280  16.917  1.00  0.00     0.074 C 
HETATM   22  O5  UNL     1      11.432  -0.890  14.801  1.00  0.00    -0.195 OA
HETATM   23  O6  UNL     1      11.592   0.387  14.928  1.00  0.00    -0.197 OA
ENDROOT
BRANCH   8  24
HETATM   24  O1  UNL     1      12.810   1.303  13.310  1.00  0.00    -0.362 OA
ATOM     25  H1  UNL     1      13.042   2.212  13.169  1.00  0.00     0.213 HD
ENDBRANCH   8  24
BRANCH  14  26
HETATM   26  O2  UNL     1       9.694   2.510  11.778  1.00  0.00    -0.385 OA
ATOM     27  H2  UNL     1       8.934   2.268  11.262  1.00  0.00     0.210 HD
ENDBRANCH  14  26
BRANCH  13  28
HETATM   28  C14 UNL     1       7.442   3.751  13.259  1.00  0.00    -0.045 C 
HETATM   29  C15 UNL     1       6.213   3.924  14.187  1.00  0.00     0.015 C 
HETATM   30  C16 UNL     1       6.793   3.860  11.891  1.00  0.00     0.015 C 
HETATM   31  C17 UNL     1       8.229   5.008  13.412  1.00  0.00     0.015 C 
ENDBRANCH  13  28
TORSDOF 3
ENDMDL
MODEL 4
REMARK VINA RESULT: -7.739714099      1.810      2.803
REMARK  3 active torsions:
REMARK  status: ('A' for Active; 'I' for Inactive)
REMARK    1  A    between atoms: C8_8  and  O1_9 
REMARK    2  A    between atoms: C13_15  and  C14_16 
REMARK    3  A    between atoms: C18_20  and  O2_21 
ROOT
HETATM    1  C1  UNL     1      14.099   1.448  19.428  1.00  0.00     0.015 C 
HETATM    2  C2  UNL     1      14.021   2.554  18.377  1.00  0.00    -0.047 C 
HETATM    3  C3  UNL     1      15.269   3.378  18.484  1.00  0.00     0.015 C 
HETATM    4  C4  UNL     1      12.844   3.421  18.676  1.00  0.00     0.010 C 
HETATM    5  C5  UNL     1      11.815   3.085  17.627  1.00  0.00     0.019 C 
HETATM    6  C6  UNL     1      12.584   2.569  16.428  1.00  0.00     0.054 C 
HETATM    7  C7  UNL     1      13.808   1.971  16.980  1.00  0.00     0.027 C 
HETATM    8  C8  UNL     1      12.989   3.858  15.686  1.00  0.00     0.209 C 
HETATM    9  C9  UNL     1      12.247   3.740  14.349  1.00  0.00     0.116 C 
HETATM   10  C10 UNL     1      12.399   2.293  14.177  1.00  0.00     0.133 C 
HETATM   11  C11 UNL     1      11.665   1.577  13.162  1.00  0.00     0.045 C 
HETATM   12  C12 UNL     1      11.734   0.159  13.757  1.00  0.00     0.011 C 
HETATM   13  C13 UNL     1      11.923   0.360  15.251  1.00  0.00     0.032 C 
HETATM   14  C18 UNL     1      11.761   1.766  15.488  1.00  0.00     0.109 C 
HETATM   15  O3  UNL     1      13.715   1.895  14.221  1.00  0.00    -0.223 OA
HETATM   16  O4  UNL     1      14.405   2.211  13.174  1.00  0.00    -0.197 OA
HETATM   17  C19 UNL     1      15.189   3.326  13.368  1.00  0.00     0.229 C 
HETATM   18  C20 UNL     1      15.393   3.967  11.995  1.00  0.00     0.074 C 
HETATM   19  C21 UNL     1      16.754   4.581  12.058  1.00  0.00     0.006 C 
HETATM   20  C22 UNL     1      17.543   3.511  12.815  1.00  0.00     0.006 C 
HETATM   21  C23 UNL     1      16.570   2.934  13.814  1.00  0.00     0.074 C 
HETATM   22  O5  UNL     1      14.605   4.293  14.169  1.00  0.00    -0.195 OA
HETATM   23  O6  UNL     1      14.334   3.886  15.367  1.00  0.00    -0.197 OA
ENDROOT
BRANCH   8  24
HETATM   24  O1  UNL     1      12.683   5.009  16.343  1.00  0.00    -0.362 OA
ATOM     25  H1  UNL     1      12.816   5.801  15.836  1.00  0.00     0.213 HD
ENDBRANCH   8  24
BRANCH  14  26
HETATM   26  O2  UNL     1      10.448   2.191  15.589  1.00  0.00    -0.385 OA
ATOM     27  H2  UNL     1      10.068   2.195  14.718  1.00  0.00     0.210 HD
ENDBRANCH  14  26
BRANCH  13  28
HETATM   28  C14 UNL     1      11.140  -0.672  15.952  1.00  0.00    -0.045 C 
HETATM   29  C15 UNL     1      11.876  -2.034  15.883  1.00  0.00     0.015 C 
HETATM   30  C16 UNL     1       9.797  -1.034  15.344  1.00  0.00     0.015 C 
HETATM   31  C17 UNL     1      10.859  -0.452  17.400  1.00  0.00     0.015 C 
ENDBRANCH  13  28
TORSDOF 3
ENDMDL
MODEL 5
REMARK VINA RESULT: -7.583021840      2.610      5.622
REMARK  3 active torsions:
REMARK  status: ('A' for Active; 'I' for Inactive)
REMARK    1  A    between atoms: C8_8  and  O1_9 
REMARK    2  A    between atoms: C13_15  and  C14_16 
REMARK    3  A    between atoms: C18_20  and  O2_21 
ROOT
HETATM    1  C1  UNL     1      10.385  -2.304  16.979  1.00  0.00     0.015 C 
HETATM    2  C2  UNL     1      10.942  -1.344  15.930  1.00  0.00    -0.047 C 
HETATM    3  C3  UNL     1      10.157  -1.539  14.667  1.00  0.00     0.015 C 
HETATM    4  C4  UNL     1      12.369  -1.690  15.669  1.00  0.00     0.010 C 
HETATM    5  C5  UNL     1      13.178  -0.600  16.323  1.00  0.00     0.019 C 
HETATM    6  C6  UNL     1      12.284   0.623  16.369  1.00  0.00     0.054 C 
HETATM    7  C7  UNL     1      10.912   0.098  16.434  1.00  0.00     0.027 C 
HETATM    8  C8  UNL     1      12.475   1.253  14.975  1.00  0.00     0.209 C 
HETATM    9  C9  UNL     1      13.122   2.607  15.288  1.00  0.00     0.116 C 
HETATM   10  C10 UNL     1      12.375   2.892  16.516  1.00  0.00     0.133 C 
HETATM   11  C11 UNL     1      12.755   3.974  17.392  1.00  0.00     0.045 C 
HETATM   12  C12 UNL     1      12.082   3.493  18.690  1.00  0.00     0.011 C 
HETATM   13  C13 UNL     1      11.970   1.984  18.548  1.00  0.00     0.032 C 
HETATM   14  C18 UNL     1      12.706   1.638  17.366  1.00  0.00     0.109 C 
HETATM   15  O3  UNL     1      11.014   2.857  16.322  1.00  0.00    -0.223 OA
HETATM   16  O4  UNL     1      10.541   3.862  15.662  1.00  0.00    -0.197 OA
HETATM   17  C19 UNL     1      10.299   3.565  14.339  1.00  0.00     0.229 C 
HETATM   18  C20 UNL     1      10.409   4.879  13.564  1.00  0.00     0.074 C 
HETATM   19  C21 UNL     1       9.435   4.744  12.439  1.00  0.00     0.006 C 
HETATM   20  C22 UNL     1       8.254   4.060  13.132  1.00  0.00     0.006 C 
HETATM   21  C23 UNL     1       8.874   3.128  14.144  1.00  0.00     0.074 C 
HETATM   22  O5  UNL     1      11.222   2.700  13.777  1.00  0.00    -0.195 OA
HETATM   23  O6  UNL     1      11.275   1.544  14.354  1.00  0.00    -0.197 OA
ENDROOT
BRANCH   8  24
HETATM   24  O1  UNL     1      13.228   0.511  14.117  1.00  0.00    -0.362 OA
ATOM     25  H1  UNL     1      14.004   0.951  13.791  1.00  0.00     0.213 HD
ENDBRANCH   8  24
BRANCH  14  26
HETATM   26  O2  UNL     1      14.074   1.528  17.546  1.00  0.00    -0.385 OA
ATOM     27  H2  UNL     1      14.489   1.533  16.692  1.00  0.00     0.210 HD
ENDBRANCH  14  26
BRANCH  13  28
HETATM   28  C14 UNL     1      12.230   1.382  19.867  1.00  0.00    -0.045 C 
HETATM   29  C15 UNL     1      11.108   1.775  20.860  1.00  0.00     0.015 C 
HETATM   30  C16 UNL     1      13.461   1.875  20.606  1.00  0.00     0.015 C 
HETATM   31  C17 UNL     1      12.311  -0.105  19.936  1.00  0.00     0.015 C 
ENDBRANCH  13  28
TORSDOF 3
ENDMDL
