MODEL 1
REMARK VINA RESULT: -8.702384983      0.000      0.000
REMARK  2 active torsions:
REMARK  status: ('A' for Active; 'I' for Inactive)
REMARK    1  A    between atoms: C5_5  and  O1_6 
REMARK    2  A    between atoms: C13_17  and  O4_18 
ROOT
HETATM    1  C1  UNL     1      11.708   2.024  19.434  1.00  0.00     0.015 C 
HETATM    2  C2  UNL     1      12.905   1.630  18.627  1.00  0.00     0.047 C 
HETATM    3  C3  UNL     1      14.138   1.898  19.459  1.00  0.00     0.014 C 
HETATM    4  C4  UNL     1      14.405   3.354  19.564  1.00  0.00     0.061 C 
HETATM    5  C5  UNL     1      13.503   4.244  18.812  1.00  0.00     0.260 C 
HETATM    6  O2  UNL     1      13.031   3.817  17.622  1.00  0.00    -0.322 OA
HETATM    7  C6  UNL     1      12.989   2.478  17.396  1.00  0.00     0.203 C 
HETATM    8  C7  UNL     1      14.239   2.108  16.584  1.00  0.00     0.072 C 
HETATM    9  C8  UNL     1      14.266   3.016  15.397  1.00  0.00     0.013 C 
HETATM   10  C9  UNL     1      13.227   2.726  14.369  1.00  0.00     0.022 C 
HETATM   11  C10 UNL     1      13.193   1.257  14.065  1.00  0.00     0.013 C 
HETATM   12  C11 UNL     1      11.888   3.317  14.667  1.00  0.00     0.130 C 
HETATM   13  C12 UNL     1      12.028   4.838  14.512  1.00  0.00     0.213 C 
HETATM   14  O3  UNL     1      11.440   5.165  13.327  1.00  0.00    -0.351 OA
HETATM   15  C13 UNL     1      10.546   4.205  12.961  1.00  0.00     0.172 C 
HETATM   16  C14 UNL     1       9.242   4.168  13.760  1.00  0.00     0.054 C 
HETATM   17  C15 UNL     1       8.057   4.428  12.924  1.00  0.00     0.011 C 
HETATM   18  C16 UNL     1       6.928   3.483  13.033  1.00  0.00     0.005 C 
HETATM   19  C17 UNL     1       7.211   2.195  13.711  1.00  0.00    -0.010 C 
HETATM   20  C18 UNL     1       6.211   1.132  13.382  1.00  0.00     0.011 C 
HETATM   21  C19 UNL     1       8.644   1.744  13.483  1.00  0.00    -0.040 C 
HETATM   22  C20 UNL     1       8.840   1.472  12.037  1.00  0.00     0.015 C 
HETATM   23  C21 UNL     1       8.849   0.421  14.232  1.00  0.00     0.015 C 
HETATM   24  C22 UNL     1       9.529   2.753  14.096  1.00  0.00     0.015 C 
HETATM   25  C23 UNL     1      10.916   2.905  13.580  1.00  0.00     0.094 C 
HETATM   26  O5  UNL     1      11.410   3.089  15.923  1.00  0.00    -0.223 OA
HETATM   27  O6  UNL     1      11.911   2.096  16.562  1.00  0.00    -0.199 OA
ENDROOT
BRANCH  15  28
HETATM   28  O4  UNL     1      10.346   4.211  11.585  1.00  0.00    -0.364 OA
ATOM     29  H4  UNL     1      11.071   4.629  11.137  1.00  0.00     0.213 HD
ENDBRANCH  15  28
BRANCH   5  30
HETATM   30  O1  UNL     1      14.203   5.456  18.584  1.00  0.00    -0.371 OA
ATOM     31  H1  UNL     1      14.525   5.430  17.691  1.00  0.00     0.212 HD
ENDBRANCH   5  30
TORSDOF 2
ENDMDL
MODEL 2
REMARK VINA RESULT: -7.715617790      1.136      1.276
REMARK  2 active torsions:
REMARK  status: ('A' for Active; 'I' for Inactive)
REMARK    1  A    between atoms: C5_5  and  O1_6 
REMARK    2  A    between atoms: C13_17  and  O4_18 
ROOT
HETATM    1  C1  UNL     1      10.726   0.403  19.674  1.00  0.00     0.015 C 
HETATM    2  C2  UNL     1      12.063   0.206  19.033  1.00  0.00     0.047 C 
HETATM    3  C3  UNL     1      13.116   0.287  20.113  1.00  0.00     0.014 C 
HETATM    4  C4  UNL     1      13.294   1.683  20.582  1.00  0.00     0.061 C 
HETATM    5  C5  UNL     1      12.499   2.715  19.891  1.00  0.00     0.260 C 
HETATM    6  O2  UNL     1      12.264   2.562  18.571  1.00  0.00    -0.322 OA
HETATM    7  C6  UNL     1      12.324   1.308  18.053  1.00  0.00     0.203 C 
HETATM    8  C7  UNL     1      13.713   1.135  17.422  1.00  0.00     0.072 C 
HETATM    9  C8  UNL     1      13.909   2.285  16.488  1.00  0.00     0.013 C 
HETATM   10  C9  UNL     1      13.081   2.228  15.249  1.00  0.00     0.022 C 
HETATM   11  C10 UNL     1      13.169   0.863  14.630  1.00  0.00     0.013 C 
HETATM   12  C11 UNL     1      11.686   2.731  15.421  1.00  0.00     0.130 C 
HETATM   13  C12 UNL     1      11.781   4.248  15.631  1.00  0.00     0.213 C 
HETATM   14  O3  UNL     1      11.397   4.828  14.460  1.00  0.00    -0.351 OA
HETATM   15  C13 UNL     1      10.627   3.970  13.735  1.00  0.00     0.172 C 
HETATM   16  C14 UNL     1       9.205   3.749  14.255  1.00  0.00     0.054 C 
HETATM   17  C15 UNL     1       8.176   4.184  13.295  1.00  0.00     0.011 C 
HETATM   18  C16 UNL     1       7.089   3.232  12.987  1.00  0.00     0.005 C 
HETATM   19  C17 UNL     1       7.307   1.827  13.406  1.00  0.00    -0.010 C 
HETATM   20  C18 UNL     1       6.430   0.860  12.675  1.00  0.00     0.011 C 
HETATM   21  C19 UNL     1       8.776   1.446  13.350  1.00  0.00    -0.040 C 
HETATM   22  C20 UNL     1       9.237   1.504  11.940  1.00  0.00     0.015 C 
HETATM   23  C21 UNL     1       8.906  -0.010  13.815  1.00  0.00     0.015 C 
HETATM   24  C22 UNL     1       9.493   2.296  14.320  1.00  0.00     0.015 C 
HETATM   25  C23 UNL     1      10.940   2.566  14.112  1.00  0.00     0.094 C 
HETATM   26  O5  UNL     1      11.004   2.225  16.487  1.00  0.00    -0.223 OA
HETATM   27  O6  UNL     1      11.429   1.116  16.974  1.00  0.00    -0.199 OA
ENDROOT
BRANCH  15  28
HETATM   28  O4  UNL     1      10.672   4.282  12.381  1.00  0.00    -0.364 OA
ATOM     29  H4  UNL     1      10.063   3.747  11.888  1.00  0.00     0.213 HD
ENDBRANCH  15  28
BRANCH   5  30
HETATM   30  O1  UNL     1      13.172   3.950  20.065  1.00  0.00    -0.371 OA
ATOM     31  H1  UNL     1      13.519   3.959  20.949  1.00  0.00     0.212 HD
ENDBRANCH   5  30
TORSDOF 2
ENDMDL
MODEL 3
REMARK VINA RESULT: -7.359926141      1.986      2.929
REMARK  2 active torsions:
REMARK  status: ('A' for Active; 'I' for Inactive)
REMARK    1  A    between atoms: C5_5  and  O1_6 
REMARK    2  A    between atoms: C13_17  and  O4_18 
ROOT
HETATM    1  C1  UNL     1      10.173   0.501  21.090  1.00  0.00     0.015 C 
HETATM    2  C2  UNL     1      11.608   0.127  20.897  1.00  0.00     0.047 C 
HETATM    3  C3  UNL     1      12.300   0.218  22.237  1.00  0.00     0.014 C 
HETATM    4  C4  UNL     1      12.487   1.631  22.647  1.00  0.00     0.061 C 
HETATM    5  C5  UNL     1      12.051   2.659  21.684  1.00  0.00     0.260 C 
HETATM    6  O2  UNL     1      12.199   2.403  20.368  1.00  0.00    -0.322 OA
HETATM    7  C6  UNL     1      12.268   1.105  19.974  1.00  0.00     0.203 C 
HETATM    8  C7  UNL     1      13.752   0.752  19.804  1.00  0.00     0.072 C 
HETATM    9  C8  UNL     1      14.341   1.788  18.901  1.00  0.00     0.013 C 
HETATM   10  C9  UNL     1      13.913   1.686  17.477  1.00  0.00     0.022 C 
HETATM   11  C10 UNL     1      14.026   0.266  17.002  1.00  0.00     0.013 C 
HETATM   12  C11 UNL     1      12.595   2.323  17.186  1.00  0.00     0.130 C 
HETATM   13  C12 UNL     1      12.793   3.839  17.318  1.00  0.00     0.213 C 
HETATM   14  O3  UNL     1      12.838   4.338  16.051  1.00  0.00    -0.351 OA
HETATM   15  C13 UNL     1      12.224   3.486  15.183  1.00  0.00     0.172 C 
HETATM   16  C14 UNL     1      10.696   3.441  15.263  1.00  0.00     0.054 C 
HETATM   17  C15 UNL     1      10.050   3.871  14.011  1.00  0.00     0.011 C 
HETATM   18  C16 UNL     1       9.003   2.994  13.451  1.00  0.00     0.005 C 
HETATM   19  C17 UNL     1       8.929   1.620  14.004  1.00  0.00    -0.010 C 
HETATM   20  C18 UNL     1       8.203   0.669  13.107  1.00  0.00     0.011 C 
HETATM   21  C19 UNL     1      10.298   1.108  14.420  1.00  0.00    -0.040 C 
HETATM   22  C20 UNL     1      11.156   0.993  13.214  1.00  0.00     0.015 C 
HETATM   23  C21 UNL     1      10.121  -0.303  14.994  1.00  0.00     0.015 C 
HETATM   24  C22 UNL     1      10.788   1.980  15.504  1.00  0.00     0.015 C 
HETATM   25  C23 UNL     1      12.253   2.102  15.726  1.00  0.00     0.094 C 
HETATM   26  O5  UNL     1      11.577   1.982  18.027  1.00  0.00    -0.223 OA
HETATM   27  O6  UNL     1      11.714   0.892  18.689  1.00  0.00    -0.199 OA
ENDROOT
BRANCH  15  28
HETATM   28  O4  UNL     1      12.700   3.664  13.889  1.00  0.00    -0.364 OA
ATOM     29  H4  UNL     1      13.363   3.017  13.679  1.00  0.00     0.213 HD
ENDBRANCH  15  28
BRANCH   5  30
HETATM   30  O1  UNL     1      12.777   3.841  21.975  1.00  0.00    -0.371 OA
ATOM     31  H1  UNL     1      12.239   4.366  22.555  1.00  0.00     0.212 HD
ENDBRANCH   5  30
TORSDOF 2
ENDMDL
MODEL 4
REMARK VINA RESULT: -6.924819023      2.382      7.248
REMARK  2 active torsions:
REMARK  status: ('A' for Active; 'I' for Inactive)
REMARK    1  A    between atoms: C5_5  and  O1_6 
REMARK    2  A    between atoms: C13_17  and  O4_18 
ROOT
HETATM    1  C1  UNL     1       9.494   3.278  13.134  1.00  0.00     0.015 C 
HETATM    2  C2  UNL     1       9.822   1.898  12.662  1.00  0.00     0.047 C 
HETATM    3  C3  UNL     1       8.748   1.469  11.689  1.00  0.00     0.014 C 
HETATM    4  C4  UNL     1       7.477   1.171  12.394  1.00  0.00     0.061 C 
HETATM    5  C5  UNL     1       7.502   1.269  13.864  1.00  0.00     0.260 C 
HETATM    6  O2  UNL     1       8.632   0.910  14.508  1.00  0.00    -0.322 OA
HETATM    7  C6  UNL     1       9.800   0.946  13.818  1.00  0.00     0.203 C 
HETATM    8  C7  UNL     1      10.095  -0.481  13.333  1.00  0.00     0.072 C 
HETATM    9  C8  UNL     1      10.022  -1.368  14.534  1.00  0.00     0.013 C 
HETATM   10  C9  UNL     1      11.152  -1.210  15.493  1.00  0.00     0.022 C 
HETATM   11  C10 UNL     1      12.460  -1.215  14.757  1.00  0.00     0.013 C 
HETATM   12  C11 UNL     1      10.993  -0.071  16.445  1.00  0.00     0.130 C 
HETATM   13  C12 UNL     1       9.855  -0.447  17.404  1.00  0.00     0.213 C 
HETATM   14  O3  UNL     1      10.440  -0.801  18.583  1.00  0.00    -0.351 OA
HETATM   15  C13 UNL     1      11.682  -0.252  18.680  1.00  0.00     0.172 C 
HETATM   16  C14 UNL     1      11.727   1.254  18.946  1.00  0.00     0.054 C 
HETATM   17  C15 UNL     1      12.380   1.584  20.225  1.00  0.00     0.011 C 
HETATM   18  C16 UNL     1      13.436   2.616  20.203  1.00  0.00     0.005 C 
HETATM   19  C17 UNL     1      13.970   2.982  18.869  1.00  0.00    -0.010 C 
HETATM   20  C18 UNL     1      15.308   3.647  18.940  1.00  0.00     0.011 C 
HETATM   21  C19 UNL     1      13.950   1.801  17.913  1.00  0.00    -0.040 C 
HETATM   22  C20 UNL     1      14.869   0.753  18.422  1.00  0.00     0.015 C 
HETATM   23  C21 UNL     1      14.499   2.277  16.562  1.00  0.00     0.015 C 
HETATM   24  C22 UNL     1      12.541   1.412  17.717  1.00  0.00     0.015 C 
HETATM   25  C23 UNL     1      12.227   0.013  17.322  1.00  0.00     0.094 C 
HETATM   26  O5  UNL     1      10.658   1.125  15.883  1.00  0.00    -0.223 OA
HETATM   27  O6  UNL     1      10.911   1.269  14.634  1.00  0.00    -0.199 OA
ENDROOT
BRANCH  15  28
HETATM   28  O4  UNL     1      12.485  -0.986  19.546  1.00  0.00    -0.364 OA
ATOM     29  H4  UNL     1      13.378  -0.664  19.537  1.00  0.00     0.213 HD
ENDBRANCH  15  28
BRANCH   5  30
HETATM   30  O1  UNL     1       6.451   0.456  14.358  1.00  0.00    -0.371 OA
ATOM     31  H1  UNL     1       6.616   0.313  15.282  1.00  0.00     0.212 HD
ENDBRANCH   5  30
TORSDOF 2
ENDMDL
MODEL 5
REMARK VINA RESULT: -6.867585103      2.507      4.313
REMARK  2 active torsions:
REMARK  status: ('A' for Active; 'I' for Inactive)
REMARK    1  A    between atoms: C5_5  and  O1_6 
REMARK    2  A    between atoms: C13_17  and  O4_18 
ROOT
HETATM    1  C1  UNL     1       9.901   1.346  22.028  1.00  0.00     0.015 C 
HETATM    2  C2  UNL     1      11.269   0.743  22.083  1.00  0.00     0.047 C 
HETATM    3  C3  UNL     1      11.712   0.719  23.527  1.00  0.00     0.014 C 
HETATM    4  C4  UNL     1      12.047   2.082  24.006  1.00  0.00     0.061 C 
HETATM    5  C5  UNL     1      11.964   3.167  23.011  1.00  0.00     0.260 C 
HETATM    6  O2  UNL     1      12.304   2.891  21.736  1.00  0.00    -0.322 OA
HETATM    7  C6  UNL     1      12.233   1.599  21.321  1.00  0.00     0.203 C 
HETATM    8  C7  UNL     1      13.647   1.008  21.408  1.00  0.00     0.072 C 
HETATM    9  C8  UNL     1      14.548   1.934  20.656  1.00  0.00     0.013 C 
HETATM   10  C9  UNL     1      14.374   1.903  19.176  1.00  0.00     0.022 C 
HETATM   11  C10 UNL     1      14.341   0.484  18.687  1.00  0.00     0.013 C 
HETATM   12  C11 UNL     1      13.249   2.747  18.674  1.00  0.00     0.130 C 
HETATM   13  C12 UNL     1      13.662   4.211  18.884  1.00  0.00     0.213 C 
HETATM   14  O3  UNL     1      14.015   4.695  17.660  1.00  0.00    -0.351 OA
HETATM   15  C13 UNL     1      13.438   3.955  16.672  1.00  0.00     0.172 C 
HETATM   16  C14 UNL     1      11.935   4.160  16.477  1.00  0.00     0.054 C 
HETATM   17  C15 UNL     1      11.603   4.691  15.144  1.00  0.00     0.011 C 
HETATM   18  C16 UNL     1      10.547   3.996  14.380  1.00  0.00     0.005 C 
HETATM   19  C17 UNL     1      10.154   2.654  14.870  1.00  0.00    -0.010 C 
HETATM   20  C18 UNL     1       9.460   1.834  13.830  1.00  0.00     0.011 C 
HETATM   21  C19 UNL     1      11.325   1.925  15.508  1.00  0.00    -0.040 C 
HETATM   22  C20 UNL     1      12.357   1.670  14.472  1.00  0.00     0.015 C 
HETATM   23  C21 UNL     1      10.822   0.561  16.000  1.00  0.00     0.015 C 
HETATM   24  C22 UNL     1      11.745   2.705  16.688  1.00  0.00     0.015 C 
HETATM   25  C23 UNL     1      13.146   2.585  17.170  1.00  0.00     0.094 C 
HETATM   26  O5  UNL     1      12.056   2.578  19.309  1.00  0.00    -0.223 OA
HETATM   27  O6  UNL     1      11.893   1.479  19.953  1.00  0.00    -0.199 OA
ENDROOT
BRANCH  15  28
HETATM   28  O4  UNL     1      14.163   4.053  15.490  1.00  0.00    -0.364 OA
ATOM     29  H4  UNL     1      14.597   3.232  15.288  1.00  0.00     0.213 HD
ENDBRANCH  15  28
BRANCH   5  30
HETATM   30  O1  UNL     1      12.806   4.215  23.461  1.00  0.00    -0.371 OA
ATOM     31  H1  UNL     1      12.323   5.026  23.361  1.00  0.00     0.212 HD
ENDBRANCH   5  30
TORSDOF 2
ENDMDL
