MODEL 1
REMARK VINA RESULT: -7.376186948      0.000      0.000
REMARK  3 active torsions:
REMARK  status: ('A' for Active; 'I' for Inactive)
REMARK    1  A    between atoms: C7_8  and  O2_9 
REMARK    2  A    between atoms: C13_17  and  O4_19 
REMARK    3  A    between atoms: C20_27  and  O6_28 
ROOT
HETATM    1  C1  UNL     1     -16.345  -2.209  -9.866  1.00  0.00     0.018 C 
HETATM    2  C2  UNL     1     -15.083  -2.007 -10.574  1.00  0.00    -0.017 C 
HETATM    3  C3  UNL     1     -15.109  -0.599 -11.191  1.00  0.00     0.018 C 
HETATM    4  C4  UNL     1     -15.093  -2.938 -11.799  1.00  0.00     0.178 C 
HETATM    5  O1  UNL     1     -13.900  -3.562 -11.760  1.00  0.00    -0.377 OA
HETATM    6  C5  UNL     1     -13.533  -3.724 -10.390  1.00  0.00     0.090 C 
HETATM    7  C6  UNL     1     -14.519  -4.793  -9.928  1.00  0.00     0.049 C 
HETATM    8  C7  UNL     1     -12.163  -4.282 -10.398  1.00  0.00     0.155 C 
HETATM    9  C8  UNL     1     -10.983  -3.418 -10.336  1.00  0.00     0.075 C 
HETATM   10  C9  UNL     1     -10.210  -3.252  -9.105  1.00  0.00     0.086 C 
HETATM   11  C10 UNL     1      -8.711  -3.608  -9.287  1.00  0.00     0.049 C 
HETATM   12  O3  UNL     1     -10.106  -1.932  -8.598  1.00  0.00    -0.372 OA
HETATM   13  C11 UNL     1     -11.342  -1.452  -8.419  1.00  0.00     0.132 C 
HETATM   14  C12 UNL     1     -11.449  -0.082  -7.732  1.00  0.00     0.070 C 
HETATM   15  C13 UNL     1     -12.877   0.292  -7.717  1.00  0.00     0.065 C 
HETATM   16  C14 UNL     1     -12.968   1.597  -8.538  1.00  0.00     0.046 C 
HETATM   17  C15 UNL     1     -13.968  -0.612  -8.100  1.00  0.00     0.079 C 
HETATM   18  C16 UNL     1     -14.721  -1.268  -6.925  1.00  0.00     0.179 C 
HETATM   19  O5  UNL     1     -14.693  -2.435  -7.630  1.00  0.00    -0.378 OA
HETATM   20  C17 UNL     1     -13.641  -2.046  -8.479  1.00  0.00     0.082 C 
HETATM   21  C18 UNL     1     -12.365  -2.308  -7.773  1.00  0.00     0.053 C 
HETATM   22  C19 UNL     1     -11.959  -3.670  -7.353  1.00  0.00     0.045 C 
HETATM   23  C20 UNL     1     -10.600  -4.060  -7.898  1.00  0.00     0.153 C 
HETATM   24  C21 UNL     1     -13.792  -2.358  -9.899  1.00  0.00     0.068 C 
ENDROOT
BRANCH  15  25
HETATM   25  O4  UNL     1     -13.161   0.730  -6.393  1.00  0.00    -0.390 OA
ATOM     26  H4  UNL     1     -12.440   1.293  -6.138  1.00  0.00     0.210 HD
ENDBRANCH  15  25
BRANCH  23  27
HETATM   27  O6  UNL     1     -10.382  -5.417  -7.993  1.00  0.00    -0.393 OA
ATOM     28  H6  UNL     1      -9.472  -5.689  -7.966  1.00  0.00     0.210 HD
ENDBRANCH  23  27
BRANCH   8  29
HETATM   29  O2  UNL     1     -12.083  -5.113 -11.566  1.00  0.00    -0.392 OA
ATOM     30  H2  UNL     1     -12.748  -5.782 -11.455  1.00  0.00     0.210 HD
ENDBRANCH   8  29
TORSDOF 3
ENDMDL
MODEL 2
REMARK VINA RESULT: -7.297852394      1.925      4.570
REMARK  3 active torsions:
REMARK  status: ('A' for Active; 'I' for Inactive)
REMARK    1  A    between atoms: C7_8  and  O2_9 
REMARK    2  A    between atoms: C13_17  and  O4_19 
REMARK    3  A    between atoms: C20_27  and  O6_28 
ROOT
HETATM    1  C1  UNL     1     -12.277  -4.697  -9.094  1.00  0.00     0.018 C 
HETATM    2  C2  UNL     1     -13.520  -3.993  -8.790  1.00  0.00    -0.017 C 
HETATM    3  C3  UNL     1     -13.783  -4.129  -7.281  1.00  0.00     0.018 C 
HETATM    4  C4  UNL     1     -14.667  -4.795  -9.429  1.00  0.00     0.178 C 
HETATM    5  O1  UNL     1     -15.395  -3.876 -10.091  1.00  0.00    -0.377 OA
HETATM    6  C5  UNL     1     -14.505  -2.865 -10.563  1.00  0.00     0.090 C 
HETATM    7  C6  UNL     1     -13.755  -3.603 -11.669  1.00  0.00     0.049 C 
HETATM    8  C7  UNL     1     -15.359  -1.814 -11.158  1.00  0.00     0.155 C 
HETATM    9  C8  UNL     1     -15.820  -0.667 -10.374  1.00  0.00     0.075 C 
HETATM   10  C9  UNL     1     -15.214   0.657 -10.511  1.00  0.00     0.086 C 
HETATM   11  C10 UNL     1     -16.249   1.755 -10.875  1.00  0.00     0.049 C 
HETATM   12  O3  UNL     1     -14.642   1.215  -9.339  1.00  0.00    -0.372 OA
HETATM   13  C11 UNL     1     -13.736   0.355  -8.863  1.00  0.00     0.132 C 
HETATM   14  C12 UNL     1     -12.894   0.840  -7.674  1.00  0.00     0.070 C 
HETATM   15  C13 UNL     1     -12.031  -0.284  -7.258  1.00  0.00     0.065 C 
HETATM   16  C14 UNL     1     -12.441  -0.599  -5.802  1.00  0.00     0.046 C 
HETATM   17  C15 UNL     1     -11.887  -1.534  -8.014  1.00  0.00     0.079 C 
HETATM   18  C16 UNL     1     -10.617  -1.635  -8.882  1.00  0.00     0.179 C 
HETATM   19  O5  UNL     1     -11.399  -2.165  -9.867  1.00  0.00    -0.378 OA
HETATM   20  C17 UNL     1     -12.611  -1.682  -9.342  1.00  0.00     0.082 C 
HETATM   21  C18 UNL     1     -12.781  -0.284  -9.800  1.00  0.00     0.053 C 
HETATM   22  C19 UNL     1     -12.883   0.071 -11.236  1.00  0.00     0.045 C 
HETATM   23  C20 UNL     1     -14.142   0.853 -11.548  1.00  0.00     0.153 C 
HETATM   24  C21 UNL     1     -13.739  -2.611  -9.329  1.00  0.00     0.068 C 
ENDROOT
BRANCH  15  25
HETATM   25  O4  UNL     1     -10.721   0.252  -7.110  1.00  0.00    -0.390 OA
ATOM     26  H4  UNL     1     -10.121  -0.472  -7.245  1.00  0.00     0.210 HD
ENDBRANCH  15  25
BRANCH  23  27
HETATM   27  O6  UNL     1     -14.560   0.777 -12.859  1.00  0.00    -0.393 OA
ATOM     28  H6  UNL     1     -14.258   0.017 -13.343  1.00  0.00     0.210 HD
ENDBRANCH  23  27
BRANCH   8  29
HETATM   29  O2  UNL     1     -16.492  -2.496 -11.715  1.00  0.00    -0.392 OA
ATOM     30  H2  UNL     1     -16.970  -1.843 -12.212  1.00  0.00     0.210 HD
ENDBRANCH   8  29
TORSDOF 3
ENDMDL
MODEL 3
REMARK VINA RESULT: -7.137724314      1.374      4.493
REMARK  3 active torsions:
REMARK  status: ('A' for Active; 'I' for Inactive)
REMARK    1  A    between atoms: C7_8  and  O2_9 
REMARK    2  A    between atoms: C13_17  and  O4_19 
REMARK    3  A    between atoms: C20_27  and  O6_28 
ROOT
HETATM    1  C1  UNL     1     -15.565  -1.174  -9.149  1.00  0.00     0.018 C 
HETATM    2  C2  UNL     1     -15.001  -2.194  -8.270  1.00  0.00    -0.017 C 
HETATM    3  C3  UNL     1     -16.080  -3.263  -8.034  1.00  0.00     0.018 C 
HETATM    4  C4  UNL     1     -14.821  -1.552  -6.882  1.00  0.00     0.178 C 
HETATM    5  O1  UNL     1     -13.564  -1.872  -6.522  1.00  0.00    -0.377 OA
HETATM    6  C5  UNL     1     -12.766  -1.923  -7.705  1.00  0.00     0.090 C 
HETATM    7  C6  UNL     1     -12.675  -0.447  -8.083  1.00  0.00     0.049 C 
HETATM    8  C7  UNL     1     -11.436  -2.409  -7.280  1.00  0.00     0.155 C 
HETATM    9  C8  UNL     1     -11.096  -3.833  -7.309  1.00  0.00     0.075 C 
HETATM   10  C9  UNL     1     -10.252  -4.405  -8.358  1.00  0.00     0.086 C 
HETATM   11  C10 UNL     1      -9.006  -5.138  -7.792  1.00  0.00     0.049 C 
HETATM   12  O3  UNL     1     -10.829  -5.437  -9.142  1.00  0.00    -0.372 OA
HETATM   13  C11 UNL     1     -11.960  -4.971  -9.682  1.00  0.00     0.132 C 
HETATM   14  C12 UNL     1     -12.664  -5.891 -10.690  1.00  0.00     0.070 C 
HETATM   15  C13 UNL     1     -13.921  -5.227 -11.089  1.00  0.00     0.065 C 
HETATM   16  C14 UNL     1     -15.049  -6.187 -10.649  1.00  0.00     0.046 C 
HETATM   17  C15 UNL     1     -14.274  -3.849 -10.727  1.00  0.00     0.079 C 
HETATM   18  C16 UNL     1     -14.043  -2.801 -11.834  1.00  0.00     0.179 C 
HETATM   19  O5  UNL     1     -13.527  -1.981 -10.874  1.00  0.00    -0.378 OA
HETATM   20  C17 UNL     1     -13.274  -3.010  -9.949  1.00  0.00     0.082 C 
HETATM   21  C18 UNL     1     -11.969  -3.621 -10.293  1.00  0.00     0.053 C 
HETATM   22  C19 UNL     1     -10.705  -2.847 -10.274  1.00  0.00     0.045 C 
HETATM   23  C20 UNL     1      -9.656  -3.481  -9.384  1.00  0.00     0.153 C 
HETATM   24  C21 UNL     1     -13.639  -2.750  -8.558  1.00  0.00     0.068 C 
ENDROOT
BRANCH  15  25
HETATM   25  O4  UNL     1     -13.978  -5.300 -12.509  1.00  0.00    -0.390 OA
ATOM     26  H4  UNL     1     -13.083  -5.219 -12.815  1.00  0.00     0.210 HD
ENDBRANCH  15  25
BRANCH  23  27
HETATM   27  O6  UNL     1      -8.693  -2.613  -8.917  1.00  0.00    -0.393 OA
ATOM     28  H6  UNL     1      -7.793  -2.867  -9.087  1.00  0.00     0.210 HD
ENDBRANCH  23  27
BRANCH   8  29
HETATM   29  O2  UNL     1     -11.235  -1.900  -5.953  1.00  0.00    -0.392 OA
ATOM     30  H2  UNL     1     -11.878  -1.210  -5.840  1.00  0.00     0.210 HD
ENDBRANCH   8  29
TORSDOF 3
ENDMDL
MODEL 4
REMARK VINA RESULT: -7.120660799      1.641      4.709
REMARK  3 active torsions:
REMARK  status: ('A' for Active; 'I' for Inactive)
REMARK    1  A    between atoms: C7_8  and  O2_9 
REMARK    2  A    between atoms: C13_17  and  O4_19 
REMARK    3  A    between atoms: C20_27  and  O6_28 
ROOT
HETATM    1  C1  UNL     1      -9.789  -2.729  -8.273  1.00  0.00     0.018 C 
HETATM    2  C2  UNL     1     -10.592  -3.939  -8.117  1.00  0.00    -0.017 C 
HETATM    3  C3  UNL     1     -10.806  -4.173  -6.613  1.00  0.00     0.018 C 
HETATM    4  C4  UNL     1      -9.713  -5.128  -8.545  1.00  0.00     0.178 C 
HETATM    5  O1  UNL     1     -10.490  -5.838  -9.386  1.00  0.00    -0.377 OA
HETATM    6  C5  UNL     1     -11.334  -4.923 -10.084  1.00  0.00     0.090 C 
HETATM    7  C6  UNL     1     -10.339  -4.224 -11.007  1.00  0.00     0.049 C 
HETATM    8  C7  UNL     1     -12.259  -5.751 -10.887  1.00  0.00     0.155 C 
HETATM    9  C8  UNL     1     -13.569  -6.155 -10.373  1.00  0.00     0.075 C 
HETATM   10  C9  UNL     1     -14.805  -5.504 -10.811  1.00  0.00     0.086 C 
HETATM   11  C10 UNL     1     -15.833  -6.508 -11.398  1.00  0.00     0.049 C 
HETATM   12  O3  UNL     1     -15.586  -4.888  -9.801  1.00  0.00    -0.372 OA
HETATM   13  C11 UNL     1     -14.819  -4.002  -9.158  1.00  0.00     0.132 C 
HETATM   14  C12 UNL     1     -15.523  -3.117  -8.118  1.00  0.00     0.070 C 
HETATM   15  C13 UNL     1     -14.486  -2.286  -7.473  1.00  0.00     0.065 C 
HETATM   16  C14 UNL     1     -14.521  -2.674  -5.979  1.00  0.00     0.046 C 
HETATM   17  C15 UNL     1     -13.095  -2.204  -7.933  1.00  0.00     0.079 C 
HETATM   18  C16 UNL     1     -12.753  -0.958  -8.774  1.00  0.00     0.179 C 
HETATM   19  O5  UNL     1     -12.048  -1.779  -9.605  1.00  0.00    -0.378 OA
HETATM   20  C17 UNL     1     -12.684  -2.961  -9.184  1.00  0.00     0.082 C 
HETATM   21  C18 UNL     1     -13.950  -3.092  -9.941  1.00  0.00     0.053 C 
HETATM   22  C19 UNL     1     -13.980  -3.212 -11.418  1.00  0.00     0.045 C 
HETATM   23  C20 UNL     1     -14.722  -4.449 -11.880  1.00  0.00     0.153 C 
HETATM   24  C21 UNL     1     -11.826  -4.121  -8.948  1.00  0.00     0.068 C 
ENDROOT
BRANCH  15  25
HETATM   25  O4  UNL     1     -14.989  -0.955  -7.467  1.00  0.00    -0.390 OA
ATOM     26  H4  UNL     1     -14.469  -0.476  -6.833  1.00  0.00     0.210 HD
ENDBRANCH  15  25
BRANCH  23  27
HETATM   27  O6  UNL     1     -14.372  -4.899 -13.135  1.00  0.00    -0.393 OA
ATOM     28  H6  UNL     1     -14.927  -5.581 -13.496  1.00  0.00     0.210 HD
ENDBRANCH  23  27
BRANCH   8  29
HETATM   29  O2  UNL     1     -11.515  -6.921 -11.262  1.00  0.00    -0.392 OA
ATOM     30  H2  UNL     1     -12.112  -7.456 -11.772  1.00  0.00     0.210 HD
ENDBRANCH   8  29
TORSDOF 3
ENDMDL
MODEL 5
REMARK VINA RESULT: -7.016480252      1.832      4.780
REMARK  3 active torsions:
REMARK  status: ('A' for Active; 'I' for Inactive)
REMARK    1  A    between atoms: C7_8  and  O2_9 
REMARK    2  A    between atoms: C13_17  and  O4_19 
REMARK    3  A    between atoms: C20_27  and  O6_28 
ROOT
HETATM    1  C1  UNL     1     -13.586   0.395  -7.734  1.00  0.00     0.018 C 
HETATM    2  C2  UNL     1     -13.457  -0.796  -6.899  1.00  0.00    -0.017 C 
HETATM    3  C3  UNL     1     -14.831  -1.483  -6.841  1.00  0.00     0.018 C 
HETATM    4  C4  UNL     1     -13.232  -0.318  -5.453  1.00  0.00     0.178 C 
HETATM    5  O1  UNL     1     -12.177  -1.035  -5.020  1.00  0.00    -0.377 OA
HETATM    6  C5  UNL     1     -11.317  -1.272  -6.134  1.00  0.00     0.090 C 
HETATM    7  C6  UNL     1     -10.738   0.119  -6.381  1.00  0.00     0.049 C 
HETATM    8  C7  UNL     1     -10.252  -2.173  -5.645  1.00  0.00     0.155 C 
HETATM    9  C8  UNL     1     -10.366  -3.628  -5.763  1.00  0.00     0.075 C 
HETATM   10  C9  UNL     1      -9.636  -4.380  -6.785  1.00  0.00     0.086 C 
HETATM   11  C10 UNL     1      -8.742  -5.496  -6.181  1.00  0.00     0.049 C 
HETATM   12  O3  UNL     1     -10.419  -5.135  -7.695  1.00  0.00    -0.372 OA
HETATM   13  C11 UNL     1     -11.290  -4.309  -8.284  1.00  0.00     0.132 C 
HETATM   14  C12 UNL     1     -12.136  -4.907  -9.418  1.00  0.00     0.070 C 
HETATM   15  C13 UNL     1     -13.080  -3.861  -9.861  1.00  0.00     0.065 C 
HETATM   16  C14 UNL     1     -14.487  -4.440  -9.595  1.00  0.00     0.046 C 
HETATM   17  C15 UNL     1     -13.026  -2.463  -9.418  1.00  0.00     0.079 C 
HETATM   18  C16 UNL     1     -12.372  -1.483 -10.412  1.00  0.00     0.179 C 
HETATM   19  O5  UNL     1     -11.729  -0.919  -9.348  1.00  0.00    -0.378 OA
HETATM   20  C17 UNL     1     -11.902  -2.024  -8.495  1.00  0.00     0.082 C 
HETATM   21  C18 UNL     1     -10.821  -2.994  -8.780  1.00  0.00     0.053 C 
HETATM   22  C19 UNL     1      -9.388  -2.659  -8.596  1.00  0.00     0.045 C 
HETATM   23  C20 UNL     1      -8.682  -3.637  -7.679  1.00  0.00     0.153 C 
HETATM   24  C21 UNL     1     -12.310  -1.736  -7.121  1.00  0.00     0.068 C 
ENDROOT
BRANCH  15  25
HETATM   25  O4  UNL     1     -13.010  -3.837 -11.283  1.00  0.00    -0.390 OA
ATOM     26  H4  UNL     1     -12.129  -4.106 -11.511  1.00  0.00     0.210 HD
ENDBRANCH  15  25
BRANCH  23  27
HETATM   27  O6  UNL     1      -7.552  -3.141  -7.065  1.00  0.00    -0.393 OA
ATOM     28  H6  UNL     1      -6.954  -3.794  -6.720  1.00  0.00     0.210 HD
ENDBRANCH  23  27
BRANCH   8  29
HETATM   29  O2  UNL     1     -10.042  -1.823  -4.269  1.00  0.00    -0.392 OA
ATOM     30  H2  UNL     1      -9.628  -2.579  -3.869  1.00  0.00     0.210 HD
ENDBRANCH   8  29
TORSDOF 3
ENDMDL
