MODEL 1
REMARK VINA RESULT: -7.275114907      0.000      0.000
REMARK  3 active torsions:
REMARK  status: ('A' for Active; 'I' for Inactive)
REMARK    1  A    between atoms: C4_5  and  O2_6 
REMARK    2  A    between atoms: C12_15  and  O3_16 
REMARK    3  A    between atoms: C21_28  and  O6_29 
ROOT
HETATM    1  C1  UNL     1     -10.106  -4.813  -7.384  1.00  0.00     0.048 C 
HETATM    2  C2  UNL     1     -10.433  -3.462  -8.048  1.00  0.00     0.084 C 
HETATM    3  C3  UNL     1      -9.113  -3.128  -8.762  1.00  0.00     0.048 C 
HETATM    4  O1  UNL     1     -11.487  -3.576  -8.844  1.00  0.00    -0.342 OA
HETATM    5  C4  UNL     1     -11.943  -2.671  -9.675  1.00  0.00     0.174 C 
HETATM    6  C5  UNL     1     -11.607  -1.238  -9.566  1.00  0.00     0.070 C 
HETATM    7  C6  UNL     1     -12.225  -0.534  -8.416  1.00  0.00     0.011 C 
HETATM    8  C7  UNL     1     -12.984  -1.517  -7.541  1.00  0.00     0.008 C 
HETATM    9  C8  UNL     1     -12.066  -2.127  -6.577  1.00  0.00    -0.011 C 
HETATM   10  C9  UNL     1     -11.741  -1.018  -5.528  1.00  0.00     0.018 C 
HETATM   11  C10 UNL     1     -12.741  -3.173  -5.709  1.00  0.00     0.014 C 
HETATM   12  C11 UNL     1     -13.742  -4.012  -6.382  1.00  0.00     0.033 C 
HETATM   13  C12 UNL     1     -14.579  -3.375  -7.436  1.00  0.00     0.127 C 
HETATM   14  C13 UNL     1     -13.956  -2.369  -8.330  1.00  0.00     0.002 C 
HETATM   15  C14 UNL     1     -15.168  -1.411  -8.544  1.00  0.00     0.019 C 
HETATM   16  C15 UNL     1     -13.494  -2.768  -9.689  1.00  0.00     0.064 C 
HETATM   17  C16 UNL     1     -13.896  -1.773 -10.780  1.00  0.00     0.045 C 
HETATM   18  C17 UNL     1     -15.240  -1.996 -11.399  1.00  0.00     0.172 C 
HETATM   19  O4  UNL     1     -15.761  -3.244 -11.315  1.00  0.00    -0.358 OA
HETATM   20  C18 UNL     1     -14.896  -4.264 -11.163  1.00  0.00     0.296 A 
HETATM   21  O5  UNL     1     -13.669  -4.104 -11.717  1.00  0.00    -0.342 OA
HETATM   22  C19 UNL     1     -13.786  -4.131 -10.197  1.00  0.00     0.123 A 
HETATM   23  C20 UNL     1     -12.979  -5.362  -9.920  1.00  0.00     0.052 C 
HETATM   24  C21 UNL     1     -10.682  -2.496  -6.980  1.00  0.00     0.160 C 
ENDROOT
BRANCH   5  25
HETATM   25  O2  UNL     1     -11.576  -3.063 -10.991  1.00  0.00    -0.364 OA
ATOM     26  H2  UNL     1     -11.347  -2.279 -11.477  1.00  0.00     0.213 HD
ENDBRANCH   5  25
BRANCH  13  27
HETATM   27  O3  UNL     1     -15.273  -4.388  -8.099  1.00  0.00    -0.395 OA
ATOM     28  H3  UNL     1     -15.768  -3.987  -8.804  1.00  0.00     0.210 HD
ENDBRANCH  13  27
BRANCH  24  29
HETATM   29  O6  UNL     1     -10.038  -2.918  -5.784  1.00  0.00    -0.392 OA
ATOM     30  H6  UNL     1      -9.492  -2.218  -5.446  1.00  0.00     0.210 HD
ENDBRANCH  24  29
TORSDOF 3
ENDMDL
MODEL 2
REMARK VINA RESULT: -7.076827613      1.865      5.126
REMARK  3 active torsions:
REMARK  status: ('A' for Active; 'I' for Inactive)
REMARK    1  A    between atoms: C4_5  and  O2_6 
REMARK    2  A    between atoms: C12_15  and  O3_16 
REMARK    3  A    between atoms: C21_28  and  O6_29 
ROOT
HETATM    1  C1  UNL     1     -15.046   1.082 -10.319  1.00  0.00     0.048 C 
HETATM    2  C2  UNL     1     -13.959   0.016 -10.556  1.00  0.00     0.084 C 
HETATM    3  C3  UNL     1     -12.927   0.792 -11.392  1.00  0.00     0.048 C 
HETATM    4  O1  UNL     1     -13.506  -0.453  -9.402  1.00  0.00    -0.342 OA
HETATM    5  C4  UNL     1     -12.481  -1.251  -9.228  1.00  0.00     0.174 C 
HETATM    6  C5  UNL     1     -11.916  -2.080 -10.311  1.00  0.00     0.070 C 
HETATM    7  C6  UNL     1     -12.765  -3.219 -10.739  1.00  0.00     0.011 C 
HETATM    8  C7  UNL     1     -14.100  -3.182 -10.014  1.00  0.00     0.008 C 
HETATM    9  C8  UNL     1     -15.030  -2.314 -10.739  1.00  0.00    -0.011 C 
HETATM   10  C9  UNL     1     -15.436  -3.096 -12.027  1.00  0.00     0.018 C 
HETATM   11  C10 UNL     1     -16.368  -2.176 -10.037  1.00  0.00     0.014 C 
HETATM   12  C11 UNL     1     -16.317  -2.111  -8.570  1.00  0.00     0.033 C 
HETATM   13  C12 UNL     1     -15.280  -2.928  -7.880  1.00  0.00     0.127 C 
HETATM   14  C13 UNL     1     -13.945  -3.067  -8.513  1.00  0.00     0.002 C 
HETATM   15  C14 UNL     1     -13.595  -4.525  -8.083  1.00  0.00     0.019 C 
HETATM   16  C15 UNL     1     -12.814  -2.213  -8.054  1.00  0.00     0.064 C 
HETATM   17  C16 UNL     1     -11.510  -2.990  -7.859  1.00  0.00     0.045 C 
HETATM   18  C17 UNL     1     -11.316  -3.608  -6.511  1.00  0.00     0.172 C 
HETATM   19  O4  UNL     1     -12.012  -3.072  -5.479  1.00  0.00    -0.358 OA
HETATM   20  C18 UNL     1     -12.402  -1.790  -5.599  1.00  0.00     0.296 A 
HETATM   21  O5  UNL     1     -11.602  -0.981  -6.337  1.00  0.00    -0.342 OA
HETATM   22  C19 UNL     1     -12.986  -1.329  -6.875  1.00  0.00     0.123 A 
HETATM   23  C20 UNL     1     -13.586   0.044  -6.888  1.00  0.00     0.052 C 
HETATM   24  C21 UNL     1     -14.554  -1.049 -11.361  1.00  0.00     0.160 C 
ENDROOT
BRANCH   5  25
HETATM   25  O2  UNL     1     -11.403  -0.474  -8.723  1.00  0.00    -0.364 OA
ATOM     26  H2  UNL     1     -11.076  -0.901  -7.941  1.00  0.00     0.213 HD
ENDBRANCH   5  25
BRANCH  13  27
HETATM   27  O3  UNL     1     -15.248  -2.534  -6.542  1.00  0.00    -0.395 OA
ATOM     28  H3  UNL     1     -16.146  -2.436  -6.247  1.00  0.00     0.210 HD
ENDBRANCH  13  27
BRANCH  24  29
HETATM   29  O6  UNL     1     -15.665  -0.543 -12.090  1.00  0.00    -0.392 OA
ATOM     30  H6  UNL     1     -16.029  -1.226 -12.641  1.00  0.00     0.210 HD
ENDBRANCH  24  29
TORSDOF 3
ENDMDL
MODEL 3
REMARK VINA RESULT: -7.027733938      1.524      2.324
REMARK  3 active torsions:
REMARK  status: ('A' for Active; 'I' for Inactive)
REMARK    1  A    between atoms: C4_5  and  O2_6 
REMARK    2  A    between atoms: C12_15  and  O3_16 
REMARK    3  A    between atoms: C21_28  and  O6_29 
ROOT
HETATM    1  C1  UNL     1     -11.427  -4.078  -4.642  1.00  0.00     0.048 C 
HETATM    2  C2  UNL     1     -10.885  -3.855  -6.067  1.00  0.00     0.084 C 
HETATM    3  C3  UNL     1      -9.919  -5.040  -6.231  1.00  0.00     0.048 C 
HETATM    4  O1  UNL     1     -11.879  -3.818  -6.944  1.00  0.00    -0.342 OA
HETATM    5  C4  UNL     1     -11.771  -3.798  -8.249  1.00  0.00     0.174 C 
HETATM    6  C5  UNL     1     -10.532  -3.403  -8.948  1.00  0.00     0.070 C 
HETATM    7  C6  UNL     1     -10.199  -1.960  -8.870  1.00  0.00     0.011 C 
HETATM    8  C7  UNL     1     -11.186  -1.240  -7.967  1.00  0.00     0.008 C 
HETATM    9  C8  UNL     1     -10.742  -1.339  -6.575  1.00  0.00    -0.011 C 
HETATM   10  C9  UNL     1      -9.507  -0.393  -6.447  1.00  0.00     0.018 C 
HETATM   11  C10 UNL     1     -11.715  -0.697  -5.604  1.00  0.00     0.014 C 
HETATM   12  C11 UNL     1     -13.140  -0.868  -5.920  1.00  0.00     0.033 C 
HETATM   13  C12 UNL     1     -13.531  -0.871  -7.357  1.00  0.00     0.127 C 
HETATM   14  C13 UNL     1     -12.627  -1.514  -8.341  1.00  0.00     0.002 C 
HETATM   15  C14 UNL     1     -12.856  -0.579  -9.568  1.00  0.00     0.019 C 
HETATM   16  C15 UNL     1     -12.908  -2.900  -8.812  1.00  0.00     0.064 C 
HETATM   17  C16 UNL     1     -12.764  -3.063 -10.327  1.00  0.00     0.045 C 
HETATM   18  C17 UNL     1     -13.989  -2.764 -11.132  1.00  0.00     0.172 C 
HETATM   19  O4  UNL     1     -15.182  -2.842 -10.495  1.00  0.00    -0.358 OA
HETATM   20  C18 UNL     1     -15.250  -3.632  -9.408  1.00  0.00     0.296 A 
HETATM   21  O5  UNL     1     -14.429  -4.711  -9.392  1.00  0.00    -0.342 OA
HETATM   22  C19 UNL     1     -14.164  -3.577  -8.408  1.00  0.00     0.123 A 
HETATM   23  C20 UNL     1     -14.386  -4.321  -7.126  1.00  0.00     0.052 C 
HETATM   24  C21 UNL     1     -10.138  -2.599  -6.063  1.00  0.00     0.160 C 
ENDROOT
BRANCH   5  25
HETATM   25  O2  UNL     1     -12.102  -5.092  -8.735  1.00  0.00    -0.364 OA
ATOM     26  H2  UNL     1     -11.293  -5.537  -8.957  1.00  0.00     0.213 HD
ENDBRANCH   5  25
BRANCH  13  27
HETATM   27  O3  UNL     1     -14.861  -1.286  -7.435  1.00  0.00    -0.395 OA
ATOM     28  H3  UNL     1     -15.020  -1.586  -8.322  1.00  0.00     0.210 HD
ENDBRANCH  13  27
BRANCH  24  29
HETATM   29  O6  UNL     1      -9.699  -2.300  -4.744  1.00  0.00    -0.392 OA
ATOM     30  H6  UNL     1     -10.441  -2.286  -4.151  1.00  0.00     0.210 HD
ENDBRANCH  24  29
TORSDOF 3
ENDMDL
MODEL 4
REMARK VINA RESULT: -7.011096635      1.053      1.172
REMARK  3 active torsions:
REMARK  status: ('A' for Active; 'I' for Inactive)
REMARK    1  A    between atoms: C4_5  and  O2_6 
REMARK    2  A    between atoms: C12_15  and  O3_16 
REMARK    3  A    between atoms: C21_28  and  O6_29 
ROOT
HETATM    1  C1  UNL     1     -10.956  -3.661  -6.796  1.00  0.00     0.048 C 
HETATM    2  C2  UNL     1     -11.295  -2.531  -7.787  1.00  0.00     0.084 C 
HETATM    3  C3  UNL     1      -9.908  -2.161  -8.338  1.00  0.00     0.048 C 
HETATM    4  O1  UNL     1     -12.164  -2.951  -8.696  1.00  0.00    -0.342 OA
HETATM    5  C4  UNL     1     -12.550  -2.307  -9.769  1.00  0.00     0.174 C 
HETATM    6  C5  UNL     1     -12.394  -0.847  -9.929  1.00  0.00     0.070 C 
HETATM    7  C6  UNL     1     -13.287  -0.023  -9.078  1.00  0.00     0.011 C 
HETATM    8  C7  UNL     1     -14.087  -0.910  -8.139  1.00  0.00     0.008 C 
HETATM    9  C8  UNL     1     -13.305  -1.176  -6.930  1.00  0.00    -0.011 C 
HETATM   10  C9  UNL     1     -13.301   0.156  -6.116  1.00  0.00     0.018 C 
HETATM   11  C10 UNL     1     -14.016  -2.113  -5.970  1.00  0.00     0.014 C 
HETATM   12  C11 UNL     1     -14.779  -3.204  -6.590  1.00  0.00     0.033 C 
HETATM   13  C12 UNL     1     -15.468  -2.917  -7.879  1.00  0.00     0.127 C 
HETATM   14  C13 UNL     1     -14.799  -2.032  -8.863  1.00  0.00     0.002 C 
HETATM   15  C14 UNL     1     -16.045  -1.320  -9.475  1.00  0.00     0.019 C 
HETATM   16  C15 UNL     1     -14.052  -2.625 -10.008  1.00  0.00     0.064 C 
HETATM   17  C16 UNL     1     -14.347  -1.938 -11.343  1.00  0.00     0.045 C 
HETATM   18  C17 UNL     1     -15.520  -2.470 -12.103  1.00  0.00     0.172 C 
HETATM   19  O4  UNL     1     -15.913  -3.737 -11.828  1.00  0.00    -0.358 OA
HETATM   20  C18 UNL     1     -14.989  -4.571 -11.317  1.00  0.00     0.296 A 
HETATM   21  O5  UNL     1     -13.703  -4.352 -11.690  1.00  0.00    -0.342 OA
HETATM   22  C19 UNL     1     -14.099  -4.090 -10.241  1.00  0.00     0.123 A 
HETATM   23  C20 UNL     1     -13.231  -5.112  -9.572  1.00  0.00     0.052 C 
HETATM   24  C21 UNL     1     -11.840  -1.416  -7.015  1.00  0.00     0.160 C 
ENDROOT
BRANCH   5  25
HETATM   25  O2  UNL     1     -11.905  -2.897 -10.890  1.00  0.00    -0.364 OA
ATOM     26  H2  UNL     1     -12.364  -3.701 -11.101  1.00  0.00     0.213 HD
ENDBRANCH   5  25
BRANCH  13  27
HETATM   27  O3  UNL     1     -15.915  -4.132  -8.402  1.00  0.00    -0.395 OA
ATOM     28  H3  UNL     1     -16.520  -4.512  -7.777  1.00  0.00     0.210 HD
ENDBRANCH  13  27
BRANCH  24  29
HETATM   29  O6  UNL     1     -11.389  -1.493  -5.668  1.00  0.00    -0.392 OA
ATOM     30  H6  UNL     1     -12.128  -1.633  -5.087  1.00  0.00     0.210 HD
ENDBRANCH  24  29
TORSDOF 3
ENDMDL
MODEL 5
REMARK VINA RESULT: -6.959455108      1.629      5.089
REMARK  3 active torsions:
REMARK  status: ('A' for Active; 'I' for Inactive)
REMARK    1  A    between atoms: C4_5  and  O2_6 
REMARK    2  A    between atoms: C12_15  and  O3_16 
REMARK    3  A    between atoms: C21_28  and  O6_29 
ROOT
HETATM    1  C1  UNL     1     -15.779  -0.900  -9.942  1.00  0.00     0.048 C 
HETATM    2  C2  UNL     1     -14.292  -1.139 -10.268  1.00  0.00     0.084 C 
HETATM    3  C3  UNL     1     -13.985   0.019 -11.232  1.00  0.00     0.048 C 
HETATM    4  O1  UNL     1     -13.567  -1.151  -9.159  1.00  0.00    -0.342 OA
HETATM    5  C4  UNL     1     -12.259  -1.175  -9.078  1.00  0.00     0.174 C 
HETATM    6  C5  UNL     1     -11.392  -1.604 -10.194  1.00  0.00     0.070 C 
HETATM    7  C6  UNL     1     -11.429  -3.056 -10.496  1.00  0.00     0.011 C 
HETATM    8  C7  UNL     1     -12.468  -3.748  -9.630  1.00  0.00     0.008 C 
HETATM    9  C8  UNL     1     -13.781  -3.659 -10.272  1.00  0.00    -0.011 C 
HETATM   10  C9  UNL     1     -13.737  -4.638 -11.486  1.00  0.00     0.018 C 
HETATM   11  C10 UNL     1     -14.885  -4.273  -9.431  1.00  0.00     0.014 C 
HETATM   12  C11 UNL     1     -14.775  -4.064  -7.980  1.00  0.00     0.033 C 
HETATM   13  C12 UNL     1     -13.409  -4.053  -7.388  1.00  0.00     0.127 C 
HETATM   14  C13 UNL     1     -12.303  -3.435  -8.158  1.00  0.00     0.002 C 
HETATM   15  C14 UNL     1     -11.125  -4.366  -7.731  1.00  0.00     0.019 C 
HETATM   16  C15 UNL     1     -11.869  -2.044  -7.849  1.00  0.00     0.064 C 
HETATM   17  C16 UNL     1     -10.348  -1.886  -7.779  1.00  0.00     0.045 C 
HETATM   18  C17 UNL     1      -9.729  -2.153  -6.444  1.00  0.00     0.172 C 
HETATM   19  O4  UNL     1     -10.529  -2.042  -5.356  1.00  0.00    -0.358 OA
HETATM   20  C18 UNL     1     -11.611  -1.250  -5.466  1.00  0.00     0.296 A 
HETATM   21  O5  UNL     1     -11.504  -0.193  -6.309  1.00  0.00    -0.342 OA
HETATM   22  C19 UNL     1     -12.446  -1.332  -6.682  1.00  0.00     0.123 A 
HETATM   23  C20 UNL     1     -13.742  -0.582  -6.665  1.00  0.00     0.052 C 
HETATM   24  C21 UNL     1     -14.195  -2.415 -10.975  1.00  0.00     0.160 C 
ENDROOT
BRANCH   5  25
HETATM   25  O2  UNL     1     -11.819   0.127  -8.715  1.00  0.00    -0.364 OA
ATOM     26  H2  UNL     1     -11.321   0.480  -9.442  1.00  0.00     0.213 HD
ENDBRANCH   5  25
BRANCH  13  27
HETATM   27  O3  UNL     1     -13.520  -3.602  -6.071  1.00  0.00    -0.395 OA
ATOM     28  H3  UNL     1     -12.950  -2.849  -5.974  1.00  0.00     0.210 HD
ENDBRANCH  13  27
BRANCH  24  29
HETATM   29  O6  UNL     1     -15.440  -2.724 -11.591  1.00  0.00    -0.392 OA
ATOM     30  H6  UNL     1     -15.366  -2.633 -12.533  1.00  0.00     0.210 HD
ENDBRANCH  24  29
TORSDOF 3
ENDMDL
