MODEL 1
REMARK VINA RESULT: -7.582632418      0.000      0.000
REMARK  5 active torsions:
REMARK  status: ('A' for Active; 'I' for Inactive)
REMARK    1  A    between atoms: C6_6  and  O1_7 
REMARK    2  A    between atoms: C7_10  and  O3_11 
REMARK    3  A    between atoms: C8_13  and  C9_14 
REMARK    4  A    between atoms: C14_20  and  O5_21 
REMARK    5  A    between atoms: C14_20  and  C15_23 
ROOT
HETATM    1  C1  UNL     1     -10.876  -6.857 -12.639  1.00  0.00     0.039 C 
HETATM    2  C2  UNL     1     -10.538  -5.663 -11.777  1.00  0.00     0.118 C 
HETATM    3  C3  UNL     1      -9.901  -6.065 -10.489  1.00  0.00     0.032 C 
HETATM    4  C4  UNL     1     -10.606  -5.410  -9.294  1.00  0.00     0.020 C 
HETATM    5  C5  UNL     1     -10.989  -3.944  -9.568  1.00  0.00     0.049 C 
HETATM    6  C6  UNL     1      -9.640  -3.232  -9.251  1.00  0.00     0.271 C 
HETATM    7  O2  UNL     1      -9.415  -3.673  -7.923  1.00  0.00    -0.331 OA
HETATM    8  C7  UNL     1     -10.603  -3.706  -7.263  1.00  0.00     0.267 C 
HETATM    9  C8  UNL     1     -11.650  -3.446  -8.363  1.00  0.00     0.086 C 
HETATM   10  C15 UNL     1     -11.478  -3.701 -10.922  1.00  0.00     0.171 C 
HETATM   11  O6  UNL     1     -11.693  -5.036 -11.420  1.00  0.00    -0.377 OA
ENDROOT
BRANCH   6  12
HETATM   12  O1  UNL     1      -8.649  -3.581 -10.118  1.00  0.00    -0.370 OA
ATOM     13  H1  UNL     1      -7.789  -3.316  -9.814  1.00  0.00     0.212 HD
ENDBRANCH   6  12
BRANCH   9  14
HETATM   14  C9  UNL     1     -13.011  -3.881  -8.013  1.00  0.00     0.136 C 
HETATM   15  O4  UNL     1     -13.921  -3.673  -8.969  1.00  0.00    -0.374 OA
HETATM   16  C10 UNL     1     -14.683  -2.540  -8.997  1.00  0.00     0.062 C 
HETATM   17  C11 UNL     1     -16.063  -2.954  -8.446  1.00  0.00     0.046 C 
HETATM   18  C12 UNL     1     -14.947  -2.189 -10.425  1.00  0.00     0.041 C 
HETATM   19  C19 UNL     1     -14.119  -1.387  -8.168  1.00  0.00     0.031 C 
HETATM   20  C13 UNL     1     -14.094  -1.212 -11.093  1.00  0.00     0.044 C 
HETATM   21  C14 UNL     1     -12.775  -1.059 -10.290  1.00  0.00     0.092 C 
HETATM   22  C16 UNL     1     -13.264  -0.504  -9.003  1.00  0.00    -0.008 C 
HETATM   23  C17 UNL     1     -14.223   0.660  -9.411  1.00  0.00     0.018 C 
HETATM   24  C18 UNL     1     -12.245   0.343  -8.264  1.00  0.00     0.018 C 
HETATM   25  C20 UNL     1     -13.529  -1.821  -6.870  1.00  0.00     0.015 C 
HETATM   26  C21 UNL     1     -13.310  -3.279  -6.658  1.00  0.00     0.012 C 
HETATM   27  C22 UNL     1     -14.284  -4.010  -5.826  1.00  0.00     0.012 C 
BRANCH  21  28
HETATM   28  O5  UNL     1     -12.278   0.150 -10.899  1.00  0.00    -0.386 OA
ATOM     29  H5  UNL     1     -11.347  -0.039 -10.867  1.00  0.00     0.210 HD
ENDBRANCH  21  28
ENDBRANCH   9  14
BRANCH   8  30
HETATM   30  O3  UNL     1     -10.897  -4.773  -6.470  1.00  0.00    -0.371 OA
ATOM     31  H3  UNL     1     -11.251  -5.562  -6.863  1.00  0.00     0.212 HD
ENDBRANCH   8  30
TORSDOF 5
ENDMDL
MODEL 2
REMARK VINA RESULT: -7.494982097      2.050      4.620
REMARK  5 active torsions:
REMARK  status: ('A' for Active; 'I' for Inactive)
REMARK    1  A    between atoms: C6_6  and  O1_7 
REMARK    2  A    between atoms: C7_10  and  O3_11 
REMARK    3  A    between atoms: C8_13  and  C9_14 
REMARK    4  A    between atoms: C14_20  and  O5_21 
REMARK    5  A    between atoms: C14_20  and  C15_23 
ROOT
HETATM    1  C1  UNL     1     -10.300  -6.638 -12.061  1.00  0.00     0.039 C 
HETATM    2  C2  UNL     1     -11.662  -6.354 -11.470  1.00  0.00     0.118 C 
HETATM    3  C3  UNL     1     -12.702  -6.171 -12.524  1.00  0.00     0.032 C 
HETATM    4  C4  UNL     1     -13.491  -4.875 -12.304  1.00  0.00     0.020 C 
HETATM    5  C5  UNL     1     -13.812  -4.624 -10.820  1.00  0.00     0.049 C 
HETATM    6  C6  UNL     1     -15.083  -5.509 -10.647  1.00  0.00     0.271 C 
HETATM    7  O2  UNL     1     -15.918  -4.968 -11.657  1.00  0.00    -0.331 OA
HETATM    8  C7  UNL     1     -15.747  -3.620 -11.695  1.00  0.00     0.267 C 
HETATM    9  C8  UNL     1     -14.555  -3.368 -10.751  1.00  0.00     0.086 C 
HETATM   10  C15 UNL     1     -12.724  -4.975  -9.910  1.00  0.00     0.171 C 
HETATM   11  O6  UNL     1     -11.615  -5.163 -10.809  1.00  0.00    -0.377 OA
ENDROOT
BRANCH   6  12
HETATM   12  O1  UNL     1     -14.821  -6.835 -10.807  1.00  0.00    -0.370 OA
ATOM     13  H1  UNL     1     -15.607  -7.369 -10.771  1.00  0.00     0.212 HD
ENDBRANCH   6  12
BRANCH   9  14
HETATM   14  C9  UNL     1     -13.880  -2.078 -10.966  1.00  0.00     0.136 C 
HETATM   15  O4  UNL     1     -12.880  -1.829 -10.116  1.00  0.00    -0.374 OA
HETATM   16  C10 UNL     1     -13.079  -1.119  -8.966  1.00  0.00     0.062 C 
HETATM   17  C11 UNL     1     -12.544   0.298  -9.256  1.00  0.00     0.046 C 
HETATM   18  C12 UNL     1     -12.156  -1.655  -7.921  1.00  0.00     0.041 C 
HETATM   19  C19 UNL     1     -14.540  -1.040  -8.525  1.00  0.00     0.031 C 
HETATM   20  C13 UNL     1     -12.645  -2.653  -6.975  1.00  0.00     0.044 C 
HETATM   21  C14 UNL     1     -13.937  -3.297  -7.544  1.00  0.00     0.092 C 
HETATM   22  C16 UNL     1     -14.866  -2.139  -7.579  1.00  0.00    -0.008 C 
HETATM   23  C17 UNL     1     -14.722  -1.471  -6.174  1.00  0.00     0.018 C 
HETATM   24  C18 UNL     1     -16.332  -2.513  -7.460  1.00  0.00     0.018 C 
HETATM   25  C20 UNL     1     -15.493  -0.854  -9.654  1.00  0.00     0.015 C 
HETATM   26  C21 UNL     1     -14.975  -1.037 -11.039  1.00  0.00     0.012 C 
HETATM   27  C22 UNL     1     -14.668   0.171 -11.828  1.00  0.00     0.012 C 
BRANCH  21  28
HETATM   28  O5  UNL     1     -14.411  -3.948  -6.347  1.00  0.00    -0.386 OA
ATOM     29  H5  UNL     1     -14.877  -4.673  -6.746  1.00  0.00     0.210 HD
ENDBRANCH  21  28
ENDBRANCH   9  14
BRANCH   8  30
HETATM   30  O3  UNL     1     -15.632  -2.995 -12.899  1.00  0.00    -0.371 OA
ATOM     31  H3  UNL     1     -15.098  -2.213 -12.969  1.00  0.00     0.212 HD
ENDBRANCH   8  30
TORSDOF 5
ENDMDL
MODEL 3
REMARK VINA RESULT: -7.426524177      2.030      2.840
REMARK  5 active torsions:
REMARK  status: ('A' for Active; 'I' for Inactive)
REMARK    1  A    between atoms: C6_6  and  O1_7 
REMARK    2  A    between atoms: C7_10  and  O3_11 
REMARK    3  A    between atoms: C8_13  and  C9_14 
REMARK    4  A    between atoms: C14_20  and  O5_21 
REMARK    5  A    between atoms: C14_20  and  C15_23 
ROOT
HETATM    1  C1  UNL     1     -14.726  -9.341 -11.347  1.00  0.00     0.039 C 
HETATM    2  C2  UNL     1     -13.992  -8.048 -11.617  1.00  0.00     0.118 C 
HETATM    3  C3  UNL     1     -12.537  -8.153 -11.300  1.00  0.00     0.032 C 
HETATM    4  C4  UNL     1     -12.084  -7.005 -10.391  1.00  0.00     0.020 C 
HETATM    5  C5  UNL     1     -12.716  -5.657 -10.784  1.00  0.00     0.049 C 
HETATM    6  C6  UNL     1     -11.760  -5.217 -11.933  1.00  0.00     0.271 C 
HETATM    7  O2  UNL     1     -10.511  -5.249 -11.263  1.00  0.00    -0.331 OA
HETATM    8  C7  UNL     1     -10.680  -4.790  -9.995  1.00  0.00     0.267 C 
HETATM    9  C8  UNL     1     -12.208  -4.659  -9.844  1.00  0.00     0.086 C 
HETATM   10  C15 UNL     1     -14.116  -5.753 -11.188  1.00  0.00     0.171 C 
HETATM   11  O6  UNL     1     -14.468  -7.088 -10.776  1.00  0.00    -0.377 OA
ENDROOT
BRANCH   6  12
HETATM   12  O1  UNL     1     -11.823  -6.046 -13.011  1.00  0.00    -0.370 OA
ATOM     13  H1  UNL     1     -11.014  -6.523 -13.151  1.00  0.00     0.212 HD
ENDBRANCH   6  12
BRANCH   9  14
HETATM   14  C9  UNL     1     -12.675  -4.629  -8.449  1.00  0.00     0.136 C 
HETATM   15  O4  UNL     1     -13.985  -4.409  -8.309  1.00  0.00    -0.374 OA
HETATM   16  C10 UNL     1     -14.483  -3.151  -8.120  1.00  0.00     0.062 C 
HETATM   17  C11 UNL     1     -14.795  -3.050  -6.613  1.00  0.00     0.046 C 
HETATM   18  C12 UNL     1     -15.821  -3.075  -8.780  1.00  0.00     0.041 C 
HETATM   19  C19 UNL     1     -13.525  -2.032  -8.526  1.00  0.00     0.031 C 
HETATM   20  C13 UNL     1     -15.925  -2.534 -10.131  1.00  0.00     0.044 C 
HETATM   21  C14 UNL     1     -14.523  -2.559 -10.795  1.00  0.00     0.092 C 
HETATM   22  C16 UNL     1     -13.762  -1.618  -9.934  1.00  0.00    -0.008 C 
HETATM   23  C17 UNL     1     -14.686  -0.366  -9.800  1.00  0.00     0.018 C 
HETATM   24  C18 UNL     1     -12.608  -0.927 -10.636  1.00  0.00     0.018 C 
HETATM   25  C20 UNL     1     -12.106  -2.302  -8.161  1.00  0.00     0.015 C 
HETATM   26  C21 UNL     1     -11.752  -3.680  -7.717  1.00  0.00     0.012 C 
HETATM   27  C22 UNL     1     -11.591  -3.921  -6.271  1.00  0.00     0.012 C 
BRANCH  21  28
HETATM   28  O5  UNL     1     -14.789  -1.694 -11.918  1.00  0.00    -0.386 OA
ATOM     29  H5  UNL     1     -14.104  -1.050 -11.775  1.00  0.00     0.210 HD
ENDBRANCH  21  28
ENDBRANCH   9  14
BRANCH   8  30
HETATM   30  O3  UNL     1     -10.084  -5.447  -8.962  1.00  0.00    -0.371 OA
ATOM     31  H3  UNL     1     -10.590  -5.649  -8.184  1.00  0.00     0.212 HD
ENDBRANCH   8  30
TORSDOF 5
ENDMDL
MODEL 4
REMARK VINA RESULT: -7.326775750      1.863      5.532
REMARK  5 active torsions:
REMARK  status: ('A' for Active; 'I' for Inactive)
REMARK    1  A    between atoms: C6_6  and  O1_7 
REMARK    2  A    between atoms: C7_10  and  O3_11 
REMARK    3  A    between atoms: C8_13  and  C9_14 
REMARK    4  A    between atoms: C14_20  and  O5_21 
REMARK    5  A    between atoms: C14_20  and  C15_23 
ROOT
HETATM    1  C1  UNL     1     -14.198   2.868 -11.256  1.00  0.00     0.039 C 
HETATM    2  C2  UNL     1     -14.357   1.370 -11.370  1.00  0.00     0.118 C 
HETATM    3  C3  UNL     1     -15.696   0.912 -10.896  1.00  0.00     0.032 C 
HETATM    4  C4  UNL     1     -15.563  -0.229  -9.880  1.00  0.00     0.020 C 
HETATM    5  C5  UNL     1     -14.469  -1.239 -10.268  1.00  0.00     0.049 C 
HETATM    6  C6  UNL     1     -15.251  -2.135 -11.275  1.00  0.00     0.271 C 
HETATM    7  O2  UNL     1     -16.344  -2.544 -10.471  1.00  0.00    -0.331 OA
HETATM    8  C7  UNL     1     -15.899  -2.772  -9.207  1.00  0.00     0.267 C 
HETATM    9  C8  UNL     1     -14.445  -2.262  -9.224  1.00  0.00     0.086 C 
HETATM   10  C15 UNL     1     -13.269  -0.628 -10.833  1.00  0.00     0.171 C 
HETATM   11  O6  UNL     1     -13.463   0.768 -10.537  1.00  0.00    -0.377 OA
ENDROOT
BRANCH   6  12
HETATM   12  O1  UNL     1     -15.621  -1.459 -12.397  1.00  0.00    -0.370 OA
ATOM     13  H1  UNL     1     -15.917  -2.037 -13.090  1.00  0.00     0.212 HD
ENDBRANCH   6  12
BRANCH   9  14
HETATM   14  C9  UNL     1     -13.894  -1.968  -7.891  1.00  0.00     0.136 C 
HETATM   15  O4  UNL     1     -12.601  -1.632  -7.888  1.00  0.00    -0.374 OA
HETATM   16  C10 UNL     1     -11.621  -2.561  -7.688  1.00  0.00     0.062 C 
HETATM   17  C11 UNL     1     -11.173  -2.382  -6.223  1.00  0.00     0.046 C 
HETATM   18  C12 UNL     1     -10.426  -2.161  -8.490  1.00  0.00     0.041 C 
HETATM   19  C19 UNL     1     -12.070  -4.004  -7.919  1.00  0.00     0.031 C 
HETATM   20  C13 UNL     1     -10.221  -2.743  -9.812  1.00  0.00     0.044 C 
HETATM   21  C14 UNL     1     -11.561  -3.345 -10.312  1.00  0.00     0.092 C 
HETATM   22  C16 UNL     1     -11.801  -4.423  -9.319  1.00  0.00    -0.008 C 
HETATM   23  C17 UNL     1     -10.440  -5.183  -9.221  1.00  0.00     0.018 C 
HETATM   24  C18 UNL     1     -12.626  -5.582  -9.846  1.00  0.00     0.018 C 
HETATM   25  C20 UNL     1     -13.441  -4.288  -7.410  1.00  0.00     0.015 C 
HETATM   26  C21 UNL     1     -14.288  -3.131  -7.007  1.00  0.00     0.012 C 
HETATM   27  C22 UNL     1     -14.415  -2.835  -5.568  1.00  0.00     0.012 C 
BRANCH  21  28
HETATM   28  O5  UNL     1     -11.058  -4.137 -11.408  1.00  0.00    -0.386 OA
ATOM     29  H5  UNL     1     -11.247  -3.540 -12.122  1.00  0.00     0.210 HD
ENDBRANCH  21  28
ENDBRANCH   9  14
BRANCH   8  30
HETATM   30  O3  UNL     1     -16.625  -2.314  -8.150  1.00  0.00    -0.371 OA
ATOM     31  H3  UNL     1     -17.419  -2.770  -7.897  1.00  0.00     0.212 HD
ENDBRANCH   8  30
TORSDOF 5
ENDMDL
MODEL 5
REMARK VINA RESULT: -7.138390167      2.024      4.803
REMARK  5 active torsions:
REMARK  status: ('A' for Active; 'I' for Inactive)
REMARK    1  A    between atoms: C6_6  and  O1_7 
REMARK    2  A    between atoms: C7_10  and  O3_11 
REMARK    3  A    between atoms: C8_13  and  C9_14 
REMARK    4  A    between atoms: C14_20  and  O5_21 
REMARK    5  A    between atoms: C14_20  and  C15_23 
ROOT
HETATM    1  C1  UNL     1     -12.909  -3.610  -2.463  1.00  0.00     0.039 C 
HETATM    2  C2  UNL     1     -12.127  -3.754  -3.748  1.00  0.00     0.118 C 
HETATM    3  C3  UNL     1     -11.030  -2.748  -3.851  1.00  0.00     0.032 C 
HETATM    4  C4  UNL     1     -11.084  -2.004  -5.191  1.00  0.00     0.020 C 
HETATM    5  C5  UNL     1     -11.421  -2.936  -6.369  1.00  0.00     0.049 C 
HETATM    6  C6  UNL     1     -10.013  -3.529  -6.677  1.00  0.00     0.271 C 
HETATM    7  O2  UNL     1      -9.270  -2.343  -6.898  1.00  0.00    -0.331 OA
HETATM    8  C7  UNL     1     -10.049  -1.455  -7.570  1.00  0.00     0.267 C 
HETATM    9  C8  UNL     1     -11.445  -2.108  -7.573  1.00  0.00     0.086 C 
HETATM   10  C15 UNL     1     -12.429  -3.946  -6.058  1.00  0.00     0.171 C 
HETATM   11  O6  UNL     1     -12.952  -3.485  -4.798  1.00  0.00    -0.377 OA
ENDROOT
BRANCH   6  12
HETATM   12  O1  UNL     1      -9.533  -4.292  -5.656  1.00  0.00    -0.370 OA
ATOM     13  H1  UNL     1      -9.228  -5.142  -5.948  1.00  0.00     0.212 HD
ENDBRANCH   6  12
BRANCH   9  14
HETATM   14  C9  UNL     1     -12.549  -1.167  -7.822  1.00  0.00     0.136 C 
HETATM   15  O4  UNL     1     -13.752  -1.740  -7.916  1.00  0.00    -0.374 OA
HETATM   16  C10 UNL     1     -14.277  -2.107  -9.123  1.00  0.00     0.062 C 
HETATM   17  C11 UNL     1     -15.304  -1.013  -9.479  1.00  0.00     0.046 C 
HETATM   18  C12 UNL     1     -15.102  -3.335  -8.920  1.00  0.00     0.041 C 
HETATM   19  C19 UNL     1     -13.244  -2.231 -10.242  1.00  0.00     0.031 C 
HETATM   20  C13 UNL     1     -14.513  -4.646  -9.172  1.00  0.00     0.044 C 
HETATM   21  C14 UNL     1     -12.968  -4.513  -9.177  1.00  0.00     0.092 C 
HETATM   22  C16 UNL     1     -12.741  -3.626 -10.345  1.00  0.00    -0.008 C 
HETATM   23  C17 UNL     1     -13.606  -4.246 -11.489  1.00  0.00     0.018 C 
HETATM   24  C18 UNL     1     -11.390  -3.807 -11.012  1.00  0.00     0.018 C 
HETATM   25  C20 UNL     1     -12.201  -1.168 -10.209  1.00  0.00     0.015 C 
HETATM   26  C21 UNL     1     -12.118  -0.312  -8.992  1.00  0.00     0.012 C 
HETATM   27  C22 UNL     1     -12.705   1.039  -9.056  1.00  0.00     0.012 C 
BRANCH  21  28
HETATM   28  O5  UNL     1     -12.633  -5.783  -9.772  1.00  0.00    -0.386 OA
ATOM     29  H5  UNL     1     -12.192  -5.470 -10.553  1.00  0.00     0.210 HD
ENDBRANCH  21  28
ENDBRANCH   9  14
BRANCH   8  30
HETATM   30  O3  UNL     1     -10.059  -0.149  -7.184  1.00  0.00    -0.371 OA
ATOM     31  H3  UNL     1     -10.883   0.321  -7.151  1.00  0.00     0.212 HD
ENDBRANCH   8  30
TORSDOF 5
ENDMDL
