MODEL 1
REMARK VINA RESULT: -8.693804529      0.000      0.000
REMARK  6 active torsions:
REMARK  status: ('A' for Active; 'I' for Inactive)
REMARK    1  A    between atoms: N1_3  and  C2_4 
REMARK    2  A    between atoms: C2_4  and  C3_5 
REMARK    3  A    between atoms: C3_5  and  C4_6 
REMARK    4  A    between atoms: C10_12  and  O2_13 
REMARK    5  A    between atoms: C11_15  and  O3_16 
REMARK    6  A    between atoms: N2_18  and  C12_19 
ROOT
HETATM    1  O1  UNL     1     -24.230  -1.948 -10.097  1.00  0.00    -0.246 OA
HETATM    2  C1  UNL     1     -25.062  -1.944 -11.034  1.00  0.00     0.337 A 
HETATM    3  N1  UNL     1     -26.292  -2.514 -10.958  1.00  0.00    -0.276 N 
HETATM    4  C10 UNL     1     -26.913  -2.322 -12.138  1.00  0.00     0.199 A 
HETATM    5  C11 UNL     1     -26.017  -1.621 -12.918  1.00  0.00     0.204 A 
HETATM    6  N2  UNL     1     -24.879  -1.390 -12.237  1.00  0.00    -0.238 N 
ENDROOT
BRANCH   6   7
HETATM    7  C12 UNL     1     -23.738  -0.694 -12.731  1.00  0.00     0.071 A 
HETATM    8  C13 UNL     1     -23.772   0.670 -12.957  1.00  0.00     0.057 A 
HETATM    9  C14 UNL     1     -22.675   1.361 -13.434  1.00  0.00     0.059 A 
HETATM   10 CL1  UNL     1     -22.754   3.089 -13.709  1.00  0.00    -0.082 Cl
HETATM   11  C15 UNL     1     -21.494   0.700 -13.704  1.00  0.00     0.079 A 
HETATM   12 CL2  UNL     1     -20.068   1.515 -14.310  1.00  0.00    -0.081 Cl
HETATM   13  C16 UNL     1     -21.430  -0.664 -13.488  1.00  0.00     0.081 A 
HETATM   14 CL3  UNL     1     -19.931  -1.514 -13.829  1.00  0.00    -0.081 Cl
HETATM   15  C17 UNL     1     -22.547  -1.338 -13.007  1.00  0.00     0.085 A 
HETATM   16 CL4  UNL     1     -22.474  -3.058 -12.732  1.00  0.00    -0.080 Cl
ENDBRANCH   6   7
BRANCH   5  17
HETATM   17  O3  UNL     1     -26.274  -1.215 -14.234  1.00  0.00    -0.342 OA
ATOM     18  H3  UNL     1     -25.815  -0.507 -14.671  1.00  0.00     0.219 HD
ENDBRANCH   5  17
BRANCH   3  19
HETATM   19  C2  UNL     1     -26.843  -3.206  -9.814  1.00  0.00     0.140 C 
BRANCH  19  20
HETATM   20  C3  UNL     1     -27.435  -2.199  -8.843  1.00  0.00     0.054 C 
BRANCH  20  21
HETATM   21  C4  UNL     1     -28.240  -2.878  -7.788  1.00  0.00    -0.082 C 
HETATM   22  C5  UNL     1     -29.032  -3.899  -8.025  1.00  0.00    -0.024 C 
HETATM   23  C6  UNL     1     -29.852  -4.611  -7.026  1.00  0.00     0.027 C 
HETATM   24  C7  UNL     1     -29.778  -4.030  -5.654  1.00  0.00     0.004 C 
HETATM   25  C8  UNL     1     -29.519  -2.530  -5.757  1.00  0.00     0.005 C 
HETATM   26  C9  UNL     1     -28.149  -2.377  -6.378  1.00  0.00     0.034 C 
ENDBRANCH  20  21
ENDBRANCH  19  20
ENDBRANCH   3  19
BRANCH   4  27
HETATM   27  O2  UNL     1     -28.209  -2.753 -12.485  1.00  0.00    -0.343 OA
ATOM     28  H2  UNL     1     -28.990  -2.215 -12.536  1.00  0.00     0.219 HD
ENDBRANCH   4  27
TORSDOF 6
ENDMDL
MODEL 2
REMARK VINA RESULT: -8.380542068      8.116     10.572
REMARK  6 active torsions:
REMARK  status: ('A' for Active; 'I' for Inactive)
REMARK    1  A    between atoms: N1_3  and  C2_4 
REMARK    2  A    between atoms: C2_4  and  C3_5 
REMARK    3  A    between atoms: C3_5  and  C4_6 
REMARK    4  A    between atoms: C10_12  and  O2_13 
REMARK    5  A    between atoms: C11_15  and  O3_16 
REMARK    6  A    between atoms: N2_18  and  C12_19 
ROOT
HETATM    1  O1  UNL     1     -30.058  -5.629  -6.169  1.00  0.00    -0.246 OA
HETATM    2  C1  UNL     1     -29.804  -6.487  -5.291  1.00  0.00     0.337 A 
HETATM    3  N1  UNL     1     -29.735  -6.215  -3.963  1.00  0.00    -0.276 N 
HETATM    4  C10 UNL     1     -29.445  -7.362  -3.318  1.00  0.00     0.199 A 
HETATM    5  C11 UNL     1     -29.344  -8.324  -4.301  1.00  0.00     0.204 A 
HETATM    6  N2  UNL     1     -29.565  -7.784  -5.514  1.00  0.00    -0.238 N 
ENDROOT
BRANCH   6   7
HETATM    7  C12 UNL     1     -29.542  -8.483  -6.756  1.00  0.00     0.071 A 
HETATM    8  C13 UNL     1     -28.434  -8.439  -7.582  1.00  0.00     0.057 A 
HETATM    9  C14 UNL     1     -28.394  -9.111  -8.789  1.00  0.00     0.059 A 
HETATM   10 CL1  UNL     1     -26.973  -9.033  -9.811  1.00  0.00    -0.082 Cl
HETATM   11  C15 UNL     1     -29.475  -9.856  -9.211  1.00  0.00     0.079 A 
HETATM   12 CL2  UNL     1     -29.490 -10.730 -10.728  1.00  0.00    -0.081 Cl
HETATM   13  C16 UNL     1     -30.597  -9.918  -8.406  1.00  0.00     0.081 A 
HETATM   14 CL3  UNL     1     -31.979 -10.866  -8.937  1.00  0.00    -0.081 Cl
HETATM   15  C17 UNL     1     -30.614  -9.234  -7.196  1.00  0.00     0.085 A 
HETATM   16 CL4  UNL     1     -32.025  -9.308  -6.175  1.00  0.00    -0.080 Cl
ENDBRANCH   6   7
BRANCH   5  17
HETATM   17  O3  UNL     1     -29.051  -9.672  -4.052  1.00  0.00    -0.342 OA
ATOM     18  H3  UNL     1     -28.799 -10.293  -4.725  1.00  0.00     0.219 HD
ENDBRANCH   5  17
BRANCH   3  19
HETATM   19  C2  UNL     1     -29.936  -4.923  -3.345  1.00  0.00     0.140 C 
BRANCH  19  20
HETATM   20  C3  UNL     1     -28.590  -4.291  -3.034  1.00  0.00     0.054 C 
BRANCH  20  21
HETATM   21  C4  UNL     1     -28.430  -2.990  -3.743  1.00  0.00    -0.082 C 
HETATM   22  C5  UNL     1     -28.570  -1.822  -3.157  1.00  0.00    -0.024 C 
HETATM   23  C6  UNL     1     -28.425  -0.504  -3.804  1.00  0.00     0.027 C 
HETATM   24  C7  UNL     1     -28.156  -0.573  -5.269  1.00  0.00     0.004 C 
HETATM   25  C8  UNL     1     -28.804  -1.831  -5.841  1.00  0.00     0.005 C 
HETATM   26  C9  UNL     1     -28.092  -3.002  -5.203  1.00  0.00     0.034 C 
ENDBRANCH  20  21
ENDBRANCH  19  20
ENDBRANCH   3  19
BRANCH   4  27
HETATM   27  O2  UNL     1     -29.283  -7.526  -1.928  1.00  0.00    -0.343 OA
ATOM     28  H2  UNL     1     -28.731  -8.167  -1.494  1.00  0.00     0.219 HD
ENDBRANCH   4  27
TORSDOF 6
ENDMDL
MODEL 3
REMARK VINA RESULT: -8.288245830      1.315      2.541
REMARK  6 active torsions:
REMARK  status: ('A' for Active; 'I' for Inactive)
REMARK    1  A    between atoms: N1_3  and  C2_4 
REMARK    2  A    between atoms: C2_4  and  C3_5 
REMARK    3  A    between atoms: C3_5  and  C4_6 
REMARK    4  A    between atoms: C10_12  and  O2_13 
REMARK    5  A    between atoms: C11_15  and  O3_16 
REMARK    6  A    between atoms: N2_18  and  C12_19 
ROOT
HETATM    1  O1  UNL     1     -23.353  -1.815 -10.645  1.00  0.00    -0.246 OA
HETATM    2  C1  UNL     1     -24.135  -1.727 -11.620  1.00  0.00     0.337 A 
HETATM    3  N1  UNL     1     -25.414  -2.182 -11.609  1.00  0.00    -0.276 N 
HETATM    4  C10 UNL     1     -25.958  -1.924 -12.814  1.00  0.00     0.199 A 
HETATM    5  C11 UNL     1     -24.967  -1.302 -13.542  1.00  0.00     0.204 A 
HETATM    6  N2  UNL     1     -23.846  -1.182 -12.806  1.00  0.00    -0.238 N 
ENDROOT
BRANCH   6   7
HETATM    7  C12 UNL     1     -22.624  -0.589 -13.237  1.00  0.00     0.071 A 
HETATM    8  C13 UNL     1     -21.523  -1.364 -13.552  1.00  0.00     0.057 A 
HETATM    9  C14 UNL     1     -20.331  -0.806 -13.972  1.00  0.00     0.059 A 
HETATM   10 CL1  UNL     1     -18.956  -1.819 -14.363  1.00  0.00    -0.082 Cl
HETATM   11  C15 UNL     1     -20.202   0.563 -14.091  1.00  0.00     0.079 A 
HETATM   12 CL2  UNL     1     -18.720   1.333 -14.617  1.00  0.00    -0.081 Cl
HETATM   13  C16 UNL     1     -21.286   1.363 -13.783  1.00  0.00     0.081 A 
HETATM   14 CL3  UNL     1     -21.130   3.107 -13.932  1.00  0.00    -0.081 Cl
HETATM   15  C17 UNL     1     -22.475   0.779 -13.363  1.00  0.00     0.085 A 
HETATM   16 CL4  UNL     1     -23.846   1.782 -12.973  1.00  0.00    -0.080 Cl
ENDBRANCH   6   7
BRANCH   5  17
HETATM   17  O3  UNL     1     -25.123  -0.863 -14.864  1.00  0.00    -0.342 OA
ATOM     18  H3  UNL     1     -25.715  -1.263 -15.490  1.00  0.00     0.219 HD
ENDBRANCH   5  17
BRANCH   3  19
HETATM   19  C2  UNL     1     -26.079  -2.831 -10.500  1.00  0.00     0.140 C 
BRANCH  19  20
HETATM   20  C3  UNL     1     -26.723  -1.785  -9.606  1.00  0.00     0.054 C 
BRANCH  20  21
HETATM   21  C4  UNL     1     -27.637  -2.416  -8.612  1.00  0.00    -0.082 C 
HETATM   22  C5  UNL     1     -27.694  -2.057  -7.349  1.00  0.00    -0.024 C 
HETATM   23  C6  UNL     1     -28.574  -2.641  -6.320  1.00  0.00     0.027 C 
HETATM   24  C7  UNL     1     -29.405  -3.780  -6.807  1.00  0.00     0.004 C 
HETATM   25  C8  UNL     1     -28.660  -4.504  -7.924  1.00  0.00     0.005 C 
HETATM   26  C9  UNL     1     -28.544  -3.520  -9.065  1.00  0.00     0.034 C 
ENDBRANCH  20  21
ENDBRANCH  19  20
ENDBRANCH   3  19
BRANCH   4  27
HETATM   27  O2  UNL     1     -27.270  -2.232 -13.226  1.00  0.00    -0.343 OA
ATOM     28  H2  UNL     1     -27.849  -1.676 -13.735  1.00  0.00     0.219 HD
ENDBRANCH   4  27
TORSDOF 6
ENDMDL
MODEL 4
REMARK VINA RESULT: -8.206634879      6.429     10.488
REMARK  6 active torsions:
REMARK  status: ('A' for Active; 'I' for Inactive)
REMARK    1  A    between atoms: N1_3  and  C2_4 
REMARK    2  A    between atoms: C2_4  and  C3_5 
REMARK    3  A    between atoms: C3_5  and  C4_6 
REMARK    4  A    between atoms: C10_12  and  O2_13 
REMARK    5  A    between atoms: C11_15  and  O3_16 
REMARK    6  A    between atoms: N2_18  and  C12_19 
ROOT
HETATM    1  O1  UNL     1     -28.110  -5.781  -8.042  1.00  0.00    -0.246 OA
HETATM    2  C1  UNL     1     -28.706  -5.009  -7.256  1.00  0.00     0.337 A 
HETATM    3  N1  UNL     1     -28.522  -3.664  -7.230  1.00  0.00    -0.276 N 
HETATM    4  C10 UNL     1     -29.316  -3.154  -6.269  1.00  0.00     0.199 A 
HETATM    5  C11 UNL     1     -29.979  -4.234  -5.726  1.00  0.00     0.204 A 
HETATM    6  N2  UNL     1     -29.602  -5.374  -6.333  1.00  0.00    -0.238 N 
ENDROOT
BRANCH   6   7
HETATM    7  C12 UNL     1     -30.083  -6.681  -6.029  1.00  0.00     0.071 A 
HETATM    8  C13 UNL     1     -30.961  -7.336  -6.873  1.00  0.00     0.057 A 
HETATM    9  C14 UNL     1     -31.436  -8.603  -6.594  1.00  0.00     0.059 A 
HETATM   10 CL1  UNL     1     -32.548  -9.404  -7.686  1.00  0.00    -0.082 Cl
HETATM   11  C15 UNL     1     -31.042  -9.262  -5.448  1.00  0.00     0.079 A 
HETATM   12 CL2  UNL     1     -31.607 -10.867  -5.036  1.00  0.00    -0.081 Cl
HETATM   13  C16 UNL     1     -30.165  -8.632  -4.586  1.00  0.00     0.081 A 
HETATM   14 CL3  UNL     1     -29.659  -9.464  -3.123  1.00  0.00    -0.081 Cl
HETATM   15  C17 UNL     1     -29.700  -7.356  -4.887  1.00  0.00     0.085 A 
HETATM   16 CL4  UNL     1     -28.594  -6.556  -3.804  1.00  0.00    -0.080 Cl
ENDBRANCH   6   7
BRANCH   5  17
HETATM   17  O3  UNL     1     -30.912  -4.138  -4.684  1.00  0.00    -0.342 OA
ATOM     18  H3  UNL     1     -31.271  -4.886  -4.222  1.00  0.00     0.219 HD
ENDBRANCH   5  17
BRANCH   3  19
HETATM   19  C2  UNL     1     -27.629  -2.908  -8.081  1.00  0.00     0.140 C 
BRANCH  19  20
HETATM   20  C3  UNL     1     -28.309  -2.622  -9.409  1.00  0.00     0.054 C 
BRANCH  20  21
HETATM   21  C4  UNL     1     -27.325  -2.162 -10.429  1.00  0.00    -0.082 C 
HETATM   22  C5  UNL     1     -27.627  -1.969 -11.693  1.00  0.00    -0.024 C 
HETATM   23  C6  UNL     1     -26.700  -1.517 -12.747  1.00  0.00     0.027 C 
HETATM   24  C7  UNL     1     -25.293  -1.338 -12.284  1.00  0.00     0.004 C 
HETATM   25  C8  UNL     1     -25.012  -2.314 -11.144  1.00  0.00     0.005 C 
HETATM   26  C9  UNL     1     -25.912  -1.901 -10.001  1.00  0.00     0.034 C 
ENDBRANCH  20  21
ENDBRANCH  19  20
ENDBRANCH   3  19
BRANCH   4  27
HETATM   27  O2  UNL     1     -29.434  -1.797  -5.909  1.00  0.00    -0.343 OA
ATOM     28  H2  UNL     1     -28.886  -1.325  -5.293  1.00  0.00     0.219 HD
ENDBRANCH   4  27
TORSDOF 6
ENDMDL
MODEL 5
REMARK VINA RESULT: -7.957620764      4.002      6.409
REMARK  6 active torsions:
REMARK  status: ('A' for Active; 'I' for Inactive)
REMARK    1  A    between atoms: N1_3  and  C2_4 
REMARK    2  A    between atoms: C2_4  and  C3_5 
REMARK    3  A    between atoms: C3_5  and  C4_6 
REMARK    4  A    between atoms: C10_12  and  O2_13 
REMARK    5  A    between atoms: C11_15  and  O3_16 
REMARK    6  A    between atoms: N2_18  and  C12_19 
ROOT
HETATM    1  O1  UNL     1     -20.525  -1.240 -13.857  1.00  0.00    -0.246 OA
HETATM    2  C1  UNL     1     -20.769  -0.014 -13.773  1.00  0.00     0.337 A 
HETATM    3  N1  UNL     1     -22.018   0.502 -13.644  1.00  0.00    -0.276 N 
HETATM    4  C10 UNL     1     -21.909   1.843 -13.582  1.00  0.00     0.199 A 
HETATM    5  C11 UNL     1     -20.560   2.110 -13.677  1.00  0.00     0.204 A 
HETATM    6  N2  UNL     1     -19.861   0.966 -13.794  1.00  0.00    -0.238 N 
ENDROOT
BRANCH   6   7
HETATM    7  C12 UNL     1     -18.444   0.862 -13.913  1.00  0.00     0.071 A 
HETATM    8  C13 UNL     1     -17.730  -0.070 -13.184  1.00  0.00     0.057 A 
HETATM    9  C14 UNL     1     -16.357  -0.185 -13.288  1.00  0.00     0.059 A 
HETATM   10 CL1  UNL     1     -15.484  -1.379 -12.348  1.00  0.00    -0.082 Cl
HETATM   11  C15 UNL     1     -15.647   0.640 -14.135  1.00  0.00     0.079 A 
HETATM   12 CL2  UNL     1     -13.908   0.547 -14.312  1.00  0.00    -0.081 Cl
HETATM   13  C16 UNL     1     -16.334   1.583 -14.876  1.00  0.00     0.081 A 
HETATM   14 CL3  UNL     1     -15.437   2.639 -15.957  1.00  0.00    -0.081 Cl
HETATM   15  C17 UNL     1     -17.716   1.680 -14.756  1.00  0.00     0.085 A 
HETATM   16 CL4  UNL     1     -18.589   2.866 -15.688  1.00  0.00    -0.080 Cl
ENDBRANCH   6   7
BRANCH   5  17
HETATM   17  O3  UNL     1     -20.012   3.400 -13.653  1.00  0.00    -0.342 OA
ATOM     18  H3  UNL     1     -20.182   4.061 -14.313  1.00  0.00     0.219 HD
ENDBRANCH   5  17
BRANCH   3  19
HETATM   19  C2  UNL     1     -23.251  -0.252 -13.585  1.00  0.00     0.140 C 
BRANCH  19  20
HETATM   20  C3  UNL     1     -23.418  -0.851 -12.199  1.00  0.00     0.054 C 
BRANCH  20  21
HETATM   21  C4  UNL     1     -24.849  -1.157 -11.914  1.00  0.00    -0.082 C 
HETATM   22  C5  UNL     1     -25.280  -1.589 -10.750  1.00  0.00    -0.024 C 
HETATM   23  C6  UNL     1     -26.679  -1.908 -10.407  1.00  0.00     0.027 C 
HETATM   24  C7  UNL     1     -27.631  -1.765 -11.546  1.00  0.00     0.004 C 
HETATM   25  C8  UNL     1     -26.898  -2.052 -12.853  1.00  0.00     0.005 C 
HETATM   26  C9  UNL     1     -25.859  -0.964 -13.005  1.00  0.00     0.034 C 
ENDBRANCH  20  21
ENDBRANCH  19  20
ENDBRANCH   3  19
BRANCH   4  27
HETATM   27  O2  UNL     1     -22.966   2.766 -13.448  1.00  0.00    -0.343 OA
ATOM     28  H2  UNL     1     -23.895   2.566 -13.440  1.00  0.00     0.219 HD
ENDBRANCH   4  27
TORSDOF 6
ENDMDL
