MODEL 1
REMARK VINA RESULT: -8.176626703      0.000      0.000
REMARK  5 active torsions:
REMARK  status: ('A' for Active; 'I' for Inactive)
REMARK    1  A    between atoms: N1_4  and  C4_6 
REMARK    2  A    between atoms: C8_14  and  S1_15 
REMARK    3  A    between atoms: S1_15  and  C9_16 
REMARK    4  A    between atoms: C9_16  and  C10_17 
REMARK    5  A    between atoms: N4_28  and  O1_29 
ROOT
HETATM    1  C4  UNL     1     -30.649  -9.682  -8.242  1.00  0.00     0.121 A 
HETATM    2  N2  UNL     1     -30.584 -10.481  -9.336  1.00  0.00    -0.338 N 
ATOM      3  H2  UNL     1     -31.353 -11.125  -9.522  1.00  0.00     0.168 HD
HETATM    4  C5  UNL     1     -29.544 -10.455 -10.183  1.00  0.00     0.183 A 
HETATM    5  N3  UNL     1     -28.480  -9.651 -10.061  1.00  0.00    -0.336 N 
ATOM      6  H3  UNL     1     -27.711  -9.647 -10.732  1.00  0.00     0.168 HD
HETATM    7  C6  UNL     1     -28.509  -8.840  -8.968  1.00  0.00     0.148 A 
HETATM    8  C7  UNL     1     -29.532  -8.837  -8.069  1.00  0.00     0.072 A 
HETATM    9  C8  UNL     1     -29.278  -7.913  -7.055  1.00  0.00     0.036 A 
HETATM   10  C16 UNL     1     -28.066  -7.332  -7.426  1.00  0.00     0.144 A 
HETATM   11  N4  UNL     1     -27.604  -7.893  -8.577  1.00  0.00    -0.217 N 
ENDROOT
BRANCH   9  12
HETATM   12  S1  UNL     1     -30.192  -7.700  -5.529  1.00  0.00    -0.123 SA
BRANCH  12  13
HETATM   13  C9  UNL     1     -31.050  -6.117  -5.585  1.00  0.00     0.121 C 
BRANCH  13  14
HETATM   14  C10 UNL     1     -30.271  -4.970  -5.093  1.00  0.00    -0.003 A 
HETATM   15  C11 UNL     1     -30.411  -4.647  -3.754  1.00  0.00     0.044 A 
HETATM   16 CL1  UNL     1     -31.297  -5.774  -2.772  1.00  0.00    -0.084 Cl
HETATM   17  C12 UNL     1     -29.877  -3.540  -3.154  1.00  0.00     0.050 A 
HETATM   18  C13 UNL     1     -29.126  -2.662  -3.960  1.00  0.00     0.059 A 
HETATM   19 CL2  UNL     1     -28.414  -1.262  -3.224  1.00  0.00    -0.082 Cl
HETATM   20  C14 UNL     1     -28.978  -2.962  -5.286  1.00  0.00     0.078 A 
HETATM   21 CL3  UNL     1     -28.117  -1.832  -6.313  1.00  0.00    -0.081 Cl
HETATM   22  C15 UNL     1     -29.531  -4.099  -5.870  1.00  0.00     0.066 A 
HETATM   23 CL4  UNL     1     -29.340  -4.342  -7.572  1.00  0.00    -0.082 Cl
ENDBRANCH  13  14
ENDBRANCH  12  13
ENDBRANCH   9  12
BRANCH   1  24
HETATM   24  N1  UNL     1     -31.688  -9.286  -7.651  1.00  0.00    -0.350 N 
HETATM   25  C2  UNL     1     -32.728  -9.714  -6.883  1.00  0.00    -0.020 C 
HETATM   26  C1  UNL     1     -33.625  -8.615  -6.272  1.00  0.00     0.062 C 
HETATM   27  C3  UNL     1     -32.733 -10.868  -5.959  1.00  0.00     0.062 C 
ATOM     28  H1  UNL     1     -31.785  -8.282  -7.802  1.00  0.00     0.167 HD
ENDBRANCH   1  24
BRANCH  11  29
HETATM   29  O1  UNL     1     -26.471  -7.512  -9.249  1.00  0.00    -0.281 OA
ATOM     30  H1  UNL     1     -25.674  -8.018  -9.354  1.00  0.00     0.245 HD
ENDBRANCH  11  29
TORSDOF 5
ENDMDL
MODEL 2
REMARK VINA RESULT: -7.615036419      2.503      3.404
REMARK  5 active torsions:
REMARK  status: ('A' for Active; 'I' for Inactive)
REMARK    1  A    between atoms: N1_4  and  C4_6 
REMARK    2  A    between atoms: C8_14  and  S1_15 
REMARK    3  A    between atoms: S1_15  and  C9_16 
REMARK    4  A    between atoms: C9_16  and  C10_17 
REMARK    5  A    between atoms: N4_28  and  O1_29 
ROOT
HETATM    1  C4  UNL     1     -28.031  -9.774  -6.535  1.00  0.00     0.121 A 
HETATM    2  N2  UNL     1     -27.322 -10.433  -7.485  1.00  0.00    -0.338 N 
ATOM      3  H2  UNL     1     -26.331 -10.612  -7.323  1.00  0.00     0.168 HD
HETATM    4  C5  UNL     1     -27.878 -10.858  -8.629  1.00  0.00     0.183 A 
HETATM    5  N3  UNL     1     -29.166 -10.699  -8.958  1.00  0.00    -0.336 N 
ATOM      6  H3  UNL     1     -29.560 -11.047  -9.832  1.00  0.00     0.168 HD
HETATM    7  C6  UNL     1     -29.907 -10.034  -8.029  1.00  0.00     0.148 A 
HETATM    8  C7  UNL     1     -29.390  -9.568  -6.859  1.00  0.00     0.072 A 
HETATM    9  C8  UNL     1     -30.381  -8.923  -6.119  1.00  0.00     0.036 A 
HETATM   10  C16 UNL     1     -31.529  -9.072  -6.895  1.00  0.00     0.144 A 
HETATM   11  N4  UNL     1     -31.241  -9.739  -8.047  1.00  0.00    -0.217 N 
ENDROOT
BRANCH   9  12
HETATM   12  S1  UNL     1     -30.162  -7.946  -4.634  1.00  0.00    -0.123 SA
BRANCH  12  13
HETATM   13  C9  UNL     1     -31.043  -6.387  -4.831  1.00  0.00     0.121 C 
BRANCH  13  14
HETATM   14  C10 UNL     1     -30.183  -5.210  -5.040  1.00  0.00    -0.003 A 
HETATM   15  C11 UNL     1     -30.187  -4.249  -4.044  1.00  0.00     0.044 A 
HETATM   16 CL1  UNL     1     -31.012  -4.660  -2.571  1.00  0.00    -0.084 Cl
HETATM   17  C12 UNL     1     -29.563  -3.034  -4.124  1.00  0.00     0.050 A 
HETATM   18  C13 UNL     1     -28.863  -2.740  -5.311  1.00  0.00     0.059 A 
HETATM   19 CL2  UNL     1     -28.040  -1.218  -5.434  1.00  0.00    -0.082 Cl
HETATM   20  C14 UNL     1     -28.850  -3.676  -6.308  1.00  0.00     0.078 A 
HETATM   21 CL3  UNL     1     -28.054  -3.283  -7.819  1.00  0.00    -0.081 Cl
HETATM   22  C15 UNL     1     -29.493  -4.907  -6.198  1.00  0.00     0.066 A 
HETATM   23 CL4  UNL     1     -29.470  -5.986  -7.550  1.00  0.00    -0.082 Cl
ENDBRANCH  13  14
ENDBRANCH  12  13
ENDBRANCH   9  12
BRANCH   1  24
HETATM   24  N1  UNL     1     -27.786  -9.723  -5.301  1.00  0.00    -0.350 N 
HETATM   25  C2  UNL     1     -27.008 -10.273  -4.327  1.00  0.00    -0.020 C 
HETATM   26  C1  UNL     1     -27.051  -9.583  -2.946  1.00  0.00     0.062 C 
HETATM   27  C3  UNL     1     -25.666 -10.868  -4.495  1.00  0.00     0.062 C 
ATOM     28  H1  UNL     1     -28.385  -9.014  -4.879  1.00  0.00     0.167 HD
ENDBRANCH   1  24
BRANCH  11  29
HETATM   29  O1  UNL     1     -32.152 -10.107  -9.003  1.00  0.00    -0.281 OA
ATOM     30  H1  UNL     1     -32.755 -10.841  -8.963  1.00  0.00     0.245 HD
ENDBRANCH  11  29
TORSDOF 5
ENDMDL
MODEL 3
REMARK VINA RESULT: -7.605506106      2.274      4.101
REMARK  5 active torsions:
REMARK  status: ('A' for Active; 'I' for Inactive)
REMARK    1  A    between atoms: N1_4  and  C4_6 
REMARK    2  A    between atoms: C8_14  and  S1_15 
REMARK    3  A    between atoms: S1_15  and  C9_16 
REMARK    4  A    between atoms: C9_16  and  C10_17 
REMARK    5  A    between atoms: N4_28  and  O1_29 
ROOT
HETATM    1  C4  UNL     1     -30.676  -9.486  -8.230  1.00  0.00     0.121 A 
HETATM    2  N2  UNL     1     -31.582 -10.457  -8.502  1.00  0.00    -0.338 N 
ATOM      3  H2  UNL     1     -31.577 -10.891  -9.425  1.00  0.00     0.168 HD
HETATM    4  C5  UNL     1     -32.485 -10.868  -7.600  1.00  0.00     0.183 A 
HETATM    5  N3  UNL     1     -32.591 -10.392  -6.353  1.00  0.00    -0.336 N 
ATOM      6  H3  UNL     1     -33.282 -10.737  -5.686  1.00  0.00     0.168 HD
HETATM    7  C6  UNL     1     -31.700  -9.409  -6.048  1.00  0.00     0.148 A 
HETATM    8  C7  UNL     1     -30.773  -8.943  -6.931  1.00  0.00     0.072 A 
HETATM    9  C8  UNL     1     -30.011  -7.934  -6.341  1.00  0.00     0.036 A 
HETATM   10  C16 UNL     1     -30.508  -7.856  -5.041  1.00  0.00     0.144 A 
HETATM   11  N4  UNL     1     -31.526  -8.743  -4.867  1.00  0.00    -0.217 N 
ENDROOT
BRANCH   9  12
HETATM   12  S1  UNL     1     -28.834  -6.853  -7.148  1.00  0.00    -0.123 SA
BRANCH  12  13
HETATM   13  C9  UNL     1     -29.679  -5.340  -7.639  1.00  0.00     0.121 C 
BRANCH  13  14
HETATM   14  C10 UNL     1     -29.353  -4.155  -6.829  1.00  0.00    -0.003 A 
HETATM   15  C11 UNL     1     -28.387  -3.301  -7.331  1.00  0.00     0.044 A 
HETATM   16 CL1  UNL     1     -27.856  -3.600  -8.959  1.00  0.00    -0.084 Cl
HETATM   17  C12 UNL     1     -27.858  -2.232  -6.660  1.00  0.00     0.050 A 
HETATM   18  C13 UNL     1     -28.336  -1.983  -5.358  1.00  0.00     0.059 A 
HETATM   19 CL2  UNL     1     -27.705  -0.619  -4.490  1.00  0.00    -0.082 Cl
HETATM   20  C14 UNL     1     -29.288  -2.817  -4.843  1.00  0.00     0.078 A 
HETATM   21 CL3  UNL     1     -29.825  -2.564  -3.194  1.00  0.00    -0.081 Cl
HETATM   22  C15 UNL     1     -29.810  -3.897  -5.550  1.00  0.00     0.066 A 
HETATM   23 CL4  UNL     1     -30.961  -4.929  -4.774  1.00  0.00    -0.082 Cl
ENDBRANCH  13  14
ENDBRANCH  12  13
ENDBRANCH   9  12
BRANCH   1  24
HETATM   24  N1  UNL     1     -29.549  -9.325  -8.769  1.00  0.00    -0.350 N 
HETATM   25  C2  UNL     1     -28.710  -9.850  -9.705  1.00  0.00    -0.020 C 
HETATM   26  C1  UNL     1     -27.465  -9.007 -10.059  1.00  0.00     0.062 C 
HETATM   27  C3  UNL     1     -29.093 -10.619 -10.908  1.00  0.00     0.062 C 
ATOM     28  H1  UNL     1     -29.105  -8.505  -8.356  1.00  0.00     0.167 HD
ENDBRANCH   1  24
BRANCH  11  29
HETATM   29  O1  UNL     1     -32.194  -8.968  -3.691  1.00  0.00    -0.281 OA
ATOM     30  H1  UNL     1     -32.351  -9.809  -3.277  1.00  0.00     0.245 HD
ENDBRANCH  11  29
TORSDOF 5
ENDMDL
MODEL 4
REMARK VINA RESULT: -7.526242428      2.572      4.272
REMARK  5 active torsions:
REMARK  status: ('A' for Active; 'I' for Inactive)
REMARK    1  A    between atoms: N1_4  and  C4_6 
REMARK    2  A    between atoms: C8_14  and  S1_15 
REMARK    3  A    between atoms: S1_15  and  C9_16 
REMARK    4  A    between atoms: C9_16  and  C10_17 
REMARK    5  A    between atoms: N4_28  and  O1_29 
ROOT
HETATM    1  C4  UNL     1     -30.992  -8.995  -6.760  1.00  0.00     0.121 A 
HETATM    2  N2  UNL     1     -31.828  -9.891  -7.340  1.00  0.00    -0.338 N 
ATOM      3  H2  UNL     1     -31.909  -9.902  -8.357  1.00  0.00     0.168 HD
HETATM    4  C5  UNL     1     -32.552 -10.765  -6.624  1.00  0.00     0.183 A 
HETATM    5  N3  UNL     1     -32.529 -10.864  -5.290  1.00  0.00    -0.336 N 
ATOM      6  H3  UNL     1     -33.083 -11.550  -4.777  1.00  0.00     0.168 HD
HETATM    7  C6  UNL     1     -31.704  -9.973  -4.673  1.00  0.00     0.148 A 
HETATM    8  C7  UNL     1     -30.960  -9.055  -5.350  1.00  0.00     0.072 A 
HETATM    9  C8  UNL     1     -30.225  -8.277  -4.455  1.00  0.00     0.036 A 
HETATM   10  C16 UNL     1     -30.541  -8.814  -3.207  1.00  0.00     0.144 A 
HETATM   11  N4  UNL     1     -31.433  -9.834  -3.341  1.00  0.00    -0.217 N 
ENDROOT
BRANCH   9  12
HETATM   12  S1  UNL     1     -29.283  -6.799  -4.822  1.00  0.00    -0.123 SA
BRANCH  12  13
HETATM   13  C9  UNL     1     -30.425  -5.484  -5.283  1.00  0.00     0.121 C 
BRANCH  13  14
HETATM   14  C10 UNL     1     -29.864  -4.125  -5.225  1.00  0.00    -0.003 A 
HETATM   15  C11 UNL     1     -29.461  -3.563  -6.423  1.00  0.00     0.044 A 
HETATM   16 CL1  UNL     1     -29.888  -4.429  -7.869  1.00  0.00    -0.084 Cl
HETATM   17  C12 UNL     1     -28.795  -2.375  -6.549  1.00  0.00     0.050 A 
HETATM   18  C13 UNL     1     -28.498  -1.669  -5.366  1.00  0.00     0.059 A 
HETATM   19 CL2  UNL     1     -27.678  -0.146  -5.493  1.00  0.00    -0.082 Cl
HETATM   20  C14 UNL     1     -28.885  -2.209  -4.171  1.00  0.00     0.078 A 
HETATM   21 CL3  UNL     1     -28.445  -1.379  -2.692  1.00  0.00    -0.081 Cl
HETATM   22  C15 UNL     1     -29.565  -3.420  -4.073  1.00  0.00     0.066 A 
HETATM   23 CL4  UNL     1     -29.944  -4.043  -2.505  1.00  0.00    -0.082 Cl
ENDBRANCH  13  14
ENDBRANCH  12  13
ENDBRANCH   9  12
BRANCH   1  24
HETATM   24  N1  UNL     1     -29.973  -8.463  -7.273  1.00  0.00    -0.350 N 
HETATM   25  C2  UNL     1     -28.958  -8.690  -8.152  1.00  0.00    -0.020 C 
HETATM   26  C1  UNL     1     -28.081  -7.471  -8.516  1.00  0.00     0.062 C 
HETATM   27  C3  UNL     1     -28.983  -9.595  -9.321  1.00  0.00     0.062 C 
ATOM     28  H1  UNL     1     -29.872  -7.522  -6.894  1.00  0.00     0.167 HD
ENDBRANCH   1  24
BRANCH  11  29
HETATM   29  O1  UNL     1     -31.905 -10.618  -2.320  1.00  0.00    -0.281 OA
ATOM     30  H1  UNL     1     -31.638 -10.587  -1.408  1.00  0.00     0.245 HD
ENDBRANCH  11  29
TORSDOF 5
ENDMDL
MODEL 5
REMARK VINA RESULT: -7.483101701      0.665      1.983
REMARK  5 active torsions:
REMARK  status: ('A' for Active; 'I' for Inactive)
REMARK    1  A    between atoms: N1_4  and  C4_6 
REMARK    2  A    between atoms: C8_14  and  S1_15 
REMARK    3  A    between atoms: S1_15  and  C9_16 
REMARK    4  A    between atoms: C9_16  and  C10_17 
REMARK    5  A    between atoms: N4_28  and  O1_29 
ROOT
HETATM    1  C4  UNL     1     -30.623  -9.618  -8.079  1.00  0.00     0.121 A 
HETATM    2  N2  UNL     1     -30.568 -10.466  -9.137  1.00  0.00    -0.338 N 
ATOM      3  H2  UNL     1     -31.311 -11.155  -9.253  1.00  0.00     0.168 HD
HETATM    4  C5  UNL     1     -29.572 -10.430 -10.034  1.00  0.00     0.183 A 
HETATM    5  N3  UNL     1     -28.547  -9.570 -10.003  1.00  0.00    -0.336 N 
ATOM      6  H3  UNL     1     -27.811  -9.561 -10.710  1.00  0.00     0.168 HD
HETATM    7  C6  UNL     1     -28.566  -8.708  -8.950  1.00  0.00     0.148 A 
HETATM    8  C7  UNL     1     -29.544  -8.711  -8.002  1.00  0.00     0.072 A 
HETATM    9  C8  UNL     1     -29.292  -7.726  -7.047  1.00  0.00     0.036 A 
HETATM   10  C16 UNL     1     -28.130  -7.105  -7.504  1.00  0.00     0.144 A 
HETATM   11  N4  UNL     1     -27.694  -7.699  -8.649  1.00  0.00    -0.217 N 
ENDROOT
BRANCH   9  12
HETATM   12  S1  UNL     1     -30.143  -7.482  -5.490  1.00  0.00    -0.123 SA
BRANCH  12  13
HETATM   13  C9  UNL     1     -31.138  -5.984  -5.602  1.00  0.00     0.121 C 
BRANCH  13  14
HETATM   14  C10 UNL     1     -30.390  -4.728  -5.435  1.00  0.00    -0.003 A 
HETATM   15  C11 UNL     1     -29.961  -4.098  -6.590  1.00  0.00     0.044 A 
HETATM   16 CL1  UNL     1     -30.562  -4.734  -8.092  1.00  0.00    -0.084 Cl
HETATM   17  C12 UNL     1     -29.141  -3.003  -6.629  1.00  0.00     0.050 A 
HETATM   18  C13 UNL     1     -28.700  -2.478  -5.398  1.00  0.00     0.059 A 
HETATM   19 CL2  UNL     1     -27.680  -1.075  -5.412  1.00  0.00    -0.082 Cl
HETATM   20  C14 UNL     1     -29.111  -3.088  -4.246  1.00  0.00     0.078 A 
HETATM   21 CL3  UNL     1     -28.500  -2.493  -2.715  1.00  0.00    -0.081 Cl
HETATM   22  C15 UNL     1     -29.949  -4.201  -4.236  1.00  0.00     0.066 A 
HETATM   23 CL4  UNL     1     -30.348  -4.935  -2.722  1.00  0.00    -0.082 Cl
ENDBRANCH  13  14
ENDBRANCH  12  13
ENDBRANCH   9  12
BRANCH   1  24
HETATM   24  N1  UNL     1     -31.652  -9.244  -7.457  1.00  0.00    -0.350 N 
HETATM   25  C2  UNL     1     -32.669  -9.698  -6.673  1.00  0.00    -0.020 C 
HETATM   26  C1  UNL     1     -33.564  -8.620  -6.022  1.00  0.00     0.062 C 
HETATM   27  C3  UNL     1     -32.639 -10.868  -5.770  1.00  0.00     0.062 C 
ATOM     28  H1  UNL     1     -31.764  -8.239  -7.588  1.00  0.00     0.167 HD
ENDBRANCH   1  24
BRANCH  11  29
HETATM   29  O1  UNL     1     -26.615  -7.297  -9.394  1.00  0.00    -0.281 OA
ATOM     30  H1  UNL     1     -26.077  -6.527  -9.247  1.00  0.00     0.245 HD
ENDBRANCH  11  29
TORSDOF 5
ENDMDL
