MODEL 1
REMARK VINA RESULT: -7.443391974      0.000      0.000
REMARK  7 active torsions:
REMARK  status: ('A' for Active; 'I' for Inactive)
REMARK    1  A    between atoms: C2_2  and  O1_3 
REMARK    2  A    between atoms: O1_3  and  C3_4 
REMARK    3  A    between atoms: C3_4  and  C4_6 
REMARK    4  A    between atoms: C7_9  and  O3_10 
REMARK    5  A    between atoms: C9_13  and  O4_14 
REMARK    6  A    between atoms: C10_16  and  C11_17 
REMARK    7  A    between atoms: C11_17  and  C12_19 
ROOT
HETATM    1  C4  UNL     1     -28.995  -3.879  -5.542  1.00  0.00     0.065 A 
HETATM    2  C5  UNL     1     -28.993  -2.544  -5.088  1.00  0.00    -0.011 A 
HETATM    3  C6  UNL     1     -28.991  -1.427  -6.075  1.00  0.00     0.052 C 
HETATM    4  C7  UNL     1     -28.971  -2.310  -3.747  1.00  0.00     0.075 A 
HETATM    5  C8  UNL     1     -28.944  -3.399  -2.840  1.00  0.00     0.074 A 
HETATM    6  C9  UNL     1     -28.939  -4.672  -3.329  1.00  0.00     0.083 A 
HETATM    7  C10 UNL     1     -28.962  -4.944  -4.713  1.00  0.00     0.065 A 
ENDROOT
BRANCH   7   8
HETATM    8  C11 UNL     1     -29.062  -6.343  -4.973  1.00  0.00     0.198 C 
HETATM    9  O5  UNL     1     -28.183  -7.068  -4.384  1.00  0.00    -0.286 OA
BRANCH   8  10
HETATM   10  C12 UNL     1     -30.038  -7.011  -5.834  1.00  0.00     0.046 A 
HETATM   11  C13 UNL     1     -31.300  -7.268  -5.352  1.00  0.00    -0.022 A 
HETATM   12  C14 UNL     1     -31.813  -6.469  -4.177  1.00  0.00     0.051 C 
HETATM   13  C15 UNL     1     -32.155  -8.177  -5.989  1.00  0.00     0.064 A 
HETATM   14 CL1  UNL     1     -33.716  -8.504  -5.306  1.00  0.00    -0.082 Cl
HETATM   15  C16 UNL     1     -31.696  -8.814  -7.122  1.00  0.00     0.079 A 
HETATM   16 CL2  UNL     1     -32.736 -10.008  -7.898  1.00  0.00    -0.081 Cl
HETATM   17  C17 UNL     1     -30.468  -8.587  -7.633  1.00  0.00     0.080 A 
HETATM   18 CL3  UNL     1     -29.847  -9.398  -9.053  1.00  0.00    -0.081 Cl
HETATM   19  C18 UNL     1     -29.628  -7.668  -6.975  1.00  0.00     0.072 A 
HETATM   20 CL4  UNL     1     -28.062  -7.359  -7.716  1.00  0.00    -0.081 Cl
ENDBRANCH   8  10
ENDBRANCH   7   8
BRANCH   1  21
HETATM   21  C3  UNL     1     -29.404  -4.120  -6.969  1.00  0.00     0.295 C 
HETATM   22  O2  UNL     1     -30.625  -4.139  -7.230  1.00  0.00    -0.259 OA
BRANCH  21  23
HETATM   23  O1  UNL     1     -28.505  -4.291  -7.951  1.00  0.00    -0.318 OA
BRANCH  23  24
HETATM   24  C2  UNL     1     -27.553  -3.422  -8.457  1.00  0.00     0.174 C 
HETATM   25  C1  UNL     1     -27.955  -2.480  -9.541  1.00  0.00     0.034 C 
ENDBRANCH  23  24
ENDBRANCH  21  23
ENDBRANCH   1  21
BRANCH   6  26
HETATM   26  O4  UNL     1     -28.910  -5.706  -2.382  1.00  0.00    -0.360 OA
ATOM     27  H4  UNL     1     -28.059  -5.928  -2.022  1.00  0.00     0.217 HD
ENDBRANCH   6  26
BRANCH   4  28
HETATM   28  O3  UNL     1     -28.961  -1.041  -3.229  1.00  0.00    -0.360 OA
ATOM     29  H3  UNL     1     -28.444  -0.810  -2.466  1.00  0.00     0.217 HD
ENDBRANCH   4  28
TORSDOF 7
ENDMDL
MODEL 2
REMARK VINA RESULT: -6.820677682      3.401      6.746
REMARK  7 active torsions:
REMARK  status: ('A' for Active; 'I' for Inactive)
REMARK    1  A    between atoms: C2_2  and  O1_3 
REMARK    2  A    between atoms: O1_3  and  C3_4 
REMARK    3  A    between atoms: C3_4  and  C4_6 
REMARK    4  A    between atoms: C7_9  and  O3_10 
REMARK    5  A    between atoms: C9_13  and  O4_14 
REMARK    6  A    between atoms: C10_16  and  C11_17 
REMARK    7  A    between atoms: C11_17  and  C12_19 
ROOT
HETATM    1  C4  UNL     1     -29.592  -9.139  -7.588  1.00  0.00     0.065 A 
HETATM    2  C5  UNL     1     -30.319  -9.970  -8.465  1.00  0.00    -0.011 A 
HETATM    3  C6  UNL     1     -29.612 -10.680  -9.568  1.00  0.00     0.052 C 
HETATM    4  C7  UNL     1     -31.665 -10.085  -8.292  1.00  0.00     0.075 A 
HETATM    5  C8  UNL     1     -32.307  -9.372  -7.247  1.00  0.00     0.074 A 
HETATM    6  C9  UNL     1     -31.560  -8.574  -6.430  1.00  0.00     0.083 A 
HETATM    7  C10 UNL     1     -30.165  -8.437  -6.587  1.00  0.00     0.065 A 
ENDROOT
BRANCH   7   8
HETATM    8  C11 UNL     1     -29.596  -7.640  -5.550  1.00  0.00     0.198 C 
HETATM    9  O5  UNL     1     -28.851  -8.277  -4.723  1.00  0.00    -0.286 OA
BRANCH   8  10
HETATM   10  C12 UNL     1     -29.785  -6.204  -5.339  1.00  0.00     0.046 A 
HETATM   11  C13 UNL     1     -29.245  -5.312  -6.235  1.00  0.00    -0.022 A 
HETATM   12  C14 UNL     1     -28.898  -5.789  -7.625  1.00  0.00     0.051 C 
HETATM   13  C15 UNL     1     -29.107  -3.954  -5.921  1.00  0.00     0.064 A 
HETATM   14 CL1  UNL     1     -28.368  -2.882  -7.069  1.00  0.00    -0.082 Cl
HETATM   15  C16 UNL     1     -29.531  -3.528  -4.680  1.00  0.00     0.079 A 
HETATM   16 CL2  UNL     1     -29.306  -1.834  -4.247  1.00  0.00    -0.081 Cl
HETATM   17  C17 UNL     1     -30.073  -4.368  -3.774  1.00  0.00     0.080 A 
HETATM   18 CL3  UNL     1     -30.595  -3.865  -2.182  1.00  0.00    -0.081 Cl
HETATM   19  C18 UNL     1     -30.201  -5.728  -4.113  1.00  0.00     0.072 A 
HETATM   20 CL4  UNL     1     -30.972  -6.770  -2.922  1.00  0.00    -0.081 Cl
ENDBRANCH   8  10
ENDBRANCH   7   8
BRANCH   1  21
HETATM   21  C3  UNL     1     -28.101  -9.322  -7.544  1.00  0.00     0.295 C 
HETATM   22  O2  UNL     1     -27.395  -8.517  -8.186  1.00  0.00    -0.259 OA
BRANCH  21  23
HETATM   23  O1  UNL     1     -27.521 -10.299  -6.828  1.00  0.00    -0.318 OA
BRANCH  23  24
HETATM   24  C2  UNL     1     -26.183 -10.587  -6.624  1.00  0.00     0.174 C 
HETATM   25  C1  UNL     1     -25.697 -10.753  -5.223  1.00  0.00     0.034 C 
ENDBRANCH  23  24
ENDBRANCH  21  23
ENDBRANCH   1  21
BRANCH   6  26
HETATM   26  O4  UNL     1     -32.252  -7.893  -5.419  1.00  0.00    -0.360 OA
ATOM     27  H4  UNL     1     -31.781  -7.194  -4.979  1.00  0.00     0.217 HD
ENDBRANCH   6  26
BRANCH   4  28
HETATM   28  O3  UNL     1     -32.441 -10.868  -9.107  1.00  0.00    -0.360 OA
ATOM     29  H3  UNL     1     -32.692 -10.594  -9.981  1.00  0.00     0.217 HD
ENDBRANCH   4  28
TORSDOF 7
ENDMDL
MODEL 3
REMARK VINA RESULT: -6.799903761      3.224      6.322
REMARK  7 active torsions:
REMARK  status: ('A' for Active; 'I' for Inactive)
REMARK    1  A    between atoms: C2_2  and  O1_3 
REMARK    2  A    between atoms: O1_3  and  C3_4 
REMARK    3  A    between atoms: C3_4  and  C4_6 
REMARK    4  A    between atoms: C7_9  and  O3_10 
REMARK    5  A    between atoms: C9_13  and  O4_14 
REMARK    6  A    between atoms: C10_16  and  C11_17 
REMARK    7  A    between atoms: C11_17  and  C12_19 
ROOT
HETATM    1  C4  UNL     1     -30.119  -8.426  -5.723  1.00  0.00     0.065 A 
HETATM    2  C5  UNL     1     -31.171  -9.341  -5.936  1.00  0.00    -0.011 A 
HETATM    3  C6  UNL     1     -30.930 -10.569  -6.746  1.00  0.00     0.052 C 
HETATM    4  C7  UNL     1     -32.395  -9.063  -5.410  1.00  0.00     0.075 A 
HETATM    5  C8  UNL     1     -32.592  -7.870  -4.669  1.00  0.00     0.074 A 
HETATM    6  C9  UNL     1     -31.545  -7.013  -4.497  1.00  0.00     0.083 A 
HETATM    7  C10 UNL     1     -30.266  -7.276  -5.031  1.00  0.00     0.065 A 
ENDROOT
BRANCH   7   8
HETATM    8  C11 UNL     1     -29.316  -6.293  -4.627  1.00  0.00     0.198 C 
HETATM    9  O5  UNL     1     -28.429  -6.704  -3.796  1.00  0.00    -0.286 OA
BRANCH   8  10
HETATM   10  C12 UNL     1     -29.264  -4.892  -5.049  1.00  0.00     0.046 A 
HETATM   11  C13 UNL     1     -29.080  -4.593  -6.379  1.00  0.00    -0.022 A 
HETATM   12  C14 UNL     1     -29.407  -5.640  -7.417  1.00  0.00     0.051 C 
HETATM   13  C15 UNL     1     -28.698  -3.312  -6.794  1.00  0.00     0.064 A 
HETATM   14 CL1  UNL     1     -28.426  -3.004  -8.480  1.00  0.00    -0.082 Cl
HETATM   15  C16 UNL     1     -28.509  -2.346  -5.828  1.00  0.00     0.079 A 
HETATM   16 CL2  UNL     1     -27.967  -0.745  -6.329  1.00  0.00    -0.081 Cl
HETATM   17  C17 UNL     1     -28.685  -2.594  -4.514  1.00  0.00     0.080 A 
HETATM   18 CL3  UNL     1     -28.428  -1.399  -3.261  1.00  0.00    -0.081 Cl
HETATM   19  C18 UNL     1     -29.070  -3.890  -4.121  1.00  0.00     0.072 A 
HETATM   20 CL4  UNL     1     -29.349  -4.146  -2.402  1.00  0.00    -0.081 Cl
ENDBRANCH   8  10
ENDBRANCH   7   8
BRANCH   1  21
HETATM   21  C3  UNL     1     -28.719  -8.918  -5.966  1.00  0.00     0.295 C 
HETATM   22  O2  UNL     1     -28.205  -9.663  -5.105  1.00  0.00    -0.259 OA
BRANCH  21  23
HETATM   23  O1  UNL     1     -28.031  -8.599  -7.073  1.00  0.00    -0.318 OA
BRANCH  23  24
HETATM   24  C2  UNL     1     -27.720  -9.360  -8.187  1.00  0.00     0.174 C 
HETATM   25  C1  UNL     1     -28.676  -9.369  -9.332  1.00  0.00     0.034 C 
ENDBRANCH  23  24
ENDBRANCH  21  23
ENDBRANCH   1  21
BRANCH   6  26
HETATM   26  O4  UNL     1     -31.803  -5.851  -3.758  1.00  0.00    -0.360 OA
ATOM     27  H4  UNL     1     -32.286  -5.163  -4.203  1.00  0.00     0.217 HD
ENDBRANCH   6  26
BRANCH   4  28
HETATM   28  O3  UNL     1     -33.468  -9.899  -5.579  1.00  0.00    -0.360 OA
ATOM     29  H3  UNL     1     -33.676 -10.291  -6.419  1.00  0.00     0.217 HD
ENDBRANCH   4  28
TORSDOF 7
ENDMDL
MODEL 4
REMARK VINA RESULT: -6.733245699      3.146      6.753
REMARK  7 active torsions:
REMARK  status: ('A' for Active; 'I' for Inactive)
REMARK    1  A    between atoms: C2_2  and  O1_3 
REMARK    2  A    between atoms: O1_3  and  C3_4 
REMARK    3  A    between atoms: C3_4  and  C4_6 
REMARK    4  A    between atoms: C7_9  and  O3_10 
REMARK    5  A    between atoms: C9_13  and  O4_14 
REMARK    6  A    between atoms: C10_16  and  C11_17 
REMARK    7  A    between atoms: C11_17  and  C12_19 
ROOT
HETATM    1  C4  UNL     1     -28.573  -8.968  -5.633  1.00  0.00     0.065 A 
HETATM    2  C5  UNL     1     -27.525  -9.901  -5.774  1.00  0.00    -0.011 A 
HETATM    3  C6  UNL     1     -27.126 -10.746  -4.613  1.00  0.00     0.052 C 
HETATM    4  C7  UNL     1     -26.886  -9.991  -6.974  1.00  0.00     0.075 A 
HETATM    5  C8  UNL     1     -27.277  -9.150  -8.047  1.00  0.00     0.074 A 
HETATM    6  C9  UNL     1     -28.291  -8.257  -7.858  1.00  0.00     0.083 A 
HETATM    7  C10 UNL     1     -28.970  -8.143  -6.626  1.00  0.00     0.065 A 
ENDROOT
BRANCH   7   8
HETATM    8  C11 UNL     1     -30.056  -7.224  -6.708  1.00  0.00     0.198 C 
HETATM    9  O5  UNL     1     -31.036  -7.605  -7.442  1.00  0.00    -0.286 OA
BRANCH   8  10
HETATM   10  C12 UNL     1     -30.152  -5.914  -6.061  1.00  0.00     0.046 A 
HETATM   11  C13 UNL     1     -29.320  -4.897  -6.467  1.00  0.00    -0.022 A 
HETATM   12  C14 UNL     1     -28.684  -4.973  -7.835  1.00  0.00     0.051 C 
HETATM   13  C15 UNL     1     -29.134  -3.750  -5.686  1.00  0.00     0.064 A 
HETATM   14 CL1  UNL     1     -28.029  -2.522  -6.221  1.00  0.00    -0.082 Cl
HETATM   15  C16 UNL     1     -29.811  -3.663  -4.489  1.00  0.00     0.079 A 
HETATM   16 CL2  UNL     1     -29.538  -2.252  -3.465  1.00  0.00    -0.081 Cl
HETATM   17  C17 UNL     1     -30.642  -4.633  -4.056  1.00  0.00     0.080 A 
HETATM   18 CL3  UNL     1     -31.496  -4.565  -2.530  1.00  0.00    -0.081 Cl
HETATM   19  C18 UNL     1     -30.813  -5.777  -4.858  1.00  0.00     0.072 A 
HETATM   20 CL4  UNL     1     -31.956  -6.984  -4.280  1.00  0.00    -0.081 Cl
ENDBRANCH   8  10
ENDBRANCH   7   8
BRANCH   1  21
HETATM   21  C3  UNL     1     -29.501  -9.147  -4.465  1.00  0.00     0.295 C 
HETATM   22  O2  UNL     1     -29.280  -8.477  -3.435  1.00  0.00    -0.259 OA
BRANCH  21  23
HETATM   23  O1  UNL     1     -30.554  -9.979  -4.510  1.00  0.00    -0.318 OA
BRANCH  23  24
HETATM   24  C2  UNL     1     -31.107 -10.669  -5.575  1.00  0.00     0.174 C 
HETATM   25  C1  UNL     1     -32.524 -10.387  -5.946  1.00  0.00     0.034 C 
ENDBRANCH  23  24
ENDBRANCH  21  23
ENDBRANCH   1  21
BRANCH   6  26
HETATM   26  O4  UNL     1     -28.629  -7.453  -8.955  1.00  0.00    -0.360 OA
ATOM     27  H4  UNL     1     -29.556  -7.293  -9.094  1.00  0.00     0.217 HD
ENDBRANCH   6  26
BRANCH   4  28
HETATM   28  O3  UNL     1     -25.855 -10.868  -7.187  1.00  0.00    -0.360 OA
ATOM     29  H3  UNL     1     -25.289 -10.807  -7.947  1.00  0.00     0.217 HD
ENDBRANCH   4  28
TORSDOF 7
ENDMDL
MODEL 5
REMARK VINA RESULT: -6.718227913      3.252      6.618
REMARK  7 active torsions:
REMARK  status: ('A' for Active; 'I' for Inactive)
REMARK    1  A    between atoms: C2_2  and  O1_3 
REMARK    2  A    between atoms: O1_3  and  C3_4 
REMARK    3  A    between atoms: C3_4  and  C4_6 
REMARK    4  A    between atoms: C7_9  and  O3_10 
REMARK    5  A    between atoms: C9_13  and  O4_14 
REMARK    6  A    between atoms: C10_16  and  C11_17 
REMARK    7  A    between atoms: C11_17  and  C12_19 
ROOT
HETATM    1  C4  UNL     1     -30.070  -8.533  -5.796  1.00  0.00     0.065 A 
HETATM    2  C5  UNL     1     -31.110  -9.449  -6.054  1.00  0.00    -0.011 A 
HETATM    3  C6  UNL     1     -30.841 -10.661  -6.879  1.00  0.00     0.052 C 
HETATM    4  C7  UNL     1     -32.350  -9.187  -5.557  1.00  0.00     0.075 A 
HETATM    5  C8  UNL     1     -32.574  -8.008  -4.800  1.00  0.00     0.074 A 
HETATM    6  C9  UNL     1     -31.536  -7.150  -4.585  1.00  0.00     0.083 A 
HETATM    7  C10 UNL     1     -30.241  -7.397  -5.088  1.00  0.00     0.065 A 
ENDROOT
BRANCH   7   8
HETATM    8  C11 UNL     1     -29.308  -6.416  -4.640  1.00  0.00     0.198 C 
HETATM    9  O5  UNL     1     -28.454  -6.834  -3.780  1.00  0.00    -0.286 OA
BRANCH   8  10
HETATM   10  C12 UNL     1     -29.241  -5.013  -5.050  1.00  0.00     0.046 A 
HETATM   11  C13 UNL     1     -29.013  -4.704  -6.370  1.00  0.00    -0.022 A 
HETATM   12  C14 UNL     1     -29.306  -5.742  -7.427  1.00  0.00     0.051 C 
HETATM   13  C15 UNL     1     -28.616  -3.420  -6.762  1.00  0.00     0.064 A 
HETATM   14 CL1  UNL     1     -28.288  -3.100  -8.437  1.00  0.00    -0.082 Cl
HETATM   15  C16 UNL     1     -28.457  -2.462  -5.783  1.00  0.00     0.079 A 
HETATM   16 CL2  UNL     1     -27.897  -0.857  -6.254  1.00  0.00    -0.081 Cl
HETATM   17  C17 UNL     1     -28.677  -2.719  -4.477  1.00  0.00     0.080 A 
HETATM   18 CL3  UNL     1     -28.459  -1.535  -3.208  1.00  0.00    -0.081 Cl
HETATM   19  C18 UNL     1     -29.076  -4.018  -4.108  1.00  0.00     0.072 A 
HETATM   20 CL4  UNL     1     -29.411  -4.287  -2.401  1.00  0.00    -0.081 Cl
ENDBRANCH   8  10
ENDBRANCH   7   8
BRANCH   1  21
HETATM   21  C3  UNL     1     -28.662  -9.014  -6.009  1.00  0.00     0.295 C 
HETATM   22  O2  UNL     1     -28.107  -8.735  -7.092  1.00  0.00    -0.259 OA
BRANCH  21  23
HETATM   23  O1  UNL     1     -27.993  -9.705  -5.072  1.00  0.00    -0.318 OA
BRANCH  23  24
HETATM   24  C2  UNL     1     -28.454 -10.572  -4.097  1.00  0.00     0.174 C 
HETATM   25  C1  UNL     1     -28.466 -10.107  -2.679  1.00  0.00     0.034 C 
ENDBRANCH  23  24
ENDBRANCH  21  23
ENDBRANCH   1  21
BRANCH   6  26
HETATM   26  O4  UNL     1     -31.820  -6.002  -3.832  1.00  0.00    -0.360 OA
ATOM     27  H4  UNL     1     -32.575  -5.493  -4.103  1.00  0.00     0.217 HD
ENDBRANCH   6  26
BRANCH   4  28
HETATM   28  O3  UNL     1     -33.414 -10.025  -5.770  1.00  0.00    -0.360 OA
ATOM     29  H3  UNL     1     -34.086 -10.166  -5.114  1.00  0.00     0.217 HD
ENDBRANCH   4  28
TORSDOF 7
ENDMDL
