MODEL 1
REMARK VINA RESULT: -7.123339982      0.000      0.000
REMARK  6 active torsions:
REMARK  status: ('A' for Active; 'I' for Inactive)
REMARK    1  A    between atoms: N1_2  and  C2_5 
REMARK    2  A    between atoms: C2_5  and  C3_6 
REMARK    3  A    between atoms: C3_6  and  O1_7 
REMARK    4  A    between atoms: C3_6  and  C8_12 
REMARK    5  A    between atoms: O1_7  and  C4_8 
REMARK    6  A    between atoms: C11_15  and  C12_16 
ROOT
HETATM    1  C8  UNL     1     -30.533  26.648  16.917  1.00  0.00     0.016 C 
HETATM    2  C9  UNL     1     -30.096  28.009  16.434  1.00  0.00     0.008 C 
HETATM    3  C10 UNL     1     -30.374  28.091  14.960  1.00  0.00     0.011 C 
HETATM    4  C11 UNL     1     -29.786  26.969  14.169  1.00  0.00     0.043 C 
HETATM    5  C15 UNL     1     -29.780  25.652  14.831  1.00  0.00     0.011 C 
HETATM    6  C16 UNL     1     -29.566  25.650  16.324  1.00  0.00     0.008 C 
ENDROOT
BRANCH   1   7
HETATM    7  C3  UNL     1     -30.680  26.549  18.395  1.00  0.00     0.152 C 
BRANCH   7   8
HETATM    8  C2  UNL     1     -30.277  27.863  19.083  1.00  0.00     0.264 C 
BRANCH   8   9
HETATM    9  N1  UNL     1     -29.597  27.622  20.320  1.00  0.00    -0.077 N 
HETATM   10  C1  UNL     1     -30.301  28.109  21.464  1.00  0.00     0.267 C 
ATOM     11  H12 UNL     1     -28.651  28.001  20.291  1.00  0.00     0.276 HD
ATOM     12  H11 UNL     1     -29.381  26.630  20.425  1.00  0.00     0.276 HD
ENDBRANCH   8   9
ENDBRANCH   7   8
BRANCH   7  13
HETATM   13  O1  UNL     1     -31.924  26.250  18.860  1.00  0.00    -0.374 OA
BRANCH  13  14
HETATM   14  C4  UNL     1     -32.090  25.105  19.572  1.00  0.00     0.050 C 
HETATM   15  C5  UNL     1     -30.944  24.149  19.598  1.00  0.00     0.045 C 
HETATM   16  C6  UNL     1     -32.524  25.323  21.005  1.00  0.00     0.045 C 
HETATM   17  C7  UNL     1     -33.260  24.353  18.913  1.00  0.00     0.045 C 
ENDBRANCH  13  14
ENDBRANCH   7  13
ENDBRANCH   1   7
BRANCH   4  18
HETATM   18  C12 UNL     1     -28.383  27.317  13.734  1.00  0.00     0.054 A 
HETATM   19  N2  UNL     1     -27.558  28.219  14.243  1.00  0.00    -0.363 N 
HETATM   20  C13 UNL     1     -26.381  28.377  13.730  1.00  0.00     0.095 A 
ATOM     21  H2  UNL     1     -27.850  28.789  15.038  1.00  0.00     0.165 HD
HETATM   22  C14 UNL     1     -26.039  27.586  12.660  1.00  0.00     0.068 A 
HETATM   23  S1  UNL     1     -27.457  26.652  12.464  1.00  0.00    -0.087 SA
ENDBRANCH   4  18
TORSDOF 6
ENDMDL
MODEL 2
REMARK VINA RESULT: -6.793963620      4.845      6.940
REMARK  6 active torsions:
REMARK  status: ('A' for Active; 'I' for Inactive)
REMARK    1  A    between atoms: N1_2  and  C2_5 
REMARK    2  A    between atoms: C2_5  and  C3_6 
REMARK    3  A    between atoms: C3_6  and  O1_7 
REMARK    4  A    between atoms: C3_6  and  C8_12 
REMARK    5  A    between atoms: O1_7  and  C4_8 
REMARK    6  A    between atoms: C11_15  and  C12_16 
ROOT
HETATM    1  C8  UNL     1     -32.458  21.912  20.308  1.00  0.00     0.016 C 
HETATM    2  C9  UNL     1     -33.140  21.334  19.092  1.00  0.00     0.008 C 
HETATM    3  C10 UNL     1     -32.967  19.841  19.128  1.00  0.00     0.011 C 
HETATM    4  C11 UNL     1     -31.548  19.400  19.273  1.00  0.00     0.043 C 
HETATM    5  C15 UNL     1     -30.697  20.246  20.129  1.00  0.00     0.011 C 
HETATM    6  C16 UNL     1     -30.974  21.728  20.098  1.00  0.00     0.008 C 
ENDROOT
BRANCH   1   7
HETATM    7  C3  UNL     1     -32.861  23.311  20.619  1.00  0.00     0.152 C 
BRANCH   7   8
HETATM    8  C2  UNL     1     -33.148  23.486  22.119  1.00  0.00     0.264 C 
BRANCH   8   9
HETATM    9  N1  UNL     1     -32.022  24.042  22.808  1.00  0.00    -0.077 N 
HETATM   10  C1  UNL     1     -32.337  25.209  23.570  1.00  0.00     0.267 C 
ATOM     11  H12 UNL     1     -31.259  24.231  22.158  1.00  0.00     0.276 HD
ATOM     12  H11 UNL     1     -31.576  23.337  23.396  1.00  0.00     0.276 HD
ENDBRANCH   8   9
ENDBRANCH   7   8
BRANCH   7  13
HETATM   13  O1  UNL     1     -31.967  24.284  20.294  1.00  0.00    -0.374 OA
BRANCH  13  14
HETATM   14  C4  UNL     1     -32.320  25.198  19.353  1.00  0.00     0.050 C 
HETATM   15  C5  UNL     1     -31.374  25.401  18.215  1.00  0.00     0.045 C 
HETATM   16  C6  UNL     1     -33.694  24.980  18.760  1.00  0.00     0.045 C 
HETATM   17  C7  UNL     1     -32.410  26.552  20.079  1.00  0.00     0.045 C 
ENDBRANCH  13  14
ENDBRANCH   7  13
ENDBRANCH   1   7
BRANCH   4  18
HETATM   18  C12 UNL     1     -30.904  19.255  17.915  1.00  0.00     0.054 A 
HETATM   19  N2  UNL     1     -29.657  19.519  17.557  1.00  0.00    -0.363 N 
HETATM   20  C13 UNL     1     -29.285  19.331  16.333  1.00  0.00     0.095 A 
ATOM     21  H2  UNL     1     -28.991  19.871  18.246  1.00  0.00     0.165 HD
HETATM   22  C14 UNL     1     -30.221  18.857  15.446  1.00  0.00     0.068 A 
HETATM   23  S1  UNL     1     -31.596  18.712  16.453  1.00  0.00    -0.087 SA
ENDBRANCH   4  18
TORSDOF 6
ENDMDL
MODEL 3
REMARK VINA RESULT: -6.481859556      1.647      2.533
REMARK  6 active torsions:
REMARK  status: ('A' for Active; 'I' for Inactive)
REMARK    1  A    between atoms: N1_2  and  C2_5 
REMARK    2  A    between atoms: C2_5  and  C3_6 
REMARK    3  A    between atoms: C3_6  and  O1_7 
REMARK    4  A    between atoms: C3_6  and  C8_12 
REMARK    5  A    between atoms: O1_7  and  C4_8 
REMARK    6  A    between atoms: C11_15  and  C12_16 
ROOT
HETATM    1  C8  UNL     1     -30.576  26.506  17.141  1.00  0.00     0.016 C 
HETATM    2  C9  UNL     1     -29.817  27.799  16.970  1.00  0.00     0.008 C 
HETATM    3  C10 UNL     1     -29.934  28.219  15.532  1.00  0.00     0.011 C 
HETATM    4  C11 UNL     1     -29.526  27.163  14.558  1.00  0.00     0.043 C 
HETATM    5  C15 UNL     1     -29.860  25.778  14.935  1.00  0.00     0.011 C 
HETATM    6  C16 UNL     1     -29.792  25.445  16.405  1.00  0.00     0.008 C 
ENDROOT
BRANCH   1   7
HETATM    7  C3  UNL     1     -30.877  26.165  18.560  1.00  0.00     0.152 C 
BRANCH   7   8
HETATM    8  C2  UNL     1     -30.663  24.668  18.829  1.00  0.00     0.264 C 
BRANCH   8   9
HETATM    9  N1  UNL     1     -31.905  23.990  19.052  1.00  0.00    -0.077 N 
HETATM   10  C1  UNL     1     -31.806  22.904  19.974  1.00  0.00     0.267 C 
ATOM     11  H12 UNL     1     -32.308  23.678  18.169  1.00  0.00     0.276 HD
ATOM     12  H11 UNL     1     -32.627  24.649  19.346  1.00  0.00     0.276 HD
ENDBRANCH   8   9
ENDBRANCH   7   8
BRANCH   7  13
HETATM   13  O1  UNL     1     -30.153  26.823  19.505  1.00  0.00    -0.374 OA
BRANCH  13  14
HETATM   14  C4  UNL     1     -30.789  27.242  20.631  1.00  0.00     0.050 C 
HETATM   15  C5  UNL     1     -30.968  26.240  21.723  1.00  0.00     0.045 C 
HETATM   16  C6  UNL     1     -30.191  28.483  21.255  1.00  0.00     0.045 C 
HETATM   17  C7  UNL     1     -32.205  27.658  20.197  1.00  0.00     0.045 C 
ENDBRANCH  13  14
ENDBRANCH   7  13
ENDBRANCH   1   7
BRANCH   4  18
HETATM   18  C12 UNL     1     -28.047  27.261  14.271  1.00  0.00     0.054 A 
HETATM   19  N2  UNL     1     -27.137  26.298  14.278  1.00  0.00    -0.363 N 
HETATM   20  C13 UNL     1     -25.904  26.576  14.005  1.00  0.00     0.095 A 
ATOM     21  H2  UNL     1     -27.408  25.339  14.498  1.00  0.00     0.165 HD
HETATM   22  C14 UNL     1     -25.592  27.883  13.717  1.00  0.00     0.068 A 
HETATM   23  S1  UNL     1     -27.122  28.634  13.860  1.00  0.00    -0.087 SA
ENDBRANCH   4  18
TORSDOF 6
ENDMDL
MODEL 4
REMARK VINA RESULT: -6.448355611      4.847      7.051
REMARK  6 active torsions:
REMARK  status: ('A' for Active; 'I' for Inactive)
REMARK    1  A    between atoms: N1_2  and  C2_5 
REMARK    2  A    between atoms: C2_5  and  C3_6 
REMARK    3  A    between atoms: C3_6  and  O1_7 
REMARK    4  A    between atoms: C3_6  and  C8_12 
REMARK    5  A    between atoms: O1_7  and  C4_8 
REMARK    6  A    between atoms: C11_15  and  C12_16 
ROOT
HETATM    1  C8  UNL     1     -32.166  21.985  20.327  1.00  0.00     0.016 C 
HETATM    2  C9  UNL     1     -32.969  21.721  19.076  1.00  0.00     0.008 C 
HETATM    3  C10 UNL     1     -33.268  20.249  19.019  1.00  0.00     0.011 C 
HETATM    4  C11 UNL     1     -32.058  19.381  19.138  1.00  0.00     0.043 C 
HETATM    5  C15 UNL     1     -31.004  19.869  20.046  1.00  0.00     0.011 C 
HETATM    6  C16 UNL     1     -30.808  21.363  20.107  1.00  0.00     0.008 C 
ENDROOT
BRANCH   1   7
HETATM    7  C3  UNL     1     -32.122  23.420  20.724  1.00  0.00     0.152 C 
BRANCH   7   8
HETATM    8  C2  UNL     1     -31.540  23.587  22.137  1.00  0.00     0.264 C 
BRANCH   8   9
HETATM    9  N1  UNL     1     -32.552  23.948  23.083  1.00  0.00    -0.077 N 
HETATM   10  C1  UNL     1     -32.600  25.347  23.365  1.00  0.00     0.267 C 
ATOM     11  H12 UNL     1     -32.448  23.411  23.944  1.00  0.00     0.276 HD
ATOM     12  H11 UNL     1     -33.466  23.610  22.780  1.00  0.00     0.276 HD
ENDBRANCH   8   9
ENDBRANCH   7   8
BRANCH   7  13
HETATM   13  O1  UNL     1     -31.398  24.247  19.922  1.00  0.00    -0.374 OA
BRANCH  13  14
HETATM   14  C4  UNL     1     -32.005  25.354  19.419  1.00  0.00     0.050 C 
HETATM   15  C5  UNL     1     -33.495  25.333  19.336  1.00  0.00     0.045 C 
HETATM   16  C6  UNL     1     -31.612  26.643  20.108  1.00  0.00     0.045 C 
HETATM   17  C7  UNL     1     -31.499  25.506  17.974  1.00  0.00     0.045 C 
ENDBRANCH  13  14
ENDBRANCH   7  13
ENDBRANCH   1   7
BRANCH   4  18
HETATM   18  C12 UNL     1     -31.464  19.123  17.774  1.00  0.00     0.054 A 
HETATM   19  N2  UNL     1     -32.088  18.957  16.617  1.00  0.00    -0.363 N 
HETATM   20  C13 UNL     1     -31.403  18.743  15.541  1.00  0.00     0.095 A 
ATOM     21  H2  UNL     1     -33.107  18.997  16.575  1.00  0.00     0.165 HD
HETATM   22  C14 UNL     1     -30.034  18.698  15.654  1.00  0.00     0.068 A 
HETATM   23  S1  UNL     1     -29.824  18.971  17.329  1.00  0.00    -0.087 SA
ENDBRANCH   4  18
TORSDOF 6
ENDMDL
MODEL 5
REMARK VINA RESULT: -6.287530400      5.584      8.831
REMARK  6 active torsions:
REMARK  status: ('A' for Active; 'I' for Inactive)
REMARK    1  A    between atoms: N1_2  and  C2_5 
REMARK    2  A    between atoms: C2_5  and  C3_6 
REMARK    3  A    between atoms: C3_6  and  O1_7 
REMARK    4  A    between atoms: C3_6  and  C8_12 
REMARK    5  A    between atoms: O1_7  and  C4_8 
REMARK    6  A    between atoms: C11_15  and  C12_16 
ROOT
HETATM    1  C8  UNL     1     -32.589  22.155  20.501  1.00  0.00     0.016 C 
HETATM    2  C9  UNL     1     -32.815  21.142  21.597  1.00  0.00     0.008 C 
HETATM    3  C10 UNL     1     -32.048  19.898  21.246  1.00  0.00     0.011 C 
HETATM    4  C11 UNL     1     -32.347  19.368  19.882  1.00  0.00     0.043 C 
HETATM    5  C15 UNL     1     -32.598  20.380  18.840  1.00  0.00     0.011 C 
HETATM    6  C16 UNL     1     -33.309  21.636  19.279  1.00  0.00     0.008 C 
ENDROOT
BRANCH   1   7
HETATM    7  C3  UNL     1     -32.958  23.547  20.879  1.00  0.00     0.152 C 
BRANCH   7   8
HETATM    8  C2  UNL     1     -33.202  23.666  22.392  1.00  0.00     0.264 C 
BRANCH   8   9
HETATM    9  N1  UNL     1     -32.114  24.325  23.050  1.00  0.00    -0.077 N 
HETATM   10  C1  UNL     1     -32.521  25.431  23.858  1.00  0.00     0.267 C 
ATOM     11  H12 UNL     1     -31.406  24.613  22.375  1.00  0.00     0.276 HD
ATOM     12  H11 UNL     1     -31.568  23.660  23.598  1.00  0.00     0.276 HD
ENDBRANCH   8   9
ENDBRANCH   7   8
BRANCH   7  13
HETATM   13  O1  UNL     1     -32.055  24.516  20.569  1.00  0.00    -0.374 OA
BRANCH  13  14
HETATM   14  C4  UNL     1     -32.360  25.391  19.576  1.00  0.00     0.050 C 
HETATM   15  C5  UNL     1     -31.477  25.387  18.372  1.00  0.00     0.045 C 
HETATM   16  C6  UNL     1     -33.788  25.299  19.085  1.00  0.00     0.045 C 
HETATM   17  C7  UNL     1     -32.241  26.798  20.188  1.00  0.00     0.045 C 
ENDBRANCH  13  14
ENDBRANCH   7  13
ENDBRANCH   1   7
BRANCH   4  18
HETATM   18  C12 UNL     1     -33.511  18.408  19.939  1.00  0.00     0.054 A 
HETATM   19  N2  UNL     1     -34.464  18.209  19.041  1.00  0.00    -0.363 N 
HETATM   20  C13 UNL     1     -35.390  17.335  19.268  1.00  0.00     0.095 A 
ATOM     21  H2  UNL     1     -34.469  18.744  18.172  1.00  0.00     0.165 HD
HETATM   22  C14 UNL     1     -35.338  16.643  20.454  1.00  0.00     0.068 A 
HETATM   23  S1  UNL     1     -33.936  17.308  21.172  1.00  0.00    -0.087 SA
ENDBRANCH   4  18
TORSDOF 6
ENDMDL
