MODEL 1
REMARK VINA RESULT: -7.572949054      0.000      0.000
REMARK  5 active torsions:
REMARK  status: ('A' for Active; 'I' for Inactive)
REMARK    1  A    between atoms: C2_2  and  C3_3 
REMARK    2  A    between atoms: C2_2  and  N1_9 
REMARK    3  A    between atoms: N1_9  and  C9_10 
REMARK    4  A    between atoms: N1_9  and  C12_19 
REMARK    5  A    between atoms: C9_10  and  C10_11 
ROOT
HETATM    1  N1  UNL     1     -31.091  25.370  20.379  1.00  0.00    -0.355 N 
ENDROOT
BRANCH   1   2
HETATM    2  C2  UNL     1     -30.290  26.330  19.763  1.00  0.00    -0.011 C 
HETATM    3  C1  UNL     1     -29.815  27.486  20.621  1.00  0.00     0.064 C 
BRANCH   2   4
HETATM    4  C3  UNL     1     -30.442  26.642  18.319  1.00  0.00     0.031 C 
HETATM    5  C4  UNL     1     -29.897  25.719  17.306  1.00  0.00     0.010 C 
HETATM    6  C5  UNL     1     -30.666  26.030  15.994  1.00  0.00     0.001 C 
HETATM    7  C6  UNL     1     -30.143  27.379  15.548  1.00  0.00     0.000 C 
HETATM    8  C7  UNL     1     -30.512  28.384  16.601  1.00  0.00     0.001 C 
HETATM    9  C8  UNL     1     -29.918  28.038  17.975  1.00  0.00     0.010 C 
ENDBRANCH   2   4
ENDBRANCH   1   2
BRANCH   1  10
HETATM   10  C9  UNL     1     -31.995  24.543  19.761  1.00  0.00     0.149 C 
BRANCH  10  11
HETATM   11  C10 UNL     1     -31.750  23.115  19.573  1.00  0.00     0.181 A 
HETATM   12  N2  UNL     1     -30.583  22.475  19.584  1.00  0.00    -0.276 N 
HETATM   13  N3  UNL     1     -30.826  21.202  19.376  1.00  0.00    -0.268 N 
ATOM     14  H2  UNL     1     -29.666  22.898  19.729  1.00  0.00     0.189 HD
HETATM   15  C11 UNL     1     -32.151  21.060  19.237  1.00  0.00     0.235 A 
ATOM     16  H3  UNL     1     -30.133  20.456  19.329  1.00  0.00     0.190 HD
HETATM   17  S1  UNL     1     -32.984  19.685  18.962  1.00  0.00    -0.031 SA
HETATM   18  O1  UNL     1     -32.683  22.237  19.362  1.00  0.00    -0.263 OA
ENDBRANCH  10  11
ENDBRANCH   1  10
BRANCH   1  19
HETATM   19  C12 UNL     1     -31.346  25.561  21.758  1.00  0.00     0.089 C 
HETATM   20  C13 UNL     1     -31.256  24.461  22.741  1.00  0.00     0.026 C 
HETATM   21  C14 UNL     1     -32.305  25.259  23.548  1.00  0.00     0.004 C 
HETATM   22  C15 UNL     1     -32.833  25.645  22.154  1.00  0.00     0.026 C 
ENDBRANCH   1  19
TORSDOF 5
ENDMDL
MODEL 2
REMARK VINA RESULT: -7.497755891      1.363      2.500
REMARK  5 active torsions:
REMARK  status: ('A' for Active; 'I' for Inactive)
REMARK    1  A    between atoms: C2_2  and  C3_3 
REMARK    2  A    between atoms: C2_2  and  N1_9 
REMARK    3  A    between atoms: N1_9  and  C9_10 
REMARK    4  A    between atoms: N1_9  and  C12_19 
REMARK    5  A    between atoms: C9_10  and  C10_11 
ROOT
HETATM    1  N1  UNL     1     -32.631  23.754  20.560  1.00  0.00    -0.355 N 
ENDROOT
BRANCH   1   2
HETATM    2  C2  UNL     1     -32.834  24.836  19.706  1.00  0.00    -0.011 C 
HETATM    3  C1  UNL     1     -33.970  24.722  18.706  1.00  0.00     0.064 C 
BRANCH   2   4
HETATM    4  C3  UNL     1     -31.702  25.694  19.272  1.00  0.00     0.031 C 
HETATM    5  C4  UNL     1     -31.675  27.120  19.648  1.00  0.00     0.010 C 
HETATM    6  C5  UNL     1     -30.190  27.558  19.530  1.00  0.00     0.001 C 
HETATM    7  C6  UNL     1     -29.913  27.589  18.042  1.00  0.00     0.000 C 
HETATM    8  C7  UNL     1     -30.069  26.191  17.518  1.00  0.00     0.001 C 
HETATM    9  C8  UNL     1     -31.479  25.629  17.759  1.00  0.00     0.010 C 
ENDBRANCH   2   4
ENDBRANCH   1   2
BRANCH   1  10
HETATM   10  C9  UNL     1     -33.001  22.452  20.331  1.00  0.00     0.149 C 
BRANCH  10  11
HETATM   11  C10 UNL     1     -32.159  21.517  19.590  1.00  0.00     0.181 A 
HETATM   12  N2  UNL     1     -30.830  21.463  19.552  1.00  0.00    -0.276 N 
HETATM   13  N3  UNL     1     -30.495  20.469  18.763  1.00  0.00    -0.268 N 
ATOM     14  H2  UNL     1     -30.188  22.083  20.046  1.00  0.00     0.189 HD
HETATM   15  C11 UNL     1     -31.626  19.908  18.315  1.00  0.00     0.235 A 
ATOM     16  H3  UNL     1     -29.545  20.176  18.533  1.00  0.00     0.190 HD
HETATM   17  S1  UNL     1     -31.778  18.636  17.306  1.00  0.00    -0.031 SA
HETATM   18  O1  UNL     1     -32.617  20.565  18.834  1.00  0.00    -0.263 OA
ENDBRANCH  10  11
ENDBRANCH   1  10
BRANCH   1  19
HETATM   19  C12 UNL     1     -32.460  24.064  21.931  1.00  0.00     0.089 C 
HETATM   20  C13 UNL     1     -32.952  25.323  22.526  1.00  0.00     0.026 C 
HETATM   21  C14 UNL     1     -31.796  25.153  23.539  1.00  0.00     0.004 C 
HETATM   22  C15 UNL     1     -31.055  24.552  22.331  1.00  0.00     0.026 C 
ENDBRANCH   1  19
TORSDOF 5
ENDMDL
MODEL 3
REMARK VINA RESULT: -7.472531545      1.994      2.499
REMARK  5 active torsions:
REMARK  status: ('A' for Active; 'I' for Inactive)
REMARK    1  A    between atoms: C2_2  and  C3_3 
REMARK    2  A    between atoms: C2_2  and  N1_9 
REMARK    3  A    between atoms: N1_9  and  C9_10 
REMARK    4  A    between atoms: N1_9  and  C12_19 
REMARK    5  A    between atoms: C9_10  and  C10_11 
ROOT
HETATM    1  N1  UNL     1     -30.615  25.401  19.520  1.00  0.00    -0.355 N 
ENDROOT
BRANCH   1   2
HETATM    2  C2  UNL     1     -31.421  25.742  18.435  1.00  0.00    -0.011 C 
HETATM    3  C1  UNL     1     -32.740  25.006  18.297  1.00  0.00     0.064 C 
BRANCH   2   4
HETATM    4  C3  UNL     1     -30.827  26.209  17.157  1.00  0.00     0.031 C 
HETATM    5  C4  UNL     1     -29.641  25.526  16.605  1.00  0.00     0.010 C 
HETATM    6  C5  UNL     1     -29.622  25.874  15.092  1.00  0.00     0.001 C 
HETATM    7  C6  UNL     1     -29.234  27.337  15.035  1.00  0.00     0.000 C 
HETATM    8  C7  UNL     1     -30.315  28.123  15.719  1.00  0.00     0.001 C 
HETATM    9  C8  UNL     1     -30.504  27.705  17.186  1.00  0.00     0.010 C 
ENDBRANCH   2   4
ENDBRANCH   1   2
BRANCH   1  10
HETATM   10  C9  UNL     1     -30.159  24.145  19.834  1.00  0.00     0.149 C 
BRANCH  10  11
HETATM   11  C10 UNL     1     -30.788  23.316  20.860  1.00  0.00     0.181 A 
HETATM   12  N2  UNL     1     -30.317  23.003  22.064  1.00  0.00    -0.276 N 
HETATM   13  N3  UNL     1     -31.208  22.239  22.652  1.00  0.00    -0.268 N 
ATOM     14  H2  UNL     1     -29.426  23.304  22.458  1.00  0.00     0.189 HD
HETATM   15  C11 UNL     1     -32.231  22.082  21.803  1.00  0.00     0.235 A 
ATOM     16  H3  UNL     1     -31.133  21.837  23.587  1.00  0.00     0.190 HD
HETATM   17  S1  UNL     1     -33.600  21.225  22.037  1.00  0.00    -0.031 SA
HETATM   18  O1  UNL     1     -31.948  22.747  20.726  1.00  0.00    -0.263 OA
ENDBRANCH  10  11
ENDBRANCH   1  10
BRANCH   1  19
HETATM   19  C12 UNL     1     -30.643  26.288  20.623  1.00  0.00     0.089 C 
HETATM   20  C13 UNL     1     -31.640  27.371  20.743  1.00  0.00     0.026 C 
HETATM   21  C14 UNL     1     -30.560  28.109  21.567  1.00  0.00     0.004 C 
HETATM   22  C15 UNL     1     -29.588  27.411  20.597  1.00  0.00     0.026 C 
ENDBRANCH   1  19
TORSDOF 5
ENDMDL
MODEL 4
REMARK VINA RESULT: -7.432874679      1.190      1.660
REMARK  5 active torsions:
REMARK  status: ('A' for Active; 'I' for Inactive)
REMARK    1  A    between atoms: C2_2  and  C3_3 
REMARK    2  A    between atoms: C2_2  and  N1_9 
REMARK    3  A    between atoms: N1_9  and  C9_10 
REMARK    4  A    between atoms: N1_9  and  C12_19 
REMARK    5  A    between atoms: C9_10  and  C10_11 
ROOT
HETATM    1  N1  UNL     1     -31.420  25.220  20.797  1.00  0.00    -0.355 N 
ENDROOT
BRANCH   1   2
HETATM    2  C2  UNL     1     -32.090  25.554  19.622  1.00  0.00    -0.011 C 
HETATM    3  C1  UNL     1     -33.151  24.588  19.134  1.00  0.00     0.064 C 
BRANCH   2   4
HETATM    4  C3  UNL     1     -31.419  26.340  18.554  1.00  0.00     0.031 C 
HETATM    5  C4  UNL     1     -30.600  25.651  17.539  1.00  0.00     0.010 C 
HETATM    6  C5  UNL     1     -30.517  26.624  16.334  1.00  0.00     0.001 C 
HETATM    7  C6  UNL     1     -29.612  27.745  16.802  1.00  0.00     0.000 C 
HETATM    8  C7  UNL     1     -30.290  28.427  17.955  1.00  0.00     0.001 C 
HETATM    9  C8  UNL     1     -30.559  27.469  19.127  1.00  0.00     0.010 C 
ENDBRANCH   2   4
ENDBRANCH   1   2
BRANCH   1  10
HETATM   10  C9  UNL     1     -30.507  24.208  20.956  1.00  0.00     0.149 C 
BRANCH  10  11
HETATM   11  C10 UNL     1     -30.776  22.836  20.533  1.00  0.00     0.181 A 
HETATM   12  N2  UNL     1     -30.351  22.219  19.433  1.00  0.00    -0.276 N 
HETATM   13  N3  UNL     1     -30.829  20.996  19.453  1.00  0.00    -0.268 N 
ATOM     14  H2  UNL     1     -29.761  22.624  18.706  1.00  0.00     0.189 HD
HETATM   15  C11 UNL     1     -31.551  20.863  20.574  1.00  0.00     0.235 A 
ATOM     16  H3  UNL     1     -30.678  20.279  18.745  1.00  0.00     0.190 HD
HETATM   17  S1  UNL     1     -32.361  19.543  21.087  1.00  0.00    -0.031 SA
HETATM   18  O1  UNL     1     -31.500  21.994  21.206  1.00  0.00    -0.263 OA
ENDBRANCH  10  11
ENDBRANCH   1  10
BRANCH   1  19
HETATM   19  C12 UNL     1     -32.038  25.624  22.005  1.00  0.00     0.089 C 
HETATM   20  C13 UNL     1     -31.430  25.373  23.328  1.00  0.00     0.026 C 
HETATM   21  C14 UNL     1     -32.882  25.364  23.858  1.00  0.00     0.004 C 
HETATM   22  C15 UNL     1     -33.195  24.731  22.490  1.00  0.00     0.026 C 
ENDBRANCH   1  19
TORSDOF 5
ENDMDL
MODEL 5
REMARK VINA RESULT: -7.390804191      1.936      2.817
REMARK  5 active torsions:
REMARK  status: ('A' for Active; 'I' for Inactive)
REMARK    1  A    between atoms: C2_2  and  C3_3 
REMARK    2  A    between atoms: C2_2  and  N1_9 
REMARK    3  A    between atoms: N1_9  and  C9_10 
REMARK    4  A    between atoms: N1_9  and  C12_19 
REMARK    5  A    between atoms: C9_10  and  C10_11 
ROOT
HETATM    1  N1  UNL     1     -32.274  23.747  20.631  1.00  0.00    -0.355 N 
ENDROOT
BRANCH   1   2
HETATM    2  C2  UNL     1     -32.605  24.773  19.748  1.00  0.00    -0.011 C 
HETATM    3  C1  UNL     1     -33.719  24.498  18.756  1.00  0.00     0.064 C 
BRANCH   2   4
HETATM    4  C3  UNL     1     -31.583  25.746  19.286  1.00  0.00     0.031 C 
HETATM    5  C4  UNL     1     -31.679  27.162  19.691  1.00  0.00     0.010 C 
HETATM    6  C5  UNL     1     -30.252  27.747  19.521  1.00  0.00     0.001 C 
HETATM    7  C6  UNL     1     -30.043  27.830  18.023  1.00  0.00     0.000 C 
HETATM    8  C7  UNL     1     -30.083  26.433  17.477  1.00  0.00     0.001 C 
HETATM    9  C8  UNL     1     -31.420  25.730  17.765  1.00  0.00     0.010 C 
ENDBRANCH   2   4
ENDBRANCH   1   2
BRANCH   1  10
HETATM   10  C9  UNL     1     -32.244  22.405  20.347  1.00  0.00     0.149 C 
BRANCH  10  11
HETATM   11  C10 UNL     1     -31.167  21.531  20.807  1.00  0.00     0.181 A 
HETATM   12  N2  UNL     1     -29.867  21.804  20.887  1.00  0.00    -0.276 N 
HETATM   13  N3  UNL     1     -29.265  20.734  21.352  1.00  0.00    -0.268 N 
ATOM     14  H2  UNL     1     -29.421  22.685  20.634  1.00  0.00     0.189 HD
HETATM   15  C11 UNL     1     -30.202  19.799  21.558  1.00  0.00     0.235 A 
ATOM     16  H3  UNL     1     -28.265  20.633  21.525  1.00  0.00     0.190 HD
HETATM   17  S1  UNL     1     -29.992  18.285  22.129  1.00  0.00    -0.031 SA
HETATM   18  O1  UNL     1     -31.344  20.312  21.219  1.00  0.00    -0.263 OA
ENDBRANCH  10  11
ENDBRANCH   1  10
BRANCH   1  19
HETATM   19  C12 UNL     1     -32.430  24.034  22.009  1.00  0.00     0.089 C 
HETATM   20  C13 UNL     1     -33.314  25.111  22.499  1.00  0.00     0.026 C 
HETATM   21  C14 UNL     1     -32.350  25.187  23.705  1.00  0.00     0.004 C 
HETATM   22  C15 UNL     1     -31.282  24.833  22.654  1.00  0.00     0.026 C 
ENDBRANCH   1  19
TORSDOF 5
ENDMDL
