MODEL 1
REMARK VINA RESULT: -5.786272564      0.000      0.000
REMARK  7 active torsions:
REMARK  status: ('A' for Active; 'I' for Inactive)
REMARK    1  A    between atoms: C2_2  and  C3_3 
REMARK    2  A    between atoms: C3_3  and  C4_4 
REMARK    3  A    between atoms: C3_3  and  C6_7 
REMARK    4  A    between atoms: C6_7  and  C8_10 
REMARK       I    between atoms: C8_10  and  N3_12 
REMARK    5  A    between atoms: N3_12  and  C9_14 
REMARK    6  A    between atoms: C9_14  and  S2_16 
REMARK    7  A    between atoms: S2_16  and  C10_17 
ROOT
HETATM    1  C4  UNL     1     -31.226  25.758  18.739  1.00  0.00     0.130 C 
HETATM    2  C5  UNL     1     -30.197  25.804  17.677  1.00  0.00     0.059 C 
HETATM    3  N1  UNL     1     -29.390  25.821  16.849  1.00  0.00    -0.197 NA
ENDROOT
BRANCH   1   4
HETATM    4  C3  UNL     1     -31.243  24.424  19.403  1.00  0.00     0.025 C 
BRANCH   4   5
HETATM    5  C2  UNL     1     -32.709  24.124  19.734  1.00  0.00     0.003 C 
HETATM    6  C1  UNL     1     -33.637  24.789  18.767  1.00  0.00     0.005 C 
ENDBRANCH   4   5
BRANCH   4   7
HETATM    7  C6  UNL     1     -30.464  24.302  20.679  1.00  0.00     0.190 C 
HETATM    8  C7  UNL     1     -31.195  25.166  21.662  1.00  0.00     0.074 C 
HETATM    9  N2  UNL     1     -31.740  25.837  22.427  1.00  0.00    -0.196 NA
BRANCH   7  10
HETATM   10  C8  UNL     1     -30.602  22.900  21.197  1.00  0.00     0.241 C 
HETATM   11  O1  UNL     1     -31.017  22.748  22.390  1.00  0.00    -0.272 OA
HETATM   12  N3  UNL     1     -30.287  21.794  20.396  1.00  0.00    -0.311 N 
ATOM     13  H3  UNL     1     -29.950  21.937  19.444  1.00  0.00     0.170 HD
BRANCH  12  14
HETATM   14  C9  UNL     1     -30.435  20.478  20.902  1.00  0.00     0.141 C 
HETATM   15  S1  UNL     1     -29.142  19.666  21.407  1.00  0.00    -0.052 SA
BRANCH  14  16
HETATM   16  S2  UNL     1     -32.089  19.800  20.942  1.00  0.00    -0.091 SA
BRANCH  16  17
HETATM   17  C10 UNL     1     -32.718  19.435  19.295  1.00  0.00     0.004 C 
HETATM   18  C11 UNL     1     -33.389  20.689  18.773  1.00  0.00     0.026 C 
HETATM   19  C12 UNL     1     -31.651  19.047  18.325  1.00  0.00     0.026 C 
HETATM   20  C13 UNL     1     -33.779  18.358  19.343  1.00  0.00     0.026 C 
ENDBRANCH  16  17
ENDBRANCH  14  16
ENDBRANCH  12  14
ENDBRANCH   7  10
ENDBRANCH   4   7
ENDBRANCH   1   4
TORSDOF 7
ENDMDL
MODEL 2
REMARK VINA RESULT: -5.737576146      2.215      2.845
REMARK  7 active torsions:
REMARK  status: ('A' for Active; 'I' for Inactive)
REMARK    1  A    between atoms: C2_2  and  C3_3 
REMARK    2  A    between atoms: C3_3  and  C4_4 
REMARK    3  A    between atoms: C3_3  and  C6_7 
REMARK    4  A    between atoms: C6_7  and  C8_10 
REMARK       I    between atoms: C8_10  and  N3_12 
REMARK    5  A    between atoms: N3_12  and  C9_14 
REMARK    6  A    between atoms: C9_14  and  S2_16 
REMARK    7  A    between atoms: S2_16  and  C10_17 
ROOT
HETATM    1  C4  UNL     1     -31.478  25.142  19.544  1.00  0.00     0.130 C 
HETATM    2  C5  UNL     1     -30.483  25.600  18.550  1.00  0.00     0.059 C 
HETATM    3  N1  UNL     1     -29.706  25.940  17.764  1.00  0.00    -0.197 NA
ENDROOT
BRANCH   1   4
HETATM    4  C3  UNL     1     -31.721  23.678  19.414  1.00  0.00     0.025 C 
BRANCH   4   5
HETATM    5  C2  UNL     1     -33.232  23.506  19.214  1.00  0.00     0.003 C 
HETATM    6  C1  UNL     1     -33.868  24.770  18.730  1.00  0.00     0.005 C 
ENDBRANCH   4   5
BRANCH   4   7
HETATM    7  C6  UNL     1     -31.328  22.827  20.586  1.00  0.00     0.190 C 
HETATM    8  C7  UNL     1     -32.415  23.036  21.597  1.00  0.00     0.074 C 
HETATM    9  N2  UNL     1     -33.239  23.194  22.390  1.00  0.00    -0.196 NA
BRANCH   7  10
HETATM   10  C8  UNL     1     -31.421  21.384  20.188  1.00  0.00     0.241 C 
HETATM   11  O1  UNL     1     -32.273  20.657  20.791  1.00  0.00    -0.272 OA
HETATM   12  N3  UNL     1     -30.600  20.851  19.185  1.00  0.00    -0.311 N 
ATOM     13  H3  UNL     1     -29.918  21.448  18.717  1.00  0.00     0.170 HD
BRANCH  12  14
HETATM   14  C9  UNL     1     -30.711  19.486  18.817  1.00  0.00     0.141 C 
HETATM   15  S1  UNL     1     -30.010  18.355  19.720  1.00  0.00    -0.052 SA
BRANCH  14  16
HETATM   16  S2  UNL     1     -31.646  19.113  17.340  1.00  0.00    -0.091 SA
BRANCH  16  17
HETATM   17  C10 UNL     1     -30.590  18.611  15.971  1.00  0.00     0.004 C 
HETATM   18  C11 UNL     1     -30.362  17.118  16.095  1.00  0.00     0.026 C 
HETATM   19  C12 UNL     1     -31.189  18.875  14.629  1.00  0.00     0.026 C 
HETATM   20  C13 UNL     1     -29.231  19.271  16.061  1.00  0.00     0.026 C 
ENDBRANCH  16  17
ENDBRANCH  14  16
ENDBRANCH  12  14
ENDBRANCH   7  10
ENDBRANCH   4   7
ENDBRANCH   1   4
TORSDOF 7
ENDMDL
MODEL 3
REMARK VINA RESULT: -5.711332120      1.821      2.178
REMARK  7 active torsions:
REMARK  status: ('A' for Active; 'I' for Inactive)
REMARK    1  A    between atoms: C2_2  and  C3_3 
REMARK    2  A    between atoms: C3_3  and  C4_4 
REMARK    3  A    between atoms: C3_3  and  C6_7 
REMARK    4  A    between atoms: C6_7  and  C8_10 
REMARK       I    between atoms: C8_10  and  N3_12 
REMARK    5  A    between atoms: N3_12  and  C9_14 
REMARK    6  A    between atoms: C9_14  and  S2_16 
REMARK    7  A    between atoms: S2_16  and  C10_17 
ROOT
HETATM    1  C4  UNL     1     -31.819  26.432  21.685  1.00  0.00     0.130 C 
HETATM    2  C5  UNL     1     -30.771  27.379  21.243  1.00  0.00     0.059 C 
HETATM    3  N1  UNL     1     -29.944  28.104  20.886  1.00  0.00    -0.197 NA
ENDROOT
BRANCH   1   4
HETATM    4  C3  UNL     1     -31.496  25.044  21.250  1.00  0.00     0.025 C 
BRANCH   4   5
HETATM    5  C2  UNL     1     -32.606  24.625  20.280  1.00  0.00     0.003 C 
HETATM    6  C1  UNL     1     -32.241  24.934  18.863  1.00  0.00     0.005 C 
ENDBRANCH   4   5
BRANCH   4   7
HETATM    7  C6  UNL     1     -31.431  24.003  22.328  1.00  0.00     0.190 C 
HETATM    8  C7  UNL     1     -32.860  23.653  22.614  1.00  0.00     0.074 C 
HETATM    9  N2  UNL     1     -33.956  23.380  22.853  1.00  0.00    -0.196 NA
BRANCH   7  10
HETATM   10  C8  UNL     1     -30.818  22.757  21.760  1.00  0.00     0.241 C 
HETATM   11  O1  UNL     1     -29.677  22.857  21.208  1.00  0.00    -0.272 OA
HETATM   12  N3  UNL     1     -31.477  21.522  21.836  1.00  0.00    -0.311 N 
ATOM     13  H3  UNL     1     -32.395  21.464  22.277  1.00  0.00     0.170 HD
BRANCH  12  14
HETATM   14  C9  UNL     1     -30.876  20.355  21.302  1.00  0.00     0.141 C 
HETATM   15  S1  UNL     1     -30.084  19.347  22.275  1.00  0.00    -0.052 SA
BRANCH  14  16
HETATM   16  S2  UNL     1     -31.045  20.081  19.544  1.00  0.00    -0.091 SA
BRANCH  16  17
HETATM   17  C10 UNL     1     -32.762  19.859  19.050  1.00  0.00     0.004 C 
HETATM   18  C11 UNL     1     -33.399  21.232  18.983  1.00  0.00     0.026 C 
HETATM   19  C12 UNL     1     -32.917  19.214  17.712  1.00  0.00     0.026 C 
HETATM   20  C13 UNL     1     -33.530  19.070  20.088  1.00  0.00     0.026 C 
ENDBRANCH  16  17
ENDBRANCH  14  16
ENDBRANCH  12  14
ENDBRANCH   7  10
ENDBRANCH   4   7
ENDBRANCH   1   4
TORSDOF 7
ENDMDL
MODEL 4
REMARK VINA RESULT: -5.709726963      3.771      5.753
REMARK  7 active torsions:
REMARK  status: ('A' for Active; 'I' for Inactive)
REMARK    1  A    between atoms: C2_2  and  C3_3 
REMARK    2  A    between atoms: C3_3  and  C4_4 
REMARK    3  A    between atoms: C3_3  and  C6_7 
REMARK    4  A    between atoms: C6_7  and  C8_10 
REMARK       I    between atoms: C8_10  and  N3_12 
REMARK    5  A    between atoms: N3_12  and  C9_14 
REMARK    6  A    between atoms: C9_14  and  S2_16 
REMARK    7  A    between atoms: S2_16  and  C10_17 
ROOT
HETATM    1  C4  UNL     1     -28.439  26.571  13.616  1.00  0.00     0.130 C 
HETATM    2  C5  UNL     1     -26.989  26.672  13.889  1.00  0.00     0.059 C 
HETATM    3  N1  UNL     1     -25.858  26.743  14.120  1.00  0.00    -0.197 NA
ENDROOT
BRANCH   1   4
HETATM    4  C3  UNL     1     -29.177  26.130  14.832  1.00  0.00     0.025 C 
BRANCH   4   5
HETATM    5  C2  UNL     1     -30.622  25.869  14.391  1.00  0.00     0.003 C 
HETATM    6  C1  UNL     1     -30.747  25.858  12.900  1.00  0.00     0.005 C 
ENDBRANCH   4   5
BRANCH   4   7
HETATM    7  C6  UNL     1     -29.230  27.102  15.973  1.00  0.00     0.190 C 
HETATM    8  C7  UNL     1     -30.268  28.108  15.577  1.00  0.00     0.074 C 
HETATM    9  N2  UNL     1     -31.058  28.897  15.281  1.00  0.00    -0.196 NA
BRANCH   7  10
HETATM   10  C8  UNL     1     -29.787  26.404  17.178  1.00  0.00     0.241 C 
HETATM   11  O1  UNL     1     -29.472  25.183  17.354  1.00  0.00    -0.272 OA
HETATM   12  N3  UNL     1     -30.624  27.070  18.083  1.00  0.00    -0.311 N 
ATOM     13  H3  UNL     1     -30.870  28.046  17.922  1.00  0.00     0.170 HD
BRANCH  12  14
HETATM   14  C9  UNL     1     -31.131  26.394  19.222  1.00  0.00     0.141 C 
HETATM   15  S1  UNL     1     -30.466  26.647  20.664  1.00  0.00    -0.052 SA
BRANCH  14  16
HETATM   16  S2  UNL     1     -32.508  25.282  18.965  1.00  0.00    -0.091 SA
BRANCH  16  17
HETATM   17  C10 UNL     1     -32.369  23.784  19.952  1.00  0.00     0.004 C 
HETATM   18  C11 UNL     1     -33.300  22.751  19.350  1.00  0.00     0.026 C 
HETATM   19  C12 UNL     1     -30.991  23.208  19.967  1.00  0.00     0.026 C 
HETATM   20  C13 UNL     1     -32.836  24.021  21.372  1.00  0.00     0.026 C 
ENDBRANCH  16  17
ENDBRANCH  14  16
ENDBRANCH  12  14
ENDBRANCH   7  10
ENDBRANCH   4   7
ENDBRANCH   1   4
TORSDOF 7
ENDMDL
MODEL 5
REMARK VINA RESULT: -5.676394530      3.081      4.556
REMARK  7 active torsions:
REMARK  status: ('A' for Active; 'I' for Inactive)
REMARK    1  A    between atoms: C2_2  and  C3_3 
REMARK    2  A    between atoms: C3_3  and  C4_4 
REMARK    3  A    between atoms: C3_3  and  C6_7 
REMARK    4  A    between atoms: C6_7  and  C8_10 
REMARK       I    between atoms: C8_10  and  N3_12 
REMARK    5  A    between atoms: N3_12  and  C9_14 
REMARK    6  A    between atoms: C9_14  and  S2_16 
REMARK    7  A    between atoms: S2_16  and  C10_17 
ROOT
HETATM    1  C4  UNL     1     -29.901  25.611  15.264  1.00  0.00     0.130 C 
HETATM    2  C5  UNL     1     -30.562  25.627  13.940  1.00  0.00     0.059 C 
HETATM    3  N1  UNL     1     -31.085  25.657  12.910  1.00  0.00    -0.197 NA
ENDROOT
BRANCH   1   4
HETATM    4  C3  UNL     1     -30.400  26.726  16.117  1.00  0.00     0.025 C 
BRANCH   4   5
HETATM    5  C2  UNL     1     -29.934  28.024  15.449  1.00  0.00     0.003 C 
HETATM    6  C1  UNL     1     -28.556  27.886  14.883  1.00  0.00     0.005 C 
ENDBRANCH   4   5
BRANCH   4   7
HETATM    7  C6  UNL     1     -29.909  26.754  17.535  1.00  0.00     0.190 C 
HETATM    8  C7  UNL     1     -30.211  28.140  18.020  1.00  0.00     0.074 C 
HETATM    9  N2  UNL     1     -30.427  29.207  18.405  1.00  0.00    -0.196 NA
BRANCH   7  10
HETATM   10  C8  UNL     1     -30.767  25.843  18.362  1.00  0.00     0.241 C 
HETATM   11  O1  UNL     1     -31.892  25.493  17.882  1.00  0.00    -0.272 OA
HETATM   12  N3  UNL     1     -30.346  25.390  19.620  1.00  0.00    -0.311 N 
ATOM     13  H3  UNL     1     -29.443  25.688  19.989  1.00  0.00     0.170 HD
BRANCH  12  14
HETATM   14  C9  UNL     1     -31.168  24.521  20.380  1.00  0.00     0.141 C 
HETATM   15  S1  UNL     1     -32.195  25.131  21.458  1.00  0.00    -0.052 SA
BRANCH  14  16
HETATM   16  S2  UNL     1     -30.999  22.767  20.079  1.00  0.00    -0.091 SA
BRANCH  16  17
HETATM   17  C10 UNL     1     -32.594  21.945  19.921  1.00  0.00     0.004 C 
HETATM   18  C11 UNL     1     -32.377  20.678  19.119  1.00  0.00     0.026 C 
HETATM   19  C12 UNL     1     -33.197  21.563  21.233  1.00  0.00     0.026 C 
HETATM   20  C13 UNL     1     -33.570  22.797  19.140  1.00  0.00     0.026 C 
ENDBRANCH  16  17
ENDBRANCH  14  16
ENDBRANCH  12  14
ENDBRANCH   7  10
ENDBRANCH   4   7
ENDBRANCH   1   4
TORSDOF 7
ENDMDL
