MODEL 1
REMARK VINA RESULT: -6.605396168      0.000      0.000
REMARK  7 active torsions:
REMARK  status: ('A' for Active; 'I' for Inactive)
REMARK    1  A    between atoms: C2_2  and  C9_11 
REMARK    2  A    between atoms: N1_3  and  C3_5 
REMARK    3  A    between atoms: C3_5  and  C4_6 
REMARK    4  A    between atoms: C9_11  and  C11_14 
REMARK    5  A    between atoms: C11_14  and  S1_20 
REMARK    6  A    between atoms: N3_15  and  N4_17 
REMARK    7  A    between atoms: S1_20  and  C12_21 
ROOT
HETATM    1  C9  UNL     1     -32.083  22.631  21.318  1.00  0.00     0.195 C 
HETATM    2  C10 UNL     1     -33.227  22.933  22.218  1.00  0.00     0.076 C 
HETATM    3  N2  UNL     1     -34.119  23.185  22.910  1.00  0.00    -0.196 NA
ENDROOT
BRANCH   1   4
HETATM    4  C2  UNL     1     -32.507  22.616  19.909  1.00  0.00     0.002 C 
HETATM    5  C1  UNL     1     -33.309  23.731  19.321  1.00  0.00     0.064 C 
HETATM    6  N1  UNL     1     -32.200  21.652  19.161  1.00  0.00    -0.395 N 
ATOM      7  H1  UNL     1     -32.525  21.704  18.196  1.00  0.00     0.159 HD
BRANCH   6   8
HETATM    8  C3  UNL     1     -31.453  20.506  19.514  1.00  0.00     0.123 C 
BRANCH   8   9
HETATM    9  C4  UNL     1     -32.351  19.292  19.308  1.00  0.00     0.003 C 
HETATM   10  C5  UNL     1     -33.461  19.568  18.313  1.00  0.00     0.006 C 
HETATM   11  C6  UNL     1     -34.347  18.341  18.560  1.00  0.00     0.000 C 
HETATM   12  C7  UNL     1     -34.296  18.195  20.070  1.00  0.00     0.000 C 
HETATM   13  C8  UNL     1     -33.179  19.048  20.577  1.00  0.00     0.006 C 
ENDBRANCH   8   9
ENDBRANCH   6   8
ENDBRANCH   1   4
BRANCH   1  14
HETATM   14  C11 UNL     1     -31.036  23.621  21.610  1.00  0.00     0.085 C 
HETATM   15  N3  UNL     1     -29.801  23.262  21.671  1.00  0.00    -0.303 N 
ATOM     16  H3  UNL     1     -29.112  23.986  21.875  1.00  0.00     0.186 HD
BRANCH  15  17
HETATM   17  N4  UNL     1     -29.334  21.979  21.482  1.00  0.00    -0.344 N 
ATOM     18  H42 UNL     1     -28.916  21.527  22.295  1.00  0.00     0.176 HD
ATOM     19  H41 UNL     1     -29.375  21.459  20.605  1.00  0.00     0.176 HD
ENDBRANCH  15  17
BRANCH  14  20
HETATM   20  S1  UNL     1     -31.411  25.338  21.887  1.00  0.00    -0.105 SA
BRANCH  20  21
HETATM   21  C12 UNL     1     -30.922  26.374  20.500  1.00  0.00     0.003 C 
HETATM   22  C13 UNL     1     -30.330  25.571  19.364  1.00  0.00     0.026 C 
HETATM   23  C14 UNL     1     -29.901  27.404  20.999  1.00  0.00     0.026 C 
HETATM   24  C15 UNL     1     -32.125  27.130  20.011  1.00  0.00     0.026 C 
ENDBRANCH  20  21
ENDBRANCH  14  20
ENDBRANCH   1  14
TORSDOF 7
ENDMDL
MODEL 2
REMARK VINA RESULT: -6.557597217      2.606      3.463
REMARK  7 active torsions:
REMARK  status: ('A' for Active; 'I' for Inactive)
REMARK    1  A    between atoms: C2_2  and  C9_11 
REMARK    2  A    between atoms: N1_3  and  C3_5 
REMARK    3  A    between atoms: C3_5  and  C4_6 
REMARK    4  A    between atoms: C9_11  and  C11_14 
REMARK    5  A    between atoms: C11_14  and  S1_20 
REMARK    6  A    between atoms: N3_15  and  N4_17 
REMARK    7  A    between atoms: S1_20  and  C12_21 
ROOT
HETATM    1  C9  UNL     1     -31.423  20.599  20.459  1.00  0.00     0.195 C 
HETATM    2  C10 UNL     1     -32.405  20.716  21.569  1.00  0.00     0.076 C 
HETATM    3  N2  UNL     1     -33.174  20.823  22.427  1.00  0.00    -0.196 NA
ENDROOT
BRANCH   1   4
HETATM    4  C2  UNL     1     -32.102  20.561  19.153  1.00  0.00     0.002 C 
HETATM    5  C1  UNL     1     -33.391  21.280  18.921  1.00  0.00     0.064 C 
HETATM    6  N1  UNL     1     -31.605  19.916  18.195  1.00  0.00    -0.395 N 
ATOM      7  H1  UNL     1     -32.126  19.931  17.318  1.00  0.00     0.159 HD
BRANCH   6   8
HETATM    8  C3  UNL     1     -30.404  19.173  18.202  1.00  0.00     0.123 C 
BRANCH   8   9
HETATM    9  C4  UNL     1     -30.220  18.585  16.807  1.00  0.00     0.003 C 
HETATM   10  C5  UNL     1     -29.211  19.367  15.990  1.00  0.00     0.006 C 
HETATM   11  C6  UNL     1     -29.480  18.772  14.601  1.00  0.00     0.000 C 
HETATM   12  C7  UNL     1     -30.994  18.658  14.579  1.00  0.00     0.000 C 
HETATM   13  C8  UNL     1     -31.488  18.831  15.978  1.00  0.00     0.006 C 
ENDBRANCH   8   9
ENDBRANCH   6   8
ENDBRANCH   1   4
BRANCH   1  14
HETATM   14  C11 UNL     1     -30.479  21.717  20.603  1.00  0.00     0.085 C 
HETATM   15  N3  UNL     1     -29.339  21.535  21.172  1.00  0.00    -0.303 N 
ATOM     16  H3  UNL     1     -28.718  22.342  21.246  1.00  0.00     0.186 HD
BRANCH  15  17
HETATM   17  N4  UNL     1     -28.887  20.339  21.689  1.00  0.00    -0.344 N 
ATOM     18  H42 UNL     1     -29.604  19.691  22.015  1.00  0.00     0.176 HD
ATOM     19  H41 UNL     1     -27.909  20.063  21.766  1.00  0.00     0.176 HD
ENDBRANCH  15  17
BRANCH  14  20
HETATM   20  S1  UNL     1     -30.852  23.351  20.005  1.00  0.00    -0.105 SA
BRANCH  20  21
HETATM   21  C12 UNL     1     -31.605  24.384  21.271  1.00  0.00     0.003 C 
HETATM   22  C13 UNL     1     -31.188  23.977  22.667  1.00  0.00     0.026 C 
HETATM   23  C14 UNL     1     -33.129  24.288  21.133  1.00  0.00     0.026 C 
HETATM   24  C15 UNL     1     -31.217  25.814  21.024  1.00  0.00     0.026 C 
ENDBRANCH  20  21
ENDBRANCH  14  20
ENDBRANCH   1  14
TORSDOF 7
ENDMDL
MODEL 3
REMARK VINA RESULT: -6.554631959      2.552      3.236
REMARK  7 active torsions:
REMARK  status: ('A' for Active; 'I' for Inactive)
REMARK    1  A    between atoms: C2_2  and  C9_11 
REMARK    2  A    between atoms: N1_3  and  C3_5 
REMARK    3  A    between atoms: C3_5  and  C4_6 
REMARK    4  A    between atoms: C9_11  and  C11_14 
REMARK    5  A    between atoms: C11_14  and  S1_20 
REMARK    6  A    between atoms: N3_15  and  N4_17 
REMARK    7  A    between atoms: S1_20  and  C12_21 
ROOT
HETATM    1  C9  UNL     1     -31.880  20.366  20.678  1.00  0.00     0.195 C 
HETATM    2  C10 UNL     1     -33.064  19.949  21.475  1.00  0.00     0.076 C 
HETATM    3  N2  UNL     1     -33.992  19.641  22.093  1.00  0.00    -0.196 NA
ENDROOT
BRANCH   1   4
HETATM    4  C2  UNL     1     -32.253  20.645  19.282  1.00  0.00     0.002 C 
HETATM    5  C1  UNL     1     -33.395  21.545  18.943  1.00  0.00     0.064 C 
HETATM    6  N1  UNL     1     -31.610  20.125  18.335  1.00  0.00    -0.395 N 
ATOM      7  H1  UNL     1     -31.920  20.359  17.392  1.00  0.00     0.159 HD
BRANCH   6   8
HETATM    8  C3  UNL     1     -30.504  19.251  18.435  1.00  0.00     0.123 C 
BRANCH   8   9
HETATM    9  C4  UNL     1     -30.297  18.614  17.066  1.00  0.00     0.003 C 
HETATM   10  C5  UNL     1     -29.260  19.354  16.246  1.00  0.00     0.006 C 
HETATM   11  C6  UNL     1     -29.506  18.716  14.873  1.00  0.00     0.000 C 
HETATM   12  C7  UNL     1     -31.021  18.620  14.820  1.00  0.00     0.000 C 
HETATM   13  C8  UNL     1     -31.544  18.847  16.200  1.00  0.00     0.006 C 
ENDBRANCH   8   9
ENDBRANCH   6   8
ENDBRANCH   1   4
BRANCH   1  14
HETATM   14  C11 UNL     1     -31.281  21.516  21.372  1.00  0.00     0.085 C 
HETATM   15  N3  UNL     1     -30.025  21.521  21.656  1.00  0.00    -0.303 N 
ATOM     16  H3  UNL     1     -29.656  22.342  22.136  1.00  0.00     0.186 HD
BRANCH  15  17
HETATM   17  N4  UNL     1     -29.138  20.507  21.364  1.00  0.00    -0.344 N 
ATOM     18  H42 UNL     1     -29.263  20.044  20.464  1.00  0.00     0.176 HD
ATOM     19  H41 UNL     1     -28.381  20.193  21.971  1.00  0.00     0.176 HD
ENDBRANCH  15  17
BRANCH  14  20
HETATM   20  S1  UNL     1     -32.240  22.938  21.844  1.00  0.00    -0.105 SA
BRANCH  20  21
HETATM   21  C12 UNL     1     -31.815  24.397  20.880  1.00  0.00     0.003 C 
HETATM   22  C13 UNL     1     -30.828  24.088  19.777  1.00  0.00     0.026 C 
HETATM   23  C14 UNL     1     -31.226  25.449  21.827  1.00  0.00     0.026 C 
HETATM   24  C15 UNL     1     -33.071  24.971  20.290  1.00  0.00     0.026 C 
ENDBRANCH  20  21
ENDBRANCH  14  20
ENDBRANCH   1  14
TORSDOF 7
ENDMDL
MODEL 4
REMARK VINA RESULT: -6.393801580      3.186      6.516
REMARK  7 active torsions:
REMARK  status: ('A' for Active; 'I' for Inactive)
REMARK    1  A    between atoms: C2_2  and  C9_11 
REMARK    2  A    between atoms: N1_3  and  C3_5 
REMARK    3  A    between atoms: C3_5  and  C4_6 
REMARK    4  A    between atoms: C9_11  and  C11_14 
REMARK    5  A    between atoms: C11_14  and  S1_20 
REMARK    6  A    between atoms: N3_15  and  N4_17 
REMARK    7  A    between atoms: S1_20  and  C12_21 
ROOT
HETATM    1  C9  UNL     1     -31.855  25.800  19.739  1.00  0.00     0.195 C 
HETATM    2  C10 UNL     1     -32.191  26.004  21.173  1.00  0.00     0.076 C 
HETATM    3  N2  UNL     1     -32.439  26.152  22.293  1.00  0.00    -0.196 NA
ENDROOT
BRANCH   1   4
HETATM    4  C2  UNL     1     -30.513  26.319  19.431  1.00  0.00     0.002 C 
HETATM    5  C1  UNL     1     -29.590  26.790  20.506  1.00  0.00     0.064 C 
HETATM    6  N1  UNL     1     -30.110  26.377  18.241  1.00  0.00    -0.395 N 
ATOM      7  H1  UNL     1     -29.170  26.747  18.096  1.00  0.00     0.159 HD
BRANCH   6   8
HETATM    8  C3  UNL     1     -30.819  25.986  17.083  1.00  0.00     0.123 C 
BRANCH   8   9
HETATM    9  C4  UNL     1     -29.882  26.158  15.892  1.00  0.00     0.003 C 
HETATM   10  C5  UNL     1     -29.482  27.605  15.687  1.00  0.00     0.006 C 
HETATM   11  C6  UNL     1     -28.849  27.508  14.293  1.00  0.00     0.000 C 
HETATM   12  C7  UNL     1     -29.790  26.561  13.569  1.00  0.00     0.000 C 
HETATM   13  C8  UNL     1     -30.658  25.904  14.592  1.00  0.00     0.006 C 
ENDBRANCH   8   9
ENDBRANCH   6   8
ENDBRANCH   1   4
BRANCH   1  14
HETATM   14  C11 UNL     1     -32.013  24.365  19.463  1.00  0.00     0.085 C 
HETATM   15  N3  UNL     1     -33.050  23.935  18.833  1.00  0.00    -0.303 N 
ATOM     16  H3  UNL     1     -33.113  22.930  18.664  1.00  0.00     0.186 HD
BRANCH  15  17
HETATM   17  N4  UNL     1     -34.083  24.720  18.368  1.00  0.00    -0.344 N 
ATOM     18  H42 UNL     1     -34.664  25.166  19.077  1.00  0.00     0.176 HD
ATOM     19  H41 UNL     1     -34.303  24.884  17.386  1.00  0.00     0.176 HD
ENDBRANCH  15  17
BRANCH  14  20
HETATM   20  S1  UNL     1     -30.799  23.167  19.971  1.00  0.00    -0.105 SA
BRANCH  20  21
HETATM   21  C12 UNL     1     -31.549  21.714  20.722  1.00  0.00     0.003 C 
HETATM   22  C13 UNL     1     -32.319  20.883  19.720  1.00  0.00     0.026 C 
HETATM   23  C14 UNL     1     -32.484  22.177  21.846  1.00  0.00     0.026 C 
HETATM   24  C15 UNL     1     -30.467  20.879  21.347  1.00  0.00     0.026 C 
ENDBRANCH  20  21
ENDBRANCH  14  20
ENDBRANCH   1  14
TORSDOF 7
ENDMDL
MODEL 5
REMARK VINA RESULT: -6.321400813      0.993      1.399
REMARK  7 active torsions:
REMARK  status: ('A' for Active; 'I' for Inactive)
REMARK    1  A    between atoms: C2_2  and  C9_11 
REMARK    2  A    between atoms: N1_3  and  C3_5 
REMARK    3  A    between atoms: C3_5  and  C4_6 
REMARK    4  A    between atoms: C9_11  and  C11_14 
REMARK    5  A    between atoms: C11_14  and  S1_20 
REMARK    6  A    between atoms: N3_15  and  N4_17 
REMARK    7  A    between atoms: S1_20  and  C12_21 
ROOT
HETATM    1  C9  UNL     1     -32.187  22.687  21.256  1.00  0.00     0.195 C 
HETATM    2  C10 UNL     1     -33.318  22.941  22.187  1.00  0.00     0.076 C 
HETATM    3  N2  UNL     1     -34.199  23.156  22.905  1.00  0.00    -0.196 NA
ENDROOT
BRANCH   1   4
HETATM    4  C2  UNL     1     -32.623  22.784  19.854  1.00  0.00     0.002 C 
HETATM    5  C1  UNL     1     -33.295  24.010  19.326  1.00  0.00     0.064 C 
HETATM    6  N1  UNL     1     -32.438  21.826  19.060  1.00  0.00    -0.395 N 
ATOM      7  H1  UNL     1     -32.764  21.958  18.103  1.00  0.00     0.159 HD
BRANCH   6   8
HETATM    8  C3  UNL     1     -31.827  20.586  19.352  1.00  0.00     0.123 C 
BRANCH   8   9
HETATM    9  C4  UNL     1     -32.359  19.566  18.352  1.00  0.00     0.003 C 
HETATM   10  C5  UNL     1     -32.683  18.241  19.010  1.00  0.00     0.006 C 
HETATM   11  C6  UNL     1     -32.863  17.364  17.764  1.00  0.00     0.000 C 
HETATM   12  C7  UNL     1     -31.743  17.846  16.858  1.00  0.00     0.000 C 
HETATM   13  C8  UNL     1     -31.224  19.132  17.414  1.00  0.00     0.006 C 
ENDBRANCH   8   9
ENDBRANCH   6   8
ENDBRANCH   1   4
BRANCH   1  14
HETATM   14  C11 UNL     1     -31.119  23.634  21.610  1.00  0.00     0.085 C 
HETATM   15  N3  UNL     1     -29.892  23.246  21.646  1.00  0.00    -0.303 N 
ATOM     16  H3  UNL     1     -29.188  23.941  21.896  1.00  0.00     0.186 HD
BRANCH  15  17
HETATM   17  N4  UNL     1     -29.452  21.968  21.375  1.00  0.00    -0.344 N 
ATOM     18  H42 UNL     1     -30.167  21.294  21.100  1.00  0.00     0.176 HD
ATOM     19  H41 UNL     1     -28.483  21.654  21.428  1.00  0.00     0.176 HD
ENDBRANCH  15  17
BRANCH  14  20
HETATM   20  S1  UNL     1     -31.458  25.337  21.997  1.00  0.00    -0.105 SA
BRANCH  20  21
HETATM   21  C12 UNL     1     -30.945  26.450  20.681  1.00  0.00     0.003 C 
HETATM   22  C13 UNL     1     -30.236  25.724  19.560  1.00  0.00     0.026 C 
HETATM   23  C14 UNL     1     -30.020  27.517  21.279  1.00  0.00     0.026 C 
HETATM   24  C15 UNL     1     -32.158  27.154  20.141  1.00  0.00     0.026 C 
ENDBRANCH  20  21
ENDBRANCH  14  20
ENDBRANCH   1  14
TORSDOF 7
ENDMDL
