MODEL 1
REMARK VINA RESULT: -8.456043419      0.000      0.000
REMARK  4 active torsions:
REMARK  status: ('A' for Active; 'I' for Inactive)
REMARK    1  A    between atoms: C7_7  and  N1_8 
REMARK       I    between atoms: N1_8  and  C8_10 
REMARK    2  A    between atoms: C8_10  and  C9_12 
REMARK    3  A    between atoms: C10_13  and  C11_14 
REMARK    4  A    between atoms: C14_17  and  N2_18 
ROOT
HETATM    1  N1  UNL     1     -31.112  25.905  17.033  1.00  0.00    -0.353 N 
ATOM      2  H1  UNL     1     -32.082  25.926  16.717  1.00  0.00     0.163 HD
HETATM    3  C8  UNL     1     -30.067  25.918  16.051  1.00  0.00     0.241 C 
HETATM    4  O1  UNL     1     -28.923  25.892  16.484  1.00  0.00    -0.269 OA
ENDROOT
BRANCH   3   5
HETATM    5  C9  UNL     1     -30.417  25.958  14.665  1.00  0.00     0.075 C 
HETATM    6  C10 UNL     1     -29.842  26.371  13.602  1.00  0.00     0.024 C 
BRANCH   6   7
HETATM    7  C11 UNL     1     -28.538  26.990  13.419  1.00  0.00     0.007 A 
HETATM    8  C12 UNL     1     -28.018  28.053  14.154  1.00  0.00     0.022 A 
HETATM    9  C13 UNL     1     -26.802  28.482  13.839  1.00  0.00     0.045 A 
HETATM   10  C14 UNL     1     -26.135  27.863  12.822  1.00  0.00     0.144 A 
HETATM   11  S1  UNL     1     -27.247  26.682  12.334  1.00  0.00    -0.067 SA
BRANCH  10  12
HETATM   12  N2  UNL     1     -24.831  28.149  12.313  1.00  0.00    -0.108 N 
HETATM   13  O2  UNL     1     -23.895  27.365  12.500  1.00  0.00    -0.531 OA
HETATM   14  O3  UNL     1     -24.610  29.299  11.611  1.00  0.00    -0.531 OA
ENDBRANCH  10  12
ENDBRANCH   6   7
ENDBRANCH   3   5
BRANCH   1  15
HETATM   15  C7  UNL     1     -30.845  25.865  18.455  1.00  0.00     0.088 C 
HETATM   16  C2  UNL     1     -31.761  24.965  19.213  1.00  0.00     0.004 C 
HETATM   17  C1  UNL     1     -33.136  25.515  19.428  1.00  0.00     0.012 C 
HETATM   18  C3  UNL     1     -31.130  24.791  20.601  1.00  0.00     0.006 C 
HETATM   19  C4  UNL     1     -31.066  26.118  21.288  1.00  0.00     0.001 C 
HETATM   20  C5  UNL     1     -30.403  27.193  20.479  1.00  0.00     0.002 C 
HETATM   21  C6  UNL     1     -30.836  27.256  19.058  1.00  0.00     0.025 C 
ENDBRANCH   1  15
TORSDOF 4
ENDMDL
MODEL 2
REMARK VINA RESULT: -8.081477552      3.166      7.900
REMARK  4 active torsions:
REMARK  status: ('A' for Active; 'I' for Inactive)
REMARK    1  A    between atoms: C7_7  and  N1_8 
REMARK       I    between atoms: N1_8  and  C8_10 
REMARK    2  A    between atoms: C8_10  and  C9_12 
REMARK    3  A    between atoms: C10_13  and  C11_14 
REMARK    4  A    between atoms: C14_17  and  N2_18 
ROOT
HETATM    1  N1  UNL     1     -27.769  26.310  14.170  1.00  0.00    -0.353 N 
ATOM      2  H1  UNL     1     -27.657  25.296  14.208  1.00  0.00     0.163 HD
HETATM    3  C8  UNL     1     -29.047  26.874  14.493  1.00  0.00     0.241 C 
HETATM    4  O1  UNL     1     -29.127  28.093  14.432  1.00  0.00    -0.269 OA
ENDROOT
BRANCH   3   5
HETATM    5  C9  UNL     1     -30.120  26.001  14.857  1.00  0.00     0.075 C 
HETATM    6  C10 UNL     1     -30.785  25.787  15.925  1.00  0.00     0.024 C 
BRANCH   6   7
HETATM    7  C11 UNL     1     -30.674  26.401  17.240  1.00  0.00     0.007 A 
HETATM    8  C12 UNL     1     -30.256  27.701  17.510  1.00  0.00     0.022 A 
HETATM    9  C13 UNL     1     -30.220  28.084  18.781  1.00  0.00     0.045 A 
HETATM   10  C14 UNL     1     -30.591  27.190  19.743  1.00  0.00     0.144 A 
HETATM   11  S1  UNL     1     -30.985  25.823  18.823  1.00  0.00    -0.067 SA
BRANCH  10  12
HETATM   12  N2  UNL     1     -30.632  27.376  21.158  1.00  0.00    -0.108 N 
HETATM   13  O2  UNL     1     -30.234  28.429  21.669  1.00  0.00    -0.531 OA
HETATM   14  O3  UNL     1     -31.115  26.385  21.962  1.00  0.00    -0.531 OA
ENDBRANCH  10  12
ENDBRANCH   6   7
ENDBRANCH   3   5
BRANCH   1  15
HETATM   15  C7  UNL     1     -26.632  27.121  13.792  1.00  0.00     0.088 C 
HETATM   16  C2  UNL     1     -26.856  27.937  12.565  1.00  0.00     0.004 C 
HETATM   17  C1  UNL     1     -26.804  27.164  11.285  1.00  0.00     0.012 C 
HETATM   18  C3  UNL     1     -25.709  28.954  12.517  1.00  0.00     0.006 C 
HETATM   19  C4  UNL     1     -24.407  28.229  12.393  1.00  0.00     0.001 C 
HETATM   20  C5  UNL     1     -24.197  27.166  13.430  1.00  0.00     0.002 C 
HETATM   21  C6  UNL     1     -25.373  26.285  13.660  1.00  0.00     0.025 C 
ENDBRANCH   1  15
TORSDOF 4
ENDMDL
MODEL 3
REMARK VINA RESULT: -7.887021089      1.758      2.267
REMARK  4 active torsions:
REMARK  status: ('A' for Active; 'I' for Inactive)
REMARK    1  A    between atoms: C7_7  and  N1_8 
REMARK       I    between atoms: N1_8  and  C8_10 
REMARK    2  A    between atoms: C8_10  and  C9_12 
REMARK    3  A    between atoms: C10_13  and  C11_14 
REMARK    4  A    between atoms: C14_17  and  N2_18 
ROOT
HETATM    1  N1  UNL     1     -29.575  26.357  15.788  1.00  0.00    -0.353 N 
ATOM      2  H1  UNL     1     -30.144  25.568  15.479  1.00  0.00     0.163 HD
HETATM    3  C8  UNL     1     -28.708  26.993  14.840  1.00  0.00     0.241 C 
HETATM    4  O1  UNL     1     -28.049  27.934  15.261  1.00  0.00    -0.269 OA
ENDROOT
BRANCH   3   5
HETATM    5  C9  UNL     1     -28.668  26.503  13.496  1.00  0.00     0.075 C 
HETATM    6  C10 UNL     1     -27.817  26.549  12.545  1.00  0.00     0.024 C 
BRANCH   6   7
HETATM    7  C11 UNL     1     -26.497  27.161  12.494  1.00  0.00     0.007 A 
HETATM    8  C12 UNL     1     -25.373  26.759  13.212  1.00  0.00     0.022 A 
HETATM    9  C13 UNL     1     -24.251  27.444  13.032  1.00  0.00     0.045 A 
HETATM   10  C14 UNL     1     -24.260  28.495  12.161  1.00  0.00     0.144 A 
HETATM   11  S1  UNL     1     -25.864  28.488  11.614  1.00  0.00    -0.067 SA
BRANCH  10  12
HETATM   12  N2  UNL     1     -23.185  29.366  11.810  1.00  0.00    -0.108 N 
HETATM   13  O2  UNL     1     -22.021  29.089  12.120  1.00  0.00    -0.531 OA
HETATM   14  O3  UNL     1     -23.437  30.519  11.125  1.00  0.00    -0.531 OA
ENDBRANCH  10  12
ENDBRANCH   6   7
ENDBRANCH   3   5
BRANCH   1  15
HETATM   15  C7  UNL     1     -29.676  26.789  17.165  1.00  0.00     0.088 C 
HETATM   16  C2  UNL     1     -30.198  25.740  18.087  1.00  0.00     0.004 C 
HETATM   17  C1  UNL     1     -31.673  25.507  17.992  1.00  0.00     0.012 C 
HETATM   18  C3  UNL     1     -29.919  26.250  19.508  1.00  0.00     0.006 C 
HETATM   19  C4  UNL     1     -30.671  27.523  19.736  1.00  0.00     0.001 C 
HETATM   20  C5  UNL     1     -30.434  28.568  18.687  1.00  0.00     0.002 C 
HETATM   21  C6  UNL     1     -30.484  28.066  17.289  1.00  0.00     0.025 C 
ENDBRANCH   1  15
TORSDOF 4
ENDMDL
MODEL 4
REMARK VINA RESULT: -7.746881113      3.042      4.377
REMARK  4 active torsions:
REMARK  status: ('A' for Active; 'I' for Inactive)
REMARK    1  A    between atoms: C7_7  and  N1_8 
REMARK       I    between atoms: N1_8  and  C8_10 
REMARK    2  A    between atoms: C8_10  and  C9_12 
REMARK    3  A    between atoms: C10_13  and  C11_14 
REMARK    4  A    between atoms: C14_17  and  N2_18 
ROOT
HETATM    1  N1  UNL     1     -31.836  25.900  20.172  1.00  0.00    -0.353 N 
ATOM      2  H1  UNL     1     -32.640  26.422  19.823  1.00  0.00     0.163 HD
HETATM    3  C8  UNL     1     -30.535  26.497  20.080  1.00  0.00     0.241 C 
HETATM    4  O1  UNL     1     -29.606  25.830  20.512  1.00  0.00    -0.269 OA
ENDROOT
BRANCH   3   5
HETATM    5  C9  UNL     1     -30.408  27.801  19.504  1.00  0.00     0.075 C 
HETATM    6  C10 UNL     1     -30.231  28.251  18.323  1.00  0.00     0.024 C 
BRANCH   6   7
HETATM    7  C11 UNL     1     -30.086  27.542  17.060  1.00  0.00     0.007 A 
HETATM    8  C12 UNL     1     -29.744  26.202  16.900  1.00  0.00     0.022 A 
HETATM    9  C13 UNL     1     -29.660  25.732  15.662  1.00  0.00     0.045 A 
HETATM   10  C14 UNL     1     -29.914  26.580  14.623  1.00  0.00     0.144 A 
HETATM   11  S1  UNL     1     -30.266  28.030  15.426  1.00  0.00    -0.067 SA
BRANCH  10  12
HETATM   12  N2  UNL     1     -29.886  26.301  13.223  1.00  0.00    -0.108 N 
HETATM   13  O2  UNL     1     -30.884  25.851  12.649  1.00  0.00    -0.531 OA
HETATM   14  O3  UNL     1     -28.750  26.532  12.503  1.00  0.00    -0.531 OA
ENDBRANCH  10  12
ENDBRANCH   6   7
ENDBRANCH   3   5
BRANCH   1  15
HETATM   15  C7  UNL     1     -32.052  24.586  20.739  1.00  0.00     0.088 C 
HETATM   16  C2  UNL     1     -32.207  23.509  19.720  1.00  0.00     0.004 C 
HETATM   17  C1  UNL     1     -33.533  23.493  19.028  1.00  0.00     0.012 C 
HETATM   18  C3  UNL     1     -32.087  22.184  20.484  1.00  0.00     0.006 C 
HETATM   19  C4  UNL     1     -33.200  22.081  21.478  1.00  0.00     0.001 C 
HETATM   20  C5  UNL     1     -33.317  23.268  22.389  1.00  0.00     0.002 C 
HETATM   21  C6  UNL     1     -33.221  24.585  21.705  1.00  0.00     0.025 C 
ENDBRANCH   1  15
TORSDOF 4
ENDMDL
MODEL 5
REMARK VINA RESULT: -7.703917017      3.605      8.399
REMARK  4 active torsions:
REMARK  status: ('A' for Active; 'I' for Inactive)
REMARK    1  A    between atoms: C7_7  and  N1_8 
REMARK       I    between atoms: N1_8  and  C8_10 
REMARK    2  A    between atoms: C8_10  and  C9_12 
REMARK    3  A    between atoms: C10_13  and  C11_14 
REMARK    4  A    between atoms: C14_17  and  N2_18 
ROOT
HETATM    1  N1  UNL     1     -29.085  27.442  15.874  1.00  0.00    -0.353 N 
ATOM      2  H1  UNL     1     -29.161  28.455  15.974  1.00  0.00     0.163 HD
HETATM    3  C8  UNL     1     -29.577  26.607  16.931  1.00  0.00     0.241 C 
HETATM    4  O1  UNL     1     -29.462  25.401  16.761  1.00  0.00    -0.269 OA
ENDROOT
BRANCH   3   5
HETATM    5  C9  UNL     1     -30.157  27.219  18.087  1.00  0.00     0.075 C 
HETATM    6  C10 UNL     1     -30.954  26.833  19.007  1.00  0.00     0.024 C 
BRANCH   6   7
HETATM    7  C11 UNL     1     -31.598  25.544  19.212  1.00  0.00     0.007 A 
HETATM    8  C12 UNL     1     -32.915  25.220  18.897  1.00  0.00     0.022 A 
HETATM    9  C13 UNL     1     -33.325  23.985  19.159  1.00  0.00     0.045 A 
HETATM   10  C14 UNL     1     -32.439  23.108  19.716  1.00  0.00     0.144 A 
HETATM   11  S1  UNL     1     -31.042  24.056  19.857  1.00  0.00    -0.067 SA
BRANCH  10  12
HETATM   12  N2  UNL     1     -32.652  21.744  20.080  1.00  0.00    -0.108 N 
HETATM   13  O2  UNL     1     -33.375  21.452  21.039  1.00  0.00    -0.531 OA
HETATM   14  O3  UNL     1     -32.054  20.746  19.366  1.00  0.00    -0.531 OA
ENDBRANCH  10  12
ENDBRANCH   6   7
ENDBRANCH   3   5
BRANCH   1  15
HETATM   15  C7  UNL     1     -28.485  26.906  14.671  1.00  0.00     0.088 C 
HETATM   16  C2  UNL     1     -27.067  27.321  14.470  1.00  0.00     0.004 C 
HETATM   17  C1  UNL     1     -26.892  28.729  13.999  1.00  0.00     0.012 C 
HETATM   18  C3  UNL     1     -26.513  26.410  13.367  1.00  0.00     0.006 C 
HETATM   19  C4  UNL     1     -27.275  26.641  12.102  1.00  0.00     0.001 C 
HETATM   20  C5  UNL     1     -28.763  26.527  12.255  1.00  0.00     0.002 C 
HETATM   21  C6  UNL     1     -29.318  27.225  13.445  1.00  0.00     0.025 C 
ENDBRANCH   1  15
TORSDOF 4
ENDMDL
