MODEL 1
REMARK VINA RESULT: -7.152925987      0.000      0.000
REMARK  5 active torsions:
REMARK  status: ('A' for Active; 'I' for Inactive)
REMARK    1  A    between atoms: O1_2  and  C2_3 
REMARK    2  A    between atoms: C4_5  and  S1_6 
REMARK    3  A    between atoms: C6_9  and  C7_10 
REMARK       I    between atoms: C7_10  and  N1_12 
REMARK    4  A    between atoms: N1_12  and  C8_14 
REMARK    5  A    between atoms: C8_14  and  C9_15 
ROOT
HETATM    1  C7  UNL     1     -30.412  25.530  18.617  1.00  0.00     0.261 C 
HETATM    2  O2  UNL     1     -29.462  26.183  19.153  1.00  0.00    -0.267 OA
HETATM    3  N1  UNL     1     -30.473  25.463  17.222  1.00  0.00    -0.356 N 
ATOM      4  H1  UNL     1     -31.225  24.937  16.774  1.00  0.00     0.162 HD
ENDROOT
BRANCH   1   5
HETATM    5  C6  UNL     1     -31.371  24.895  19.505  1.00  0.00     0.107 A 
HETATM    6  C2  UNL     1     -32.444  25.370  20.208  1.00  0.00     0.092 A 
HETATM    7  C3  UNL     1     -33.137  24.494  20.953  1.00  0.00     0.064 A 
HETATM    8  C4  UNL     1     -32.718  23.186  20.954  1.00  0.00     0.044 A 
HETATM    9  S2  UNL     1     -31.371  23.222  19.917  1.00  0.00    -0.075 SA
BRANCH   6  10
HETATM   10  O1  UNL     1     -32.778  26.752  20.123  1.00  0.00    -0.354 OA
HETATM   11  C1  UNL     1     -32.082  27.719  20.864  1.00  0.00     0.210 C 
ENDBRANCH   6  10
BRANCH   8  12
HETATM   12  S1  UNL     1     -33.456  21.807  21.858  1.00  0.00    -0.127 SA
HETATM   13  C5  UNL     1     -33.047  20.270  20.993  1.00  0.00     0.096 C 
ENDBRANCH   8  12
ENDBRANCH   1   5
BRANCH   3  14
HETATM   14  C8  UNL     1     -29.488  26.126  16.410  1.00  0.00     0.127 C 
BRANCH  14  15
HETATM   15  C9  UNL     1     -30.084  26.852  15.230  1.00  0.00     0.003 C 
HETATM   16  C10 UNL     1     -28.934  27.666  14.614  1.00  0.00     0.006 C 
HETATM   17  C11 UNL     1     -28.195  26.753  13.683  1.00  0.00     0.000 C 
HETATM   18  C12 UNL     1     -29.021  26.615  12.413  1.00  0.00     0.000 C 
HETATM   19  C13 UNL     1     -30.436  26.250  12.825  1.00  0.00     0.000 C 
HETATM   20  C14 UNL     1     -30.508  25.768  14.241  1.00  0.00     0.006 C 
ENDBRANCH  14  15
ENDBRANCH   3  14
TORSDOF 5
ENDMDL
MODEL 2
REMARK VINA RESULT: -6.895853834      1.396      1.954
REMARK  5 active torsions:
REMARK  status: ('A' for Active; 'I' for Inactive)
REMARK    1  A    between atoms: O1_2  and  C2_3 
REMARK    2  A    between atoms: C4_5  and  S1_6 
REMARK    3  A    between atoms: C6_9  and  C7_10 
REMARK       I    between atoms: C7_10  and  N1_12 
REMARK    4  A    between atoms: N1_12  and  C8_14 
REMARK    5  A    between atoms: C8_14  and  C9_15 
ROOT
HETATM    1  C7  UNL     1     -30.883  25.882  17.863  1.00  0.00     0.261 C 
HETATM    2  O2  UNL     1     -31.724  25.628  16.943  1.00  0.00    -0.267 OA
HETATM    3  N1  UNL     1     -29.838  26.768  17.586  1.00  0.00    -0.356 N 
ATOM      4  H1  UNL     1     -29.157  26.988  18.314  1.00  0.00     0.162 HD
ENDROOT
BRANCH   1   5
HETATM    5  C6  UNL     1     -31.076  25.225  19.145  1.00  0.00     0.107 A 
HETATM    6  C2  UNL     1     -30.506  25.405  20.377  1.00  0.00     0.092 A 
HETATM    7  C3  UNL     1     -30.921  24.608  21.374  1.00  0.00     0.064 A 
HETATM    8  C4  UNL     1     -31.885  23.673  21.086  1.00  0.00     0.044 A 
HETATM    9  S2  UNL     1     -32.180  23.935  19.433  1.00  0.00    -0.075 SA
BRANCH   6  10
HETATM   10  O1  UNL     1     -29.515  26.412  20.547  1.00  0.00    -0.354 OA
HETATM   11  C1  UNL     1     -29.852  27.705  20.977  1.00  0.00     0.210 C 
ENDBRANCH   6  10
BRANCH   8  12
HETATM   12  S1  UNL     1     -32.621  22.481  22.227  1.00  0.00    -0.127 SA
HETATM   13  C5  UNL     1     -33.049  20.987  21.298  1.00  0.00     0.096 C 
ENDBRANCH   8  12
ENDBRANCH   1   5
BRANCH   3  14
HETATM   14  C8  UNL     1     -29.711  27.372  16.287  1.00  0.00     0.127 C 
BRANCH  14  15
HETATM   15  C9  UNL     1     -28.695  26.682  15.410  1.00  0.00     0.003 C 
HETATM   16  C10 UNL     1     -29.489  25.678  14.558  1.00  0.00     0.006 C 
HETATM   17  C11 UNL     1     -30.013  26.424  13.369  1.00  0.00     0.000 C 
HETATM   18  C12 UNL     1     -28.861  26.618  12.395  1.00  0.00     0.000 C 
HETATM   19  C13 UNL     1     -27.699  27.207  13.174  1.00  0.00     0.000 C 
HETATM   20  C14 UNL     1     -28.127  27.766  14.495  1.00  0.00     0.006 C 
ENDBRANCH  14  15
ENDBRANCH   3  14
TORSDOF 5
ENDMDL
MODEL 3
REMARK VINA RESULT: -6.735265331      1.407      1.620
REMARK  5 active torsions:
REMARK  status: ('A' for Active; 'I' for Inactive)
REMARK    1  A    between atoms: O1_2  and  C2_3 
REMARK    2  A    between atoms: C4_5  and  S1_6 
REMARK    3  A    between atoms: C6_9  and  C7_10 
REMARK       I    between atoms: C7_10  and  N1_12 
REMARK    4  A    between atoms: N1_12  and  C8_14 
REMARK    5  A    between atoms: C8_14  and  C9_15 
ROOT
HETATM    1  C7  UNL     1     -30.825  24.822  19.425  1.00  0.00     0.261 C 
HETATM    2  O2  UNL     1     -29.924  25.425  20.089  1.00  0.00    -0.267 OA
HETATM    3  N1  UNL     1     -30.971  25.125  18.068  1.00  0.00    -0.356 N 
ATOM      4  H1  UNL     1     -31.685  24.646  17.518  1.00  0.00     0.162 HD
ENDROOT
BRANCH   1   5
HETATM    5  C6  UNL     1     -31.642  23.852  20.135  1.00  0.00     0.107 A 
HETATM    6  C2  UNL     1     -32.570  23.970  21.134  1.00  0.00     0.092 A 
HETATM    7  C3  UNL     1     -33.154  22.846  21.575  1.00  0.00     0.064 A 
HETATM    8  C4  UNL     1     -32.779  21.660  20.992  1.00  0.00     0.044 A 
HETATM    9  S2  UNL     1     -31.622  22.153  19.849  1.00  0.00    -0.075 SA
BRANCH   6  10
HETATM   10  O1  UNL     1     -32.873  25.260  21.655  1.00  0.00    -0.354 OA
HETATM   11  C1  UNL     1     -32.515  25.622  22.963  1.00  0.00     0.210 C 
ENDBRANCH   6  10
BRANCH   8  12
HETATM   12  S1  UNL     1     -33.397  20.009  21.387  1.00  0.00    -0.127 SA
HETATM   13  C5  UNL     1     -33.363  19.008  19.878  1.00  0.00     0.096 C 
ENDBRANCH   8  12
ENDBRANCH   1   5
BRANCH   3  14
HETATM   14  C8  UNL     1     -30.127  26.105  17.439  1.00  0.00     0.127 C 
BRANCH  14  15
HETATM   15  C9  UNL     1     -30.611  26.513  16.070  1.00  0.00     0.003 C 
HETATM   16  C10 UNL     1     -30.082  27.939  15.846  1.00  0.00     0.006 C 
HETATM   17  C11 UNL     1     -28.685  27.814  15.317  1.00  0.00     0.000 C 
HETATM   18  C12 UNL     1     -28.775  27.421  13.851  1.00  0.00     0.000 C 
HETATM   19  C13 UNL     1     -29.703  26.223  13.755  1.00  0.00     0.000 C 
HETATM   20  C14 UNL     1     -29.925  25.570  15.084  1.00  0.00     0.006 C 
ENDBRANCH  14  15
ENDBRANCH   3  14
TORSDOF 5
ENDMDL
MODEL 4
REMARK VINA RESULT: -6.658960989      2.038      3.197
REMARK  5 active torsions:
REMARK  status: ('A' for Active; 'I' for Inactive)
REMARK    1  A    between atoms: O1_2  and  C2_3 
REMARK    2  A    between atoms: C4_5  and  S1_6 
REMARK    3  A    between atoms: C6_9  and  C7_10 
REMARK       I    between atoms: C7_10  and  N1_12 
REMARK    4  A    between atoms: N1_12  and  C8_14 
REMARK    5  A    between atoms: C8_14  and  C9_15 
ROOT
HETATM    1  C7  UNL     1     -32.677  25.137  20.013  1.00  0.00     0.261 C 
HETATM    2  O2  UNL     1     -33.616  25.660  19.333  1.00  0.00    -0.267 OA
HETATM    3  N1  UNL     1     -31.453  25.808  20.088  1.00  0.00    -0.356 N 
ATOM      4  H1  UNL     1     -30.690  25.407  20.634  1.00  0.00     0.162 HD
ENDROOT
BRANCH   1   5
HETATM    5  C6  UNL     1     -32.952  23.869  20.669  1.00  0.00     0.107 A 
HETATM    6  C2  UNL     1     -33.310  23.542  21.948  1.00  0.00     0.092 A 
HETATM    7  C3  UNL     1     -33.489  22.242  22.230  1.00  0.00     0.064 A 
HETATM    8  C4  UNL     1     -33.301  21.337  21.214  1.00  0.00     0.044 A 
HETATM    9  S2  UNL     1     -32.879  22.329  19.900  1.00  0.00    -0.075 SA
BRANCH   6  10
HETATM   10  O1  UNL     1     -33.474  24.576  22.913  1.00  0.00    -0.354 OA
HETATM   11  C1  UNL     1     -32.371  25.152  23.563  1.00  0.00     0.210 C 
ENDBRANCH   6  10
BRANCH   8  12
HETATM   12  S1  UNL     1     -33.474  19.541  21.309  1.00  0.00    -0.127 SA
HETATM   13  C5  UNL     1     -33.204  18.850  19.658  1.00  0.00     0.096 C 
ENDBRANCH   8  12
ENDBRANCH   1   5
BRANCH   3  14
HETATM   14  C8  UNL     1     -31.257  27.057  19.403  1.00  0.00     0.127 C 
BRANCH  14  15
HETATM   15  C9  UNL     1     -30.038  27.060  18.513  1.00  0.00     0.003 C 
HETATM   16  C10 UNL     1     -30.096  25.745  17.718  1.00  0.00     0.006 C 
HETATM   17  C11 UNL     1     -30.971  25.988  16.526  1.00  0.00     0.000 C 
HETATM   18  C12 UNL     1     -30.163  26.780  15.509  1.00  0.00     0.000 C 
HETATM   19  C13 UNL     1     -29.563  27.973  16.231  1.00  0.00     0.000 C 
HETATM   20  C14 UNL     1     -30.225  28.230  17.549  1.00  0.00     0.006 C 
ENDBRANCH  14  15
ENDBRANCH   3  14
TORSDOF 5
ENDMDL
MODEL 5
REMARK VINA RESULT: -6.619866362      3.176      4.544
REMARK  5 active torsions:
REMARK  status: ('A' for Active; 'I' for Inactive)
REMARK    1  A    between atoms: O1_2  and  C2_3 
REMARK    2  A    between atoms: C4_5  and  S1_6 
REMARK    3  A    between atoms: C6_9  and  C7_10 
REMARK       I    between atoms: C7_10  and  N1_12 
REMARK    4  A    between atoms: N1_12  and  C8_14 
REMARK    5  A    between atoms: C8_14  and  C9_15 
ROOT
HETATM    1  C7  UNL     1     -32.653  24.110  19.137  1.00  0.00     0.261 C 
HETATM    2  O2  UNL     1     -33.650  24.804  18.763  1.00  0.00    -0.267 OA
HETATM    3  N1  UNL     1     -31.374  24.509  18.738  1.00  0.00    -0.356 N 
ATOM      4  H1  UNL     1     -30.561  23.968  19.033  1.00  0.00     0.162 HD
ENDROOT
BRANCH   1   5
HETATM    5  C6  UNL     1     -32.921  22.942  19.960  1.00  0.00     0.107 A 
HETATM    6  C2  UNL     1     -33.205  22.787  21.289  1.00  0.00     0.092 A 
HETATM    7  C3  UNL     1     -33.403  21.538  21.740  1.00  0.00     0.064 A 
HETATM    8  C4  UNL     1     -33.306  20.510  20.834  1.00  0.00     0.044 A 
HETATM    9  S2  UNL     1     -32.941  21.319  19.385  1.00  0.00    -0.075 SA
BRANCH   6  10
HETATM   10  O1  UNL     1     -33.278  23.936  22.126  1.00  0.00    -0.354 OA
HETATM   11  C1  UNL     1     -32.123  24.513  22.678  1.00  0.00     0.210 C 
ENDBRANCH   6  10
BRANCH   8  12
HETATM   12  S1  UNL     1     -33.523  18.746  21.162  1.00  0.00    -0.127 SA
HETATM   13  C5  UNL     1     -34.431  18.013  19.778  1.00  0.00     0.096 C 
ENDBRANCH   8  12
ENDBRANCH   1   5
BRANCH   3  14
HETATM   14  C8  UNL     1     -31.191  25.675  17.915  1.00  0.00     0.127 C 
BRANCH  14  15
HETATM   15  C9  UNL     1     -30.305  26.717  18.553  1.00  0.00     0.003 C 
HETATM   16  C10 UNL     1     -31.224  27.908  18.875  1.00  0.00     0.006 C 
HETATM   17  C11 UNL     1     -31.858  27.629  20.204  1.00  0.00     0.000 C 
HETATM   18  C12 UNL     1     -30.820  27.902  21.282  1.00  0.00     0.000 C 
HETATM   19  C13 UNL     1     -29.557  27.150  20.902  1.00  0.00     0.000 C 
HETATM   20  C14 UNL     1     -29.812  26.103  19.862  1.00  0.00     0.006 C 
ENDBRANCH  14  15
ENDBRANCH   3  14
TORSDOF 5
ENDMDL
