MODEL 1
REMARK VINA RESULT: -8.430412223      0.000      0.000
REMARK  6 active torsions:
REMARK  status: ('A' for Active; 'I' for Inactive)
REMARK    1  A    between atoms: C2_2  and  C3_3 
REMARK    2  A    between atoms: C3_3  and  C4_4 
REMARK    3  A    between atoms: C3_3  and  N1_7 
REMARK    4  A    between atoms: C8_9  and  C9_10 
REMARK    5  A    between atoms: C9_10  and  N2_12 
REMARK    6  A    between atoms: N2_12  and  C10_14 
ROOT
HETATM    1  N1  UNL     1     -30.401  26.651  17.962  1.00  0.00    -0.282 N 
HETATM    2  C7  UNL     1     -29.983  25.931  16.905  1.00  0.00     0.146 A 
HETATM    3  C8  UNL     1     -29.463  26.792  15.940  1.00  0.00     0.104 A 
HETATM    4  N3  UNL     1     -29.601  28.027  16.486  1.00  0.00    -0.282 N 
ATOM      5  H3  UNL     1     -29.320  28.903  16.047  1.00  0.00     0.188 HD
HETATM    6  N4  UNL     1     -30.156  27.909  17.675  1.00  0.00    -0.240 N 
ATOM      7  H4  UNL     1     -30.367  28.693  18.292  1.00  0.00     0.208 HD
ENDROOT
BRANCH   3   8
HETATM    8  C9  UNL     1     -28.905  26.438  14.648  1.00  0.00     0.126 C 
HETATM    9  S1  UNL     1     -29.920  26.281  13.392  1.00  0.00    -0.058 SA
BRANCH   8  10
HETATM   10  N2  UNL     1     -27.519  26.227  14.501  1.00  0.00    -0.374 N 
ATOM     11  H2  UNL     1     -27.089  25.507  15.081  1.00  0.00     0.161 HD
BRANCH  10  12
HETATM   12  C10 UNL     1     -26.663  26.948  13.599  1.00  0.00     0.082 C 
HETATM   13  C11 UNL     1     -25.224  26.525  13.829  1.00  0.00     0.025 C 
HETATM   14  C12 UNL     1     -24.237  27.431  13.174  1.00  0.00     0.002 C 
HETATM   15  C13 UNL     1     -24.836  28.394  12.186  1.00  0.00     0.000 C 
HETATM   16  C14 UNL     1     -26.003  29.161  12.759  1.00  0.00     0.002 C 
HETATM   17  C15 UNL     1     -26.687  28.440  13.873  1.00  0.00     0.025 C 
ENDBRANCH  10  12
ENDBRANCH   8  10
ENDBRANCH   3   8
BRANCH   1  18
HETATM   18  C3  UNL     1     -31.010  26.117  19.193  1.00  0.00     0.112 C 
BRANCH  18  19
HETATM   19  C2  UNL     1     -31.655  27.192  19.980  1.00  0.00     0.023 C 
HETATM   20  C1  UNL     1     -30.920  27.643  21.209  1.00  0.00     0.007 C 
ENDBRANCH  18  19
BRANCH  18  21
HETATM   21  C4  UNL     1     -31.778  24.887  18.919  1.00  0.00     0.002 C 
HETATM   22  C5  UNL     1     -33.274  25.072  18.916  1.00  0.00     0.011 C 
HETATM   23  C6  UNL     1     -31.439  23.681  19.744  1.00  0.00     0.011 C 
ENDBRANCH  18  21
ENDBRANCH   1  18
TORSDOF 6
ENDMDL
MODEL 2
REMARK VINA RESULT: -8.276224965      0.557      1.698
REMARK  6 active torsions:
REMARK  status: ('A' for Active; 'I' for Inactive)
REMARK    1  A    between atoms: C2_2  and  C3_3 
REMARK    2  A    between atoms: C3_3  and  C4_4 
REMARK    3  A    between atoms: C3_3  and  N1_7 
REMARK    4  A    between atoms: C8_9  and  C9_10 
REMARK    5  A    between atoms: C9_10  and  N2_12 
REMARK    6  A    between atoms: N2_12  and  C10_14 
ROOT
HETATM    1  N1  UNL     1     -30.547  26.716  17.845  1.00  0.00    -0.282 N 
HETATM    2  C7  UNL     1     -30.149  25.990  16.786  1.00  0.00     0.146 A 
HETATM    3  C8  UNL     1     -29.509  26.825  15.871  1.00  0.00     0.104 A 
HETATM    4  N3  UNL     1     -29.558  28.051  16.449  1.00  0.00    -0.282 N 
ATOM      5  H3  UNL     1     -29.179  28.909  16.051  1.00  0.00     0.188 HD
HETATM    6  N4  UNL     1     -30.176  27.953  17.609  1.00  0.00    -0.240 N 
ATOM      7  H4  UNL     1     -30.343  28.736  18.241  1.00  0.00     0.208 HD
ENDROOT
BRANCH   3   8
HETATM    8  C9  UNL     1     -28.927  26.456  14.594  1.00  0.00     0.126 C 
HETATM    9  S1  UNL     1     -29.919  26.279  13.323  1.00  0.00    -0.058 SA
BRANCH   8  10
HETATM   10  N2  UNL     1     -27.538  26.246  14.475  1.00  0.00    -0.374 N 
ATOM     11  H2  UNL     1     -27.117  25.534  15.071  1.00  0.00     0.161 HD
BRANCH  10  12
HETATM   12  C10 UNL     1     -26.668  26.958  13.579  1.00  0.00     0.082 C 
HETATM   13  C11 UNL     1     -25.237  26.511  13.812  1.00  0.00     0.025 C 
HETATM   14  C12 UNL     1     -24.233  27.404  13.165  1.00  0.00     0.002 C 
HETATM   15  C13 UNL     1     -24.813  28.382  12.180  1.00  0.00     0.000 C 
HETATM   16  C14 UNL     1     -25.969  29.165  12.754  1.00  0.00     0.002 C 
HETATM   17  C15 UNL     1     -26.669  28.448  13.862  1.00  0.00     0.025 C 
ENDBRANCH  10  12
ENDBRANCH   8  10
ENDBRANCH   3   8
BRANCH   1  18
HETATM   18  C3  UNL     1     -31.259  26.208  19.032  1.00  0.00     0.112 C 
BRANCH  18  19
HETATM   19  C2  UNL     1     -32.086  25.027  18.695  1.00  0.00     0.023 C 
HETATM   20  C1  UNL     1     -33.540  25.112  19.060  1.00  0.00     0.007 C 
ENDBRANCH  18  19
BRANCH  18  21
HETATM   21  C4  UNL     1     -30.362  26.130  20.201  1.00  0.00     0.002 C 
HETATM   22  C5  UNL     1     -30.234  24.751  20.799  1.00  0.00     0.011 C 
HETATM   23  C6  UNL     1     -30.602  27.118  21.304  1.00  0.00     0.011 C 
ENDBRANCH  18  21
ENDBRANCH   1  18
TORSDOF 6
ENDMDL
MODEL 3
REMARK VINA RESULT: -8.063546955      0.520      1.126
REMARK  6 active torsions:
REMARK  status: ('A' for Active; 'I' for Inactive)
REMARK    1  A    between atoms: C2_2  and  C3_3 
REMARK    2  A    between atoms: C3_3  and  C4_4 
REMARK    3  A    between atoms: C3_3  and  N1_7 
REMARK    4  A    between atoms: C8_9  and  C9_10 
REMARK    5  A    between atoms: C9_10  and  N2_12 
REMARK    6  A    between atoms: N2_12  and  C10_14 
ROOT
HETATM    1  N1  UNL     1     -30.350  26.698  17.951  1.00  0.00    -0.282 N 
HETATM    2  C7  UNL     1     -30.074  25.919  16.890  1.00  0.00     0.146 A 
HETATM    3  C8  UNL     1     -29.551  26.707  15.866  1.00  0.00     0.104 A 
HETATM    4  N3  UNL     1     -29.538  27.961  16.384  1.00  0.00    -0.282 N 
ATOM      5  H3  UNL     1     -29.212  28.798  15.901  1.00  0.00     0.188 HD
HETATM    6  N4  UNL     1     -30.015  27.921  17.611  1.00  0.00    -0.240 N 
ATOM      7  H4  UNL     1     -30.111  28.735  18.219  1.00  0.00     0.208 HD
ENDROOT
BRANCH   3   8
HETATM    8  C9  UNL     1     -29.121  26.275  14.549  1.00  0.00     0.126 C 
HETATM    9  S1  UNL     1     -30.244  26.117  13.389  1.00  0.00    -0.058 SA
BRANCH   8  10
HETATM   10  N2  UNL     1     -27.763  25.990  14.297  1.00  0.00    -0.374 N 
ATOM     11  H2  UNL     1     -27.439  25.041  14.486  1.00  0.00     0.161 HD
BRANCH  10  12
HETATM   12  C10 UNL     1     -26.799  26.930  13.797  1.00  0.00     0.082 C 
HETATM   13  C11 UNL     1     -27.108  27.239  12.344  1.00  0.00     0.025 C 
HETATM   14  C12 UNL     1     -25.997  27.950  11.648  1.00  0.00     0.002 C 
HETATM   15  C13 UNL     1     -24.928  28.482  12.563  1.00  0.00     0.000 C 
HETATM   16  C14 UNL     1     -24.409  27.434  13.518  1.00  0.00     0.002 C 
HETATM   17  C15 UNL     1     -25.398  26.348  13.789  1.00  0.00     0.025 C 
ENDBRANCH  10  12
ENDBRANCH   8  10
ENDBRANCH   3   8
BRANCH   1  18
HETATM   18  C3  UNL     1     -30.915  26.250  19.236  1.00  0.00     0.112 C 
BRANCH  18  19
HETATM   19  C2  UNL     1     -31.410  27.396  20.032  1.00  0.00     0.023 C 
HETATM   20  C1  UNL     1     -30.587  27.772  21.230  1.00  0.00     0.007 C 
ENDBRANCH  18  19
BRANCH  18  21
HETATM   21  C4  UNL     1     -31.801  25.084  19.053  1.00  0.00     0.002 C 
HETATM   22  C5  UNL     1     -33.262  25.366  19.296  1.00  0.00     0.011 C 
HETATM   23  C6  UNL     1     -31.422  23.826  19.777  1.00  0.00     0.011 C 
ENDBRANCH  18  21
ENDBRANCH   1  18
TORSDOF 6
ENDMDL
MODEL 4
REMARK VINA RESULT: -7.981052666      0.766      1.351
REMARK  6 active torsions:
REMARK  status: ('A' for Active; 'I' for Inactive)
REMARK    1  A    between atoms: C2_2  and  C3_3 
REMARK    2  A    between atoms: C3_3  and  C4_4 
REMARK    3  A    between atoms: C3_3  and  N1_7 
REMARK    4  A    between atoms: C8_9  and  C9_10 
REMARK    5  A    between atoms: C9_10  and  N2_12 
REMARK    6  A    between atoms: N2_12  and  C10_14 
ROOT
HETATM    1  N1  UNL     1     -30.665  26.694  18.080  1.00  0.00    -0.282 N 
HETATM    2  C7  UNL     1     -30.525  26.162  16.853  1.00  0.00     0.146 A 
HETATM    3  C8  UNL     1     -30.000  27.125  15.993  1.00  0.00     0.104 A 
HETATM    4  N3  UNL     1     -29.846  28.223  16.775  1.00  0.00    -0.282 N 
ATOM      5  H3  UNL     1     -29.480  29.123  16.467  1.00  0.00     0.188 HD
HETATM    6  N4  UNL     1     -30.247  27.936  17.997  1.00  0.00    -0.240 N 
ATOM      7  H4  UNL     1     -30.234  28.594  18.777  1.00  0.00     0.208 HD
ENDROOT
BRANCH   3   8
HETATM    8  C9  UNL     1     -29.692  26.976  14.583  1.00  0.00     0.126 C 
HETATM    9  S1  UNL     1     -30.541  25.894  13.723  1.00  0.00    -0.058 SA
BRANCH   8  10
HETATM   10  N2  UNL     1     -28.673  27.748  13.987  1.00  0.00    -0.374 N 
ATOM     11  H2  UNL     1     -28.952  28.600  13.501  1.00  0.00     0.161 HD
BRANCH  10  12
HETATM   12  C10 UNL     1     -27.272  27.429  14.011  1.00  0.00     0.082 C 
HETATM   13  C11 UNL     1     -26.475  28.642  13.570  1.00  0.00     0.025 C 
HETATM   14  C12 UNL     1     -25.051  28.324  13.259  1.00  0.00     0.002 C 
HETATM   15  C13 UNL     1     -24.604  26.962  13.714  1.00  0.00     0.000 C 
HETATM   16  C14 UNL     1     -25.533  25.864  13.257  1.00  0.00     0.002 C 
HETATM   17  C15 UNL     1     -26.927  26.341  13.012  1.00  0.00     0.025 C 
ENDBRANCH  10  12
ENDBRANCH   8  10
ENDBRANCH   3   8
BRANCH   1  18
HETATM   18  C3  UNL     1     -31.186  26.005  19.274  1.00  0.00     0.112 C 
BRANCH  18  19
HETATM   19  C2  UNL     1     -31.784  26.965  20.229  1.00  0.00     0.023 C 
HETATM   20  C1  UNL     1     -31.000  27.227  21.482  1.00  0.00     0.007 C 
ENDBRANCH  18  19
BRANCH  18  21
HETATM   21  C4  UNL     1     -31.960  24.804  18.903  1.00  0.00     0.002 C 
HETATM   22  C5  UNL     1     -33.455  25.001  18.905  1.00  0.00     0.011 C 
HETATM   23  C6  UNL     1     -31.636  23.537  19.637  1.00  0.00     0.011 C 
ENDBRANCH  18  21
ENDBRANCH   1  18
TORSDOF 6
ENDMDL
MODEL 5
REMARK VINA RESULT: -7.956985086      1.135      2.205
REMARK  6 active torsions:
REMARK  status: ('A' for Active; 'I' for Inactive)
REMARK    1  A    between atoms: C2_2  and  C3_3 
REMARK    2  A    between atoms: C3_3  and  C4_4 
REMARK    3  A    between atoms: C3_3  and  N1_7 
REMARK    4  A    between atoms: C8_9  and  C9_10 
REMARK    5  A    between atoms: C9_10  and  N2_12 
REMARK    6  A    between atoms: N2_12  and  C10_14 
ROOT
HETATM    1  N1  UNL     1     -30.717  26.035  17.435  1.00  0.00    -0.282 N 
HETATM    2  C7  UNL     1     -30.655  26.830  16.353  1.00  0.00     0.146 A 
HETATM    3  C8  UNL     1     -29.687  26.340  15.478  1.00  0.00     0.104 A 
HETATM    4  N3  UNL     1     -29.202  25.238  16.102  1.00  0.00    -0.282 N 
ATOM      5  H3  UNL     1     -28.471  24.625  15.740  1.00  0.00     0.188 HD
HETATM    6  N4  UNL     1     -29.828  25.086  17.251  1.00  0.00    -0.240 N 
ATOM      7  H4  UNL     1     -29.646  24.330  17.911  1.00  0.00     0.208 HD
ENDROOT
BRANCH   3   8
HETATM    8  C9  UNL     1     -29.295  26.892  14.194  1.00  0.00     0.126 C 
HETATM    9  S1  UNL     1     -30.046  26.346  12.864  1.00  0.00    -0.058 SA
BRANCH   8  10
HETATM   10  N2  UNL     1     -28.281  27.868  14.114  1.00  0.00    -0.374 N 
ATOM     11  H2  UNL     1     -28.450  28.760  14.578  1.00  0.00     0.161 HD
BRANCH  10  12
HETATM   12  C10 UNL     1     -27.027  27.705  13.431  1.00  0.00     0.082 C 
HETATM   13  C11 UNL     1     -26.164  26.720  14.196  1.00  0.00     0.025 C 
HETATM   14  C12 UNL     1     -24.741  26.721  13.751  1.00  0.00     0.002 C 
HETATM   15  C13 UNL     1     -24.492  27.457  12.463  1.00  0.00     0.000 C 
HETATM   16  C14 UNL     1     -25.076  28.848  12.469  1.00  0.00     0.002 C 
HETATM   17  C15 UNL     1     -26.230  28.995  13.405  1.00  0.00     0.025 C 
ENDBRANCH  10  12
ENDBRANCH   8  10
ENDBRANCH   3   8
BRANCH   1  18
HETATM   18  C3  UNL     1     -31.613  26.207  18.592  1.00  0.00     0.112 C 
BRANCH  18  19
HETATM   19  C2  UNL     1     -32.156  24.907  19.048  1.00  0.00     0.023 C 
HETATM   20  C1  UNL     1     -33.620  24.680  18.806  1.00  0.00     0.007 C 
ENDBRANCH  18  19
BRANCH  18  21
HETATM   21  C4  UNL     1     -31.023  27.115  19.595  1.00  0.00     0.002 C 
HETATM   22  C5  UNL     1     -29.781  26.583  20.265  1.00  0.00     0.011 C 
HETATM   23  C6  UNL     1     -31.948  27.655  20.646  1.00  0.00     0.011 C 
ENDBRANCH  18  21
ENDBRANCH   1  18
TORSDOF 6
ENDMDL
