MODEL 1
REMARK VINA RESULT: -12.165315605      0.000      0.000
REMARK  6 active torsions:
REMARK  status: ('A' for Active; 'I' for Inactive)
REMARK    1  A    between atoms: C5_6  and  C6_7 
REMARK    2  A    between atoms: C10_11  and  C11_12 
REMARK    3  A    between atoms: N2_13  and  C12_15 
REMARK    4  A    between atoms: C12_15  and  C13_16 
REMARK    5  A    between atoms: C15_22  and  C16_23 
REMARK    6  A    between atoms: C20_27  and  C21_28 
ROOT
HETATM    1  C13 UNL     1     -16.614  22.167  -5.975  1.00  0.00     0.025 A 
HETATM    2  C14 UNL     1     -17.628  21.650  -6.820  1.00  0.00     0.122 A 
HETATM    3  N3  UNL     1     -17.103  21.605  -8.049  1.00  0.00    -0.310 N 
ATOM      4  H3  UNL     1     -17.595  21.285  -8.883  1.00  0.00     0.186 HD
HETATM    5  N4  UNL     1     -15.872  22.028  -8.025  1.00  0.00    -0.299 N 
ATOM      6  H4  UNL     1     -15.261  22.084  -8.840  1.00  0.00     0.187 HD
HETATM    7  C15 UNL     1     -15.522  22.383  -6.775  1.00  0.00     0.071 A 
ENDROOT
BRANCH   1   8
HETATM    8  C12 UNL     1     -16.772  22.586  -4.604  1.00  0.00     0.102 C 
BRANCH   8   9
HETATM    9  N2  UNL     1     -17.289  23.765  -4.107  1.00  0.00    -0.373 N 
HETATM   10  C11 UNL     1     -17.592  24.901  -4.789  1.00  0.00     0.099 C 
ATOM     11  H2  UNL     1     -17.465  23.786  -3.102  1.00  0.00     0.164 HD
BRANCH  10  12
HETATM   12  C10 UNL     1     -16.915  26.196  -4.380  1.00  0.00    -0.020 A 
HETATM   13  C9  UNL     1     -16.604  27.170  -5.264  1.00  0.00     0.013 A 
HETATM   14  C8  UNL     1     -16.142  28.389  -4.729  1.00  0.00     0.002 A 
HETATM   15  C7  UNL     1     -16.011  28.606  -3.370  1.00  0.00     0.012 A 
HETATM   16  C6  UNL     1     -16.337  27.600  -2.498  1.00  0.00    -0.025 A 
HETATM   17  C28 UNL     1     -16.778  26.417  -3.020  1.00  0.00     0.025 A 
BRANCH  16  18
HETATM   18  C5  UNL     1     -16.318  27.814  -1.032  1.00  0.00    -0.024 A 
HETATM   19  C4  UNL     1     -16.159  29.106  -0.533  1.00  0.00     0.012 A 
HETATM   20  C3  UNL     1     -16.167  29.332   0.814  1.00  0.00     0.003 A 
HETATM   21  C2  UNL     1     -16.335  28.253   1.674  1.00  0.00     0.026 A 
HETATM   22  C1  UNL     1     -16.491  26.988   1.187  1.00  0.00     0.047 A 
HETATM   23  N1  UNL     1     -16.669  25.906   2.079  1.00  0.00    -0.102 NA
HETATM   24  C29 UNL     1     -16.482  26.761  -0.173  1.00  0.00     0.038 A 
ENDBRANCH  16  18
ENDBRANCH  10  12
ENDBRANCH   8   9
ENDBRANCH   1   8
BRANCH   7  25
HETATM   25  C16 UNL     1     -14.132  22.797  -6.438  1.00  0.00    -0.006 A 
HETATM   26  C17 UNL     1     -13.823  24.103  -6.165  1.00  0.00     0.014 A 
HETATM   27  C18 UNL     1     -12.528  24.526  -5.918  1.00  0.00     0.002 A 
HETATM   28  C19 UNL     1     -11.504  23.598  -5.945  1.00  0.00     0.012 A 
HETATM   29  C20 UNL     1     -11.794  22.290  -6.207  1.00  0.00    -0.025 A 
HETATM   30  C27 UNL     1     -13.113  21.871  -6.461  1.00  0.00     0.026 A 
BRANCH  29  31
HETATM   31  C21 UNL     1     -10.752  21.238  -6.189  1.00  0.00    -0.026 A 
HETATM   32  C22 UNL     1     -10.239  20.907  -4.947  1.00  0.00     0.012 A 
HETATM   33  C23 UNL     1      -9.325  19.891  -4.811  1.00  0.00     0.001 A 
HETATM   34  C24 UNL     1      -8.957  19.225  -5.964  1.00  0.00     0.000 A 
HETATM   35  C25 UNL     1      -9.450  19.530  -7.222  1.00  0.00     0.001 A 
HETATM   36  C26 UNL     1     -10.372  20.575  -7.303  1.00  0.00     0.012 A 
ENDBRANCH  29  31
ENDBRANCH   7  25
TORSDOF 6
ENDMDL
MODEL 2
REMARK VINA RESULT: -12.017601118      1.045      1.328
REMARK  6 active torsions:
REMARK  status: ('A' for Active; 'I' for Inactive)
REMARK    1  A    between atoms: C5_6  and  C6_7 
REMARK    2  A    between atoms: C10_11  and  C11_12 
REMARK    3  A    between atoms: N2_13  and  C12_15 
REMARK    4  A    between atoms: C12_15  and  C13_16 
REMARK    5  A    between atoms: C15_22  and  C16_23 
REMARK    6  A    between atoms: C20_27  and  C21_28 
ROOT
HETATM    1  C13 UNL     1     -16.914  22.367  -6.366  1.00  0.00     0.025 A 
HETATM    2  C14 UNL     1     -17.812  21.806  -7.309  1.00  0.00     0.122 A 
HETATM    3  N3  UNL     1     -17.153  21.766  -8.473  1.00  0.00    -0.310 N 
ATOM      4  H3  UNL     1     -17.540  21.420  -9.351  1.00  0.00     0.186 HD
HETATM    5  N4  UNL     1     -15.948  22.232  -8.322  1.00  0.00    -0.299 N 
ATOM      6  H4  UNL     1     -15.253  22.301  -9.065  1.00  0.00     0.187 HD
HETATM    7  C15 UNL     1     -15.748  22.613  -7.046  1.00  0.00     0.071 A 
ENDROOT
BRANCH   1   8
HETATM    8  C12 UNL     1     -17.234  22.795  -5.027  1.00  0.00     0.102 C 
BRANCH   8   9
HETATM    9  N2  UNL     1     -17.678  24.026  -4.588  1.00  0.00    -0.373 N 
HETATM   10  C11 UNL     1     -17.720  25.196  -5.277  1.00  0.00     0.099 C 
ATOM     11  H2  UNL     1     -18.016  24.061  -3.626  1.00  0.00     0.164 HD
BRANCH  10  12
HETATM   12  C10 UNL     1     -16.967  26.392  -4.724  1.00  0.00    -0.020 A 
HETATM   13  C9  UNL     1     -16.514  27.397  -5.506  1.00  0.00     0.013 A 
HETATM   14  C8  UNL     1     -15.990  28.528  -4.847  1.00  0.00     0.002 A 
HETATM   15  C7  UNL     1     -15.937  28.631  -3.469  1.00  0.00     0.012 A 
HETATM   16  C6  UNL     1     -16.407  27.597  -2.703  1.00  0.00    -0.025 A 
HETATM   17  C28 UNL     1     -16.908  26.499  -3.344  1.00  0.00     0.025 A 
BRANCH  16  18
HETATM   18  C5  UNL     1     -16.474  27.699  -1.227  1.00  0.00    -0.024 A 
HETATM   19  C4  UNL     1     -15.952  26.668  -0.447  1.00  0.00     0.012 A 
HETATM   20  C3  UNL     1     -15.976  26.752   0.916  1.00  0.00     0.003 A 
HETATM   21  C2  UNL     1     -16.529  27.882   1.509  1.00  0.00     0.026 A 
HETATM   22  C1  UNL     1     -17.039  28.893   0.746  1.00  0.00     0.047 A 
HETATM   23  N1  UNL     1     -17.589  30.037   1.369  1.00  0.00    -0.102 NA
HETATM   24  C29 UNL     1     -17.015  28.806  -0.629  1.00  0.00     0.038 A 
ENDBRANCH  16  18
ENDBRANCH  10  12
ENDBRANCH   8   9
ENDBRANCH   1   8
BRANCH   7  25
HETATM   25  C16 UNL     1     -14.418  23.079  -6.565  1.00  0.00    -0.006 A 
HETATM   26  C17 UNL     1     -14.159  24.408  -6.362  1.00  0.00     0.014 A 
HETATM   27  C18 UNL     1     -12.911  24.874  -5.983  1.00  0.00     0.002 A 
HETATM   28  C19 UNL     1     -11.885  23.966  -5.801  1.00  0.00     0.012 A 
HETATM   29  C20 UNL     1     -12.126  22.636  -5.992  1.00  0.00    -0.025 A 
HETATM   30  C27 UNL     1     -13.398  22.174  -6.380  1.00  0.00     0.026 A 
BRANCH  29  31
HETATM   31  C21 UNL     1     -11.088  21.609  -5.752  1.00  0.00    -0.026 A 
HETATM   32  C22 UNL     1     -11.543  20.343  -5.426  1.00  0.00     0.012 A 
HETATM   33  C23 UNL     1     -10.665  19.300  -5.260  1.00  0.00     0.001 A 
HETATM   34  C24 UNL     1      -9.324  19.580  -5.439  1.00  0.00     0.000 A 
HETATM   35  C25 UNL     1      -8.834  20.835  -5.765  1.00  0.00     0.001 A 
HETATM   36  C26 UNL     1      -9.770  21.859  -5.917  1.00  0.00     0.012 A 
ENDBRANCH  29  31
ENDBRANCH   7  25
TORSDOF 6
ENDMDL
MODEL 3
REMARK VINA RESULT: -11.861030374      2.062      5.424
REMARK  6 active torsions:
REMARK  status: ('A' for Active; 'I' for Inactive)
REMARK    1  A    between atoms: C5_6  and  C6_7 
REMARK    2  A    between atoms: C10_11  and  C11_12 
REMARK    3  A    between atoms: N2_13  and  C12_15 
REMARK    4  A    between atoms: C12_15  and  C13_16 
REMARK    5  A    between atoms: C15_22  and  C16_23 
REMARK    6  A    between atoms: C20_27  and  C21_28 
ROOT
HETATM    1  C13 UNL     1     -11.786  21.739  -6.255  1.00  0.00     0.025 A 
HETATM    2  C14 UNL     1     -10.849  20.910  -5.588  1.00  0.00     0.122 A 
HETATM    3  N3  UNL     1     -11.567  20.029  -4.883  1.00  0.00    -0.310 N 
ATOM      4  H3  UNL     1     -11.174  19.300  -4.286  1.00  0.00     0.186 HD
HETATM    5  N4  UNL     1     -12.838  20.234  -5.070  1.00  0.00    -0.299 N 
ATOM      6  H4  UNL     1     -13.585  19.687  -4.642  1.00  0.00     0.187 HD
HETATM    7  C15 UNL     1     -13.028  21.272  -5.906  1.00  0.00     0.071 A 
ENDROOT
BRANCH   1   8
HETATM    8  C12 UNL     1     -11.496  22.956  -6.971  1.00  0.00     0.102 C 
BRANCH   8   9
HETATM    9  N2  UNL     1     -11.777  24.262  -6.623  1.00  0.00    -0.373 N 
HETATM   10  C11 UNL     1     -12.358  24.717  -5.481  1.00  0.00     0.099 C 
ATOM     11  H2  UNL     1     -11.517  24.972  -7.307  1.00  0.00     0.164 HD
BRANCH  10  12
HETATM   12  C10 UNL     1     -13.635  25.529  -5.591  1.00  0.00    -0.020 A 
HETATM   13  C9  UNL     1     -14.403  25.538  -6.703  1.00  0.00     0.013 A 
HETATM   14  C8  UNL     1     -15.649  26.190  -6.609  1.00  0.00     0.002 A 
HETATM   15  C7  UNL     1     -16.090  26.795  -5.446  1.00  0.00     0.012 A 
HETATM   16  C6  UNL     1     -15.290  26.766  -4.334  1.00  0.00    -0.025 A 
HETATM   17  C28 UNL     1     -14.080  26.139  -4.429  1.00  0.00     0.025 A 
BRANCH  16  18
HETATM   18  C5  UNL     1     -15.758  27.302  -3.034  1.00  0.00    -0.024 A 
HETATM   19  C4  UNL     1     -16.335  28.570  -2.987  1.00  0.00     0.012 A 
HETATM   20  C3  UNL     1     -16.799  29.074  -1.805  1.00  0.00     0.003 A 
HETATM   21  C2  UNL     1     -16.685  28.300  -0.655  1.00  0.00     0.026 A 
HETATM   22  C1  UNL     1     -16.121  27.058  -0.701  1.00  0.00     0.047 A 
HETATM   23  N1  UNL     1     -16.023  26.285   0.479  1.00  0.00    -0.102 NA
HETATM   24  C29 UNL     1     -15.652  26.552  -1.894  1.00  0.00     0.038 A 
ENDBRANCH  16  18
ENDBRANCH  10  12
ENDBRANCH   8   9
ENDBRANCH   1   8
BRANCH   7  25
HETATM   25  C16 UNL     1     -14.384  21.656  -6.385  1.00  0.00    -0.006 A 
HETATM   26  C17 UNL     1     -14.781  21.414  -7.674  1.00  0.00     0.014 A 
HETATM   27  C18 UNL     1     -16.009  21.823  -8.165  1.00  0.00     0.002 A 
HETATM   28  C19 UNL     1     -16.872  22.502  -7.326  1.00  0.00     0.012 A 
HETATM   29  C20 UNL     1     -16.498  22.745  -6.035  1.00  0.00    -0.025 A 
HETATM   30  C27 UNL     1     -15.245  22.328  -5.548  1.00  0.00     0.026 A 
BRANCH  29  31
HETATM   31  C21 UNL     1     -17.401  23.411  -5.070  1.00  0.00    -0.026 A 
HETATM   32  C22 UNL     1     -16.969  23.452  -3.756  1.00  0.00     0.012 A 
HETATM   33  C23 UNL     1     -17.694  24.113  -2.796  1.00  0.00     0.001 A 
HETATM   34  C24 UNL     1     -18.860  24.730  -3.210  1.00  0.00     0.000 A 
HETATM   35  C25 UNL     1     -19.322  24.709  -4.517  1.00  0.00     0.001 A 
HETATM   36  C26 UNL     1     -18.547  24.018  -5.449  1.00  0.00     0.012 A 
ENDBRANCH  29  31
ENDBRANCH   7  25
TORSDOF 6
ENDMDL
MODEL 4
REMARK VINA RESULT: -11.715707740      2.261      5.596
REMARK  6 active torsions:
REMARK  status: ('A' for Active; 'I' for Inactive)
REMARK    1  A    between atoms: C5_6  and  C6_7 
REMARK    2  A    between atoms: C10_11  and  C11_12 
REMARK    3  A    between atoms: N2_13  and  C12_15 
REMARK    4  A    between atoms: C12_15  and  C13_16 
REMARK    5  A    between atoms: C15_22  and  C16_23 
REMARK    6  A    between atoms: C20_27  and  C21_28 
ROOT
HETATM    1  C13 UNL     1     -11.790  21.439  -6.313  1.00  0.00     0.025 A 
HETATM    2  C14 UNL     1     -10.933  20.582  -5.578  1.00  0.00     0.122 A 
HETATM    3  N3  UNL     1     -11.727  19.840  -4.799  1.00  0.00    -0.310 N 
ATOM      4  H3  UNL     1     -11.402  19.131  -4.141  1.00  0.00     0.186 HD
HETATM    5  N4  UNL     1     -12.973  20.154  -5.000  1.00  0.00    -0.299 N 
ATOM      6  H4  UNL     1     -13.766  19.723  -4.526  1.00  0.00     0.187 HD
HETATM    7  C15 UNL     1     -13.068  21.130  -5.923  1.00  0.00     0.071 A 
ENDROOT
BRANCH   1   8
HETATM    8  C12 UNL     1     -11.388  22.555  -7.133  1.00  0.00     0.102 C 
BRANCH   8   9
HETATM    9  N2  UNL     1     -11.644  23.901  -6.961  1.00  0.00    -0.373 N 
HETATM   10  C11 UNL     1     -12.031  24.542  -5.826  1.00  0.00     0.099 C 
ATOM     11  H2  UNL     1     -11.530  24.486  -7.789  1.00  0.00     0.164 HD
BRANCH  10  12
HETATM   12  C10 UNL     1     -13.332  25.322  -5.840  1.00  0.00    -0.020 A 
HETATM   13  C9  UNL     1     -14.097  25.449  -6.947  1.00  0.00     0.013 A 
HETATM   14  C8  UNL     1     -15.363  26.046  -6.780  1.00  0.00     0.002 A 
HETATM   15  C7  UNL     1     -15.825  26.484  -5.552  1.00  0.00     0.012 A 
HETATM   16  C6  UNL     1     -15.028  26.339  -4.447  1.00  0.00    -0.025 A 
HETATM   17  C28 UNL     1     -13.799  25.765  -4.614  1.00  0.00     0.025 A 
BRANCH  16  18
HETATM   18  C5  UNL     1     -15.515  26.690  -3.093  1.00  0.00    -0.024 A 
HETATM   19  C4  UNL     1     -15.241  25.836  -2.026  1.00  0.00     0.012 A 
HETATM   20  C3  UNL     1     -15.656  26.152  -0.764  1.00  0.00     0.003 A 
HETATM   21  C2  UNL     1     -16.353  27.339  -0.564  1.00  0.00     0.026 A 
HETATM   22  C1  UNL     1     -16.621  28.177  -1.608  1.00  0.00     0.047 A 
HETATM   23  N1  UNL     1     -17.324  29.382  -1.382  1.00  0.00    -0.102 NA
HETATM   24  C29 UNL     1     -16.203  27.855  -2.882  1.00  0.00     0.038 A 
ENDBRANCH  16  18
ENDBRANCH  10  12
ENDBRANCH   8   9
ENDBRANCH   1   8
BRANCH   7  25
HETATM   25  C16 UNL     1     -14.385  21.604  -6.431  1.00  0.00    -0.006 A 
HETATM   26  C17 UNL     1     -14.727  21.477  -7.752  1.00  0.00     0.014 A 
HETATM   27  C18 UNL     1     -15.915  21.972  -8.264  1.00  0.00     0.002 A 
HETATM   28  C19 UNL     1     -16.792  22.619  -7.414  1.00  0.00     0.012 A 
HETATM   29  C20 UNL     1     -16.471  22.748  -6.093  1.00  0.00    -0.025 A 
HETATM   30  C27 UNL     1     -15.260  22.244  -5.584  1.00  0.00     0.026 A 
BRANCH  29  31
HETATM   31  C21 UNL     1     -17.394  23.375  -5.120  1.00  0.00    -0.026 A 
HETATM   32  C22 UNL     1     -17.088  23.194  -3.783  1.00  0.00     0.012 A 
HETATM   33  C23 UNL     1     -17.835  23.798  -2.801  1.00  0.00     0.001 A 
HETATM   34  C24 UNL     1     -18.891  24.587  -3.218  1.00  0.00     0.000 A 
HETATM   35  C25 UNL     1     -19.225  24.789  -4.548  1.00  0.00     0.001 A 
HETATM   36  C26 UNL     1     -18.435  24.147  -5.502  1.00  0.00     0.012 A 
ENDBRANCH  29  31
ENDBRANCH   7  25
TORSDOF 6
ENDMDL
MODEL 5
REMARK VINA RESULT: -11.689602049      2.039      9.064
REMARK  6 active torsions:
REMARK  status: ('A' for Active; 'I' for Inactive)
REMARK    1  A    between atoms: C5_6  and  C6_7 
REMARK    2  A    between atoms: C10_11  and  C11_12 
REMARK    3  A    between atoms: N2_13  and  C12_15 
REMARK    4  A    between atoms: C12_15  and  C13_16 
REMARK    5  A    between atoms: C15_22  and  C16_23 
REMARK    6  A    between atoms: C20_27  and  C21_28 
ROOT
HETATM    1  C13 UNL     1     -17.241  24.155  -4.109  1.00  0.00     0.025 A 
HETATM    2  C14 UNL     1     -18.238  23.415  -4.793  1.00  0.00     0.122 A 
HETATM    3  N3  UNL     1     -19.305  24.216  -4.877  1.00  0.00    -0.310 N 
ATOM      4  H3  UNL     1     -20.194  23.962  -5.310  1.00  0.00     0.186 HD
HETATM    5  N4  UNL     1     -19.047  25.366  -4.326  1.00  0.00    -0.299 N 
ATOM      6  H4  UNL     1     -19.703  26.145  -4.269  1.00  0.00     0.187 HD
HETATM    7  C15 UNL     1     -17.791  25.382  -3.841  1.00  0.00     0.071 A 
ENDROOT
BRANCH   1   8
HETATM    8  C12 UNL     1     -15.990  23.645  -3.605  1.00  0.00     0.102 C 
BRANCH   8   9
HETATM    9  N2  UNL     1     -14.705  23.901  -4.040  1.00  0.00    -0.373 N 
HETATM   10  C11 UNL     1     -14.307  24.758  -5.017  1.00  0.00     0.099 C 
ATOM     11  H2  UNL     1     -13.964  23.382  -3.571  1.00  0.00     0.164 HD
BRANCH  10  12
HETATM   12  C10 UNL     1     -13.520  24.206  -6.191  1.00  0.00    -0.020 A 
HETATM   13  C9  UNL     1     -13.504  24.798  -7.406  1.00  0.00     0.013 A 
HETATM   14  C8  UNL     1     -12.596  24.284  -8.352  1.00  0.00     0.002 A 
HETATM   15  C7  UNL     1     -11.747  23.228  -8.075  1.00  0.00     0.012 A 
HETATM   16  C6  UNL     1     -11.784  22.649  -6.833  1.00  0.00    -0.025 A 
HETATM   17  C28 UNL     1     -12.670  23.146  -5.920  1.00  0.00     0.025 A 
BRANCH  16  18
HETATM   18  C5  UNL     1     -10.823  21.589  -6.448  1.00  0.00    -0.024 A 
HETATM   19  C4  UNL     1     -10.519  21.401  -5.101  1.00  0.00     0.012 A 
HETATM   20  C3  UNL     1      -9.658  20.411  -4.719  1.00  0.00     0.003 A 
HETATM   21  C2  UNL     1      -9.094  19.599  -5.696  1.00  0.00     0.026 A 
HETATM   22  C1  UNL     1      -9.393  19.781  -7.015  1.00  0.00     0.047 A 
HETATM   23  N1  UNL     1      -8.814  18.938  -7.992  1.00  0.00    -0.102 NA
HETATM   24  C29 UNL     1     -10.260  20.782  -7.399  1.00  0.00     0.038 A 
ENDBRANCH  16  18
ENDBRANCH  10  12
ENDBRANCH   8   9
ENDBRANCH   1   8
BRANCH   7  25
HETATM   25  C16 UNL     1     -17.191  26.614  -3.259  1.00  0.00    -0.006 A 
HETATM   26  C17 UNL     1     -16.692  27.610  -4.056  1.00  0.00     0.014 A 
HETATM   27  C18 UNL     1     -16.066  28.733  -3.542  1.00  0.00     0.002 A 
HETATM   28  C19 UNL     1     -15.937  28.858  -2.172  1.00  0.00     0.012 A 
HETATM   29  C20 UNL     1     -16.435  27.880  -1.360  1.00  0.00    -0.025 A 
HETATM   30  C27 UNL     1     -17.066  26.741  -1.894  1.00  0.00     0.026 A 
BRANCH  29  31
HETATM   31  C21 UNL     1     -16.384  27.984   0.116  1.00  0.00    -0.026 A 
HETATM   32  C22 UNL     1     -15.986  29.206   0.628  1.00  0.00     0.012 A 
HETATM   33  C23 UNL     1     -15.979  29.434   1.983  1.00  0.00     0.001 A 
HETATM   34  C24 UNL     1     -16.390  28.391   2.791  1.00  0.00     0.000 A 
HETATM   35  C25 UNL     1     -16.794  27.155   2.312  1.00  0.00     0.001 A 
HETATM   36  C26 UNL     1     -16.777  26.979   0.927  1.00  0.00     0.012 A 
ENDBRANCH  29  31
ENDBRANCH   7  25
TORSDOF 6
ENDMDL
