MODEL 1
REMARK VINA RESULT: -10.759711578      0.000      0.000
REMARK  7 active torsions:
REMARK  status: ('A' for Active; 'I' for Inactive)
REMARK       I    between atoms: C1_2  and  N1_3 
REMARK    1  A    between atoms: C1_2  and  C15_22 
REMARK    2  A    between atoms: N1_3  and  C2_5 
REMARK    3  A    between atoms: C5_8  and  C6_9 
REMARK    4  A    between atoms: C20_27  and  N4_28 
REMARK    5  A    between atoms: N4_28  and  C21_30 
REMARK    6  A    between atoms: C21_30  and  C22_31 
REMARK    7  A    between atoms: C22_31  and  C23_32 
ROOT
HETATM    1  O1  UNL     1     -14.623  25.600  -2.979  1.00  0.00    -0.267 OA
HETATM    2  C1  UNL     1     -15.641  26.005  -3.550  1.00  0.00     0.258 C 
HETATM    3  N1  UNL     1     -16.539  26.812  -2.808  1.00  0.00    -0.323 N 
ATOM      4  H1  UNL     1     -17.389  27.142  -3.265  1.00  0.00     0.169 HD
ENDROOT
BRANCH   3   5
HETATM    5  C2  UNL     1     -16.306  27.185  -1.444  1.00  0.00     0.035 A 
HETATM    6  C3  UNL     1     -16.298  26.189  -0.457  1.00  0.00     0.030 A 
HETATM    7  C4  UNL     1     -16.120  26.540   0.848  1.00  0.00     0.017 A 
HETATM    8  C5  UNL     1     -15.943  27.853   1.245  1.00  0.00     0.008 A 
HETATM    9  C13 UNL     1     -15.956  28.796   0.255  1.00  0.00     0.017 A 
HETATM   10  C14 UNL     1     -16.137  28.496  -1.105  1.00  0.00     0.030 A 
BRANCH   8  11
HETATM   11  C6  UNL     1     -15.760  28.177   2.656  1.00  0.00     0.116 A 
HETATM   12  N2  UNL     1     -15.284  27.334   3.585  1.00  0.00    -0.340 N 
HETATM   13  C7  UNL     1     -15.239  27.928   4.797  1.00  0.00     0.060 A 
ATOM     14  H2  UNL     1     -14.995  26.373   3.401  1.00  0.00     0.167 HD
HETATM   15  C8  UNL     1     -14.843  27.515   6.049  1.00  0.00     0.032 A 
HETATM   16  C12 UNL     1     -15.714  29.217   4.603  1.00  0.00     0.060 A 
HETATM   17  C9  UNL     1     -14.919  28.383   7.114  1.00  0.00     0.002 A 
HETATM   18  C10 UNL     1     -15.388  29.673   6.956  1.00  0.00     0.002 A 
HETATM   19  C11 UNL     1     -15.777  30.060   5.694  1.00  0.00     0.032 A 
HETATM   20  N3  UNL     1     -16.015  29.314   3.288  1.00  0.00    -0.340 N 
ATOM     21  H3  UNL     1     -16.391  30.151   2.842  1.00  0.00     0.167 HD
ENDBRANCH   8  11
ENDBRANCH   3   5
BRANCH   2  22
HETATM   22  C15 UNL     1     -15.932  25.680  -4.936  1.00  0.00     0.058 A 
HETATM   23  C16 UNL     1     -17.068  26.278  -5.530  1.00  0.00     0.019 A 
HETATM   24  C17 UNL     1     -17.365  26.050  -6.835  1.00  0.00     0.001 A 
HETATM   25  C18 UNL     1     -16.570  25.236  -7.605  1.00  0.00     0.002 A 
HETATM   26  C19 UNL     1     -15.469  24.655  -7.027  1.00  0.00     0.030 A 
HETATM   27  C20 UNL     1     -15.123  24.865  -5.668  1.00  0.00     0.043 A 
BRANCH  27  28
HETATM   28  N4  UNL     1     -14.012  24.175  -5.152  1.00  0.00    -0.389 N 
ATOM     29  H4  UNL     1     -13.590  24.501  -4.283  1.00  0.00     0.159 HD
BRANCH  28  30
HETATM   30  C21 UNL     1     -13.444  23.008  -5.819  1.00  0.00     0.124 C 
BRANCH  30  31
HETATM   31  C22 UNL     1     -12.016  23.199  -6.232  1.00  0.00     0.058 C 
BRANCH  31  32
HETATM   32  C23 UNL     1     -11.195  21.997  -5.940  1.00  0.00    -0.057 A 
HETATM   33  C24 UNL     1     -11.840  20.796  -5.642  1.00  0.00     0.007 A 
HETATM   34  C25 UNL     1     -11.145  19.642  -5.354  1.00  0.00     0.001 A 
HETATM   35  C26 UNL     1      -9.776  19.684  -5.361  1.00  0.00     0.000 A 
HETATM   36  C27 UNL     1      -9.102  20.854  -5.650  1.00  0.00     0.001 A 
HETATM   37  C28 UNL     1      -9.820  22.004  -5.937  1.00  0.00     0.007 A 
ENDBRANCH  31  32
ENDBRANCH  30  31
ENDBRANCH  28  30
ENDBRANCH  27  28
ENDBRANCH   2  22
TORSDOF 7
ENDMDL
MODEL 2
REMARK VINA RESULT: -10.456352381      2.215      2.600
REMARK  7 active torsions:
REMARK  status: ('A' for Active; 'I' for Inactive)
REMARK       I    between atoms: C1_2  and  N1_3 
REMARK    1  A    between atoms: C1_2  and  C15_22 
REMARK    2  A    between atoms: N1_3  and  C2_5 
REMARK    3  A    between atoms: C5_8  and  C6_9 
REMARK    4  A    between atoms: C20_27  and  N4_28 
REMARK    5  A    between atoms: N4_28  and  C21_30 
REMARK    6  A    between atoms: C21_30  and  C22_31 
REMARK    7  A    between atoms: C22_31  and  C23_32 
ROOT
HETATM    1  O1  UNL     1     -15.304  25.728  -2.500  1.00  0.00    -0.267 OA
HETATM    2  C1  UNL     1     -16.135  26.441  -3.072  1.00  0.00     0.258 C 
HETATM    3  N1  UNL     1     -16.744  27.478  -2.323  1.00  0.00    -0.323 N 
ATOM      4  H1  UNL     1     -17.441  28.065  -2.781  1.00  0.00     0.169 HD
ENDROOT
BRANCH   3   5
HETATM    5  C2  UNL     1     -16.425  27.738  -0.950  1.00  0.00     0.035 A 
HETATM    6  C3  UNL     1     -16.551  26.704  -0.012  1.00  0.00     0.030 A 
HETATM    7  C4  UNL     1     -16.291  26.954   1.302  1.00  0.00     0.017 A 
HETATM    8  C5  UNL     1     -15.901  28.201   1.756  1.00  0.00     0.008 A 
HETATM    9  C13 UNL     1     -15.788  29.185   0.812  1.00  0.00     0.017 A 
HETATM   10  C14 UNL     1     -16.044  28.988  -0.555  1.00  0.00     0.030 A 
BRANCH   8  11
HETATM   11  C6  UNL     1     -15.637  28.419   3.174  1.00  0.00     0.116 A 
HETATM   12  N2  UNL     1     -15.420  27.450   4.075  1.00  0.00    -0.340 N 
HETATM   13  C7  UNL     1     -15.212  27.972   5.303  1.00  0.00     0.060 A 
ATOM     14  H2  UNL     1     -15.413  26.452   3.862  1.00  0.00     0.167 HD
HETATM   15  C8  UNL     1     -14.951  27.427   6.541  1.00  0.00     0.032 A 
HETATM   16  C12 UNL     1     -15.305  29.346   5.150  1.00  0.00     0.060 A 
HETATM   17  C9  UNL     1     -14.783  28.250   7.631  1.00  0.00     0.002 A 
HETATM   18  C10 UNL     1     -14.870  29.624   7.513  1.00  0.00     0.002 A 
HETATM   19  C11 UNL     1     -15.131  30.141   6.265  1.00  0.00     0.032 A 
HETATM   20  N3  UNL     1     -15.564  29.563   3.840  1.00  0.00    -0.340 N 
ATOM     21  H3  UNL     1     -15.688  30.485   3.421  1.00  0.00     0.167 HD
ENDBRANCH   8  11
ENDBRANCH   3   5
BRANCH   2  22
HETATM   22  C15 UNL     1     -16.495  26.244  -4.466  1.00  0.00     0.058 A 
HETATM   23  C16 UNL     1     -16.138  27.255  -5.389  1.00  0.00     0.019 A 
HETATM   24  C17 UNL     1     -16.405  27.106  -6.712  1.00  0.00     0.001 A 
HETATM   25  C18 UNL     1     -17.026  25.973  -7.181  1.00  0.00     0.002 A 
HETATM   26  C19 UNL     1     -17.373  24.995  -6.284  1.00  0.00     0.030 A 
HETATM   27  C20 UNL     1     -17.114  25.109  -4.894  1.00  0.00     0.043 A 
BRANCH  27  28
HETATM   28  N4  UNL     1     -17.565  24.081  -4.048  1.00  0.00    -0.389 N 
ATOM     29  H4  UNL     1     -18.263  24.298  -3.337  1.00  0.00     0.159 HD
BRANCH  28  30
HETATM   30  C21 UNL     1     -17.068  22.713  -4.154  1.00  0.00     0.124 C 
BRANCH  30  31
HETATM   31  C22 UNL     1     -15.581  22.610  -3.999  1.00  0.00     0.058 C 
BRANCH  31  32
HETATM   32  C23 UNL     1     -14.876  22.874  -5.278  1.00  0.00    -0.057 A 
HETATM   33  C24 UNL     1     -13.934  23.903  -5.329  1.00  0.00     0.007 A 
HETATM   34  C25 UNL     1     -13.247  24.211  -6.482  1.00  0.00     0.001 A 
HETATM   35  C26 UNL     1     -13.502  23.478  -7.612  1.00  0.00     0.000 A 
HETATM   36  C27 UNL     1     -14.426  22.454  -7.600  1.00  0.00     0.001 A 
HETATM   37  C28 UNL     1     -15.108  22.160  -6.430  1.00  0.00     0.007 A 
ENDBRANCH  31  32
ENDBRANCH  30  31
ENDBRANCH  28  30
ENDBRANCH  27  28
ENDBRANCH   2  22
TORSDOF 7
ENDMDL
MODEL 3
REMARK VINA RESULT: -10.428145800      2.288      2.928
REMARK  7 active torsions:
REMARK  status: ('A' for Active; 'I' for Inactive)
REMARK       I    between atoms: C1_2  and  N1_3 
REMARK    1  A    between atoms: C1_2  and  C15_22 
REMARK    2  A    between atoms: N1_3  and  C2_5 
REMARK    3  A    between atoms: C5_8  and  C6_9 
REMARK    4  A    between atoms: C20_27  and  N4_28 
REMARK    5  A    between atoms: N4_28  and  C21_30 
REMARK    6  A    between atoms: C21_30  and  C22_31 
REMARK    7  A    between atoms: C22_31  and  C23_32 
ROOT
HETATM    1  O1  UNL     1     -15.256  25.905  -2.367  1.00  0.00    -0.267 OA
HETATM    2  C1  UNL     1     -16.096  26.612  -2.932  1.00  0.00     0.258 C 
HETATM    3  N1  UNL     1     -16.789  27.569  -2.149  1.00  0.00    -0.323 N 
ATOM      4  H1  UNL     1     -17.494  28.151  -2.602  1.00  0.00     0.169 HD
ENDROOT
BRANCH   3   5
HETATM    5  C2  UNL     1     -16.543  27.756  -0.750  1.00  0.00     0.035 A 
HETATM    6  C3  UNL     1     -16.063  28.995  -0.301  1.00  0.00     0.030 A 
HETATM    7  C4  UNL     1     -15.786  29.168   1.022  1.00  0.00     0.017 A 
HETATM    8  C5  UNL     1     -15.961  28.161   1.954  1.00  0.00     0.008 A 
HETATM    9  C13 UNL     1     -16.431  26.967   1.479  1.00  0.00     0.017 A 
HETATM   10  C14 UNL     1     -16.732  26.729   0.128  1.00  0.00     0.030 A 
BRANCH   8  11
HETATM   11  C6  UNL     1     -15.647  28.395   3.359  1.00  0.00     0.116 A 
HETATM   12  N2  UNL     1     -15.221  29.560   3.870  1.00  0.00    -0.340 N 
HETATM   13  C7  UNL     1     -15.011  29.455   5.200  1.00  0.00     0.060 A 
ATOM     14  H2  UNL     1     -15.075  30.411   3.327  1.00  0.00     0.167 HD
HETATM   15  C8  UNL     1     -14.585  30.333   6.172  1.00  0.00     0.032 A 
HETATM   16  C12 UNL     1     -15.329  28.147   5.530  1.00  0.00     0.060 A 
HETATM   17  C9  UNL     1     -14.473  29.910   7.476  1.00  0.00     0.002 A 
HETATM   18  C10 UNL     1     -14.781  28.612   7.839  1.00  0.00     0.002 A 
HETATM   19  C11 UNL     1     -15.204  27.757   6.848  1.00  0.00     0.032 A 
HETATM   20  N3  UNL     1     -15.708  27.548   4.377  1.00  0.00    -0.340 N 
ATOM     21  H3  UNL     1     -16.000  26.574   4.302  1.00  0.00     0.167 HD
ENDBRANCH   8  11
ENDBRANCH   3   5
BRANCH   2  22
HETATM   22  C15 UNL     1     -16.385  26.488  -4.350  1.00  0.00     0.058 A 
HETATM   23  C16 UNL     1     -15.959  27.532  -5.204  1.00  0.00     0.019 A 
HETATM   24  C17 UNL     1     -16.158  27.450  -6.545  1.00  0.00     0.001 A 
HETATM   25  C18 UNL     1     -16.775  26.354  -7.099  1.00  0.00     0.002 A 
HETATM   26  C19 UNL     1     -17.189  25.344  -6.268  1.00  0.00     0.030 A 
HETATM   27  C20 UNL     1     -17.003  25.388  -4.864  1.00  0.00     0.043 A 
BRANCH  27  28
HETATM   28  N4  UNL     1     -17.519  24.333  -4.092  1.00  0.00    -0.389 N 
ATOM     29  H4  UNL     1     -18.260  24.530  -3.420  1.00  0.00     0.159 HD
BRANCH  28  30
HETATM   30  C21 UNL     1     -17.030  22.964  -4.221  1.00  0.00     0.124 C 
BRANCH  30  31
HETATM   31  C22 UNL     1     -15.548  22.844  -4.027  1.00  0.00     0.058 C 
BRANCH  31  32
HETATM   32  C23 UNL     1     -14.805  23.133  -5.279  1.00  0.00    -0.057 A 
HETATM   33  C24 UNL     1     -13.839  24.140  -5.273  1.00  0.00     0.007 A 
HETATM   34  C25 UNL     1     -13.116  24.469  -6.398  1.00  0.00     0.001 A 
HETATM   35  C26 UNL     1     -13.360  23.780  -7.557  1.00  0.00     0.000 A 
HETATM   36  C27 UNL     1     -14.308  22.779  -7.602  1.00  0.00     0.001 A 
HETATM   37  C28 UNL     1     -15.026  22.463  -6.460  1.00  0.00     0.007 A 
ENDBRANCH  31  32
ENDBRANCH  30  31
ENDBRANCH  28  30
ENDBRANCH  27  28
ENDBRANCH   2  22
TORSDOF 7
ENDMDL
MODEL 4
REMARK VINA RESULT: -10.085894897      1.725      2.519
REMARK  7 active torsions:
REMARK  status: ('A' for Active; 'I' for Inactive)
REMARK       I    between atoms: C1_2  and  N1_3 
REMARK    1  A    between atoms: C1_2  and  C15_22 
REMARK    2  A    between atoms: N1_3  and  C2_5 
REMARK    3  A    between atoms: C5_8  and  C6_9 
REMARK    4  A    between atoms: C20_27  and  N4_28 
REMARK    5  A    between atoms: N4_28  and  C21_30 
REMARK    6  A    between atoms: C21_30  and  C22_31 
REMARK    7  A    between atoms: C22_31  and  C23_32 
ROOT
HETATM    1  O1  UNL     1     -14.842  25.656  -2.695  1.00  0.00    -0.267 OA
HETATM    2  C1  UNL     1     -15.776  26.219  -3.276  1.00  0.00     0.258 C 
HETATM    3  N1  UNL     1     -16.556  27.140  -2.534  1.00  0.00    -0.323 N 
ATOM      4  H1  UNL     1     -17.338  27.601  -2.999  1.00  0.00     0.169 HD
ENDROOT
BRANCH   3   5
HETATM    5  C2  UNL     1     -16.297  27.451  -1.159  1.00  0.00     0.035 A 
HETATM    6  C3  UNL     1     -16.388  26.432  -0.200  1.00  0.00     0.030 A 
HETATM    7  C4  UNL     1     -16.184  26.728   1.115  1.00  0.00     0.017 A 
HETATM    8  C5  UNL     1     -15.888  28.008   1.549  1.00  0.00     0.008 A 
HETATM    9  C13 UNL     1     -15.807  28.974   0.585  1.00  0.00     0.017 A 
HETATM   10  C14 UNL     1     -16.008  28.730  -0.783  1.00  0.00     0.030 A 
BRANCH   8  11
HETATM   11  C6  UNL     1     -15.682  28.274   2.968  1.00  0.00     0.116 A 
HETATM   12  N2  UNL     1     -15.283  27.367   3.873  1.00  0.00    -0.340 N 
HETATM   13  C7  UNL     1     -15.191  27.920   5.101  1.00  0.00     0.060 A 
ATOM     14  H2  UNL     1     -15.076  26.391   3.661  1.00  0.00     0.167 HD
HETATM   15  C8  UNL     1     -14.836  27.438   6.342  1.00  0.00     0.032 A 
HETATM   16  C12 UNL     1     -15.555  29.249   4.945  1.00  0.00     0.060 A 
HETATM   17  C9  UNL     1     -14.842  28.278   7.431  1.00  0.00     0.002 A 
HETATM   18  C10 UNL     1     -15.199  29.608   7.311  1.00  0.00     0.002 A 
HETATM   19  C11 UNL     1     -15.550  30.062   6.060  1.00  0.00     0.032 A 
HETATM   20  N3  UNL     1     -15.842  29.409   3.633  1.00  0.00    -0.340 N 
ATOM     21  H3  UNL     1     -16.144  30.288   3.212  1.00  0.00     0.167 HD
ENDBRANCH   8  11
ENDBRANCH   3   5
BRANCH   2  22
HETATM   22  C15 UNL     1     -16.086  25.963  -4.672  1.00  0.00     0.058 A 
HETATM   23  C16 UNL     1     -17.445  25.983  -5.061  1.00  0.00     0.019 A 
HETATM   24  C17 UNL     1     -17.794  25.798  -6.360  1.00  0.00     0.001 A 
HETATM   25  C18 UNL     1     -16.836  25.590  -7.323  1.00  0.00     0.002 A 
HETATM   26  C19 UNL     1     -15.517  25.570  -6.943  1.00  0.00     0.030 A 
HETATM   27  C20 UNL     1     -15.109  25.757  -5.598  1.00  0.00     0.043 A 
BRANCH  27  28
HETATM   28  N4  UNL     1     -13.739  25.655  -5.301  1.00  0.00    -0.389 N 
ATOM     29  H4  UNL     1     -13.337  26.285  -4.606  1.00  0.00     0.159 HD
BRANCH  28  30
HETATM   30  C21 UNL     1     -12.872  24.680  -5.953  1.00  0.00     0.124 C 
BRANCH  30  31
HETATM   31  C22 UNL     1     -13.086  23.278  -5.467  1.00  0.00     0.058 C 
BRANCH  31  32
HETATM   32  C23 UNL     1     -14.334  22.691  -6.015  1.00  0.00    -0.057 A 
HETATM   33  C24 UNL     1     -14.420  22.450  -7.387  1.00  0.00     0.007 A 
HETATM   34  C25 UNL     1     -15.548  21.915  -7.968  1.00  0.00     0.001 A 
HETATM   35  C26 UNL     1     -16.617  21.613  -7.165  1.00  0.00     0.000 A 
HETATM   36  C27 UNL     1     -16.570  21.838  -5.805  1.00  0.00     0.001 A 
HETATM   37  C28 UNL     1     -15.426  22.377  -5.239  1.00  0.00     0.007 A 
ENDBRANCH  31  32
ENDBRANCH  30  31
ENDBRANCH  28  30
ENDBRANCH  27  28
ENDBRANCH   2  22
TORSDOF 7
ENDMDL
MODEL 5
REMARK VINA RESULT: -9.925885331      2.915      9.862
REMARK  7 active torsions:
REMARK  status: ('A' for Active; 'I' for Inactive)
REMARK       I    between atoms: C1_2  and  N1_3 
REMARK    1  A    between atoms: C1_2  and  C15_22 
REMARK    2  A    between atoms: N1_3  and  C2_5 
REMARK    3  A    between atoms: C5_8  and  C6_9 
REMARK    4  A    between atoms: C20_27  and  N4_28 
REMARK    5  A    between atoms: N4_28  and  C21_30 
REMARK    6  A    between atoms: C21_30  and  C22_31 
REMARK    7  A    between atoms: C22_31  and  C23_32 
ROOT
HETATM    1  O1  UNL     1     -14.509  25.316  -0.548  1.00  0.00    -0.267 OA
HETATM    2  C1  UNL     1     -15.394  26.002  -1.069  1.00  0.00     0.258 C 
HETATM    3  N1  UNL     1     -15.581  25.889  -2.469  1.00  0.00    -0.323 N 
ATOM      4  H1  UNL     1     -16.301  26.460  -2.913  1.00  0.00     0.169 HD
ENDROOT
BRANCH   3   5
HETATM    5  C2  UNL     1     -14.803  25.009  -3.290  1.00  0.00     0.035 A 
HETATM    6  C3  UNL     1     -13.512  25.398  -3.674  1.00  0.00     0.030 A 
HETATM    7  C4  UNL     1     -12.781  24.586  -4.490  1.00  0.00     0.017 A 
HETATM    8  C5  UNL     1     -13.265  23.379  -4.960  1.00  0.00     0.008 A 
HETATM    9  C13 UNL     1     -14.527  23.033  -4.564  1.00  0.00     0.017 A 
HETATM   10  C14 UNL     1     -15.328  23.828  -3.728  1.00  0.00     0.030 A 
BRANCH   8  11
HETATM   11  C6  UNL     1     -12.445  22.547  -5.834  1.00  0.00     0.116 A 
HETATM   12  N2  UNL     1     -12.344  21.211  -5.755  1.00  0.00    -0.340 N 
HETATM   13  C7  UNL     1     -11.503  20.735  -6.698  1.00  0.00     0.060 A 
ATOM     14  H2  UNL     1     -12.836  20.633  -5.074  1.00  0.00     0.167 HD
HETATM   15  C8  UNL     1     -11.064  19.475  -7.038  1.00  0.00     0.032 A 
HETATM   16  C12 UNL     1     -11.059  21.844  -7.403  1.00  0.00     0.060 A 
HETATM   17  C9  UNL     1     -10.181  19.314  -8.081  1.00  0.00     0.002 A 
HETATM   18  C10 UNL     1      -9.719  20.398  -8.804  1.00  0.00     0.002 A 
HETATM   19  C11 UNL     1     -10.173  21.645  -8.442  1.00  0.00     0.032 A 
HETATM   20  N3  UNL     1     -11.661  22.916  -6.837  1.00  0.00    -0.340 N 
ATOM     21  H3  UNL     1     -11.528  23.880  -7.143  1.00  0.00     0.167 HD
ENDBRANCH   8  11
ENDBRANCH   3   5
BRANCH   2  22
HETATM   22  C15 UNL     1     -16.232  26.903  -0.296  1.00  0.00     0.058 A 
HETATM   23  C16 UNL     1     -16.783  26.418   0.913  1.00  0.00     0.019 A 
HETATM   24  C17 UNL     1     -17.534  27.228   1.702  1.00  0.00     0.001 A 
HETATM   25  C18 UNL     1     -17.774  28.533   1.345  1.00  0.00     0.002 A 
HETATM   26  C19 UNL     1     -17.240  29.001   0.170  1.00  0.00     0.030 A 
HETATM   27  C20 UNL     1     -16.451  28.190  -0.684  1.00  0.00     0.043 A 
BRANCH  27  28
HETATM   28  N4  UNL     1     -16.003  28.743  -1.896  1.00  0.00    -0.389 N 
ATOM     29  H4  UNL     1     -15.120  29.253  -1.908  1.00  0.00     0.159 HD
BRANCH  28  30
HETATM   30  C21 UNL     1     -16.759  28.612  -3.137  1.00  0.00     0.124 C 
BRANCH  30  31
HETATM   31  C22 UNL     1     -15.931  28.850  -4.364  1.00  0.00     0.058 C 
BRANCH  31  32
HETATM   32  C23 UNL     1     -15.962  27.684  -5.281  1.00  0.00    -0.057 A 
HETATM   33  C24 UNL     1     -14.836  27.405  -6.056  1.00  0.00     0.007 A 
HETATM   34  C25 UNL     1     -14.794  26.344  -6.934  1.00  0.00     0.001 A 
HETATM   35  C26 UNL     1     -15.899  25.542  -7.044  1.00  0.00     0.000 A 
HETATM   36  C27 UNL     1     -17.032  25.787  -6.295  1.00  0.00     0.001 A 
HETATM   37  C28 UNL     1     -17.054  26.859  -5.417  1.00  0.00     0.007 A 
ENDBRANCH  31  32
ENDBRANCH  30  31
ENDBRANCH  28  30
ENDBRANCH  27  28
ENDBRANCH   2  22
TORSDOF 7
ENDMDL
