MODEL 1
REMARK VINA RESULT: -6.830064574      0.000      0.000
REMARK  4 active torsions:
REMARK  status: ('A' for Active; 'I' for Inactive)
REMARK    1  A    between atoms: C3_3  and  C4_4 
REMARK    2  A    between atoms: C4_4  and  S1_5 
REMARK    3  A    between atoms: S1_5  and  C5_6 
REMARK    4  A    between atoms: C8_10  and  C9_11 
ROOT
HETATM    1  C5  UNL     1      -1.827 -17.989  15.605  1.00  0.00     0.001 C 
HETATM    2  C6  UNL     1      -0.626 -17.398  15.643  1.00  0.00     0.050 C 
HETATM    3  C7  UNL     1       0.203 -17.710  16.819  1.00  0.00     0.097 C 
HETATM    4  N1  UNL     1       0.874 -17.943  17.739  1.00  0.00    -0.192 NA
HETATM    5  C8  UNL     1       0.010 -16.463  14.755  1.00  0.00     0.116 C 
HETATM    6  C13 UNL     1      -0.382 -16.381  13.336  1.00  0.00     0.059 C 
HETATM    7  C14 UNL     1       0.355 -17.259  12.457  1.00  0.00     0.098 C 
HETATM    8  N2  UNL     1       0.937 -17.967  11.721  1.00  0.00    -0.192 NA
HETATM    9  C15 UNL     1      -1.837 -16.339  13.078  1.00  0.00     0.029 C 
HETATM   10  N3  UNL     1      -2.095 -15.765  11.939  1.00  0.00    -0.401 N 
ATOM     11  H31 UNL     1      -3.099 -15.736  11.761  1.00  0.00     0.156 HD
ATOM     12  H32 UNL     1      -1.254 -15.464  11.448  1.00  0.00     0.156 HD
HETATM   13  C16 UNL     1      -3.033 -16.768  13.775  1.00  0.00     0.007 C 
HETATM   14  C17 UNL     1      -3.954 -15.664  14.246  1.00  0.00     0.022 C 
HETATM   15  C18 UNL     1      -3.816 -17.698  12.830  1.00  0.00     0.017 C 
HETATM   16  C19 UNL     1      -2.979 -18.816  13.482  1.00  0.00     0.012 C 
HETATM   17  C20 UNL     1      -2.933 -17.951  14.678  1.00  0.00     0.041 C 
ENDROOT
BRANCH   1  18
HETATM   18  S1  UNL     1      -2.054 -19.002  17.045  1.00  0.00    -0.129 SA
BRANCH  18  19
HETATM   19  C4  UNL     1      -3.191 -18.462  18.272  1.00  0.00     0.106 C 
BRANCH  19  20
HETATM   20  C3  UNL     1      -3.008 -17.021  18.583  1.00  0.00    -0.021 C 
HETATM   21  C2  UNL     1      -4.024 -16.176  18.244  1.00  0.00    -0.034 C 
HETATM   22  C1  UNL     1      -5.249 -16.659  17.599  1.00  0.00     0.036 C 
ENDBRANCH  19  20
ENDBRANCH  18  19
ENDBRANCH   1  18
BRANCH   5  23
HETATM   23  C9  UNL     1       1.500 -16.751  14.791  1.00  0.00    -0.003 A 
HETATM   24  C10 UNL     1       2.117 -17.976  14.740  1.00  0.00     0.016 A 
HETATM   25  C11 UNL     1       3.469 -17.978  14.782  1.00  0.00     0.008 A 
HETATM   26  C12 UNL     1       4.095 -16.764  14.871  1.00  0.00     0.050 A 
HETATM   27  S2  UNL     1       2.798 -15.663  14.893  1.00  0.00    -0.105 SA
ENDBRANCH   5  23
TORSDOF 4
ENDMDL
MODEL 2
REMARK VINA RESULT: -6.649147533      6.033      8.352
REMARK  4 active torsions:
REMARK  status: ('A' for Active; 'I' for Inactive)
REMARK    1  A    between atoms: C3_3  and  C4_4 
REMARK    2  A    between atoms: C4_4  and  S1_5 
REMARK    3  A    between atoms: S1_5  and  C5_6 
REMARK    4  A    between atoms: C8_10  and  C9_11 
ROOT
HETATM    1  C5  UNL     1       3.124 -10.587  12.942  1.00  0.00     0.001 C 
HETATM    2  C6  UNL     1       3.205 -11.788  13.529  1.00  0.00     0.050 C 
HETATM    3  C7  UNL     1       2.168 -12.080  14.532  1.00  0.00     0.097 C 
HETATM    4  N1  UNL     1       1.359 -12.332  15.328  1.00  0.00    -0.192 NA
HETATM    5  C8  UNL     1       4.155 -12.859  13.392  1.00  0.00     0.116 C 
HETATM    6  C13 UNL     1       4.954 -13.009  12.162  1.00  0.00     0.059 C 
HETATM    7  C14 UNL     1       4.339 -13.825  11.141  1.00  0.00     0.098 C 
HETATM    8  N2  UNL     1       3.858 -14.481  10.292  1.00  0.00    -0.192 NA
HETATM    9  C15 UNL     1       5.585 -11.771  11.657  1.00  0.00     0.029 C 
HETATM   10  N3  UNL     1       6.636 -12.040  10.938  1.00  0.00    -0.401 N 
ATOM     11  H31 UNL     1       7.071 -11.186  10.589  1.00  0.00     0.156 HD
ATOM     12  H32 UNL     1       6.815 -13.040  10.858  1.00  0.00     0.156 HD
HETATM   13  C16 UNL     1       5.330 -10.349  11.769  1.00  0.00     0.007 C 
HETATM   14  C17 UNL     1       6.369  -9.550  12.524  1.00  0.00     0.022 C 
HETATM   15  C18 UNL     1       5.206  -9.782  10.343  1.00  0.00     0.017 C 
HETATM   16  C19 UNL     1       3.709 -10.112  10.504  1.00  0.00     0.012 C 
HETATM   17  C20 UNL     1       3.918  -9.902  11.951  1.00  0.00     0.041 C 
ENDROOT
BRANCH   1  18
HETATM   18  S1  UNL     1       1.740  -9.685  13.589  1.00  0.00    -0.129 SA
BRANCH  18  19
HETATM   19  C4  UNL     1       0.181  -9.868  12.795  1.00  0.00     0.106 C 
BRANCH  19  20
HETATM   20  C3  UNL     1      -0.357  -8.557  12.352  1.00  0.00    -0.021 C 
HETATM   21  C2  UNL     1      -1.349  -8.002  13.107  1.00  0.00    -0.034 C 
HETATM   22  C1  UNL     1      -1.869  -8.665  14.308  1.00  0.00     0.036 C 
ENDBRANCH  19  20
ENDBRANCH  18  19
ENDBRANCH   1  18
BRANCH   5  23
HETATM   23  C9  UNL     1       3.398 -14.160  13.594  1.00  0.00    -0.003 A 
HETATM   24  C10 UNL     1       2.177 -14.507  13.073  1.00  0.00     0.016 A 
HETATM   25  C11 UNL     1       1.707 -15.734  13.393  1.00  0.00     0.008 A 
HETATM   26  C12 UNL     1       2.488 -16.513  14.205  1.00  0.00     0.050 A 
HETATM   27  S2  UNL     1       3.843 -15.527  14.497  1.00  0.00    -0.105 SA
ENDBRANCH   5  23
TORSDOF 4
ENDMDL
MODEL 3
REMARK VINA RESULT: -6.621833961      1.893      3.878
REMARK  4 active torsions:
REMARK  status: ('A' for Active; 'I' for Inactive)
REMARK    1  A    between atoms: C3_3  and  C4_4 
REMARK    2  A    between atoms: C4_4  and  S1_5 
REMARK    3  A    between atoms: S1_5  and  C5_6 
REMARK    4  A    between atoms: C8_10  and  C9_11 
ROOT
HETATM    1  C5  UNL     1      -2.517 -18.024  15.398  1.00  0.00     0.001 C 
HETATM    2  C6  UNL     1      -1.372 -17.860  14.722  1.00  0.00     0.050 C 
HETATM    3  C7  UNL     1      -1.331 -16.707  13.807  1.00  0.00     0.097 C 
HETATM    4  N1  UNL     1      -1.275 -15.803  13.079  1.00  0.00    -0.192 NA
HETATM    5  C8  UNL     1      -0.162 -18.634  14.686  1.00  0.00     0.116 C 
HETATM    6  C13 UNL     1       0.215 -19.502  15.817  1.00  0.00     0.059 C 
HETATM    7  C14 UNL     1       1.013 -18.855  16.832  1.00  0.00     0.098 C 
HETATM    8  N2  UNL     1       1.659 -18.350  17.675  1.00  0.00    -0.192 NA
HETATM    9  C15 UNL     1      -0.863 -20.365  16.345  1.00  0.00     0.029 C 
HETATM   10  N3  UNL     1      -0.376 -21.417  16.935  1.00  0.00    -0.401 N 
ATOM     11  H31 UNL     1      -1.119 -22.012  17.300  1.00  0.00     0.156 HD
ATOM     12  H32 UNL     1       0.643 -21.440  16.924  1.00  0.00     0.156 HD
HETATM   13  C16 UNL     1      -2.312 -20.332  16.362  1.00  0.00     0.007 C 
HETATM   14  C17 UNL     1      -3.006 -21.417  15.567  1.00  0.00     0.022 C 
HETATM   15  C18 UNL     1      -2.765 -20.425  17.830  1.00  0.00     0.017 C 
HETATM   16  C19 UNL     1      -2.683 -18.886  17.795  1.00  0.00     0.012 C 
HETATM   17  C20 UNL     1      -2.984 -19.000  16.354  1.00  0.00     0.041 C 
ENDROOT
BRANCH   1  18
HETATM   18  S1  UNL     1      -3.673 -16.751  14.959  1.00  0.00    -0.129 SA
BRANCH  18  19
HETATM   19  C4  UNL     1      -4.224 -15.655  16.218  1.00  0.00     0.106 C 
BRANCH  19  20
HETATM   20  C3  UNL     1      -5.429 -16.184  16.906  1.00  0.00    -0.021 C 
HETATM   21  C2  UNL     1      -5.400 -16.231  18.269  1.00  0.00    -0.034 C 
HETATM   22  C1  UNL     1      -4.232 -15.779  19.033  1.00  0.00     0.036 C 
ENDBRANCH  19  20
ENDBRANCH  18  19
ENDBRANCH   1  18
BRANCH   5  23
HETATM   23  C9  UNL     1       0.986 -17.664  14.467  1.00  0.00    -0.003 A 
HETATM   24  C10 UNL     1       2.069 -17.823  13.639  1.00  0.00     0.016 A 
HETATM   25  C11 UNL     1       2.964 -16.810  13.609  1.00  0.00     0.008 A 
HETATM   26  C12 UNL     1       2.709 -15.724  14.403  1.00  0.00     0.050 A 
HETATM   27  S2  UNL     1       1.245 -16.138  15.163  1.00  0.00    -0.105 SA
ENDBRANCH   5  23
TORSDOF 4
ENDMDL
MODEL 4
REMARK VINA RESULT: -6.446716957      4.213      7.740
REMARK  4 active torsions:
REMARK  status: ('A' for Active; 'I' for Inactive)
REMARK    1  A    between atoms: C3_3  and  C4_4 
REMARK    2  A    between atoms: C4_4  and  S1_5 
REMARK    3  A    between atoms: S1_5  and  C5_6 
REMARK    4  A    between atoms: C8_10  and  C9_11 
ROOT
HETATM    1  C5  UNL     1       3.369 -13.464  13.068  1.00  0.00     0.001 C 
HETATM    2  C6  UNL     1       2.972 -14.282  14.052  1.00  0.00     0.050 C 
HETATM    3  C7  UNL     1       1.991 -13.718  14.994  1.00  0.00     0.097 C 
HETATM    4  N1  UNL     1       1.216 -13.293  15.750  1.00  0.00    -0.192 NA
HETATM    5  C8  UNL     1       3.358 -15.622  14.397  1.00  0.00     0.116 C 
HETATM    6  C13 UNL     1       3.918 -16.534  13.382  1.00  0.00     0.059 C 
HETATM    7  C14 UNL     1       2.935 -17.319  12.671  1.00  0.00     0.098 C 
HETATM    8  N2  UNL     1       2.156 -17.966  12.075  1.00  0.00    -0.192 NA
HETATM    9  C15 UNL     1       4.977 -15.960  12.526  1.00  0.00     0.029 C 
HETATM   10  N3  UNL     1       5.752 -16.891  12.051  1.00  0.00    -0.401 N 
ATOM     11  H31 UNL     1       6.484 -16.495  11.460  1.00  0.00     0.156 HD
ATOM     12  H32 UNL     1       5.480 -17.825  12.353  1.00  0.00     0.156 HD
HETATM   13  C16 UNL     1       5.365 -14.632  12.095  1.00  0.00     0.007 C 
HETATM   14  C17 UNL     1       6.702 -14.138  12.604  1.00  0.00     0.022 C 
HETATM   15  C18 UNL     1       5.387 -14.627  10.556  1.00  0.00     0.017 C 
HETATM   16  C19 UNL     1       3.911 -14.204  10.686  1.00  0.00     0.012 C 
HETATM   17  C20 UNL     1       4.300 -13.594  11.973  1.00  0.00     0.041 C 
ENDROOT
BRANCH   1  18
HETATM   18  S1  UNL     1       2.559 -11.892  13.217  1.00  0.00    -0.129 SA
BRANCH  18  19
HETATM   19  C4  UNL     1       3.527 -10.435  13.038  1.00  0.00     0.106 C 
BRANCH  19  20
HETATM   20  C3  UNL     1       3.549  -9.971  11.628  1.00  0.00    -0.021 C 
HETATM   21  C2  UNL     1       4.756  -9.970  10.990  1.00  0.00    -0.034 C 
HETATM   22  C1  UNL     1       5.985 -10.407  11.661  1.00  0.00     0.036 C 
ENDBRANCH  19  20
ENDBRANCH  18  19
ENDBRANCH   1  18
BRANCH   5  23
HETATM   23  C9  UNL     1       2.135 -16.305  14.983  1.00  0.00    -0.003 A 
HETATM   24  C10 UNL     1       2.077 -17.110  16.093  1.00  0.00     0.016 A 
HETATM   25  C11 UNL     1       0.862 -17.603  16.424  1.00  0.00     0.008 A 
HETATM   26  C12 UNL     1      -0.194 -17.255  15.626  1.00  0.00     0.050 A 
HETATM   27  S2  UNL     1       0.525 -16.261  14.447  1.00  0.00    -0.105 SA
ENDBRANCH   5  23
TORSDOF 4
ENDMDL
MODEL 5
REMARK VINA RESULT: -6.390048366      4.528      6.573
REMARK  4 active torsions:
REMARK  status: ('A' for Active; 'I' for Inactive)
REMARK    1  A    between atoms: C3_3  and  C4_4 
REMARK    2  A    between atoms: C4_4  and  S1_5 
REMARK    3  A    between atoms: S1_5  and  C5_6 
REMARK    4  A    between atoms: C8_10  and  C9_11 
ROOT
HETATM    1  C5  UNL     1       2.107 -13.578  14.262  1.00  0.00     0.001 C 
HETATM    2  C6  UNL     1       2.862 -13.474  13.160  1.00  0.00     0.050 C 
HETATM    3  C7  UNL     1       3.427 -12.141  12.897  1.00  0.00     0.097 C 
HETATM    4  N1  UNL     1       3.884 -11.096  12.670  1.00  0.00    -0.192 NA
HETATM    5  C8  UNL     1       3.202 -14.427  12.139  1.00  0.00     0.116 C 
HETATM    6  C13 UNL     1       3.176 -15.875  12.416  1.00  0.00     0.059 C 
HETATM    7  C14 UNL     1       4.419 -16.415  12.915  1.00  0.00     0.098 C 
HETATM    8  N2  UNL     1       5.418 -16.879  13.327  1.00  0.00    -0.192 NA
HETATM    9  C15 UNL     1       1.971 -16.368  13.117  1.00  0.00     0.029 C 
HETATM   10  N3  UNL     1       1.768 -17.629  12.871  1.00  0.00    -0.401 N 
ATOM     11  H31 UNL     1       0.937 -17.969  13.354  1.00  0.00     0.156 HD
ATOM     12  H32 UNL     1       2.474 -18.031  12.255  1.00  0.00     0.156 HD
HETATM   13  C16 UNL     1       0.968 -15.798  13.993  1.00  0.00     0.007 C 
HETATM   14  C17 UNL     1      -0.436 -15.728  13.432  1.00  0.00     0.022 C 
HETATM   15  C18 UNL     1       0.945 -16.635  15.285  1.00  0.00     0.017 C 
HETATM   16  C19 UNL     1       2.009 -15.632  15.774  1.00  0.00     0.012 C 
HETATM   17  C20 UNL     1       1.367 -14.658  14.869  1.00  0.00     0.041 C 
ENDROOT
BRANCH   1  18
HETATM   18  S1  UNL     1       2.017 -12.011  15.090  1.00  0.00    -0.129 SA
BRANCH  18  19
HETATM   19  C4  UNL     1       0.740 -10.895  14.626  1.00  0.00     0.106 C 
BRANCH  19  20
HETATM   20  C3  UNL     1       1.239  -9.498  14.566  1.00  0.00    -0.021 C 
HETATM   21  C2  UNL     1       1.046  -8.815  13.401  1.00  0.00    -0.034 C 
HETATM   22  C1  UNL     1       0.374  -9.426  12.250  1.00  0.00     0.036 C 
ENDBRANCH  19  20
ENDBRANCH  18  19
ENDBRANCH   1  18
BRANCH   5  23
HETATM   23  C9  UNL     1       4.604 -14.090  11.660  1.00  0.00    -0.003 A 
HETATM   24  C10 UNL     1       5.047 -14.007  10.364  1.00  0.00     0.016 A 
HETATM   25  C11 UNL     1       6.348 -13.684  10.186  1.00  0.00     0.008 A 
HETATM   26  C12 UNL     1       7.100 -13.470  11.310  1.00  0.00     0.050 A 
HETATM   27  S2  UNL     1       5.987 -13.723  12.572  1.00  0.00    -0.105 SA
ENDBRANCH   5  23
TORSDOF 4
ENDMDL
