MODEL 1
REMARK VINA RESULT: -7.707814073      0.000      0.000
REMARK  6 active torsions:
REMARK  status: ('A' for Active; 'I' for Inactive)
REMARK    1  A    between atoms: O1_2  and  C2_3 
REMARK    2  A    between atoms: C2_3  and  C3_5 
REMARK    3  A    between atoms: C3_5  and  C4_6 
REMARK    4  A    between atoms: C4_6  and  C5_7 
REMARK    5  A    between atoms: C12_15  and  C13_16 
REMARK    6  A    between atoms: C16_20  and  O4_21 
ROOT
HETATM    1  C5  UNL     1      -2.517 -17.568  15.836  1.00  0.00    -0.023 C 
HETATM    2  C6  UNL     1      -1.150 -16.816  15.688  1.00  0.00     0.017 C 
HETATM    3  C7  UNL     1      -2.039 -18.975  15.343  1.00  0.00     0.057 C 
HETATM    4  C8  UNL     1      -3.030 -20.044  15.486  1.00  0.00     0.031 C 
HETATM    5  C9  UNL     1      -2.652 -20.104  16.989  1.00  0.00     0.053 C 
HETATM    6  S1  UNL     1      -0.970 -19.750  16.532  1.00  0.00    -0.158 SA
HETATM    7  C10 UNL     1      -3.419 -19.007  17.614  1.00  0.00     0.009 C 
HETATM    8  C11 UNL     1      -3.605 -19.184  19.092  1.00  0.00     0.016 C 
HETATM    9  C12 UNL     1      -4.409 -18.037  19.653  1.00  0.00     0.024 C 
HETATM   10  C17 UNL     1      -5.164 -17.403  18.552  1.00  0.00     0.010 C 
HETATM   11  C18 UNL     1      -4.283 -16.795  17.490  1.00  0.00     0.011 C 
HETATM   12  C19 UNL     1      -3.007 -17.592  17.212  1.00  0.00    -0.031 C 
HETATM   13  C20 UNL     1      -1.982 -17.055  18.211  1.00  0.00     0.016 C 
ENDROOT
BRANCH   1  14
HETATM   14  C4  UNL     1      -3.412 -17.123  14.728  1.00  0.00     0.021 C 
BRANCH  14  15
HETATM   15  C3  UNL     1      -2.908 -17.371  13.331  1.00  0.00     0.112 C 
BRANCH  15  16
HETATM   16  C2  UNL     1      -2.993 -16.106  12.514  1.00  0.00     0.258 C 
HETATM   17  O2  UNL     1      -4.050 -15.437  12.628  1.00  0.00    -0.265 OA
BRANCH  16  18
HETATM   18  O1  UNL     1      -2.006 -15.666  11.679  1.00  0.00    -0.326 OA
HETATM   19  C1  UNL     1      -0.957 -16.512  11.196  1.00  0.00     0.213 C 
ENDBRANCH  16  18
ENDBRANCH  15  16
ENDBRANCH  14  15
ENDBRANCH   1  14
BRANCH   9  20
HETATM   20  C13 UNL     1      -5.282 -18.549  20.742  1.00  0.00     0.006 A 
HETATM   21  C14 UNL     1      -6.643 -18.479  20.815  1.00  0.00     0.037 A 
HETATM   22  C15 UNL     1      -7.029 -19.095  22.002  1.00  0.00     0.145 A 
HETATM   23  O3  UNL     1      -5.952 -19.501  22.587  1.00  0.00    -0.300 OA
HETATM   24  C16 UNL     1      -4.883 -19.204  21.885  1.00  0.00     0.189 A 
BRANCH  24  25
HETATM   25  O4  UNL     1      -3.615 -19.518  22.272  1.00  0.00    -0.340 OA
ATOM     26  H4  UNL     1      -3.178 -19.292  23.085  1.00  0.00     0.220 HD
ENDBRANCH  24  25
ENDBRANCH   9  20
TORSDOF 6
ENDMDL
MODEL 2
REMARK VINA RESULT: -7.513453292      2.330      2.953
REMARK  6 active torsions:
REMARK  status: ('A' for Active; 'I' for Inactive)
REMARK    1  A    between atoms: O1_2  and  C2_3 
REMARK    2  A    between atoms: C2_3  and  C3_5 
REMARK    3  A    between atoms: C3_5  and  C4_6 
REMARK    4  A    between atoms: C4_6  and  C5_7 
REMARK    5  A    between atoms: C12_15  and  C13_16 
REMARK    6  A    between atoms: C16_20  and  O4_21 
ROOT
HETATM    1  C5  UNL     1      -0.887 -19.108  14.746  1.00  0.00    -0.023 C 
HETATM    2  C6  UNL     1       0.671 -19.268  14.768  1.00  0.00     0.017 C 
HETATM    3  C7  UNL     1      -1.258 -20.621  14.910  1.00  0.00     0.057 C 
HETATM    4  C8  UNL     1      -2.686 -20.885  15.100  1.00  0.00     0.031 C 
HETATM    5  C9  UNL     1      -2.503 -20.454  16.578  1.00  0.00     0.053 C 
HETATM    6  S1  UNL     1      -0.890 -21.204  16.548  1.00  0.00    -0.158 SA
HETATM    7  C10 UNL     1      -2.554 -18.979  16.549  1.00  0.00     0.009 C 
HETATM    8  C11 UNL     1      -2.899 -18.373  17.877  1.00  0.00     0.016 C 
HETATM    9  C12 UNL     1      -2.948 -16.870  17.764  1.00  0.00     0.024 C 
HETATM   10  C17 UNL     1      -3.143 -16.507  16.344  1.00  0.00     0.010 C 
HETATM   11  C18 UNL     1      -2.008 -16.941  15.451  1.00  0.00     0.011 C 
HETATM   12  C19 UNL     1      -1.391 -18.284  15.842  1.00  0.00    -0.031 C 
HETATM   13  C20 UNL     1      -0.307 -17.938  16.862  1.00  0.00     0.016 C 
ENDROOT
BRANCH   1  14
HETATM   14  C4  UNL     1      -1.303 -18.824  13.341  1.00  0.00     0.021 C 
BRANCH  14  15
HETATM   15  C3  UNL     1      -0.238 -18.262  12.438  1.00  0.00     0.112 C 
BRANCH  15  16
HETATM   16  C2  UNL     1      -0.459 -16.784  12.228  1.00  0.00     0.258 C 
HETATM   17  O2  UNL     1       0.336 -16.011  12.819  1.00  0.00    -0.265 OA
BRANCH  16  18
HETATM   18  O1  UNL     1      -1.452 -16.261  11.450  1.00  0.00    -0.326 OA
HETATM   19  C1  UNL     1      -2.548 -15.510  11.983  1.00  0.00     0.213 C 
ENDBRANCH  16  18
ENDBRANCH  15  16
ENDBRANCH  14  15
ENDBRANCH   1  14
BRANCH   9  20
HETATM   20  C13 UNL     1      -4.025 -16.354  18.651  1.00  0.00     0.006 A 
HETATM   21  C14 UNL     1      -5.368 -16.549  18.523  1.00  0.00     0.037 A 
HETATM   22  C15 UNL     1      -5.988 -15.894  19.584  1.00  0.00     0.145 A 
HETATM   23  O3  UNL     1      -5.055 -15.349  20.291  1.00  0.00    -0.300 OA
HETATM   24  C16 UNL     1      -3.867 -15.589  19.785  1.00  0.00     0.189 A 
BRANCH  24  25
HETATM   25  O4  UNL     1      -2.707 -15.131  20.333  1.00  0.00    -0.340 OA
ATOM     26  H4  UNL     1      -2.577 -14.354  20.866  1.00  0.00     0.220 HD
ENDBRANCH  24  25
ENDBRANCH   9  20
TORSDOF 6
ENDMDL
MODEL 3
REMARK VINA RESULT: -7.484653987      8.384     10.441
REMARK  6 active torsions:
REMARK  status: ('A' for Active; 'I' for Inactive)
REMARK    1  A    between atoms: O1_2  and  C2_3 
REMARK    2  A    between atoms: C2_3  and  C3_5 
REMARK    3  A    between atoms: C3_5  and  C4_6 
REMARK    4  A    between atoms: C4_6  and  C5_7 
REMARK    5  A    between atoms: C12_15  and  C13_16 
REMARK    6  A    between atoms: C16_20  and  O4_21 
ROOT
HETATM    1  C5  UNL     1       3.836 -15.419  13.232  1.00  0.00    -0.023 C 
HETATM    2  C6  UNL     1       4.828 -16.149  14.200  1.00  0.00     0.017 C 
HETATM    3  C7  UNL     1       2.615 -16.380  13.415  1.00  0.00     0.057 C 
HETATM    4  C8  UNL     1       1.380 -15.932  12.766  1.00  0.00     0.031 C 
HETATM    5  C9  UNL     1       1.183 -14.960  13.958  1.00  0.00     0.053 C 
HETATM    6  S1  UNL     1       1.883 -16.200  15.024  1.00  0.00    -0.158 SA
HETATM    7  C10 UNL     1       2.034 -13.797  13.638  1.00  0.00     0.009 C 
HETATM    8  C11 UNL     1       1.629 -12.549  14.367  1.00  0.00     0.016 C 
HETATM    9  C12 UNL     1       2.531 -11.405  13.977  1.00  0.00     0.024 C 
HETATM   10  C17 UNL     1       3.168 -11.723  12.681  1.00  0.00     0.010 C 
HETATM   11  C18 UNL     1       4.059 -12.938  12.731  1.00  0.00     0.011 C 
HETATM   12  C19 UNL     1       3.541 -14.049  13.646  1.00  0.00    -0.031 C 
HETATM   13  C20 UNL     1       4.107 -13.718  15.027  1.00  0.00     0.016 C 
ENDROOT
BRANCH   1  14
HETATM   14  C4  UNL     1       4.266 -15.704  11.831  1.00  0.00     0.021 C 
BRANCH  14  15
HETATM   15  C3  UNL     1       5.675 -16.203  11.660  1.00  0.00     0.112 C 
BRANCH  15  16
HETATM   16  C2  UNL     1       6.601 -15.053  11.349  1.00  0.00     0.258 C 
HETATM   17  O2  UNL     1       7.416 -14.732  12.250  1.00  0.00    -0.265 OA
BRANCH  16  18
HETATM   18  O1  UNL     1       6.597 -14.363  10.171  1.00  0.00    -0.326 OA
HETATM   19  C1  UNL     1       6.962 -12.982  10.072  1.00  0.00     0.213 C 
ENDBRANCH  16  18
ENDBRANCH  15  16
ENDBRANCH  14  15
ENDBRANCH   1  14
BRANCH   9  20
HETATM   20  C13 UNL     1       1.732 -10.151  13.944  1.00  0.00     0.006 A 
HETATM   21  C14 UNL     1       0.542  -9.911  14.564  1.00  0.00     0.037 A 
HETATM   22  C15 UNL     1       0.172  -8.602  14.265  1.00  0.00     0.145 A 
HETATM   23  O3  UNL     1       1.097  -8.109  13.511  1.00  0.00    -0.300 OA
HETATM   24  C16 UNL     1       2.051  -8.984  13.287  1.00  0.00     0.189 A 
BRANCH  24  25
HETATM   25  O4  UNL     1       3.149  -8.725  12.522  1.00  0.00    -0.340 OA
ATOM     26  H4  UNL     1       3.710  -9.346  12.073  1.00  0.00     0.220 HD
ENDBRANCH  24  25
ENDBRANCH   9  20
TORSDOF 6
ENDMDL
MODEL 4
REMARK VINA RESULT: -7.386971062      8.109     10.400
REMARK  6 active torsions:
REMARK  status: ('A' for Active; 'I' for Inactive)
REMARK    1  A    between atoms: O1_2  and  C2_3 
REMARK    2  A    between atoms: C2_3  and  C3_5 
REMARK    3  A    between atoms: C3_5  and  C4_6 
REMARK    4  A    between atoms: C4_6  and  C5_7 
REMARK    5  A    between atoms: C12_15  and  C13_16 
REMARK    6  A    between atoms: C16_20  and  O4_21 
ROOT
HETATM    1  C5  UNL     1       4.313 -15.764  12.677  1.00  0.00    -0.023 C 
HETATM    2  C6  UNL     1       5.264 -16.575  13.623  1.00  0.00     0.017 C 
HETATM    3  C7  UNL     1       3.107 -16.762  12.684  1.00  0.00     0.057 C 
HETATM    4  C8  UNL     1       1.901 -16.270  12.011  1.00  0.00     0.031 C 
HETATM    5  C9  UNL     1       1.612 -15.433  13.284  1.00  0.00     0.053 C 
HETATM    6  S1  UNL     1       2.278 -16.766  14.256  1.00  0.00    -0.158 SA
HETATM    7  C10 UNL     1       2.451 -14.227  13.140  1.00  0.00     0.009 C 
HETATM    8  C11 UNL     1       1.974 -13.072  13.969  1.00  0.00     0.016 C 
HETATM    9  C12 UNL     1       2.868 -11.877  13.757  1.00  0.00     0.024 C 
HETATM   10  C17 UNL     1       3.588 -12.043  12.477  1.00  0.00     0.010 C 
HETATM   11  C18 UNL     1       4.503 -13.241  12.452  1.00  0.00     0.011 C 
HETATM   12  C19 UNL     1       3.961 -14.451  13.214  1.00  0.00    -0.031 C 
HETATM   13  C20 UNL     1       4.436 -14.258  14.653  1.00  0.00     0.016 C 
ENDROOT
BRANCH   1  14
HETATM   14  C4  UNL     1       4.831 -15.891  11.283  1.00  0.00     0.021 C 
BRANCH  14  15
HETATM   15  C3  UNL     1       6.267 -16.320  11.147  1.00  0.00     0.112 C 
BRANCH  15  16
HETATM   16  C2  UNL     1       7.154 -15.117  10.943  1.00  0.00     0.258 C 
HETATM   17  O2  UNL     1       7.828 -14.744  11.935  1.00  0.00    -0.265 OA
BRANCH  16  18
HETATM   18  O1  UNL     1       7.256 -14.432   9.766  1.00  0.00    -0.326 OA
HETATM   19  C1  UNL     1       7.448 -13.015   9.700  1.00  0.00     0.213 C 
ENDBRANCH  16  18
ENDBRANCH  15  16
ENDBRANCH  14  15
ENDBRANCH   1  14
BRANCH   9  20
HETATM   20  C13 UNL     1       2.042 -10.641  13.807  1.00  0.00     0.006 A 
HETATM   21  C14 UNL     1       2.077  -9.586  12.943  1.00  0.00     0.037 A 
HETATM   22  C15 UNL     1       1.125  -8.665  13.370  1.00  0.00     0.145 A 
HETATM   23  O3  UNL     1       0.567  -9.158  14.425  1.00  0.00    -0.300 OA
HETATM   24  C16 UNL     1       1.071 -10.331  14.732  1.00  0.00     0.189 A 
BRANCH  24  25
HETATM   25  O4  UNL     1       0.663 -11.072  15.800  1.00  0.00    -0.340 OA
ATOM     26  H4  UNL     1       0.937 -10.994  16.707  1.00  0.00     0.220 HD
ENDBRANCH  24  25
ENDBRANCH   9  20
TORSDOF 6
ENDMDL
MODEL 5
REMARK VINA RESULT: -7.325394318      6.240     11.437
REMARK  6 active torsions:
REMARK  status: ('A' for Active; 'I' for Inactive)
REMARK    1  A    between atoms: O1_2  and  C2_3 
REMARK    2  A    between atoms: C2_3  and  C3_5 
REMARK    3  A    between atoms: C3_5  and  C4_6 
REMARK    4  A    between atoms: C4_6  and  C5_7 
REMARK    5  A    between atoms: C12_15  and  C13_16 
REMARK    6  A    between atoms: C16_20  and  O4_21 
ROOT
HETATM    1  C5  UNL     1       1.953 -14.735  13.944  1.00  0.00    -0.023 C 
HETATM    2  C6  UNL     1       2.038 -15.736  15.147  1.00  0.00     0.017 C 
HETATM    3  C7  UNL     1       1.561 -13.457  14.758  1.00  0.00     0.057 C 
HETATM    4  C8  UNL     1       1.540 -12.216  13.979  1.00  0.00     0.031 C 
HETATM    5  C9  UNL     1       3.086 -12.192  14.098  1.00  0.00     0.053 C 
HETATM    6  S1  UNL     1       2.924 -12.868  15.735  1.00  0.00    -0.158 SA
HETATM    7  C10 UNL     1       3.559 -13.107  13.041  1.00  0.00     0.009 C 
HETATM    8  C11 UNL     1       4.984 -12.862  12.640  1.00  0.00     0.016 C 
HETATM    9  C12 UNL     1       5.388 -13.821  11.549  1.00  0.00     0.024 C 
HETATM   10  C17 UNL     1       4.168 -14.329  10.887  1.00  0.00     0.010 C 
HETATM   11  C18 UNL     1       3.270 -15.119  11.805  1.00  0.00     0.011 C 
HETATM   12  C19 UNL     1       3.223 -14.585  13.238  1.00  0.00    -0.031 C 
HETATM   13  C20 UNL     1       4.380 -15.280  13.955  1.00  0.00     0.016 C 
ENDROOT
BRANCH   1  14
HETATM   14  C4  UNL     1       0.703 -15.031  13.184  1.00  0.00     0.021 C 
BRANCH  14  15
HETATM   15  C3  UNL     1      -0.113 -16.194  13.682  1.00  0.00     0.112 C 
BRANCH  15  16
HETATM   16  C2  UNL     1      -1.438 -16.248  12.961  1.00  0.00     0.258 C 
HETATM   17  O2  UNL     1      -1.403 -16.600  11.755  1.00  0.00    -0.265 OA
BRANCH  16  18
HETATM   18  O1  UNL     1      -2.637 -15.942  13.537  1.00  0.00    -0.326 OA
HETATM   19  C1  UNL     1      -3.847 -15.787  12.789  1.00  0.00     0.213 C 
ENDBRANCH  16  18
ENDBRANCH  15  16
ENDBRANCH  14  15
ENDBRANCH   1  14
BRANCH   9  20
HETATM   20  C13 UNL     1       6.313 -13.127  10.615  1.00  0.00     0.006 A 
HETATM   21  C14 UNL     1       6.546 -11.786  10.523  1.00  0.00     0.037 A 
HETATM   22  C15 UNL     1       7.493 -11.594   9.521  1.00  0.00     0.145 A 
HETATM   23  O3  UNL     1       7.795 -12.760   9.056  1.00  0.00    -0.300 OA
HETATM   24  C16 UNL     1       7.125 -13.710   9.668  1.00  0.00     0.189 A 
BRANCH  24  25
HETATM   25  O4  UNL     1       7.252 -15.034   9.372  1.00  0.00    -0.340 OA
ATOM     26  H4  UNL     1       8.009 -15.593   9.504  1.00  0.00     0.220 HD
ENDBRANCH  24  25
ENDBRANCH   9  20
TORSDOF 6
ENDMDL
