MODEL 1
REMARK VINA RESULT: -7.097347731      0.000      0.000
REMARK  4 active torsions:
REMARK  status: ('A' for Active; 'I' for Inactive)
REMARK    1  A    between atoms: C6_6  and  C7_7 
REMARK    2  A    between atoms: C7_7  and  C8_8 
REMARK    3  A    between atoms: C8_8  and  O1_10 
REMARK    4  A    between atoms: C17_19  and  O2_20 
ROOT
HETATM    1  C1  UNL     1       6.978  17.802 -33.517  1.00  0.00     0.015 C 
HETATM    2  C2  UNL     1       5.788  17.314 -33.833  1.00  0.00    -0.080 C 
HETATM    3  C3  UNL     1       5.062  18.102 -34.840  1.00  0.00     0.034 C 
HETATM    4  C4  UNL     1       3.655  17.815 -35.080  1.00  0.00     0.010 C 
HETATM    5  C5  UNL     1       2.914  16.966 -34.066  1.00  0.00     0.001 C 
HETATM    6  C6  UNL     1       3.288  15.564 -34.281  1.00  0.00     0.002 C 
HETATM    7  C10 UNL     1       4.702  15.174 -34.001  1.00  0.00    -0.028 C 
HETATM    8  C11 UNL     1       5.551  15.016 -35.267  1.00  0.00     0.016 C 
HETATM    9  C12 UNL     1       4.805  13.826 -33.282  1.00  0.00     0.011 C 
HETATM   10  C13 UNL     1       6.254  13.812 -32.868  1.00  0.00     0.002 C 
HETATM   11  C14 UNL     1       6.724  15.246 -32.826  1.00  0.00     0.015 C 
HETATM   12  C15 UNL     1       5.455  16.066 -33.089  1.00  0.00    -0.008 C 
HETATM   13  C16 UNL     1       4.765  16.306 -31.791  1.00  0.00     0.047 C 
HETATM   14  C17 UNL     1       4.064  17.630 -31.904  1.00  0.00     0.127 C 
HETATM   15  C18 UNL     1       2.853  17.584 -32.748  1.00  0.00    -0.018 C 
HETATM   16  C19 UNL     1       2.486  19.069 -33.001  1.00  0.00     0.018 C 
HETATM   17  C20 UNL     1       1.700  17.100 -31.860  1.00  0.00     0.018 C 
ENDROOT
BRANCH   6  18
HETATM   18  C7  UNL     1       2.294  14.515 -33.825  1.00  0.00     0.037 C 
BRANCH  18  19
HETATM   19  C8  UNL     1       1.447  13.989 -34.969  1.00  0.00     0.114 C 
HETATM   20  C9  UNL     1       1.416  12.456 -34.893  1.00  0.00     0.039 C 
BRANCH  19  21
HETATM   21  O1  UNL     1       1.991  14.300 -36.203  1.00  0.00    -0.396 OA
ATOM     22  H1  UNL     1       2.578  13.621 -36.515  1.00  0.00     0.210 HD
ENDBRANCH  19  21
ENDBRANCH  18  19
ENDBRANCH   6  18
BRANCH  14  23
HETATM   23  O2  UNL     1       3.652  17.966 -30.589  1.00  0.00    -0.395 OA
ATOM     24  H2  UNL     1       3.704  18.913 -30.534  1.00  0.00     0.210 HD
ENDBRANCH  14  23
TORSDOF 4
ENDMDL
MODEL 2
REMARK VINA RESULT: -6.942603860      2.088      4.887
REMARK  4 active torsions:
REMARK  status: ('A' for Active; 'I' for Inactive)
REMARK    1  A    between atoms: C6_6  and  C7_7 
REMARK    2  A    between atoms: C7_7  and  C8_8 
REMARK    3  A    between atoms: C8_8  and  O1_10 
REMARK    4  A    between atoms: C17_19  and  O2_20 
ROOT
HETATM    1  C1  UNL     1       1.951  16.075 -32.804  1.00  0.00     0.015 C 
HETATM    2  C2  UNL     1       3.077  16.189 -33.491  1.00  0.00    -0.080 C 
HETATM    3  C3  UNL     1       3.660  14.905 -33.908  1.00  0.00     0.034 C 
HETATM    4  C4  UNL     1       5.014  14.886 -34.442  1.00  0.00     0.010 C 
HETATM    5  C5  UNL     1       5.883  16.111 -34.237  1.00  0.00     0.001 C 
HETATM    6  C6  UNL     1       5.465  17.137 -35.199  1.00  0.00     0.002 C 
HETATM    7  C10 UNL     1       4.101  17.723 -35.036  1.00  0.00    -0.028 C 
HETATM    8  C11 UNL     1       3.077  17.164 -36.030  1.00  0.00     0.016 C 
HETATM    9  C12 UNL     1       4.086  19.237 -35.259  1.00  0.00     0.011 C 
HETATM   10  C13 UNL     1       2.712  19.604 -34.761  1.00  0.00     0.002 C 
HETATM   11  C14 UNL     1       2.271  18.515 -33.813  1.00  0.00     0.015 C 
HETATM   12  C15 UNL     1       3.498  17.605 -33.688  1.00  0.00    -0.008 C 
HETATM   13  C16 UNL     1       4.371  18.129 -32.601  1.00  0.00     0.047 C 
HETATM   14  C17 UNL     1       5.065  16.947 -31.986  1.00  0.00     0.127 C 
HETATM   15  C18 UNL     1       6.141  16.392 -32.831  1.00  0.00    -0.018 C 
HETATM   16  C19 UNL     1       6.487  15.023 -32.189  1.00  0.00     0.018 C 
HETATM   17  C20 UNL     1       7.404  17.219 -32.558  1.00  0.00     0.018 C 
ENDROOT
BRANCH   6  18
HETATM   18  C7  UNL     1       6.500  18.173 -35.587  1.00  0.00     0.037 C 
BRANCH  18  19
HETATM   19  C8  UNL     1       7.028  17.961 -36.994  1.00  0.00     0.114 C 
HETATM   20  C9  UNL     1       8.560  18.045 -36.961  1.00  0.00     0.039 C 
BRANCH  19  21
HETATM   21  O1  UNL     1       6.608  18.955 -37.860  1.00  0.00    -0.396 OA
ATOM     22  H1  UNL     1       7.069  19.773 -37.714  1.00  0.00     0.210 HD
ENDBRANCH  19  21
ENDBRANCH  18  19
ENDBRANCH   6  18
BRANCH  14  23
HETATM   23  O2  UNL     1       5.666  17.426 -30.794  1.00  0.00    -0.395 OA
ATOM     24  H2  UNL     1       6.290  16.760 -30.532  1.00  0.00     0.210 HD
ENDBRANCH  14  23
TORSDOF 4
ENDMDL
MODEL 3
REMARK VINA RESULT: -6.454946952      1.848      4.630
REMARK  4 active torsions:
REMARK  status: ('A' for Active; 'I' for Inactive)
REMARK    1  A    between atoms: C6_6  and  C7_7 
REMARK    2  A    between atoms: C7_7  and  C8_8 
REMARK    3  A    between atoms: C8_8  and  O1_10 
REMARK    4  A    between atoms: C17_19  and  O2_20 
ROOT
HETATM    1  C1  UNL     1       1.561  15.494 -32.963  1.00  0.00     0.015 C 
HETATM    2  C2  UNL     1       2.619  16.223 -33.284  1.00  0.00    -0.080 C 
HETATM    3  C3  UNL     1       2.577  17.602 -32.777  1.00  0.00     0.034 C 
HETATM    4  C4  UNL     1       3.550  18.565 -33.273  1.00  0.00     0.010 C 
HETATM    5  C5  UNL     1       4.335  18.214 -34.520  1.00  0.00     0.001 C 
HETATM    6  C6  UNL     1       5.391  17.267 -34.146  1.00  0.00     0.002 C 
HETATM    7  C10 UNL     1       4.971  15.911 -33.681  1.00  0.00    -0.028 C 
HETATM    8  C11 UNL     1       5.048  15.740 -32.160  1.00  0.00     0.016 C 
HETATM    9  C12 UNL     1       5.856  14.799 -34.250  1.00  0.00     0.011 C 
HETATM   10  C13 UNL     1       5.069  13.567 -33.884  1.00  0.00     0.002 C 
HETATM   11  C14 UNL     1       3.633  13.992 -33.687  1.00  0.00     0.015 C 
HETATM   12  C15 UNL     1       3.620  15.470 -34.094  1.00  0.00    -0.008 C 
HETATM   13  C16 UNL     1       3.391  15.557 -35.564  1.00  0.00     0.047 C 
HETATM   14  C17 UNL     1       2.644  16.836 -35.817  1.00  0.00     0.127 C 
HETATM   15  C18 UNL     1       3.487  18.043 -35.692  1.00  0.00    -0.018 C 
HETATM   16  C19 UNL     1       2.486  19.227 -35.659  1.00  0.00     0.018 C 
HETATM   17  C20 UNL     1       4.196  18.242 -37.038  1.00  0.00     0.018 C 
ENDROOT
BRANCH   6  18
HETATM   18  C7  UNL     1       6.616  17.223 -35.037  1.00  0.00     0.037 C 
BRANCH  18  19
HETATM   19  C8  UNL     1       7.554  18.389 -34.783  1.00  0.00     0.114 C 
HETATM   20  C9  UNL     1       8.590  18.439 -35.915  1.00  0.00     0.039 C 
BRANCH  19  21
HETATM   21  O1  UNL     1       8.273  18.230 -33.612  1.00  0.00    -0.396 OA
ATOM     22  H1  UNL     1       9.180  17.998 -33.779  1.00  0.00     0.210 HD
ENDBRANCH  19  21
ENDBRANCH  18  19
ENDBRANCH   6  18
BRANCH  14  23
HETATM   23  O2  UNL     1       2.200  16.767 -37.162  1.00  0.00    -0.395 OA
ATOM     24  H2  UNL     1       1.941  15.864 -37.304  1.00  0.00     0.210 HD
ENDBRANCH  14  23
TORSDOF 4
ENDMDL
MODEL 4
REMARK VINA RESULT: -6.449363126      2.323      4.665
REMARK  4 active torsions:
REMARK  status: ('A' for Active; 'I' for Inactive)
REMARK    1  A    between atoms: C6_6  and  C7_7 
REMARK    2  A    between atoms: C7_7  and  C8_8 
REMARK    3  A    between atoms: C8_8  and  O1_10 
REMARK    4  A    between atoms: C17_19  and  O2_20 
ROOT
HETATM    1  C1  UNL     1       4.731  14.497 -33.767  1.00  0.00     0.015 C 
HETATM    2  C2  UNL     1       4.129  15.632 -34.087  1.00  0.00    -0.080 C 
HETATM    3  C3  UNL     1       3.304  15.555 -35.301  1.00  0.00     0.034 C 
HETATM    4  C4  UNL     1       2.802  16.788 -35.892  1.00  0.00     0.010 C 
HETATM    5  C5  UNL     1       3.417  18.099 -35.444  1.00  0.00     0.001 C 
HETATM    6  C6  UNL     1       2.860  18.443 -34.132  1.00  0.00     0.002 C 
HETATM    7  C10 UNL     1       3.205  17.558 -32.980  1.00  0.00    -0.028 C 
HETATM    8  C11 UNL     1       2.075  16.599 -32.590  1.00  0.00     0.016 C 
HETATM    9  C12 UNL     1       3.511  18.350 -31.706  1.00  0.00     0.011 C 
HETATM   10  C13 UNL     1       4.096  17.282 -30.817  1.00  0.00     0.002 C 
HETATM   11  C14 UNL     1       4.614  16.184 -31.715  1.00  0.00     0.015 C 
HETATM   12  C15 UNL     1       4.429  16.738 -33.132  1.00  0.00    -0.008 C 
HETATM   13  C16 UNL     1       5.635  17.534 -33.495  1.00  0.00     0.047 C 
HETATM   14  C17 UNL     1       5.814  17.408 -34.981  1.00  0.00     0.127 C 
HETATM   15  C18 UNL     1       4.836  18.194 -35.760  1.00  0.00    -0.018 C 
HETATM   16  C19 UNL     1       4.976  17.676 -37.215  1.00  0.00     0.018 C 
HETATM   17  C20 UNL     1       5.382  19.624 -35.860  1.00  0.00     0.018 C 
ENDROOT
BRANCH   6  18
HETATM   18  C7  UNL     1       2.854  19.911 -33.756  1.00  0.00     0.037 C 
BRANCH  18  19
HETATM   19  C8  UNL     1       2.035  20.749 -34.721  1.00  0.00     0.114 C 
HETATM   20  C9  UNL     1       2.845  21.998 -35.095  1.00  0.00     0.039 C 
BRANCH  19  21
HETATM   21  O1  UNL     1       0.866  21.210 -34.143  1.00  0.00    -0.396 OA
ATOM     22  H1  UNL     1       0.165  20.572 -34.198  1.00  0.00     0.210 HD
ENDBRANCH  19  21
ENDBRANCH  18  19
ENDBRANCH   6  18
BRANCH  14  23
HETATM   23  O2  UNL     1       7.101  17.932 -35.263  1.00  0.00    -0.395 OA
ATOM     24  H2  UNL     1       6.975  18.577 -35.949  1.00  0.00     0.210 HD
ENDBRANCH  14  23
TORSDOF 4
ENDMDL
MODEL 5
REMARK VINA RESULT: -6.132147299      2.003      4.566
REMARK  4 active torsions:
REMARK  status: ('A' for Active; 'I' for Inactive)
REMARK    1  A    between atoms: C6_6  and  C7_7 
REMARK    2  A    between atoms: C7_7  and  C8_8 
REMARK    3  A    between atoms: C8_8  and  O1_10 
REMARK    4  A    between atoms: C17_19  and  O2_20 
ROOT
HETATM    1  C1  UNL     1       2.514  16.183 -36.984  1.00  0.00     0.015 C 
HETATM    2  C2  UNL     1       3.024  16.753 -35.903  1.00  0.00    -0.080 C 
HETATM    3  C3  UNL     1       2.641  18.162 -35.727  1.00  0.00     0.034 C 
HETATM    4  C4  UNL     1       3.334  18.961 -34.727  1.00  0.00     0.010 C 
HETATM    5  C5  UNL     1       4.629  18.425 -34.152  1.00  0.00     0.001 C 
HETATM    6  C6  UNL     1       4.299  17.389 -33.167  1.00  0.00     0.002 C 
HETATM    7  C10 UNL     1       3.667  16.133 -33.669  1.00  0.00    -0.028 C 
HETATM    8  C11 UNL     1       2.157  16.069 -33.417  1.00  0.00     0.016 C 
HETATM    9  C12 UNL     1       4.236  14.882 -32.993  1.00  0.00     0.011 C 
HETATM   10  C13 UNL     1       3.669  13.785 -33.856  1.00  0.00     0.002 C 
HETATM   11  C14 UNL     1       3.342  14.393 -35.199  1.00  0.00     0.015 C 
HETATM   12  C15 UNL     1       3.876  15.827 -35.103  1.00  0.00    -0.008 C 
HETATM   13  C16 UNL     1       5.310  15.830 -35.508  1.00  0.00     0.047 C 
HETATM   14  C17 UNL     1       5.587  17.166 -36.136  1.00  0.00     0.127 C 
HETATM   15  C18 UNL     1       5.672  18.269 -35.158  1.00  0.00    -0.018 C 
HETATM   16  C19 UNL     1       5.626  19.563 -36.010  1.00  0.00     0.018 C 
HETATM   17  C20 UNL     1       7.105  18.279 -34.610  1.00  0.00     0.018 C 
ENDROOT
BRANCH   6  18
HETATM   18  C7  UNL     1       5.322  17.131 -32.079  1.00  0.00     0.037 C 
BRANCH  18  19
HETATM   19  C8  UNL     1       4.877  17.670 -30.732  1.00  0.00     0.114 C 
HETATM   20  C9  UNL     1       3.516  18.359 -30.905  1.00  0.00     0.039 C 
BRANCH  19  21
HETATM   21  O1  UNL     1       5.739  18.640 -30.251  1.00  0.00    -0.396 OA
ATOM     22  H1  UNL     1       6.644  18.455 -30.473  1.00  0.00     0.210 HD
ENDBRANCH  19  21
ENDBRANCH  18  19
ENDBRANCH   6  18
BRANCH  14  23
HETATM   23  O2  UNL     1       6.857  17.048 -36.755  1.00  0.00    -0.395 OA
ATOM     24  H2  UNL     1       7.105  16.136 -36.668  1.00  0.00     0.210 HD
ENDBRANCH  14  23
TORSDOF 4
ENDMDL
