MODEL 1
REMARK VINA RESULT: -7.729110835      0.000      0.000
REMARK  1 active torsions:
REMARK  status: ('A' for Active; 'I' for Inactive)
REMARK    1  A    between atoms: C15_16  and  C16_17 
ROOT
HETATM    1  C1  UNL     1       2.293  15.446 -33.414  1.00  0.00     0.020 C 
HETATM    2  C2  UNL     1       2.883  15.357 -34.812  1.00  0.00    -0.020 C 
HETATM    3  C3  UNL     1       1.770  15.631 -35.777  1.00  0.00     0.020 C 
HETATM    4  C4  UNL     1       3.958  16.405 -34.899  1.00  0.00    -0.062 C 
HETATM    5  C5  UNL     1       3.703  17.483 -35.621  1.00  0.00     0.097 C 
HETATM    6  C6  UNL     1       4.693  18.521 -35.742  1.00  0.00     0.088 C 
HETATM    7  N1  UNL     1       5.504  19.355 -35.856  1.00  0.00    -0.192 NA
HETATM    8  C7  UNL     1       5.217  16.192 -34.196  1.00  0.00     0.036 C 
HETATM    9  C8  UNL     1       5.721  14.777 -34.194  1.00  0.00     0.010 C 
HETATM   10  C9  UNL     1       4.559  13.807 -33.964  1.00  0.00    -0.004 C 
HETATM   11  C10 UNL     1       3.586  14.064 -35.071  1.00  0.00     0.002 C 
HETATM   12  C11 UNL     1       2.719  12.888 -35.340  1.00  0.00     0.007 C 
HETATM   13  C12 UNL     1       3.754  11.863 -35.898  1.00  0.00     0.015 C 
HETATM   14  C13 UNL     1       4.667  11.396 -34.826  1.00  0.00    -0.008 C 
HETATM   15  C14 UNL     1       3.880  10.207 -34.211  1.00  0.00     0.021 C 
HETATM   16  C15 UNL     1       5.860  10.758 -35.432  1.00  0.00     0.012 C 
HETATM   17  C17 UNL     1       6.976  10.579 -34.718  1.00  0.00    -0.014 C 
HETATM   18  C18 UNL     1       7.006  11.024 -33.319  1.00  0.00     0.028 C 
HETATM   19  C19 UNL     1       6.431  12.443 -33.356  1.00  0.00     0.010 C 
HETATM   20  C20 UNL     1       4.971  12.405 -33.766  1.00  0.00     0.003 C 
ENDROOT
BRANCH  16  21
HETATM   21  C16 UNL     1       5.948  10.265 -36.795  1.00  0.00     0.261 C 
HETATM   22  N2  UNL     1       5.258   9.088 -37.233  1.00  0.00    -0.057 NA
HETATM   23  O1  UNL     1       6.631  10.845 -37.656  1.00  0.00    -0.271 OA
ENDBRANCH  16  21
TORSDOF 1
ENDMDL
MODEL 2
REMARK VINA RESULT: -7.507186029      2.110      6.304
REMARK  1 active torsions:
REMARK  status: ('A' for Active; 'I' for Inactive)
REMARK    1  A    between atoms: C15_16  and  C16_17 
ROOT
HETATM    1  C1  UNL     1       5.494  10.517 -33.141  1.00  0.00     0.020 C 
HETATM    2  C2  UNL     1       5.969  11.291 -34.360  1.00  0.00    -0.020 C 
HETATM    3  C3  UNL     1       7.429  11.001 -34.523  1.00  0.00     0.020 C 
HETATM    4  C4  UNL     1       5.172  10.789 -35.533  1.00  0.00    -0.062 C 
HETATM    5  C5  UNL     1       5.794  10.016 -36.407  1.00  0.00     0.097 C 
HETATM    6  C6  UNL     1       5.085   9.505 -37.550  1.00  0.00     0.088 C 
HETATM    7  N1  UNL     1       4.515   9.105 -38.489  1.00  0.00    -0.192 NA
HETATM    8  C7  UNL     1       3.771  11.170 -35.656  1.00  0.00     0.036 C 
HETATM    9  C8  UNL     1       3.446  12.575 -35.235  1.00  0.00     0.010 C 
HETATM   10  C9  UNL     1       4.211  12.929 -33.957  1.00  0.00    -0.004 C 
HETATM   11  C10 UNL     1       5.660  12.751 -34.285  1.00  0.00     0.002 C 
HETATM   12  C11 UNL     1       6.539  13.563 -33.402  1.00  0.00     0.007 C 
HETATM   13  C12 UNL     1       6.165  15.012 -33.843  1.00  0.00     0.015 C 
HETATM   14  C13 UNL     1       4.792  15.362 -33.402  1.00  0.00    -0.008 C 
HETATM   15  C14 UNL     1       5.031  15.903 -31.966  1.00  0.00     0.021 C 
HETATM   16  C15 UNL     1       4.315  16.547 -34.155  1.00  0.00     0.012 C 
HETATM   17  C17 UNL     1       3.013  16.844 -34.208  1.00  0.00    -0.014 C 
HETATM   18  C18 UNL     1       2.056  15.978 -33.508  1.00  0.00     0.028 C 
HETATM   19  C19 UNL     1       2.456  14.557 -33.915  1.00  0.00     0.010 C 
HETATM   20  C20 UNL     1       3.828  14.221 -33.360  1.00  0.00     0.003 C 
ENDROOT
BRANCH  16  21
HETATM   21  C16 UNL     1       5.162  17.484 -34.873  1.00  0.00     0.261 C 
HETATM   22  N2  UNL     1       5.349  17.417 -36.292  1.00  0.00    -0.057 NA
HETATM   23  O1  UNL     1       5.769  18.395 -34.288  1.00  0.00    -0.271 OA
ENDBRANCH  16  21
TORSDOF 1
ENDMDL
MODEL 3
REMARK VINA RESULT: -7.402150941      3.936      5.385
REMARK  1 active torsions:
REMARK  status: ('A' for Active; 'I' for Inactive)
REMARK    1  A    between atoms: C15_16  and  C16_17 
ROOT
HETATM    1  C1  UNL     1       4.668  17.245 -33.600  1.00  0.00     0.020 C 
HETATM    2  C2  UNL     1       3.173  17.335 -33.344  1.00  0.00    -0.020 C 
HETATM    3  C3  UNL     1       2.971  17.193 -31.866  1.00  0.00     0.020 C 
HETATM    4  C4  UNL     1       2.727  18.686 -33.833  1.00  0.00    -0.062 C 
HETATM    5  C5  UNL     1       2.428  19.597 -32.923  1.00  0.00     0.097 C 
HETATM    6  C6  UNL     1       1.996  20.908 -33.330  1.00  0.00     0.088 C 
HETATM    7  N1  UNL     1       1.627  21.967 -33.660  1.00  0.00    -0.192 NA
HETATM    8  C7  UNL     1       2.643  18.930 -35.268  1.00  0.00     0.036 C 
HETATM    9  C8  UNL     1       2.151  17.773 -36.090  1.00  0.00     0.010 C 
HETATM   10  C9  UNL     1       2.775  16.469 -35.585  1.00  0.00    -0.004 C 
HETATM   11  C10 UNL     1       2.379  16.356 -34.147  1.00  0.00     0.002 C 
HETATM   12  C11 UNL     1       2.397  14.949 -33.669  1.00  0.00     0.007 C 
HETATM   13  C12 UNL     1       1.227  14.328 -34.493  1.00  0.00     0.015 C 
HETATM   14  C13 UNL     1       1.589  14.224 -35.928  1.00  0.00    -0.008 C 
HETATM   15  C14 UNL     1       2.309  12.849 -35.992  1.00  0.00     0.021 C 
HETATM   16  C15 UNL     1       0.362  14.020 -36.737  1.00  0.00     0.012 C 
HETATM   17  C17 UNL     1       0.366  14.248 -38.054  1.00  0.00    -0.014 C 
HETATM   18  C18 UNL     1       1.606  14.704 -38.694  1.00  0.00     0.028 C 
HETATM   19  C19 UNL     1       2.106  15.840 -37.797  1.00  0.00     0.010 C 
HETATM   20  C20 UNL     1       2.498  15.297 -36.435  1.00  0.00     0.003 C 
ENDROOT
BRANCH  16  21
HETATM   21  C16 UNL     1      -0.916  13.560 -36.223  1.00  0.00     0.261 C 
HETATM   22  N2  UNL     1      -1.107  12.234 -35.715  1.00  0.00    -0.057 NA
HETATM   23  O1  UNL     1      -1.913  14.300 -36.197  1.00  0.00    -0.271 OA
ENDBRANCH  16  21
TORSDOF 1
ENDMDL
MODEL 4
REMARK VINA RESULT: -7.113991679      2.820      6.399
REMARK  1 active torsions:
REMARK  status: ('A' for Active; 'I' for Inactive)
REMARK    1  A    between atoms: C15_16  and  C16_17 
ROOT
HETATM    1  C1  UNL     1       5.290  11.532 -36.203  1.00  0.00     0.020 C 
HETATM    2  C2  UNL     1       4.663  11.565 -34.818  1.00  0.00    -0.020 C 
HETATM    3  C3  UNL     1       3.616  10.494 -34.785  1.00  0.00     0.020 C 
HETATM    4  C4  UNL     1       5.766  11.288 -33.833  1.00  0.00    -0.062 C 
HETATM    5  C5  UNL     1       5.779  10.103 -33.248  1.00  0.00     0.097 C 
HETATM    6  C6  UNL     1       6.809   9.779 -32.297  1.00  0.00     0.088 C 
HETATM    7  N1  UNL     1       7.634   9.523 -31.510  1.00  0.00    -0.192 NA
HETATM    8  C7  UNL     1       6.757  12.323 -33.567  1.00  0.00     0.036 C 
HETATM    9  C8  UNL     1       6.229  13.728 -33.536  1.00  0.00     0.010 C 
HETATM   10  C9  UNL     1       5.215  13.932 -34.666  1.00  0.00    -0.004 C 
HETATM   11  C10 UNL     1       4.142  12.914 -34.441  1.00  0.00     0.002 C 
HETATM   12  C11 UNL     1       2.850  13.314 -35.058  1.00  0.00     0.007 C 
HETATM   13  C12 UNL     1       2.466  14.553 -34.191  1.00  0.00     0.015 C 
HETATM   14  C13 UNL     1       3.367  15.697 -34.473  1.00  0.00    -0.008 C 
HETATM   15  C14 UNL     1       2.673  16.378 -35.684  1.00  0.00     0.021 C 
HETATM   16  C15 UNL     1       3.253  16.699 -33.386  1.00  0.00     0.012 C 
HETATM   17  C17 UNL     1       4.195  17.631 -33.215  1.00  0.00    -0.014 C 
HETATM   18  C18 UNL     1       5.351  17.651 -34.121  1.00  0.00     0.028 C 
HETATM   19  C19 UNL     1       5.823  16.195 -34.172  1.00  0.00     0.010 C 
HETATM   20  C20 UNL     1       4.769  15.327 -34.835  1.00  0.00     0.003 C 
ENDROOT
BRANCH  16  21
HETATM   21  C16 UNL     1       2.155  16.791 -32.439  1.00  0.00     0.261 C 
HETATM   22  N2  UNL     1       1.976  17.924 -31.580  1.00  0.00    -0.057 NA
HETATM   23  O1  UNL     1       1.312  15.887 -32.328  1.00  0.00    -0.271 OA
ENDBRANCH  16  21
TORSDOF 1
ENDMDL
MODEL 5
REMARK VINA RESULT: -7.024279743      2.934      6.411
REMARK  1 active torsions:
REMARK  status: ('A' for Active; 'I' for Inactive)
REMARK    1  A    between atoms: C15_16  and  C16_17 
ROOT
HETATM    1  C1  UNL     1       1.797  13.605 -36.417  1.00  0.00     0.020 C 
HETATM    2  C2  UNL     1       2.103  13.251 -34.970  1.00  0.00    -0.020 C 
HETATM    3  C3  UNL     1       0.834  12.730 -34.368  1.00  0.00     0.020 C 
HETATM    4  C4  UNL     1       3.175  12.196 -34.996  1.00  0.00    -0.062 C 
HETATM    5  C5  UNL     1       2.820  10.958 -34.696  1.00  0.00     0.097 C 
HETATM    6  C6  UNL     1       3.801   9.905 -34.704  1.00  0.00     0.088 C 
HETATM    7  N1  UNL     1       4.601   9.053 -34.692  1.00  0.00    -0.192 NA
HETATM    8  C7  UNL     1       4.538  12.577 -35.343  1.00  0.00     0.036 C 
HETATM    9  C8  UNL     1       4.986  13.911 -34.821  1.00  0.00     0.010 C 
HETATM   10  C9  UNL     1       3.860  14.938 -34.969  1.00  0.00    -0.004 C 
HETATM   11  C10 UNL     1       2.700  14.385 -34.202  1.00  0.00     0.002 C 
HETATM   12  C11 UNL     1       1.759  15.449 -33.765  1.00  0.00     0.007 C 
HETATM   13  C12 UNL     1       2.632  16.229 -32.734  1.00  0.00     0.015 C 
HETATM   14  C13 UNL     1       3.720  16.972 -33.417  1.00  0.00    -0.008 C 
HETATM   15  C14 UNL     1       3.028  18.313 -33.786  1.00  0.00     0.021 C 
HETATM   16  C15 UNL     1       4.752  17.364 -32.427  1.00  0.00     0.012 C 
HETATM   17  C17 UNL     1       5.978  17.719 -32.823  1.00  0.00    -0.014 C 
HETATM   18  C18 UNL     1       6.292  17.716 -34.257  1.00  0.00     0.028 C 
HETATM   19  C19 UNL     1       5.769  16.369 -34.762  1.00  0.00     0.010 C 
HETATM   20  C20 UNL     1       4.256  16.322 -34.652  1.00  0.00     0.003 C 
ENDROOT
BRANCH  16  21
HETATM   21  C16 UNL     1       4.559  17.419 -30.989  1.00  0.00     0.261 C 
HETATM   22  N2  UNL     1       4.718  18.630 -30.239  1.00  0.00    -0.057 NA
HETATM   23  O1  UNL     1       4.243  16.413 -30.333  1.00  0.00    -0.271 OA
ENDBRANCH  16  21
TORSDOF 1
ENDMDL
