MODEL 1
REMARK VINA RESULT: -8.648639551      0.000      0.000
REMARK  3 active torsions:
REMARK  status: ('A' for Active; 'I' for Inactive)
REMARK    1  A    between atoms: C2_2  and  C3_3 
REMARK    2  A    between atoms: C10_10  and  C11_11 
REMARK    3  A    between atoms: C19_22  and  O1_23 
ROOT
HETATM    1  C11 UNL     1       1.633  13.021 -35.739  1.00  0.00     0.072 C 
HETATM    2  C12 UNL     1       0.549  12.413 -34.915  1.00  0.00     0.017 C 
HETATM    3  C13 UNL     1      -0.842  12.659 -35.363  1.00  0.00    -0.018 C 
HETATM    4  C14 UNL     1      -1.372  11.517 -36.215  1.00  0.00     0.010 C 
HETATM    5  C15 UNL     1      -1.079  13.928 -36.099  1.00  0.00     0.009 C 
HETATM    6  C16 UNL     1      -0.011  14.302 -37.075  1.00  0.00     0.070 C 
HETATM    7  C17 UNL     1       1.291  14.358 -36.334  1.00  0.00     0.235 C 
HETATM    8  N1  UNL     1       1.345  15.371 -35.326  1.00  0.00    -0.038 N 
ATOM      9  H11 UNL     1       1.609  15.017 -34.407  1.00  0.00     0.281 HD
ATOM     10  H12 UNL     1       0.428  15.730 -35.061  1.00  0.00     0.281 HD
HETATM   11  C18 UNL     1       2.243  16.392 -35.836  1.00  0.00     0.296 C 
HETATM   12  C19 UNL     1       2.261  16.052 -37.311  1.00  0.00     0.285 C 
HETATM   13  O2  UNL     1       2.287  14.668 -37.276  1.00  0.00    -0.321 OA
ENDROOT
BRANCH   1  14
HETATM   14  C10 UNL     1       2.846  13.208 -34.899  1.00  0.00    -0.014 C 
HETATM   15  C9  UNL     1       3.876  12.371 -34.875  1.00  0.00    -0.079 C 
HETATM   16  C7  UNL     1       5.037  12.644 -34.008  1.00  0.00     0.010 C 
HETATM   17  C20 UNL     1       3.774  11.170 -35.764  1.00  0.00     0.043 C 
HETATM   18  C6  UNL     1       5.874  11.474 -33.656  1.00  0.00     0.009 C 
HETATM   19  C8  UNL     1       5.881  13.785 -34.571  1.00  0.00     0.015 C 
HETATM   20  C5  UNL     1       5.548  10.190 -34.294  1.00  0.00     0.010 C 
HETATM   21  C3  UNL     1       4.937  10.245 -35.645  1.00  0.00    -0.041 C 
HETATM   22  C4  UNL     1       4.409   8.834 -35.947  1.00  0.00     0.015 C 
BRANCH  21  23
HETATM   23  C2  UNL     1       5.972  10.505 -36.748  1.00  0.00     0.005 C 
HETATM   24  C1  UNL     1       6.007   9.344 -37.716  1.00  0.00     0.006 C 
ENDBRANCH  21  23
ENDBRANCH   1  14
BRANCH  12  25
HETATM   25  O1  UNL     1       3.368  16.588 -37.954  1.00  0.00    -0.369 OA
ATOM     26  H1  UNL     1       3.146  16.950 -38.804  1.00  0.00     0.212 HD
ENDBRANCH  12  25
TORSDOF 3
ENDMDL
MODEL 2
REMARK VINA RESULT: -8.483608104      3.070      6.890
REMARK  3 active torsions:
REMARK  status: ('A' for Active; 'I' for Inactive)
REMARK    1  A    between atoms: C2_2  and  C3_3 
REMARK    2  A    between atoms: C10_10  and  C11_11 
REMARK    3  A    between atoms: C19_22  and  O1_23 
ROOT
HETATM    1  C11 UNL     1       5.987  12.654 -33.863  1.00  0.00     0.072 C 
HETATM    2  C12 UNL     1       6.397  12.775 -32.434  1.00  0.00     0.017 C 
HETATM    3  C13 UNL     1       7.524  11.918 -31.994  1.00  0.00    -0.018 C 
HETATM    4  C14 UNL     1       8.850  12.659 -32.041  1.00  0.00     0.010 C 
HETATM    5  C15 UNL     1       7.692  10.632 -32.718  1.00  0.00     0.009 C 
HETATM    6  C16 UNL     1       7.477  10.705 -34.196  1.00  0.00     0.070 C 
HETATM    7  C17 UNL     1       6.109  11.270 -34.434  1.00  0.00     0.235 C 
HETATM    8  N1  UNL     1       5.046  10.445 -33.950  1.00  0.00    -0.038 N 
ATOM      9  H11 UNL     1       4.403  10.933 -33.326  1.00  0.00     0.281 HD
ATOM     10  H12 UNL     1       5.352   9.737 -33.282  1.00  0.00     0.281 HD
HETATM   11  C18 UNL     1       4.402   9.891 -35.128  1.00  0.00     0.296 C 
HETATM   12  C19 UNL     1       5.473  10.115 -36.175  1.00  0.00     0.285 C 
HETATM   13  O2  UNL     1       5.943  11.371 -35.826  1.00  0.00    -0.321 OA
ENDROOT
BRANCH   1  14
HETATM   14  C10 UNL     1       4.566  13.068 -34.005  1.00  0.00    -0.014 C 
HETATM   15  C9  UNL     1       4.108  14.282 -33.726  1.00  0.00    -0.079 C 
HETATM   16  C7  UNL     1       2.677  14.597 -33.901  1.00  0.00     0.010 C 
HETATM   17  C20 UNL     1       5.118  15.274 -33.238  1.00  0.00     0.043 C 
HETATM   18  C6  UNL     1       2.167  15.749 -33.123  1.00  0.00     0.009 C 
HETATM   19  C8  UNL     1       2.325  14.721 -35.381  1.00  0.00     0.015 C 
HETATM   20  C5  UNL     1       3.144  16.537 -32.357  1.00  0.00     0.010 C 
HETATM   21  C3  UNL     1       4.526  16.598 -32.890  1.00  0.00    -0.041 C 
HETATM   22  C4  UNL     1       5.402  17.190 -31.775  1.00  0.00     0.015 C 
BRANCH  21  23
HETATM   23  C2  UNL     1       4.666  17.593 -34.050  1.00  0.00     0.005 C 
HETATM   24  C1  UNL     1       5.859  17.234 -34.906  1.00  0.00     0.006 C 
ENDBRANCH  21  23
ENDBRANCH   1  14
BRANCH  12  25
HETATM   25  O1  UNL     1       4.956  10.081 -37.463  1.00  0.00    -0.369 OA
ATOM     26  H1  UNL     1       5.625   9.892 -38.110  1.00  0.00     0.212 HD
ENDBRANCH  12  25
TORSDOF 3
ENDMDL
MODEL 3
REMARK VINA RESULT: -7.967922038      2.137      4.232
REMARK  3 active torsions:
REMARK  status: ('A' for Active; 'I' for Inactive)
REMARK    1  A    between atoms: C2_2  and  C3_3 
REMARK    2  A    between atoms: C10_10  and  C11_11 
REMARK    3  A    between atoms: C19_22  and  O1_23 
ROOT
HETATM    1  C11 UNL     1       3.329  13.843 -33.982  1.00  0.00     0.072 C 
HETATM    2  C12 UNL     1       4.435  14.843 -33.945  1.00  0.00     0.017 C 
HETATM    3  C13 UNL     1       4.094  16.189 -33.428  1.00  0.00    -0.018 C 
HETATM    4  C14 UNL     1       4.429  16.330 -31.952  1.00  0.00     0.010 C 
HETATM    5  C15 UNL     1       2.688  16.629 -33.621  1.00  0.00     0.009 C 
HETATM    6  C16 UNL     1       1.656  15.571 -33.396  1.00  0.00     0.070 C 
HETATM    7  C17 UNL     1       1.977  14.417 -34.297  1.00  0.00     0.235 C 
HETATM    8  N1  UNL     1       1.887  14.724 -35.691  1.00  0.00    -0.038 N 
ATOM      9  H11 UNL     1       2.733  14.495 -36.213  1.00  0.00     0.281 HD
ATOM     10  H12 UNL     1       1.887  15.725 -35.888  1.00  0.00     0.281 HD
HETATM   11  C18 UNL     1       0.702  14.038 -36.175  1.00  0.00     0.296 C 
HETATM   12  C19 UNL     1      -0.025  13.765 -34.874  1.00  0.00     0.285 C 
HETATM   13  O2  UNL     1       1.023  13.417 -34.039  1.00  0.00    -0.321 OA
ENDROOT
BRANCH   1  14
HETATM   14  C10 UNL     1       3.626  12.817 -35.017  1.00  0.00    -0.014 C 
HETATM   15  C9  UNL     1       4.633  11.955 -34.950  1.00  0.00    -0.079 C 
HETATM   16  C7  UNL     1       4.845  10.971 -36.029  1.00  0.00     0.010 C 
HETATM   17  C20 UNL     1       5.507  12.052 -33.738  1.00  0.00     0.043 C 
HETATM   18  C6  UNL     1       6.212  10.415 -36.140  1.00  0.00     0.009 C 
HETATM   19  C8  UNL     1       3.794   9.865 -35.971  1.00  0.00     0.015 C 
HETATM   20  C5  UNL     1       7.186  10.793 -35.104  1.00  0.00     0.010 C 
HETATM   21  C3  UNL     1       6.649  11.094 -33.754  1.00  0.00    -0.041 C 
HETATM   22  C4  UNL     1       7.789  11.757 -32.965  1.00  0.00     0.015 C 
BRANCH  21  23
HETATM   23  C2  UNL     1       6.325   9.825 -32.954  1.00  0.00     0.005 C 
HETATM   24  C1  UNL     1       7.339   9.629 -31.851  1.00  0.00     0.006 C 
ENDBRANCH  21  23
ENDBRANCH   1  14
BRANCH  12  25
HETATM   25  O1  UNL     1      -0.959  12.746 -35.006  1.00  0.00    -0.369 OA
ATOM     26  H1  UNL     1      -1.263  12.431 -34.163  1.00  0.00     0.212 HD
ENDBRANCH  12  25
TORSDOF 3
ENDMDL
MODEL 4
REMARK VINA RESULT: -7.951815221      2.222      6.281
REMARK  3 active torsions:
REMARK  status: ('A' for Active; 'I' for Inactive)
REMARK    1  A    between atoms: C2_2  and  C3_3 
REMARK    2  A    between atoms: C10_10  and  C11_11 
REMARK    3  A    between atoms: C19_22  and  O1_23 
ROOT
HETATM    1  C11 UNL     1       3.633  12.948 -34.909  1.00  0.00     0.072 C 
HETATM    2  C12 UNL     1       3.917  13.746 -33.682  1.00  0.00     0.017 C 
HETATM    3  C13 UNL     1       5.331  13.798 -33.239  1.00  0.00    -0.018 C 
HETATM    4  C14 UNL     1       6.039  15.042 -33.751  1.00  0.00     0.010 C 
HETATM    5  C15 UNL     1       6.170  12.621 -33.582  1.00  0.00     0.009 C 
HETATM    6  C16 UNL     1       5.943  12.058 -34.948  1.00  0.00     0.070 C 
HETATM    7  C17 UNL     1       4.487  11.722 -35.071  1.00  0.00     0.235 C 
HETATM    8  N1  UNL     1       4.048  10.698 -34.175  1.00  0.00    -0.038 N 
ATOM      9  H11 UNL     1       3.246  10.970 -33.607  1.00  0.00     0.281 HD
ATOM     10  H12 UNL     1       4.694  10.527 -33.404  1.00  0.00     0.281 HD
HETATM   11  C18 UNL     1       3.805   9.526 -34.998  1.00  0.00     0.296 C 
HETATM   12  C19 UNL     1       4.575   9.887 -36.251  1.00  0.00     0.285 C 
HETATM   13  O2  UNL     1       4.286  11.236 -36.374  1.00  0.00    -0.321 OA
ENDROOT
BRANCH   1  14
HETATM   14  C10 UNL     1       2.215  12.499 -34.889  1.00  0.00    -0.014 C 
HETATM   15  C9  UNL     1       1.256  13.013 -35.648  1.00  0.00    -0.079 C 
HETATM   16  C7  UNL     1      -0.124  12.499 -35.555  1.00  0.00     0.010 C 
HETATM   17  C20 UNL     1       1.665  14.116 -36.574  1.00  0.00     0.043 C 
HETATM   18  C6  UNL     1      -1.190  13.413 -36.025  1.00  0.00     0.009 C 
HETATM   19  C8  UNL     1      -0.237  11.125 -36.211  1.00  0.00     0.015 C 
HETATM   20  C5  UNL     1      -0.773  14.680 -36.646  1.00  0.00     0.010 C 
HETATM   21  C3  UNL     1       0.529  14.685 -37.355  1.00  0.00    -0.041 C 
HETATM   22  C4  UNL     1       0.876  16.158 -37.625  1.00  0.00     0.015 C 
BRANCH  21  23
HETATM   23  C2  UNL     1       0.441  14.055 -38.752  1.00  0.00     0.005 C 
HETATM   24  C1  UNL     1       0.656  15.108 -39.815  1.00  0.00     0.006 C 
ENDBRANCH  21  23
ENDBRANCH   1  14
BRANCH  12  25
HETATM   25  O1  UNL     1       4.155   9.151 -37.350  1.00  0.00    -0.369 OA
ATOM     26  H1  UNL     1       3.689   9.688 -37.980  1.00  0.00     0.212 HD
ENDBRANCH  12  25
TORSDOF 3
ENDMDL
MODEL 5
REMARK VINA RESULT: -7.892648128      2.665      5.278
REMARK  3 active torsions:
REMARK  status: ('A' for Active; 'I' for Inactive)
REMARK    1  A    between atoms: C2_2  and  C3_3 
REMARK    2  A    between atoms: C10_10  and  C11_11 
REMARK    3  A    between atoms: C19_22  and  O1_23 
ROOT
HETATM    1  C11 UNL     1       3.347  13.776 -34.751  1.00  0.00     0.072 C 
HETATM    2  C12 UNL     1       4.194  12.833 -33.966  1.00  0.00     0.017 C 
HETATM    3  C13 UNL     1       4.299  11.449 -34.484  1.00  0.00    -0.018 C 
HETATM    4  C14 UNL     1       5.543  11.257 -35.337  1.00  0.00     0.010 C 
HETATM    5  C15 UNL     1       3.133  10.947 -35.257  1.00  0.00     0.009 C 
HETATM    6  C16 UNL     1       2.517  11.940 -36.189  1.00  0.00     0.070 C 
HETATM    7  C17 UNL     1       2.139  13.150 -35.389  1.00  0.00     0.235 C 
HETATM    8  N1  UNL     1       1.135  12.904 -34.401  1.00  0.00    -0.038 N 
ATOM      9  H11 UNL     1       1.406  13.200 -33.463  1.00  0.00     0.281 HD
ATOM     10  H12 UNL     1       1.008  11.914 -34.187  1.00  0.00     0.281 HD
HETATM   11  C18 UNL     1      -0.071  13.550 -34.888  1.00  0.00     0.296 C 
HETATM   12  C19 UNL     1       0.267  13.726 -36.354  1.00  0.00     0.285 C 
HETATM   13  O2  UNL     1       1.603  14.086 -36.289  1.00  0.00    -0.321 OA
ENDROOT
BRANCH   1  14
HETATM   14  C10 UNL     1       2.862  14.863 -33.859  1.00  0.00    -0.014 C 
HETATM   15  C9  UNL     1       3.653  15.713 -33.215  1.00  0.00    -0.079 C 
HETATM   16  C7  UNL     1       3.074  16.760 -32.352  1.00  0.00     0.010 C 
HETATM   17  C20 UNL     1       5.124  15.534 -33.425  1.00  0.00     0.043 C 
HETATM   18  C6  UNL     1       3.973  17.313 -31.314  1.00  0.00     0.009 C 
HETATM   19  C8  UNL     1       2.441  17.868 -33.191  1.00  0.00     0.015 C 
HETATM   20  C5  UNL     1       5.374  16.864 -31.318  1.00  0.00     0.010 C 
HETATM   21  C3  UNL     1       5.954  16.483 -32.629  1.00  0.00    -0.041 C 
HETATM   22  C4  UNL     1       7.279  15.765 -32.331  1.00  0.00     0.015 C 
BRANCH  21  23
HETATM   23  C2  UNL     1       6.365  17.702 -33.466  1.00  0.00     0.005 C 
HETATM   24  C1  UNL     1       6.257  17.384 -34.940  1.00  0.00     0.006 C 
ENDBRANCH  21  23
ENDBRANCH   1  14
BRANCH  12  25
HETATM   25  O1  UNL     1      -0.518  14.700 -36.955  1.00  0.00    -0.369 OA
ATOM     26  H1  UNL     1      -0.083  15.545 -36.974  1.00  0.00     0.212 HD
ENDBRANCH  12  25
TORSDOF 3
ENDMDL
