MODEL 1
REMARK VINA RESULT: -8.220278758      0.000      0.000
REMARK  5 active torsions:
REMARK  status: ('A' for Active; 'I' for Inactive)
REMARK    1  A    between atoms: C2_2  and  O1_3 
REMARK    2  A    between atoms: O1_3  and  C3_4 
REMARK    3  A    between atoms: C3_4  and  O2_5 
REMARK    4  A    between atoms: C3_4  and  C4_7 
REMARK    5  A    between atoms: C12_15  and  O3_16 
ROOT
HETATM    1  C4  UNL     1       3.847  15.290 -33.922  1.00  0.00     0.010 C 
HETATM    2  C5  UNL     1       4.261  16.410 -34.883  1.00  0.00     0.020 C 
HETATM    3  C6  UNL     1       5.100  14.669 -33.369  1.00  0.00     0.041 C 
HETATM    4  C7  UNL     1       5.467  13.408 -34.019  1.00  0.00    -0.022 C 
HETATM    5  C8  UNL     1       4.554  12.533 -34.452  1.00  0.00    -0.068 C 
HETATM    6  C9  UNL     1       3.133  12.936 -34.222  1.00  0.00     0.016 C 
HETATM    7  C10 UNL     1       2.129  12.004 -34.798  1.00  0.00     0.012 C 
HETATM    8  C11 UNL     1       2.645  10.561 -34.887  1.00  0.00     0.044 C 
HETATM    9  C12 UNL     1       3.827  10.588 -35.775  1.00  0.00     0.092 C 
HETATM   10  C13 UNL     1       4.342   9.257 -36.182  1.00  0.00    -0.054 C 
HETATM   11  C14 UNL     1       3.869   8.115 -35.765  1.00  0.00     0.017 C 
HETATM   12  C15 UNL     1       5.493   9.296 -37.147  1.00  0.00     0.036 C 
HETATM   13  C16 UNL     1       6.545  10.281 -36.767  1.00  0.00     0.006 C 
HETATM   14  C17 UNL     1       6.007  11.552 -36.198  1.00  0.00     0.017 C 
HETATM   15  C18 UNL     1       5.000  11.300 -35.090  1.00  0.00     0.015 C 
HETATM   16  C19 UNL     1       5.570  10.395 -34.008  1.00  0.00     0.023 C 
HETATM   17  C20 UNL     1       2.992  14.346 -34.691  1.00  0.00     0.023 C 
ENDROOT
BRANCH   1  18
HETATM   18  C3  UNL     1       3.062  15.940 -32.817  1.00  0.00     0.270 C 
BRANCH  18  19
HETATM   19  O1  UNL     1       3.414  17.271 -32.597  1.00  0.00    -0.333 OA
BRANCH  19  20
HETATM   20  C2  UNL     1       3.108  17.959 -31.454  1.00  0.00     0.128 C 
HETATM   21  C1  UNL     1       2.358  19.037 -31.468  1.00  0.00     0.037 C 
ENDBRANCH  19  20
ENDBRANCH  18  19
BRANCH  18  22
HETATM   22  O2  UNL     1       1.699  15.914 -33.132  1.00  0.00    -0.370 OA
ATOM     23  H2  UNL     1       1.534  15.114 -33.616  1.00  0.00     0.212 HD
ENDBRANCH  18  22
ENDBRANCH   1  18
BRANCH   9  24
HETATM   24  O3  UNL     1       3.514  11.287 -36.945  1.00  0.00    -0.384 OA
ATOM     25  H3  UNL     1       3.609  12.220 -36.791  1.00  0.00     0.211 HD
ENDBRANCH   9  24
TORSDOF 5
ENDMDL
MODEL 2
REMARK VINA RESULT: -7.880655112      0.916      1.100
REMARK  5 active torsions:
REMARK  status: ('A' for Active; 'I' for Inactive)
REMARK    1  A    between atoms: C2_2  and  O1_3 
REMARK    2  A    between atoms: O1_3  and  C3_4 
REMARK    3  A    between atoms: C3_4  and  O2_5 
REMARK    4  A    between atoms: C3_4  and  C4_7 
REMARK    5  A    between atoms: C12_15  and  O3_16 
ROOT
HETATM    1  C4  UNL     1       4.737  15.628 -33.749  1.00  0.00     0.010 C 
HETATM    2  C5  UNL     1       5.400  16.619 -34.714  1.00  0.00     0.020 C 
HETATM    3  C6  UNL     1       5.812  14.735 -33.193  1.00  0.00     0.041 C 
HETATM    4  C7  UNL     1       5.878  13.422 -33.839  1.00  0.00    -0.022 C 
HETATM    5  C8  UNL     1       4.787  12.781 -34.271  1.00  0.00    -0.068 C 
HETATM    6  C9  UNL     1       3.498  13.502 -34.044  1.00  0.00     0.016 C 
HETATM    7  C10 UNL     1       2.305  12.826 -34.618  1.00  0.00     0.012 C 
HETATM    8  C11 UNL     1       2.474  11.302 -34.702  1.00  0.00     0.044 C 
HETATM    9  C12 UNL     1       3.631  11.053 -35.589  1.00  0.00     0.092 C 
HETATM   10  C13 UNL     1       3.824   9.637 -35.992  1.00  0.00    -0.054 C 
HETATM   11  C14 UNL     1       3.099   8.637 -35.572  1.00  0.00     0.017 C 
HETATM   12  C15 UNL     1       4.953   9.406 -36.956  1.00  0.00     0.036 C 
HETATM   13  C16 UNL     1       6.204  10.122 -36.577  1.00  0.00     0.006 C 
HETATM   14  C17 UNL     1       5.974  11.484 -36.012  1.00  0.00     0.017 C 
HETATM   15  C18 UNL     1       4.936  11.475 -34.905  1.00  0.00     0.015 C 
HETATM   16  C19 UNL     1       5.281  10.467 -33.820  1.00  0.00     0.023 C 
HETATM   17  C20 UNL     1       3.687  14.905 -34.517  1.00  0.00     0.023 C 
ENDROOT
BRANCH   1  18
HETATM   18  C3  UNL     1       4.123  16.445 -32.647  1.00  0.00     0.270 C 
BRANCH  18  19
HETATM   19  O1  UNL     1       2.780  16.147 -32.421  1.00  0.00    -0.333 OA
BRANCH  19  20
HETATM   20  C2  UNL     1       1.885  17.034 -31.886  1.00  0.00     0.128 C 
HETATM   21  C1  UNL     1       1.983  18.329 -32.083  1.00  0.00     0.037 C 
ENDBRANCH  19  20
ENDBRANCH  18  19
BRANCH  18  22
HETATM   22  O2  UNL     1       4.811  16.213 -31.451  1.00  0.00    -0.370 OA
ATOM     23  H2  UNL     1       5.402  15.484 -31.600  1.00  0.00     0.212 HD
ENDBRANCH  18  22
ENDBRANCH   1  18
BRANCH   9  24
HETATM   24  O3  UNL     1       3.488  11.801 -36.761  1.00  0.00    -0.384 OA
ATOM     25  H3  UNL     1       4.300  11.775 -37.254  1.00  0.00     0.211 HD
ENDBRANCH   9  24
TORSDOF 5
ENDMDL
MODEL 3
REMARK VINA RESULT: -7.600426810      1.867      6.489
REMARK  5 active torsions:
REMARK  status: ('A' for Active; 'I' for Inactive)
REMARK    1  A    between atoms: C2_2  and  O1_3 
REMARK    2  A    between atoms: O1_3  and  C3_4 
REMARK    3  A    between atoms: C3_4  and  O2_5 
REMARK    4  A    between atoms: C3_4  and  C4_7 
REMARK    5  A    between atoms: C12_15  and  O3_16 
ROOT
HETATM    1  C4  UNL     1       5.234  11.339 -35.199  1.00  0.00     0.010 C 
HETATM    2  C5  UNL     1       5.663  11.147 -36.658  1.00  0.00     0.020 C 
HETATM    3  C6  UNL     1       3.742  11.530 -35.177  1.00  0.00     0.041 C 
HETATM    4  C7  UNL     1       3.331  12.930 -35.047  1.00  0.00    -0.022 C 
HETATM    5  C8  UNL     1       4.018  13.814 -34.316  1.00  0.00    -0.068 C 
HETATM    6  C9  UNL     1       5.234  13.268 -33.641  1.00  0.00     0.016 C 
HETATM    7  C10 UNL     1       6.044  14.282 -32.916  1.00  0.00     0.012 C 
HETATM    8  C11 UNL     1       5.200  15.464 -32.417  1.00  0.00     0.044 C 
HETATM    9  C12 UNL     1       4.611  16.099 -33.616  1.00  0.00     0.092 C 
HETATM   10  C13 UNL     1       3.945  17.403 -33.376  1.00  0.00    -0.054 C 
HETATM   11  C14 UNL     1       3.801  17.964 -32.207  1.00  0.00     0.017 C 
HETATM   12  C15 UNL     1       3.420  18.078 -34.612  1.00  0.00     0.036 C 
HETATM   13  C16 UNL     1       2.674  17.154 -35.513  1.00  0.00     0.006 C 
HETATM   14  C17 UNL     1       3.268  15.789 -35.606  1.00  0.00     0.017 C 
HETATM   15  C18 UNL     1       3.543  15.191 -34.237  1.00  0.00     0.015 C 
HETATM   16  C19 UNL     1       2.301  15.206 -33.359  1.00  0.00     0.023 C 
HETATM   17  C20 UNL     1       6.001  12.499 -34.666  1.00  0.00     0.023 C 
ENDROOT
BRANCH   1  18
HETATM   18  C3  UNL     1       5.604  10.077 -34.472  1.00  0.00     0.270 C 
BRANCH  18  19
HETATM   19  O1  UNL     1       5.725  10.249 -33.094  1.00  0.00    -0.333 OA
BRANCH  19  20
HETATM   20  C2  UNL     1       6.843   9.906 -32.380  1.00  0.00     0.128 C 
HETATM   21  C1  UNL     1       7.608  10.806 -31.806  1.00  0.00     0.037 C 
ENDBRANCH  19  20
ENDBRANCH  18  19
BRANCH  18  22
HETATM   22  O2  UNL     1       4.622   9.105 -34.688  1.00  0.00    -0.370 OA
ATOM     23  H2  UNL     1       4.956   8.282 -34.349  1.00  0.00     0.212 HD
ENDBRANCH  18  22
ENDBRANCH   1  18
BRANCH   9  24
HETATM   24  O3  UNL     1       5.612  16.313 -34.568  1.00  0.00    -0.384 OA
ATOM     25  H3  UNL     1       5.220  16.364 -35.432  1.00  0.00     0.211 HD
ENDBRANCH   9  24
TORSDOF 5
ENDMDL
MODEL 4
REMARK VINA RESULT: -7.336134220      3.970      6.653
REMARK  5 active torsions:
REMARK  status: ('A' for Active; 'I' for Inactive)
REMARK    1  A    between atoms: C2_2  and  O1_3 
REMARK    2  A    between atoms: O1_3  and  C3_4 
REMARK    3  A    between atoms: C3_4  and  O2_5 
REMARK    4  A    between atoms: C3_4  and  C4_7 
REMARK    5  A    between atoms: C12_15  and  O3_16 
ROOT
HETATM    1  C4  UNL     1       2.625  20.897 -35.576  1.00  0.00     0.010 C 
HETATM    2  C5  UNL     1       3.646  22.023 -35.371  1.00  0.00     0.020 C 
HETATM    3  C6  UNL     1       1.961  20.629 -34.254  1.00  0.00     0.041 C 
HETATM    4  C7  UNL     1       2.493  19.456 -33.555  1.00  0.00    -0.022 C 
HETATM    5  C8  UNL     1       2.907  18.363 -34.204  1.00  0.00    -0.068 C 
HETATM    6  C9  UNL     1       2.784  18.426 -35.692  1.00  0.00     0.016 C 
HETATM    7  C10 UNL     1       3.341  17.247 -36.406  1.00  0.00     0.012 C 
HETATM    8  C11 UNL     1       3.293  15.967 -35.559  1.00  0.00     0.044 C 
HETATM    9  C12 UNL     1       4.116  16.224 -34.358  1.00  0.00     0.092 C 
HETATM   10  C13 UNL     1       4.392  15.032 -33.516  1.00  0.00    -0.054 C 
HETATM   11  C14 UNL     1       3.916  13.838 -33.735  1.00  0.00     0.017 C 
HETATM   12  C15 UNL     1       5.295  15.288 -32.342  1.00  0.00     0.036 C 
HETATM   13  C16 UNL     1       4.934  16.517 -31.582  1.00  0.00     0.006 C 
HETATM   14  C17 UNL     1       4.493  17.654 -32.442  1.00  0.00     0.017 C 
HETATM   15  C18 UNL     1       3.424  17.236 -33.436  1.00  0.00     0.015 C 
HETATM   16  C19 UNL     1       2.248  16.562 -32.746  1.00  0.00     0.023 C 
HETATM   17  C20 UNL     1       3.366  19.729 -36.129  1.00  0.00     0.023 C 
ENDROOT
BRANCH   1  18
HETATM   18  C3  UNL     1       1.617  21.405 -36.568  1.00  0.00     0.270 C 
BRANCH  18  19
HETATM   19  O1  UNL     1       2.177  21.758 -37.794  1.00  0.00    -0.333 OA
BRANCH  19  20
HETATM   20  C2  UNL     1       1.612  22.660 -38.656  1.00  0.00     0.128 C 
HETATM   21  C1  UNL     1       0.481  23.270 -38.385  1.00  0.00     0.037 C 
ENDBRANCH  19  20
ENDBRANCH  18  19
BRANCH  18  22
HETATM   22  O2  UNL     1       0.660  20.414 -36.814  1.00  0.00    -0.370 OA
ATOM     23  H2  UNL     1       0.935  19.632 -36.351  1.00  0.00     0.212 HD
ENDBRANCH  18  22
ENDBRANCH   1  18
BRANCH   9  24
HETATM   24  O3  UNL     1       5.350  16.754 -34.744  1.00  0.00    -0.384 OA
ATOM     25  H3  UNL     1       5.652  17.365 -34.082  1.00  0.00     0.211 HD
ENDBRANCH   9  24
TORSDOF 5
ENDMDL
MODEL 5
REMARK VINA RESULT: -7.191422775      3.109      4.928
REMARK  5 active torsions:
REMARK  status: ('A' for Active; 'I' for Inactive)
REMARK    1  A    between atoms: C2_2  and  O1_3 
REMARK    2  A    between atoms: O1_3  and  C3_4 
REMARK    3  A    between atoms: C3_4  and  O2_5 
REMARK    4  A    between atoms: C3_4  and  C4_7 
REMARK    5  A    between atoms: C12_15  and  O3_16 
ROOT
HETATM    1  C4  UNL     1       3.657  17.881 -35.196  1.00  0.00     0.010 C 
HETATM    2  C5  UNL     1       2.825  19.121 -34.848  1.00  0.00     0.020 C 
HETATM    3  C6  UNL     1       3.370  17.519 -36.628  1.00  0.00     0.041 C 
HETATM    4  C7  UNL     1       2.421  16.412 -36.775  1.00  0.00    -0.022 C 
HETATM    5  C8  UNL     1       2.380  15.386 -35.920  1.00  0.00    -0.068 C 
HETATM    6  C9  UNL     1       3.374  15.450 -34.806  1.00  0.00     0.016 C 
HETATM    7  C10 UNL     1       3.251  14.356 -33.807  1.00  0.00     0.012 C 
HETATM    8  C11 UNL     1       2.665  13.070 -34.409  1.00  0.00     0.044 C 
HETATM    9  C12 UNL     1       1.314  13.412 -34.904  1.00  0.00     0.092 C 
HETATM   10  C13 UNL     1       0.482  12.254 -35.316  1.00  0.00    -0.054 C 
HETATM   11  C14 UNL     1       0.882  11.013 -35.326  1.00  0.00     0.017 C 
HETATM   12  C15 UNL     1      -0.916  12.605 -35.743  1.00  0.00     0.036 C 
HETATM   13  C16 UNL     1      -0.972  13.773 -36.667  1.00  0.00     0.006 C 
HETATM   14  C17 UNL     1      -0.002  14.857 -36.333  1.00  0.00     0.017 C 
HETATM   15  C18 UNL     1       1.405  14.322 -36.136  1.00  0.00     0.015 C 
HETATM   16  C19 UNL     1       1.867  13.502 -37.330  1.00  0.00     0.023 C 
HETATM   17  C20 UNL     1       3.292  16.820 -34.218  1.00  0.00     0.023 C 
ENDROOT
BRANCH   1  18
HETATM   18  C3  UNL     1       5.099  18.273 -35.042  1.00  0.00     0.270 C 
BRANCH  18  19
HETATM   19  O1  UNL     1       5.350  19.602 -35.380  1.00  0.00    -0.333 OA
BRANCH  19  20
HETATM   20  C2  UNL     1       6.301  19.990 -36.285  1.00  0.00     0.128 C 
HETATM   21  C1  UNL     1       6.928  19.126 -37.052  1.00  0.00     0.037 C 
ENDBRANCH  19  20
ENDBRANCH  18  19
BRANCH  18  22
HETATM   22  O2  UNL     1       5.494  18.098 -33.711  1.00  0.00    -0.370 OA
ATOM     23  H2  UNL     1       6.303  17.599 -33.718  1.00  0.00     0.212 HD
ENDBRANCH  18  22
ENDBRANCH   1  18
BRANCH   9  24
HETATM   24  O3  UNL     1       0.612  14.094 -33.907  1.00  0.00    -0.384 OA
ATOM     25  H3  UNL     1       0.247  13.467 -33.293  1.00  0.00     0.211 HD
ENDBRANCH   9  24
TORSDOF 5
ENDMDL
