MODEL 1
REMARK VINA RESULT: -8.513899687      0.000      0.000
REMARK  7 active torsions:
REMARK  status: ('A' for Active; 'I' for Inactive)
REMARK    1  A    between atoms: C9_9  and  C10_10 
REMARK    2  A    between atoms: C10_10  and  C11_11 
REMARK    3  A    between atoms: C11_11  and  C12_12 
REMARK    4  A    between atoms: C12_12  and  C13_14 
REMARK    5  A    between atoms: C13_14  and  C14_15 
REMARK    6  A    between atoms: C14_15  and  C15_16 
REMARK    7  A    between atoms: C15_16  and  C16_17 
ROOT
HETATM    1  C1  UNL     1     -12.779   0.609 -21.745  1.00  0.00     0.018 C 
HETATM    2  C2  UNL     1     -12.592   1.522 -20.544  1.00  0.00     0.051 C 
HETATM    3  C3  UNL     1     -13.774   1.377 -19.636  1.00  0.00     0.017 C 
HETATM    4  C4  UNL     1     -14.221   2.800 -19.262  1.00  0.00    -0.001 C 
HETATM    5  C5  UNL     1     -15.465   2.792 -18.457  1.00  0.00     0.008 C 
HETATM    6  C6  UNL     1     -16.340   3.965 -18.918  1.00  0.00     0.014 C 
HETATM    7  C7  UNL     1     -15.290   2.868 -17.012  1.00  0.00    -0.025 C 
HETATM    8  C8  UNL     1     -14.161   3.356 -16.506  1.00  0.00    -0.016 C 
HETATM    9  C9  UNL     1     -13.029   3.845 -17.294  1.00  0.00     0.003 A 
HETATM   10  C21 UNL     1     -12.160   2.759 -17.843  1.00  0.00     0.008 A 
HETATM   11  C22 UNL     1     -10.705   3.007 -18.176  1.00  0.00     0.013 C 
HETATM   12  C23 UNL     1     -10.196   2.043 -19.225  1.00  0.00     0.079 C 
HETATM   13  C24 UNL     1     -11.288   1.279 -19.872  1.00  0.00     0.130 C 
HETATM   14  O2  UNL     1     -11.054   0.084 -19.849  1.00  0.00    -0.298 OA
HETATM   15  C25 UNL     1     -13.058   3.516 -18.729  1.00  0.00     0.012 A 
ENDROOT
BRANCH   9  16
HETATM   16  C10 UNL     1     -12.459   5.168 -16.956  1.00  0.00    -0.009 C 
BRANCH  16  17
HETATM   17  C11 UNL     1     -12.528   5.731 -15.616  1.00  0.00     0.047 C 
BRANCH  17  18
HETATM   18  C12 UNL     1     -11.662   5.324 -14.542  1.00  0.00     0.149 C 
HETATM   19  O1  UNL     1     -11.670   5.867 -13.454  1.00  0.00    -0.293 OA
BRANCH  18  20
HETATM   20  C13 UNL     1     -10.692   4.179 -14.712  1.00  0.00     0.083 C 
BRANCH  20  21
HETATM   21  C14 UNL     1     -11.288   2.910 -14.187  1.00  0.00     0.008 C 
BRANCH  21  22
HETATM   22  C15 UNL     1     -10.594   1.717 -14.764  1.00  0.00     0.005 C 
BRANCH  22  23
HETATM   23  C16 UNL     1     -11.353   0.457 -14.528  1.00  0.00    -0.014 C 
HETATM   24  C17 UNL     1     -11.074  -0.492 -15.703  1.00  0.00     0.004 C 
HETATM   25  C18 UNL     1     -12.286  -0.314 -16.615  1.00  0.00     0.000 C 
HETATM   26  C19 UNL     1     -13.395  -0.254 -15.563  1.00  0.00     0.000 C 
HETATM   27  C20 UNL     1     -12.846   0.684 -14.524  1.00  0.00     0.004 C 
ENDBRANCH  22  23
ENDBRANCH  21  22
ENDBRANCH  20  21
ENDBRANCH  18  20
ENDBRANCH  17  18
ENDBRANCH  16  17
ENDBRANCH   9  16
TORSDOF 7
ENDMDL
MODEL 2
REMARK VINA RESULT: -8.227004325      1.033      1.625
REMARK  7 active torsions:
REMARK  status: ('A' for Active; 'I' for Inactive)
REMARK    1  A    between atoms: C9_9  and  C10_10 
REMARK    2  A    between atoms: C10_10  and  C11_11 
REMARK    3  A    between atoms: C11_11  and  C12_12 
REMARK    4  A    between atoms: C12_12  and  C13_14 
REMARK    5  A    between atoms: C13_14  and  C14_15 
REMARK    6  A    between atoms: C14_15  and  C15_16 
REMARK    7  A    between atoms: C15_16  and  C16_17 
ROOT
HETATM    1  C1  UNL     1     -12.824   0.587 -21.802  1.00  0.00     0.018 C 
HETATM    2  C2  UNL     1     -12.670   1.517 -20.609  1.00  0.00     0.051 C 
HETATM    3  C3  UNL     1     -13.881   1.389 -19.736  1.00  0.00     0.017 C 
HETATM    4  C4  UNL     1     -14.334   2.819 -19.397  1.00  0.00    -0.001 C 
HETATM    5  C5  UNL     1     -15.603   2.826 -18.631  1.00  0.00     0.008 C 
HETATM    6  C6  UNL     1     -16.459   3.995 -19.137  1.00  0.00     0.014 C 
HETATM    7  C7  UNL     1     -15.473   2.923 -17.182  1.00  0.00    -0.025 C 
HETATM    8  C8  UNL     1     -14.359   3.414 -16.648  1.00  0.00    -0.016 C 
HETATM    9  C9  UNL     1     -13.200   3.888 -17.408  1.00  0.00     0.003 A 
HETATM   10  C21 UNL     1     -12.319   2.792 -17.914  1.00  0.00     0.008 A 
HETATM   11  C22 UNL     1     -10.854   3.030 -18.205  1.00  0.00     0.013 C 
HETATM   12  C23 UNL     1     -10.316   2.050 -19.223  1.00  0.00     0.079 C 
HETATM   13  C24 UNL     1     -11.389   1.280 -19.893  1.00  0.00     0.130 C 
HETATM   14  O2  UNL     1     -11.160   0.085 -19.845  1.00  0.00    -0.298 OA
HETATM   15  C25 UNL     1     -13.186   3.538 -18.838  1.00  0.00     0.012 A 
ENDROOT
BRANCH   9  16
HETATM   16  C10 UNL     1     -12.637   5.214 -17.071  1.00  0.00    -0.009 C 
BRANCH  16  17
HETATM   17  C11 UNL     1     -12.814   5.831 -15.765  1.00  0.00     0.047 C 
BRANCH  17  18
HETATM   18  C12 UNL     1     -11.776   6.564 -15.091  1.00  0.00     0.149 C 
HETATM   19  O1  UNL     1     -11.573   7.746 -15.292  1.00  0.00    -0.293 OA
BRANCH  18  20
HETATM   20  C13 UNL     1     -10.878   5.894 -14.078  1.00  0.00     0.083 C 
BRANCH  20  21
HETATM   21  C14 UNL     1     -10.039   4.846 -14.740  1.00  0.00     0.008 C 
BRANCH  21  22
HETATM   22  C15 UNL     1     -10.158   3.538 -14.025  1.00  0.00     0.005 C 
BRANCH  22  23
HETATM   23  C16 UNL     1     -11.294   2.720 -14.533  1.00  0.00    -0.014 C 
HETATM   24  C17 UNL     1     -12.355   2.641 -13.425  1.00  0.00     0.004 C 
HETATM   25  C18 UNL     1     -12.097   1.288 -12.766  1.00  0.00     0.000 C 
HETATM   26  C19 UNL     1     -11.824   0.441 -14.011  1.00  0.00     0.000 C 
HETATM   27  C20 UNL     1     -10.887   1.294 -14.818  1.00  0.00     0.004 C 
ENDBRANCH  22  23
ENDBRANCH  21  22
ENDBRANCH  20  21
ENDBRANCH  18  20
ENDBRANCH  17  18
ENDBRANCH  16  17
ENDBRANCH   9  16
TORSDOF 7
ENDMDL
MODEL 3
REMARK VINA RESULT: -8.052684801      1.859      3.092
REMARK  7 active torsions:
REMARK  status: ('A' for Active; 'I' for Inactive)
REMARK    1  A    between atoms: C9_9  and  C10_10 
REMARK    2  A    between atoms: C10_10  and  C11_11 
REMARK    3  A    between atoms: C11_11  and  C12_12 
REMARK    4  A    between atoms: C12_12  and  C13_14 
REMARK    5  A    between atoms: C13_14  and  C14_15 
REMARK    6  A    between atoms: C14_15  and  C15_16 
REMARK    7  A    between atoms: C15_16  and  C16_17 
ROOT
HETATM    1  C1  UNL     1     -12.719   0.605 -21.722  1.00  0.00     0.018 C 
HETATM    2  C2  UNL     1     -12.617   1.547 -20.533  1.00  0.00     0.051 C 
HETATM    3  C3  UNL     1     -13.849   1.402 -19.693  1.00  0.00     0.017 C 
HETATM    4  C4  UNL     1     -14.339   2.826 -19.379  1.00  0.00    -0.001 C 
HETATM    5  C5  UNL     1     -15.629   2.814 -18.649  1.00  0.00     0.008 C 
HETATM    6  C6  UNL     1     -16.493   3.962 -19.189  1.00  0.00     0.014 C 
HETATM    7  C7  UNL     1     -15.541   2.925 -17.199  1.00  0.00    -0.025 C 
HETATM    8  C8  UNL     1     -14.452   3.443 -16.638  1.00  0.00    -0.016 C 
HETATM    9  C9  UNL     1     -13.283   3.933 -17.369  1.00  0.00     0.003 A 
HETATM   10  C21 UNL     1     -12.366   2.850 -17.840  1.00  0.00     0.008 A 
HETATM   11  C22 UNL     1     -10.898   3.115 -18.092  1.00  0.00     0.013 C 
HETATM   12  C23 UNL     1     -10.313   2.137 -19.087  1.00  0.00     0.079 C 
HETATM   13  C24 UNL     1     -11.352   1.340 -19.779  1.00  0.00     0.130 C 
HETATM   14  O2  UNL     1     -11.102   0.151 -19.715  1.00  0.00    -0.298 OA
HETATM   15  C25 UNL     1     -13.221   3.572 -18.795  1.00  0.00     0.012 A 
ENDROOT
BRANCH   9  16
HETATM   16  C10 UNL     1     -12.755   5.272 -17.028  1.00  0.00    -0.009 C 
BRANCH  16  17
HETATM   17  C11 UNL     1     -12.796   5.810 -15.676  1.00  0.00     0.047 C 
BRANCH  17  18
HETATM   18  C12 UNL     1     -11.695   6.510 -15.070  1.00  0.00     0.149 C 
HETATM   19  O1  UNL     1     -11.494   7.696 -15.253  1.00  0.00    -0.293 OA
BRANCH  18  20
HETATM   20  C13 UNL     1     -10.723   5.799 -14.159  1.00  0.00     0.083 C 
BRANCH  20  21
HETATM   21  C14 UNL     1     -10.640   4.348 -14.517  1.00  0.00     0.008 C 
BRANCH  21  22
HETATM   22  C15 UNL     1      -9.216   3.910 -14.641  1.00  0.00     0.005 C 
BRANCH  22  23
HETATM   23  C16 UNL     1      -8.362   4.458 -13.551  1.00  0.00    -0.014 C 
HETATM   24  C17 UNL     1      -6.974   4.754 -14.138  1.00  0.00     0.004 C 
HETATM   25  C18 UNL     1      -6.140   3.537 -13.741  1.00  0.00     0.000 C 
HETATM   26  C19 UNL     1      -6.646   3.332 -12.311  1.00  0.00     0.000 C 
HETATM   27  C20 UNL     1      -8.138   3.454 -12.445  1.00  0.00     0.004 C 
ENDBRANCH  22  23
ENDBRANCH  21  22
ENDBRANCH  20  21
ENDBRANCH  18  20
ENDBRANCH  17  18
ENDBRANCH  16  17
ENDBRANCH   9  16
TORSDOF 7
ENDMDL
MODEL 4
REMARK VINA RESULT: -8.026422270      1.204      1.611
REMARK  7 active torsions:
REMARK  status: ('A' for Active; 'I' for Inactive)
REMARK    1  A    between atoms: C9_9  and  C10_10 
REMARK    2  A    between atoms: C10_10  and  C11_11 
REMARK    3  A    between atoms: C11_11  and  C12_12 
REMARK    4  A    between atoms: C12_12  and  C13_14 
REMARK    5  A    between atoms: C13_14  and  C14_15 
REMARK    6  A    between atoms: C14_15  and  C15_16 
REMARK    7  A    between atoms: C15_16  and  C16_17 
ROOT
HETATM    1  C1  UNL     1     -12.762   0.654 -21.682  1.00  0.00     0.018 C 
HETATM    2  C2  UNL     1     -12.566   1.557 -20.474  1.00  0.00     0.051 C 
HETATM    3  C3  UNL     1     -13.749   1.416 -19.566  1.00  0.00     0.017 C 
HETATM    4  C4  UNL     1     -14.183   2.840 -19.182  1.00  0.00    -0.001 C 
HETATM    5  C5  UNL     1     -15.427   2.837 -18.376  1.00  0.00     0.008 C 
HETATM    6  C6  UNL     1     -16.292   4.020 -18.829  1.00  0.00     0.014 C 
HETATM    7  C7  UNL     1     -15.249   2.902 -16.931  1.00  0.00    -0.025 C 
HETATM    8  C8  UNL     1     -14.116   3.378 -16.423  1.00  0.00    -0.016 C 
HETATM    9  C9  UNL     1     -12.980   3.862 -17.209  1.00  0.00     0.003 A 
HETATM   10  C21 UNL     1     -12.121   2.773 -17.766  1.00  0.00     0.008 A 
HETATM   11  C22 UNL     1     -10.665   3.011 -18.099  1.00  0.00     0.013 C 
HETATM   12  C23 UNL     1     -10.165   2.050 -19.155  1.00  0.00     0.079 C 
HETATM   13  C24 UNL     1     -11.264   1.299 -19.805  1.00  0.00     0.130 C 
HETATM   14  O2  UNL     1     -11.040   0.102 -19.791  1.00  0.00    -0.298 OA
HETATM   15  C25 UNL     1     -13.014   3.542 -18.646  1.00  0.00     0.012 A 
ENDROOT
BRANCH   9  16
HETATM   16  C10 UNL     1     -12.400   5.178 -16.863  1.00  0.00    -0.009 C 
BRANCH  16  17
HETATM   17  C11 UNL     1     -12.657   5.838 -15.592  1.00  0.00     0.047 C 
BRANCH  17  18
HETATM   18  C12 UNL     1     -12.040   5.440 -14.355  1.00  0.00     0.149 C 
HETATM   19  O1  UNL     1     -12.684   5.087 -13.386  1.00  0.00    -0.293 OA
BRANCH  18  20
HETATM   20  C13 UNL     1     -10.538   5.433 -14.199  1.00  0.00     0.083 C 
BRANCH  20  21
HETATM   21  C14 UNL     1      -9.965   4.158 -14.734  1.00  0.00     0.008 C 
BRANCH  21  22
HETATM   22  C15 UNL     1      -9.477   3.284 -13.622  1.00  0.00     0.005 C 
BRANCH  22  23
HETATM   23  C16 UNL     1      -9.918   1.871 -13.783  1.00  0.00    -0.014 C 
HETATM   24  C17 UNL     1     -11.372   1.880 -14.278  1.00  0.00     0.004 C 
HETATM   25  C18 UNL     1     -12.193   1.653 -13.010  1.00  0.00     0.000 C 
HETATM   26  C19 UNL     1     -11.329   0.588 -12.330  1.00  0.00     0.000 C 
HETATM   27  C20 UNL     1      -9.932   1.126 -12.470  1.00  0.00     0.004 C 
ENDBRANCH  22  23
ENDBRANCH  21  22
ENDBRANCH  20  21
ENDBRANCH  18  20
ENDBRANCH  17  18
ENDBRANCH  16  17
ENDBRANCH   9  16
TORSDOF 7
ENDMDL
MODEL 5
REMARK VINA RESULT: -7.889432677      1.923      6.079
REMARK  7 active torsions:
REMARK  status: ('A' for Active; 'I' for Inactive)
REMARK    1  A    between atoms: C9_9  and  C10_10 
REMARK    2  A    between atoms: C10_10  and  C11_11 
REMARK    3  A    between atoms: C11_11  and  C12_12 
REMARK    4  A    between atoms: C12_12  and  C13_14 
REMARK    5  A    between atoms: C13_14  and  C14_15 
REMARK    6  A    between atoms: C14_15  and  C15_16 
REMARK    7  A    between atoms: C15_16  and  C16_17 
ROOT
HETATM    1  C1  UNL     1      -8.271   4.446 -14.045  1.00  0.00     0.018 C 
HETATM    2  C2  UNL     1      -9.640   4.534 -14.702  1.00  0.00     0.051 C 
HETATM    3  C3  UNL     1     -10.331   3.213 -14.558  1.00  0.00     0.017 C 
HETATM    4  C4  UNL     1     -10.907   2.863 -15.941  1.00  0.00    -0.001 C 
HETATM    5  C5  UNL     1     -11.516   1.511 -15.956  1.00  0.00     0.008 C 
HETATM    6  C6  UNL     1     -11.173   0.849 -17.297  1.00  0.00     0.014 C 
HETATM    7  C7  UNL     1     -12.959   1.461 -15.756  1.00  0.00    -0.025 C 
HETATM    8  C8  UNL     1     -13.700   2.539 -15.994  1.00  0.00    -0.016 C 
HETATM    9  C9  UNL     1     -13.184   3.827 -16.459  1.00  0.00     0.003 A 
HETATM   10  C21 UNL     1     -12.561   4.654 -15.381  1.00  0.00     0.008 A 
HETATM   11  C22 UNL     1     -12.486   6.162 -15.489  1.00  0.00     0.013 C 
HETATM   12  C23 UNL     1     -11.351   6.728 -14.664  1.00  0.00     0.079 C 
HETATM   13  C24 UNL     1     -10.426   5.680 -14.175  1.00  0.00     0.130 C 
HETATM   14  O2  UNL     1     -10.250   5.782 -12.974  1.00  0.00    -0.298 OA
HETATM   15  C25 UNL     1     -11.722   3.993 -16.392  1.00  0.00     0.012 A 
ENDROOT
BRANCH   9  16
HETATM   16  C10 UNL     1     -13.845   4.470 -17.616  1.00  0.00    -0.009 C 
BRANCH  16  17
HETATM   17  C11 UNL     1     -13.548   4.101 -18.992  1.00  0.00     0.047 C 
BRANCH  17  18
HETATM   18  C12 UNL     1     -14.311   3.132 -19.733  1.00  0.00     0.149 C 
HETATM   19  O1  UNL     1     -15.271   3.438 -20.414  1.00  0.00    -0.293 OA
BRANCH  18  20
HETATM   20  C13 UNL     1     -13.949   1.666 -19.707  1.00  0.00     0.083 C 
BRANCH  20  21
HETATM   21  C14 UNL     1     -13.179   1.299 -20.937  1.00  0.00     0.008 C 
BRANCH  21  22
HETATM   22  C15 UNL     1     -11.716   1.201 -20.642  1.00  0.00     0.005 C 
BRANCH  22  23
HETATM   23  C16 UNL     1     -11.132  -0.083 -21.117  1.00  0.00    -0.014 C 
HETATM   24  C17 UNL     1      -9.688  -0.169 -20.599  1.00  0.00     0.004 C 
HETATM   25  C18 UNL     1      -8.844   0.283 -21.788  1.00  0.00     0.000 C 
HETATM   26  C19 UNL     1      -9.590  -0.429 -22.919  1.00  0.00     0.000 C 
HETATM   27  C20 UNL     1     -11.035  -0.144 -22.622  1.00  0.00     0.004 C 
ENDBRANCH  22  23
ENDBRANCH  21  22
ENDBRANCH  20  21
ENDBRANCH  18  20
ENDBRANCH  17  18
ENDBRANCH  16  17
ENDBRANCH   9  16
TORSDOF 7
ENDMDL
