MODEL 1
REMARK VINA RESULT: -9.259482570      0.000      0.000
REMARK  6 active torsions:
REMARK  status: ('A' for Active; 'I' for Inactive)
REMARK    1  A    between atoms: C2_2  and  C3_3 
REMARK    2  A    between atoms: C3_3  and  C4_4 
REMARK    3  A    between atoms: C5_5  and  C7_7 
REMARK       I    between atoms: N1_11  and  C11_12 
REMARK    4  A    between atoms: C11_12  and  C12_14 
REMARK    5  A    between atoms: C12_14  and  C13_15 
REMARK    6  A    between atoms: C13_15  and  C14_16 
ROOT
HETATM    1  C7  UNL     1     -13.869   2.681 -17.903  1.00  0.00     0.024 C 
HETATM    2  C8  UNL     1     -13.410   1.418 -17.161  1.00  0.00     0.012 C 
HETATM    3  C9  UNL     1     -12.770   2.056 -15.942  1.00  0.00     0.027 C 
HETATM    4  C10 UNL     1     -12.350   3.438 -16.392  1.00  0.00     0.096 C 
HETATM    5  N1  UNL     1     -11.053   3.785 -15.971  1.00  0.00    -0.347 N 
HETATM    6  C11 UNL     1     -10.804   3.911 -14.560  1.00  0.00     0.220 C 
HETATM    7  O1  UNL     1     -11.765   3.669 -13.768  1.00  0.00    -0.273 OA
HETATM    8  C19 UNL     1      -9.999   4.006 -16.890  1.00  0.00     0.126 C 
HETATM    9  C20 UNL     1     -10.089   3.078 -18.043  1.00  0.00     0.021 C 
HETATM   10  C21 UNL     1     -11.449   2.919 -18.668  1.00  0.00     0.013 C 
HETATM   11  C22 UNL     1     -12.571   3.449 -17.894  1.00  0.00    -0.016 C 
HETATM   12  C23 UNL     1     -12.883   4.889 -18.290  1.00  0.00     0.018 C 
ENDROOT
BRANCH   6  13
HETATM   13  C12 UNL     1      -9.452   4.307 -14.149  1.00  0.00     0.106 C 
BRANCH  13  14
HETATM   14  C13 UNL     1      -8.698   3.437 -13.230  1.00  0.00     0.046 C 
BRANCH  14  15
HETATM   15  C14 UNL     1      -7.228   3.380 -13.442  1.00  0.00     0.155 C 
HETATM   16  C15 UNL     1      -6.535   3.184 -12.108  1.00  0.00     0.002 C 
HETATM   17  C16 UNL     1      -5.344   3.697 -11.915  1.00  0.00    -0.018 C 
HETATM   18  C17 UNL     1      -4.559   4.480 -12.890  1.00  0.00     0.138 C 
HETATM   19  C18 UNL     1      -5.388   4.883 -14.050  1.00  0.00     0.262 C 
HETATM   20  O2  UNL     1      -4.898   5.497 -15.025  1.00  0.00    -0.265 OA
HETATM   21  O3  UNL     1      -6.735   4.555 -14.016  1.00  0.00    -0.312 OA
ENDBRANCH  14  15
ENDBRANCH  13  14
ENDBRANCH   6  13
BRANCH   1  22
HETATM   22  C5  UNL     1     -14.511   2.428 -19.155  1.00  0.00    -0.083 C 
HETATM   23  C4  UNL     1     -15.654   2.973 -19.511  1.00  0.00    -0.024 C 
HETATM   24  C6  UNL     1     -13.898   1.464 -20.148  1.00  0.00     0.043 C 
BRANCH  23  25
HETATM   25  C3  UNL     1     -16.454   3.938 -18.738  1.00  0.00     0.027 C 
BRANCH  25  26
HETATM   26  C2  UNL     1     -17.750   4.306 -19.434  1.00  0.00    -0.001 C 
HETATM   27  C1  UNL     1     -18.566   3.118 -19.815  1.00  0.00     0.005 C 
ENDBRANCH  25  26
ENDBRANCH  23  25
ENDBRANCH   1  22
TORSDOF 6
ENDMDL
MODEL 2
REMARK VINA RESULT: -9.057150162      3.725      5.674
REMARK  6 active torsions:
REMARK  status: ('A' for Active; 'I' for Inactive)
REMARK    1  A    between atoms: C2_2  and  C3_3 
REMARK    2  A    between atoms: C3_3  and  C4_4 
REMARK    3  A    between atoms: C5_5  and  C7_7 
REMARK       I    between atoms: N1_11  and  C11_12 
REMARK    4  A    between atoms: C11_12  and  C12_14 
REMARK    5  A    between atoms: C12_14  and  C13_15 
REMARK    6  A    between atoms: C13_15  and  C14_16 
ROOT
HETATM    1  C7  UNL     1     -11.652   0.988 -20.527  1.00  0.00     0.024 C 
HETATM    2  C8  UNL     1     -12.671   2.076 -20.163  1.00  0.00     0.012 C 
HETATM    3  C9  UNL     1     -11.985   2.674 -18.950  1.00  0.00     0.027 C 
HETATM    4  C10 UNL     1     -11.123   1.563 -18.393  1.00  0.00     0.096 C 
HETATM    5  N1  UNL     1     -11.212   1.442 -16.994  1.00  0.00    -0.347 N 
HETATM    6  C11 UNL     1     -10.742   2.534 -16.183  1.00  0.00     0.220 C 
HETATM    7  O1  UNL     1     -10.300   3.562 -16.779  1.00  0.00    -0.273 OA
HETATM    8  C19 UNL     1     -11.751   0.290 -16.372  1.00  0.00     0.126 C 
HETATM    9  C20 UNL     1     -12.885  -0.260 -17.153  1.00  0.00     0.021 C 
HETATM   10  C21 UNL     1     -12.676  -0.383 -18.639  1.00  0.00     0.013 C 
HETATM   11  C22 UNL     1     -11.517   0.325 -19.179  1.00  0.00    -0.016 C 
HETATM   12  C23 UNL     1     -10.291  -0.582 -19.230  1.00  0.00     0.018 C 
ENDROOT
BRANCH   6  13
HETATM   13  C12 UNL     1     -10.816   2.369 -14.727  1.00  0.00     0.106 C 
BRANCH  13  14
HETATM   14  C13 UNL     1     -12.046   2.767 -14.021  1.00  0.00     0.046 C 
BRANCH  14  15
HETATM   15  C14 UNL     1     -12.311   4.227 -13.942  1.00  0.00     0.155 C 
HETATM   16  C15 UNL     1     -13.098   4.661 -15.163  1.00  0.00     0.002 C 
HETATM   17  C16 UNL     1     -12.931   5.869 -15.646  1.00  0.00    -0.018 C 
HETATM   18  C17 UNL     1     -12.023   6.906 -15.116  1.00  0.00     0.138 C 
HETATM   19  C18 UNL     1     -11.082   6.342 -14.121  1.00  0.00     0.262 C 
HETATM   20  O2  UNL     1     -10.272   7.066 -13.500  1.00  0.00    -0.265 OA
HETATM   21  O3  UNL     1     -11.130   4.973 -13.902  1.00  0.00    -0.312 OA
ENDBRANCH  14  15
ENDBRANCH  13  14
ENDBRANCH   6  13
BRANCH   1  22
HETATM   22  C5  UNL     1     -12.019   0.189 -21.654  1.00  0.00    -0.083 C 
HETATM   23  C4  UNL     1     -11.154  -0.277 -22.530  1.00  0.00    -0.024 C 
HETATM   24  C6  UNL     1     -13.473  -0.141 -21.915  1.00  0.00     0.043 C 
BRANCH  23  25
HETATM   25  C3  UNL     1      -9.692  -0.104 -22.510  1.00  0.00     0.027 C 
BRANCH  25  26
HETATM   26  C2  UNL     1      -9.046  -0.476 -23.830  1.00  0.00    -0.001 C 
HETATM   27  C1  UNL     1      -9.988  -1.147 -24.772  1.00  0.00     0.005 C 
ENDBRANCH  25  26
ENDBRANCH  23  25
ENDBRANCH   1  22
TORSDOF 6
ENDMDL
MODEL 3
REMARK VINA RESULT: -8.892990285      1.632      2.273
REMARK  6 active torsions:
REMARK  status: ('A' for Active; 'I' for Inactive)
REMARK    1  A    between atoms: C2_2  and  C3_3 
REMARK    2  A    between atoms: C3_3  and  C4_4 
REMARK    3  A    between atoms: C5_5  and  C7_7 
REMARK       I    between atoms: N1_11  and  C11_12 
REMARK    4  A    between atoms: C11_12  and  C12_14 
REMARK    5  A    between atoms: C12_14  and  C13_15 
REMARK    6  A    between atoms: C13_15  and  C14_16 
ROOT
HETATM    1  C7  UNL     1     -13.873   2.591 -17.940  1.00  0.00     0.024 C 
HETATM    2  C8  UNL     1     -13.395   1.265 -17.334  1.00  0.00     0.012 C 
HETATM    3  C9  UNL     1     -12.622   1.792 -16.141  1.00  0.00     0.027 C 
HETATM    4  C10 UNL     1     -12.193   3.189 -16.532  1.00  0.00     0.096 C 
HETATM    5  N1  UNL     1     -10.851   3.464 -16.213  1.00  0.00    -0.347 N 
HETATM    6  C11 UNL     1     -10.468   3.479 -14.826  1.00  0.00     0.220 C 
HETATM    7  O1  UNL     1     -11.360   3.211 -13.966  1.00  0.00    -0.273 OA
HETATM    8  C19 UNL     1      -9.879   3.718 -17.210  1.00  0.00     0.126 C 
HETATM    9  C20 UNL     1     -10.110   2.880 -18.411  1.00  0.00     0.021 C 
HETATM   10  C21 UNL     1     -11.528   2.809 -18.914  1.00  0.00     0.013 C 
HETATM   11  C22 UNL     1     -12.552   3.316 -18.002  1.00  0.00    -0.016 C 
HETATM   12  C23 UNL     1     -12.845   4.790 -18.265  1.00  0.00     0.018 C 
ENDROOT
BRANCH   6  13
HETATM   13  C12 UNL     1      -9.069   3.802 -14.519  1.00  0.00     0.106 C 
BRANCH  13  14
HETATM   14  C13 UNL     1      -8.738   4.377 -13.204  1.00  0.00     0.046 C 
BRANCH  14  15
HETATM   15  C14 UNL     1      -8.033   3.474 -12.256  1.00  0.00     0.155 C 
HETATM   16  C15 UNL     1      -6.706   3.055 -12.855  1.00  0.00     0.002 C 
HETATM   17  C16 UNL     1      -6.212   1.872 -12.572  1.00  0.00    -0.018 C 
HETATM   18  C17 UNL     1      -6.826   0.853 -11.698  1.00  0.00     0.138 C 
HETATM   19  C18 UNL     1      -8.233   1.193 -11.380  1.00  0.00     0.262 C 
HETATM   20  O2  UNL     1      -8.916   0.494 -10.597  1.00  0.00    -0.265 OA
HETATM   21  O3  UNL     1      -8.770   2.319 -11.986  1.00  0.00    -0.312 OA
ENDBRANCH  14  15
ENDBRANCH  13  14
ENDBRANCH   6  13
BRANCH   1  22
HETATM   22  C5  UNL     1     -14.638   2.450 -19.140  1.00  0.00    -0.083 C 
HETATM   23  C4  UNL     1     -15.841   2.956 -19.301  1.00  0.00    -0.024 C 
HETATM   24  C6  UNL     1     -14.088   1.658 -20.307  1.00  0.00     0.043 C 
BRANCH  23  25
HETATM   25  C3  UNL     1     -16.600   3.763 -18.331  1.00  0.00     0.027 C 
BRANCH  25  26
HETATM   26  C2  UNL     1     -18.087   3.780 -18.628  1.00  0.00    -0.001 C 
HETATM   27  C1  UNL     1     -18.898   3.087 -17.587  1.00  0.00     0.005 C 
ENDBRANCH  25  26
ENDBRANCH  23  25
ENDBRANCH   1  22
TORSDOF 6
ENDMDL
MODEL 4
REMARK VINA RESULT: -8.884964920      1.344      1.709
REMARK  6 active torsions:
REMARK  status: ('A' for Active; 'I' for Inactive)
REMARK    1  A    between atoms: C2_2  and  C3_3 
REMARK    2  A    between atoms: C3_3  and  C4_4 
REMARK    3  A    between atoms: C5_5  and  C7_7 
REMARK       I    between atoms: N1_11  and  C11_12 
REMARK    4  A    between atoms: C11_12  and  C12_14 
REMARK    5  A    between atoms: C12_14  and  C13_15 
REMARK    6  A    between atoms: C13_15  and  C14_16 
ROOT
HETATM    1  C7  UNL     1     -13.973   2.569 -18.044  1.00  0.00     0.024 C 
HETATM    2  C8  UNL     1     -13.547   1.215 -17.459  1.00  0.00     0.012 C 
HETATM    3  C9  UNL     1     -12.862   1.688 -16.191  1.00  0.00     0.027 C 
HETATM    4  C10 UNL     1     -12.400   3.096 -16.491  1.00  0.00     0.096 C 
HETATM    5  N1  UNL     1     -11.084   3.348 -16.063  1.00  0.00    -0.347 N 
HETATM    6  C11 UNL     1     -10.805   3.304 -14.652  1.00  0.00     0.220 C 
HETATM    7  O1  UNL     1     -11.759   3.007 -13.872  1.00  0.00    -0.273 OA
HETATM    8  C19 UNL     1     -10.039   3.636 -16.973  1.00  0.00     0.126 C 
HETATM    9  C20 UNL     1     -10.184   2.850 -18.222  1.00  0.00     0.021 C 
HETATM   10  C21 UNL     1     -11.561   2.810 -18.831  1.00  0.00     0.013 C 
HETATM   11  C22 UNL     1     -12.648   3.286 -17.977  1.00  0.00    -0.016 C 
HETATM   12  C23 UNL     1     -12.915   4.771 -18.200  1.00  0.00     0.018 C 
ENDROOT
BRANCH   6  13
HETATM   13  C12 UNL     1      -9.432   3.604 -14.229  1.00  0.00     0.106 C 
BRANCH  13  14
HETATM   14  C13 UNL     1      -8.881   2.924 -13.044  1.00  0.00     0.046 C 
BRANCH  14  15
HETATM   15  C14 UNL     1      -7.738   3.599 -12.375  1.00  0.00     0.155 C 
HETATM   16  C15 UNL     1      -6.644   3.859 -13.391  1.00  0.00     0.002 C 
HETATM   17  C16 UNL     1      -5.389   3.847 -13.009  1.00  0.00    -0.018 C 
HETATM   18  C17 UNL     1      -4.892   3.598 -11.642  1.00  0.00     0.138 C 
HETATM   19  C18 UNL     1      -5.965   3.070 -10.766  1.00  0.00     0.262 C 
HETATM   20  O2  UNL     1      -5.771   2.856  -9.548  1.00  0.00    -0.265 OA
HETATM   21  O3  UNL     1      -7.198   2.820 -11.348  1.00  0.00    -0.312 OA
ENDBRANCH  14  15
ENDBRANCH  13  14
ENDBRANCH   6  13
BRANCH   1  22
HETATM   22  C5  UNL     1     -14.647   2.483 -19.302  1.00  0.00    -0.083 C 
HETATM   23  C4  UNL     1     -15.795   3.073 -19.556  1.00  0.00    -0.024 C 
HETATM   24  C6  UNL     1     -14.063   1.654 -20.426  1.00  0.00     0.043 C 
BRANCH  23  25
HETATM   25  C3  UNL     1     -16.570   3.931 -18.645  1.00  0.00     0.027 C 
BRANCH  25  26
HETATM   26  C2  UNL     1     -18.065   3.707 -18.768  1.00  0.00    -0.001 C 
HETATM   27  C1  UNL     1     -18.677   3.159 -17.524  1.00  0.00     0.005 C 
ENDBRANCH  25  26
ENDBRANCH  23  25
ENDBRANCH   1  22
TORSDOF 6
ENDMDL
MODEL 5
REMARK VINA RESULT: -8.862598240      3.557      5.100
REMARK  6 active torsions:
REMARK  status: ('A' for Active; 'I' for Inactive)
REMARK    1  A    between atoms: C2_2  and  C3_3 
REMARK    2  A    between atoms: C3_3  and  C4_4 
REMARK    3  A    between atoms: C5_5  and  C7_7 
REMARK       I    between atoms: N1_11  and  C11_12 
REMARK    4  A    between atoms: C11_12  and  C12_14 
REMARK    5  A    between atoms: C12_14  and  C13_15 
REMARK    6  A    between atoms: C13_15  and  C14_16 
ROOT
HETATM    1  C7  UNL     1     -11.481   0.101 -20.094  1.00  0.00     0.024 C 
HETATM    2  C8  UNL     1     -10.578  -0.601 -19.070  1.00  0.00     0.012 C 
HETATM    3  C9  UNL     1     -11.337  -0.281 -17.797  1.00  0.00     0.027 C 
HETATM    4  C10 UNL     1     -12.095   0.993 -18.096  1.00  0.00     0.096 C 
HETATM    5  N1  UNL     1     -12.015   1.939 -17.058  1.00  0.00    -0.347 N 
HETATM    6  C11 UNL     1     -12.602   1.609 -15.786  1.00  0.00     0.220 C 
HETATM    7  O1  UNL     1     -13.133   0.464 -15.662  1.00  0.00    -0.273 OA
HETATM    8  C19 UNL     1     -11.376   3.191 -17.230  1.00  0.00     0.126 C 
HETATM    9  C20 UNL     1     -10.183   3.068 -18.100  1.00  0.00     0.021 C 
HETATM   10  C21 UNL     1     -10.356   2.268 -19.364  1.00  0.00     0.013 C 
HETATM   11  C22 UNL     1     -11.570   1.458 -19.443  1.00  0.00    -0.016 C 
HETATM   12  C23 UNL     1     -12.701   2.224 -20.123  1.00  0.00     0.018 C 
ENDROOT
BRANCH   6  13
HETATM   13  C12 UNL     1     -12.535   2.627 -14.731  1.00  0.00     0.106 C 
BRANCH  13  14
HETATM   14  C13 UNL     1     -13.376   3.831 -14.842  1.00  0.00     0.046 C 
BRANCH  14  15
HETATM   15  C14 UNL     1     -12.812   5.079 -14.263  1.00  0.00     0.155 C 
HETATM   16  C15 UNL     1     -12.984   6.213 -15.253  1.00  0.00     0.002 C 
HETATM   17  C16 UNL     1     -12.097   7.179 -15.294  1.00  0.00    -0.018 C 
HETATM   18  C17 UNL     1     -10.891   7.296 -14.449  1.00  0.00     0.138 C 
HETATM   19  C18 UNL     1     -10.621   6.036 -13.716  1.00  0.00     0.262 C 
HETATM   20  O2  UNL     1      -9.684   5.945 -12.892  1.00  0.00    -0.265 OA
HETATM   21  O3  UNL     1     -11.449   4.955 -13.980  1.00  0.00    -0.312 OA
ENDBRANCH  14  15
ENDBRANCH  13  14
ENDBRANCH   6  13
BRANCH   1  22
HETATM   22  C5  UNL     1     -11.021   0.014 -21.445  1.00  0.00    -0.083 C 
HETATM   23  C4  UNL     1     -11.818  -0.160 -22.476  1.00  0.00    -0.024 C 
HETATM   24  C6  UNL     1      -9.541   0.089 -21.754  1.00  0.00     0.043 C 
BRANCH  23  25
HETATM   25  C3  UNL     1     -13.287  -0.264 -22.454  1.00  0.00     0.027 C 
BRANCH  25  26
HETATM   26  C2  UNL     1     -13.790  -1.522 -23.135  1.00  0.00    -0.001 C 
HETATM   27  C1  UNL     1     -12.714  -2.269 -23.848  1.00  0.00     0.005 C 
ENDBRANCH  25  26
ENDBRANCH  23  25
ENDBRANCH   1  22
TORSDOF 6
ENDMDL
