MODEL 1
REMARK VINA RESULT: -7.950906410      0.000      0.000
REMARK  7 active torsions:
REMARK  status: ('A' for Active; 'I' for Inactive)
REMARK    1  A    between atoms: C2_2  and  O1_3 
REMARK    2  A    between atoms: O1_3  and  C3_4 
REMARK    3  A    between atoms: C12_15  and  C13_16 
REMARK    4  A    between atoms: C14_17  and  C15_18 
REMARK    5  A    between atoms: C15_18  and  C16_19 
REMARK    6  A    between atoms: C16_19  and  C18_21 
REMARK    7  A    between atoms: C19_22  and  C20_23 
ROOT
HETATM    1  C3  UNL     1     -10.904   4.698 -16.045  1.00  0.00     0.134 C 
HETATM    2  C4  UNL     1     -12.027   5.631 -15.572  1.00  0.00     0.112 C 
HETATM    3  C5  UNL     1     -13.181   4.711 -15.468  1.00  0.00     0.145 C 
HETATM    4  O2  UNL     1     -14.009   4.647 -14.630  1.00  0.00    -0.297 OA
HETATM    5  C6  UNL     1     -13.074   3.846 -16.691  1.00  0.00     0.084 C 
HETATM    6  C7  UNL     1     -13.837   4.625 -17.777  1.00  0.00     0.032 C 
HETATM    7  C8  UNL     1     -13.807   2.608 -16.442  1.00  0.00     0.143 C 
HETATM    8  O3  UNL     1     -15.037   2.657 -16.432  1.00  0.00    -0.297 OA
HETATM    9  C9  UNL     1     -13.188   1.276 -16.197  1.00  0.00     0.084 C 
HETATM   10  C10 UNL     1     -11.766   1.547 -15.777  1.00  0.00    -0.004 C 
HETATM   11  C11 UNL     1     -10.998   0.342 -15.414  1.00  0.00     0.011 C 
HETATM   12  C12 UNL     1     -11.022   2.346 -16.858  1.00  0.00     0.021 C 
HETATM   13  C24 UNL     1     -11.636   3.706 -16.991  1.00  0.00     0.046 C 
ENDROOT
BRANCH  12  14
HETATM   14  C13 UNL     1     -10.935   1.570 -18.098  1.00  0.00    -0.013 C 
HETATM   15  C14 UNL     1     -11.454   1.900 -19.296  1.00  0.00     0.052 C 
BRANCH  15  16
HETATM   16  C15 UNL     1     -11.278   1.076 -20.377  1.00  0.00    -0.122 C 
BRANCH  16  17
HETATM   17  C16 UNL     1     -11.109   0.309 -21.374  1.00  0.00    -0.017 C 
HETATM   18  C17 UNL     1     -12.169   0.259 -22.474  1.00  0.00     0.057 C 
BRANCH  17  19
HETATM   19  C18 UNL     1      -9.945  -0.523 -21.619  1.00  0.00     0.011 C 
HETATM   20  C19 UNL     1      -8.699  -0.127 -21.537  1.00  0.00    -0.021 C 
BRANCH  20  21
HETATM   21  C20 UNL     1      -7.625  -1.140 -21.820  1.00  0.00     0.012 A 
HETATM   22  C21 UNL     1      -6.208  -0.812 -21.983  1.00  0.00     0.013 A 
HETATM   23  C22 UNL     1      -6.686  -1.252 -20.627  1.00  0.00    -0.010 A 
HETATM   24  C23 UNL     1      -6.324  -2.636 -20.164  1.00  0.00     0.010 C 
ENDBRANCH  20  21
ENDBRANCH  17  19
ENDBRANCH  16  17
ENDBRANCH  15  16
ENDBRANCH  12  14
BRANCH   1  25
HETATM   25  O1  UNL     1     -10.329   4.030 -15.031  1.00  0.00    -0.385 OA
BRANCH  25  26
HETATM   26  C2  UNL     1      -9.560   4.628 -14.108  1.00  0.00     0.163 C 
HETATM   27  C1  UNL     1      -8.681   3.533 -13.491  1.00  0.00     0.033 C 
ENDBRANCH  25  26
ENDBRANCH   1  25
TORSDOF 7
ENDMDL
MODEL 2
REMARK VINA RESULT: -7.897314226      1.377      1.993
REMARK  7 active torsions:
REMARK  status: ('A' for Active; 'I' for Inactive)
REMARK    1  A    between atoms: C2_2  and  O1_3 
REMARK    2  A    between atoms: O1_3  and  C3_4 
REMARK    3  A    between atoms: C12_15  and  C13_16 
REMARK    4  A    between atoms: C14_17  and  C15_18 
REMARK    5  A    between atoms: C15_18  and  C16_19 
REMARK    6  A    between atoms: C16_19  and  C18_21 
REMARK    7  A    between atoms: C19_22  and  C20_23 
ROOT
HETATM    1  C3  UNL     1      -9.329   4.554 -14.722  1.00  0.00     0.134 C 
HETATM    2  C4  UNL     1      -9.880   5.828 -14.065  1.00  0.00     0.112 C 
HETATM    3  C5  UNL     1     -11.311   5.497 -13.881  1.00  0.00     0.145 C 
HETATM    4  O2  UNL     1     -12.012   5.712 -12.956  1.00  0.00    -0.297 OA
HETATM    5  C6  UNL     1     -11.696   4.806 -15.157  1.00  0.00     0.084 C 
HETATM    6  C7  UNL     1     -12.117   5.948 -16.097  1.00  0.00     0.032 C 
HETATM    7  C8  UNL     1     -12.880   3.991 -14.897  1.00  0.00     0.143 C 
HETATM    8  O3  UNL     1     -13.955   4.570 -14.740  1.00  0.00    -0.297 OA
HETATM    9  C9  UNL     1     -12.899   2.505 -14.806  1.00  0.00     0.084 C 
HETATM   10  C10 UNL     1     -11.477   2.084 -14.541  1.00  0.00    -0.004 C 
HETATM   11  C11 UNL     1     -11.296   0.634 -14.343  1.00  0.00     0.011 C 
HETATM   12  C12 UNL     1     -10.543   2.589 -15.653  1.00  0.00     0.021 C 
HETATM   13  C24 UNL     1     -10.498   4.085 -15.631  1.00  0.00     0.046 C 
ENDROOT
BRANCH  12  14
HETATM   14  C13 UNL     1     -10.909   1.987 -16.938  1.00  0.00    -0.013 C 
HETATM   15  C14 UNL     1     -11.257   2.637 -18.065  1.00  0.00     0.052 C 
BRANCH  15  16
HETATM   16  C15 UNL     1     -11.560   1.936 -19.202  1.00  0.00    -0.122 C 
BRANCH  16  17
HETATM   17  C16 UNL     1     -11.838   1.280 -20.253  1.00  0.00    -0.017 C 
HETATM   18  C17 UNL     1     -13.233   1.398 -20.868  1.00  0.00     0.057 C 
BRANCH  17  19
HETATM   19  C18 UNL     1     -10.922   0.433 -20.994  1.00  0.00     0.011 C 
HETATM   20  C19 UNL     1      -9.755   0.020 -20.563  1.00  0.00    -0.021 C 
BRANCH  20  21
HETATM   21  C20 UNL     1      -8.947  -0.861 -21.475  1.00  0.00     0.012 A 
HETATM   22  C21 UNL     1      -8.491  -0.465 -22.807  1.00  0.00     0.013 A 
HETATM   23  C22 UNL     1      -7.548  -0.286 -21.650  1.00  0.00    -0.010 A 
HETATM   24  C23 UNL     1      -6.392  -1.238 -21.526  1.00  0.00     0.010 C 
ENDBRANCH  20  21
ENDBRANCH  17  19
ENDBRANCH  16  17
ENDBRANCH  15  16
ENDBRANCH  12  14
BRANCH   1  25
HETATM   25  O1  UNL     1      -9.032   3.600 -13.823  1.00  0.00    -0.385 OA
BRANCH  25  26
HETATM   26  C2  UNL     1      -7.877   3.578 -13.139  1.00  0.00     0.163 C 
HETATM   27  C1  UNL     1      -7.933   2.350 -12.223  1.00  0.00     0.033 C 
ENDBRANCH  25  26
ENDBRANCH   1  25
TORSDOF 7
ENDMDL
MODEL 3
REMARK VINA RESULT: -7.512057596      2.228      2.770
REMARK  7 active torsions:
REMARK  status: ('A' for Active; 'I' for Inactive)
REMARK    1  A    between atoms: C2_2  and  O1_3 
REMARK    2  A    between atoms: O1_3  and  C3_4 
REMARK    3  A    between atoms: C12_15  and  C13_16 
REMARK    4  A    between atoms: C14_17  and  C15_18 
REMARK    5  A    between atoms: C15_18  and  C16_19 
REMARK    6  A    between atoms: C16_19  and  C18_21 
REMARK    7  A    between atoms: C19_22  and  C20_23 
ROOT
HETATM    1  C3  UNL     1      -9.298   4.420 -14.989  1.00  0.00     0.134 C 
HETATM    2  C4  UNL     1      -9.709   5.724 -14.290  1.00  0.00     0.112 C 
HETATM    3  C5  UNL     1     -11.142   5.490 -14.001  1.00  0.00     0.145 C 
HETATM    4  O2  UNL     1     -11.756   5.745 -13.026  1.00  0.00    -0.297 OA
HETATM    5  C6  UNL     1     -11.667   4.836 -15.247  1.00  0.00     0.084 C 
HETATM    6  C7  UNL     1     -12.078   6.011 -16.150  1.00  0.00     0.032 C 
HETATM    7  C8  UNL     1     -12.882   4.102 -14.901  1.00  0.00     0.143 C 
HETATM    8  O3  UNL     1     -13.901   4.752 -14.662  1.00  0.00    -0.297 OA
HETATM    9  C9  UNL     1     -12.996   2.620 -14.812  1.00  0.00     0.084 C 
HETATM   10  C10 UNL     1     -11.590   2.101 -14.654  1.00  0.00    -0.004 C 
HETATM   11  C11 UNL     1     -11.496   0.640 -14.474  1.00  0.00     0.011 C 
HETATM   12  C12 UNL     1     -10.710   2.549 -15.832  1.00  0.00     0.021 C 
HETATM   13  C24 UNL     1     -10.561   4.039 -15.810  1.00  0.00     0.046 C 
ENDROOT
BRANCH  12  14
HETATM   14  C13 UNL     1     -11.210   1.984 -17.088  1.00  0.00    -0.013 C 
HETATM   15  C14 UNL     1     -11.052   2.494 -18.324  1.00  0.00     0.052 C 
BRANCH  15  16
HETATM   16  C15 UNL     1     -11.567   1.841 -19.413  1.00  0.00    -0.122 C 
BRANCH  16  17
HETATM   17  C16 UNL     1     -12.049   1.234 -20.418  1.00  0.00    -0.017 C 
HETATM   18  C17 UNL     1     -13.455   1.581 -20.905  1.00  0.00     0.057 C 
BRANCH  17  19
HETATM   19  C18 UNL     1     -11.362   0.237 -21.218  1.00  0.00     0.011 C 
HETATM   20  C19 UNL     1     -11.714  -0.142 -22.423  1.00  0.00    -0.021 C 
BRANCH  20  21
HETATM   21  C20 UNL     1     -10.870  -1.186 -23.099  1.00  0.00     0.012 A 
HETATM   22  C21 UNL     1     -11.298  -1.959 -24.266  1.00  0.00     0.013 A 
HETATM   23  C22 UNL     1     -10.481  -0.718 -24.495  1.00  0.00    -0.010 A 
HETATM   24  C23 UNL     1      -9.043  -0.883 -24.900  1.00  0.00     0.010 C 
ENDBRANCH  20  21
ENDBRANCH  17  19
ENDBRANCH  16  17
ENDBRANCH  15  16
ENDBRANCH  12  14
BRANCH   1  25
HETATM   25  O1  UNL     1      -9.001   3.441 -14.118  1.00  0.00    -0.385 OA
BRANCH  25  26
HETATM   26  C2  UNL     1      -7.975   3.520 -13.255  1.00  0.00     0.163 C 
HETATM   27  C1  UNL     1      -8.133   2.350 -12.277  1.00  0.00     0.033 C 
ENDBRANCH  25  26
ENDBRANCH   1  25
TORSDOF 7
ENDMDL
MODEL 4
REMARK VINA RESULT: -7.480395010      3.254      6.510
REMARK  7 active torsions:
REMARK  status: ('A' for Active; 'I' for Inactive)
REMARK    1  A    between atoms: C2_2  and  O1_3 
REMARK    2  A    between atoms: O1_3  and  C3_4 
REMARK    3  A    between atoms: C12_15  and  C13_16 
REMARK    4  A    between atoms: C14_17  and  C15_18 
REMARK    5  A    between atoms: C15_18  and  C16_19 
REMARK    6  A    between atoms: C16_19  and  C18_21 
REMARK    7  A    between atoms: C19_22  and  C20_23 
ROOT
HETATM    1  C3  UNL     1     -12.001   4.950 -16.729  1.00  0.00     0.134 C 
HETATM    2  C4  UNL     1     -12.525   4.579 -18.124  1.00  0.00     0.112 C 
HETATM    3  C5  UNL     1     -12.420   3.102 -18.119  1.00  0.00     0.145 C 
HETATM    4  O2  UNL     1     -13.183   2.300 -18.527  1.00  0.00    -0.297 OA
HETATM    5  C6  UNL     1     -11.097   2.829 -17.463  1.00  0.00     0.084 C 
HETATM    6  C7  UNL     1     -10.084   2.863 -18.619  1.00  0.00     0.032 C 
HETATM    7  C8  UNL     1     -11.119   1.467 -16.937  1.00  0.00     0.143 C 
HETATM    8  O3  UNL     1     -11.054   0.537 -17.742  1.00  0.00    -0.297 OA
HETATM    9  C9  UNL     1     -11.215   1.101 -15.497  1.00  0.00     0.084 C 
HETATM   10  C10 UNL     1     -11.764   2.316 -14.793  1.00  0.00    -0.004 C 
HETATM   11  C11 UNL     1     -12.004   2.128 -13.350  1.00  0.00     0.011 C 
HETATM   12  C12 UNL     1     -10.859   3.536 -15.027  1.00  0.00     0.021 C 
HETATM   13  C24 UNL     1     -10.878   3.906 -16.478  1.00  0.00     0.046 C 
ENDROOT
BRANCH  12  14
HETATM   14  C13 UNL     1      -9.530   3.303 -14.454  1.00  0.00    -0.013 C 
HETATM   15  C14 UNL     1      -8.600   4.233 -14.166  1.00  0.00     0.052 C 
BRANCH  15  16
HETATM   16  C15 UNL     1      -7.401   3.865 -13.615  1.00  0.00    -0.122 C 
BRANCH  16  17
HETATM   17  C16 UNL     1      -6.288   3.521 -13.111  1.00  0.00    -0.017 C 
HETATM   18  C17 UNL     1      -5.040   4.356 -13.399  1.00  0.00     0.057 C 
BRANCH  17  19
HETATM   19  C18 UNL     1      -6.071   2.402 -12.213  1.00  0.00     0.011 C 
HETATM   20  C19 UNL     1      -6.018   1.142 -12.571  1.00  0.00    -0.021 C 
BRANCH  20  21
HETATM   21  C20 UNL     1      -5.778   0.121 -11.494  1.00  0.00     0.012 A 
HETATM   22  C21 UNL     1      -5.990  -1.317 -11.663  1.00  0.00     0.013 A 
HETATM   23  C22 UNL     1      -4.605  -0.772 -11.875  1.00  0.00    -0.010 A 
HETATM   24  C23 UNL     1      -3.571  -1.039 -10.817  1.00  0.00     0.010 C 
ENDBRANCH  20  21
ENDBRANCH  17  19
ENDBRANCH  16  17
ENDBRANCH  15  16
ENDBRANCH  12  14
BRANCH   1  25
HETATM   25  O1  UNL     1     -12.948   4.847 -15.781  1.00  0.00    -0.385 OA
BRANCH  25  26
HETATM   26  C2  UNL     1     -13.238   5.845 -14.930  1.00  0.00     0.163 C 
HETATM   27  C1  UNL     1     -12.289   7.001 -15.269  1.00  0.00     0.033 C 
ENDBRANCH  25  26
ENDBRANCH   1  25
TORSDOF 7
ENDMDL
MODEL 5
REMARK VINA RESULT: -7.470004053      3.233      7.400
REMARK  7 active torsions:
REMARK  status: ('A' for Active; 'I' for Inactive)
REMARK    1  A    between atoms: C2_2  and  O1_3 
REMARK    2  A    between atoms: O1_3  and  C3_4 
REMARK    3  A    between atoms: C12_15  and  C13_16 
REMARK    4  A    between atoms: C14_17  and  C15_18 
REMARK    5  A    between atoms: C15_18  and  C16_19 
REMARK    6  A    between atoms: C16_19  and  C18_21 
REMARK    7  A    between atoms: C19_22  and  C20_23 
ROOT
HETATM    1  C3  UNL     1     -12.168   4.872 -16.767  1.00  0.00     0.134 C 
HETATM    2  C4  UNL     1     -12.757   4.418 -18.110  1.00  0.00     0.112 C 
HETATM    3  C5  UNL     1     -12.548   2.953 -18.068  1.00  0.00     0.145 C 
HETATM    4  O2  UNL     1     -13.280   2.088 -18.399  1.00  0.00    -0.297 OA
HETATM    5  C6  UNL     1     -11.169   2.793 -17.497  1.00  0.00     0.084 C 
HETATM    6  C7  UNL     1     -10.240   2.855 -18.721  1.00  0.00     0.032 C 
HETATM    7  C8  UNL     1     -11.061   1.451 -16.931  1.00  0.00     0.143 C 
HETATM    8  O3  UNL     1     -10.984   0.500 -17.710  1.00  0.00    -0.297 OA
HETATM    9  C9  UNL     1     -11.034   1.130 -15.477  1.00  0.00     0.084 C 
HETATM   10  C10 UNL     1     -11.619   2.328 -14.774  1.00  0.00    -0.004 C 
HETATM   11  C11 UNL     1     -11.748   2.174 -13.313  1.00  0.00     0.011 C 
HETATM   12  C12 UNL     1     -10.818   3.597 -15.106  1.00  0.00     0.021 C 
HETATM   13  C24 UNL     1     -10.961   3.915 -16.562  1.00  0.00     0.046 C 
ENDROOT
BRANCH  12  14
HETATM   14  C13 UNL     1      -9.442   3.475 -14.619  1.00  0.00    -0.013 C 
HETATM   15  C14 UNL     1      -8.626   4.478 -14.241  1.00  0.00     0.052 C 
BRANCH  15  16
HETATM   16  C15 UNL     1      -7.361   4.207 -13.790  1.00  0.00    -0.122 C 
BRANCH  16  17
HETATM   17  C16 UNL     1      -6.191   3.958 -13.365  1.00  0.00    -0.017 C 
HETATM   18  C17 UNL     1      -4.981   4.510 -14.119  1.00  0.00     0.057 C 
BRANCH  17  19
HETATM   19  C18 UNL     1      -5.864   3.215 -12.162  1.00  0.00     0.011 C 
HETATM   20  C19 UNL     1      -4.936   3.545 -11.296  1.00  0.00    -0.021 C 
BRANCH  20  21
HETATM   21  C20 UNL     1      -4.748   2.651 -10.102  1.00  0.00     0.012 A 
HETATM   22  C21 UNL     1      -3.449   2.166  -9.636  1.00  0.00     0.013 A 
HETATM   23  C22 UNL     1      -4.017   3.403  -8.998  1.00  0.00    -0.010 A 
HETATM   24  C23 UNL     1      -4.571   3.290  -7.605  1.00  0.00     0.010 C 
ENDBRANCH  20  21
ENDBRANCH  17  19
ENDBRANCH  16  17
ENDBRANCH  15  16
ENDBRANCH  12  14
BRANCH   1  25
HETATM   25  O1  UNL     1     -13.039   4.738 -15.753  1.00  0.00    -0.385 OA
BRANCH  25  26
HETATM   26  C2  UNL     1     -13.225   5.688 -14.822  1.00  0.00     0.163 C 
HETATM   27  C1  UNL     1     -12.443   6.921 -15.290  1.00  0.00     0.033 C 
ENDBRANCH  25  26
ENDBRANCH   1  25
TORSDOF 7
ENDMDL
