MODEL 1
REMARK VINA RESULT: -8.787038989      0.000      0.000
REMARK  6 active torsions:
REMARK  status: ('A' for Active; 'I' for Inactive)
REMARK    1  A    between atoms: N1_16  and  C16_17 
REMARK    2  A    between atoms: C16_17  and  C17_18 
REMARK    3  A    between atoms: C17_18  and  N2_19 
REMARK    4  A    between atoms: N2_19  and  C18_20 
REMARK    5  A    between atoms: N2_19  and  C20_22 
REMARK    6  A    between atoms: C20_22  and  C21_23 
ROOT
HETATM    1  C1  UNL     1     -10.555   6.619 -13.403  1.00  0.00     0.013 C 
HETATM    2  C2  UNL     1     -11.118   5.746 -14.028  1.00  0.00    -0.107 C 
HETATM    3  C3  UNL     1     -11.798   4.636 -14.814  1.00  0.00     0.026 C 
HETATM    4  C4  UNL     1     -12.844   4.183 -13.982  1.00  0.00     0.030 C 
HETATM    5  C5  UNL     1     -11.964   5.250 -16.162  1.00  0.00     0.023 C 
HETATM    6  C6  UNL     1     -12.536   5.100 -17.507  1.00  0.00     0.006 C 
HETATM    7  C7  UNL     1     -11.675   3.844 -18.334  1.00  0.00     0.035 C 
HETATM    8  C8  UNL     1     -11.476   3.324 -16.963  1.00  0.00    -0.073 C 
HETATM    9  C9  UNL     1     -10.494   3.905 -16.278  1.00  0.00    -0.017 C 
HETATM   10  C10 UNL     1     -10.479   3.530 -14.844  1.00  0.00     0.028 C 
HETATM   11  C11 UNL     1     -10.822   2.310 -14.337  1.00  0.00     0.010 C 
HETATM   12  C12 UNL     1     -10.904   1.068 -15.257  1.00  0.00     0.006 C 
HETATM   13  C13 UNL     1     -12.321   1.130 -15.864  1.00  0.00     0.001 C 
HETATM   14  C14 UNL     1     -12.797  -0.237 -16.250  1.00  0.00     0.036 C 
HETATM   15  C15 UNL     1     -12.695  -0.676 -17.644  1.00  0.00     0.273 C 
HETATM   16  N1  UNL     1     -12.803   0.369 -18.600  1.00  0.00     0.091 N 
HETATM   17  C23 UNL     1     -11.774   1.345 -18.220  1.00  0.00     0.286 C 
HETATM   18  C24 UNL     1     -12.364   2.144 -16.981  1.00  0.00     0.009 C 
HETATM   19  C25 UNL     1     -13.770   2.318 -17.265  1.00  0.00     0.022 C 
ENDROOT
BRANCH  16  20
HETATM   20  C16 UNL     1     -12.562   0.055 -19.961  1.00  0.00     0.302 C 
BRANCH  20  21
HETATM   21  C17 UNL     1     -11.383   0.626 -20.638  1.00  0.00     0.302 C 
BRANCH  21  22
HETATM   22  N2  UNL     1     -10.759  -0.133 -21.660  1.00  0.00     0.090 N 
BRANCH  22  23
HETATM   23  C18 UNL     1      -9.392   0.200 -21.895  1.00  0.00     0.268 C 
HETATM   24  C19 UNL     1      -8.471  -0.725 -21.115  1.00  0.00     0.037 C 
ENDBRANCH  22  23
BRANCH  22  25
HETATM   25  C20 UNL     1     -11.565  -0.193 -22.852  1.00  0.00     0.286 C 
BRANCH  25  26
HETATM   26  C21 UNL     1     -10.910  -1.023 -23.938  1.00  0.00     0.154 C 
HETATM   27  C22 UNL     1     -11.711  -2.198 -24.265  1.00  0.00     0.060 C 
HETATM   28  N3  UNL     1     -12.353  -3.138 -24.546  1.00  0.00    -0.197 NA
ENDBRANCH  25  26
ENDBRANCH  22  25
ENDBRANCH  21  22
ENDBRANCH  20  21
ENDBRANCH  16  20
TORSDOF 6
ENDMDL
MODEL 2
REMARK VINA RESULT: -8.759842829      1.102      2.078
REMARK  6 active torsions:
REMARK  status: ('A' for Active; 'I' for Inactive)
REMARK    1  A    between atoms: N1_16  and  C16_17 
REMARK    2  A    between atoms: C16_17  and  C17_18 
REMARK    3  A    between atoms: C17_18  and  N2_19 
REMARK    4  A    between atoms: N2_19  and  C18_20 
REMARK    5  A    between atoms: N2_19  and  C20_22 
REMARK    6  A    between atoms: C20_22  and  C21_23 
ROOT
HETATM    1  C1  UNL     1     -10.560   6.964 -13.624  1.00  0.00     0.013 C 
HETATM    2  C2  UNL     1     -11.130   6.030 -14.149  1.00  0.00    -0.107 C 
HETATM    3  C3  UNL     1     -11.818   4.845 -14.808  1.00  0.00     0.026 C 
HETATM    4  C4  UNL     1     -12.828   4.456 -13.902  1.00  0.00     0.030 C 
HETATM    5  C5  UNL     1     -12.039   5.333 -16.198  1.00  0.00     0.023 C 
HETATM    6  C6  UNL     1     -12.653   5.054 -17.504  1.00  0.00     0.006 C 
HETATM    7  C7  UNL     1     -11.800   3.740 -18.244  1.00  0.00     0.035 C 
HETATM    8  C8  UNL     1     -11.547   3.349 -16.840  1.00  0.00    -0.073 C 
HETATM    9  C9  UNL     1     -10.552   4.002 -16.245  1.00  0.00    -0.017 C 
HETATM   10  C10 UNL     1     -10.483   3.759 -14.784  1.00  0.00     0.028 C 
HETATM   11  C11 UNL     1     -10.789   2.585 -14.157  1.00  0.00     0.010 C 
HETATM   12  C12 UNL     1     -10.882   1.263 -14.959  1.00  0.00     0.006 C 
HETATM   13  C13 UNL     1     -12.319   1.252 -15.520  1.00  0.00     0.001 C 
HETATM   14  C14 UNL     1     -12.785  -0.150 -15.764  1.00  0.00     0.036 C 
HETATM   15  C15 UNL     1     -12.723  -0.712 -17.115  1.00  0.00     0.273 C 
HETATM   16  N1  UNL     1     -12.880   0.242 -18.158  1.00  0.00     0.091 N 
HETATM   17  C23 UNL     1     -11.855   1.261 -17.902  1.00  0.00     0.286 C 
HETATM   18  C24 UNL     1     -12.416   2.160 -16.720  1.00  0.00     0.009 C 
HETATM   19  C25 UNL     1     -13.833   2.290 -16.970  1.00  0.00     0.022 C 
ENDROOT
BRANCH  16  20
HETATM   20  C16 UNL     1     -12.680  -0.191 -19.492  1.00  0.00     0.302 C 
BRANCH  20  21
HETATM   21  C17 UNL     1     -12.314   0.795 -20.525  1.00  0.00     0.302 C 
BRANCH  21  22
HETATM   22  N2  UNL     1     -11.374   0.416 -21.517  1.00  0.00     0.090 N 
BRANCH  22  23
HETATM   23  C18 UNL     1     -11.941  -0.230 -22.655  1.00  0.00     0.268 C 
HETATM   24  C19 UNL     1     -10.959  -0.236 -23.817  1.00  0.00     0.037 C 
ENDBRANCH  22  23
BRANCH  22  25
HETATM   25  C20 UNL     1     -10.243  -0.272 -20.950  1.00  0.00     0.286 C 
BRANCH  25  26
HETATM   26  C21 UNL     1      -9.002   0.598 -20.932  1.00  0.00     0.154 C 
HETATM   27  C22 UNL     1      -7.795  -0.194 -21.146  1.00  0.00     0.060 C 
HETATM   28  N3  UNL     1      -6.820  -0.819 -21.332  1.00  0.00    -0.197 NA
ENDBRANCH  25  26
ENDBRANCH  22  25
ENDBRANCH  21  22
ENDBRANCH  20  21
ENDBRANCH  16  20
TORSDOF 6
ENDMDL
MODEL 3
REMARK VINA RESULT: -8.673978258      1.707      3.010
REMARK  6 active torsions:
REMARK  status: ('A' for Active; 'I' for Inactive)
REMARK    1  A    between atoms: N1_16  and  C16_17 
REMARK    2  A    between atoms: C16_17  and  C17_18 
REMARK    3  A    between atoms: C17_18  and  N2_19 
REMARK    4  A    between atoms: N2_19  and  C18_20 
REMARK    5  A    between atoms: N2_19  and  C20_22 
REMARK    6  A    between atoms: C20_22  and  C21_23 
ROOT
HETATM    1  C1  UNL     1     -12.612   6.703 -15.054  1.00  0.00     0.013 C 
HETATM    2  C2  UNL     1     -12.661   5.631 -15.617  1.00  0.00    -0.107 C 
HETATM    3  C3  UNL     1     -12.703   4.296 -16.344  1.00  0.00     0.026 C 
HETATM    4  C4  UNL     1     -12.348   3.336 -15.372  1.00  0.00     0.030 C 
HETATM    5  C5  UNL     1     -14.006   4.361 -17.065  1.00  0.00     0.023 C 
HETATM    6  C6  UNL     1     -14.978   3.635 -17.894  1.00  0.00     0.006 C 
HETATM    7  C7  UNL     1     -14.280   3.372 -19.457  1.00  0.00     0.035 C 
HETATM    8  C8  UNL     1     -13.010   3.395 -18.697  1.00  0.00    -0.073 C 
HETATM    9  C9  UNL     1     -12.550   4.609 -18.408  1.00  0.00    -0.017 C 
HETATM   10  C10 UNL     1     -11.418   4.593 -17.450  1.00  0.00     0.028 C 
HETATM   11  C11 UNL     1     -10.450   3.634 -17.379  1.00  0.00     0.010 C 
HETATM   12  C12 UNL     1     -10.226   2.649 -18.553  1.00  0.00     0.006 C 
HETATM   13  C13 UNL     1     -11.254   1.524 -18.314  1.00  0.00     0.001 C 
HETATM   14  C14 UNL     1     -10.792   0.240 -18.932  1.00  0.00     0.036 C 
HETATM   15  C15 UNL     1     -11.310  -0.165 -20.241  1.00  0.00     0.273 C 
HETATM   16  N1  UNL     1     -12.634   0.275 -20.512  1.00  0.00     0.091 N 
HETATM   17  C23 UNL     1     -12.600   1.731 -20.324  1.00  0.00     0.286 C 
HETATM   18  C24 UNL     1     -12.626   1.970 -18.754  1.00  0.00     0.009 C 
HETATM   19  C25 UNL     1     -13.524   0.970 -18.224  1.00  0.00     0.022 C 
ENDROOT
BRANCH  16  20
HETATM   20  C16 UNL     1     -13.154   0.060 -21.813  1.00  0.00     0.302 C 
BRANCH  20  21
HETATM   21  C17 UNL     1     -12.267   0.209 -22.981  1.00  0.00     0.302 C 
BRANCH  21  22
HETATM   22  N2  UNL     1     -12.041  -0.922 -23.806  1.00  0.00     0.090 N 
BRANCH  22  23
HETATM   23  C18 UNL     1     -12.923  -2.016 -23.565  1.00  0.00     0.268 C 
HETATM   24  C19 UNL     1     -12.421  -3.274 -24.258  1.00  0.00     0.037 C 
ENDBRANCH  22  23
BRANCH  22  25
HETATM   25  C20 UNL     1     -10.648  -1.284 -23.849  1.00  0.00     0.286 C 
BRANCH  25  26
HETATM   26  C21 UNL     1      -9.749  -0.124 -23.471  1.00  0.00     0.154 C 
HETATM   27  C22 UNL     1      -8.711  -0.539 -22.533  1.00  0.00     0.060 C 
HETATM   28  N3  UNL     1      -7.864  -0.865 -21.790  1.00  0.00    -0.197 NA
ENDBRANCH  25  26
ENDBRANCH  22  25
ENDBRANCH  21  22
ENDBRANCH  20  21
ENDBRANCH  16  20
TORSDOF 6
ENDMDL
MODEL 4
REMARK VINA RESULT: -8.462537194      0.941      1.491
REMARK  6 active torsions:
REMARK  status: ('A' for Active; 'I' for Inactive)
REMARK    1  A    between atoms: N1_16  and  C16_17 
REMARK    2  A    between atoms: C16_17  and  C17_18 
REMARK    3  A    between atoms: C17_18  and  N2_19 
REMARK    4  A    between atoms: N2_19  and  C18_20 
REMARK    5  A    between atoms: N2_19  and  C20_22 
REMARK    6  A    between atoms: C20_22  and  C21_23 
ROOT
HETATM    1  C1  UNL     1     -10.929   7.402 -14.151  1.00  0.00     0.013 C 
HETATM    2  C2  UNL     1     -11.395   6.359 -14.557  1.00  0.00    -0.107 C 
HETATM    3  C3  UNL     1     -11.952   5.038 -15.063  1.00  0.00     0.026 C 
HETATM    4  C4  UNL     1     -13.011   4.724 -14.184  1.00  0.00     0.030 C 
HETATM    5  C5  UNL     1     -12.083   5.283 -16.528  1.00  0.00     0.023 C 
HETATM    6  C6  UNL     1     -12.566   4.758 -17.812  1.00  0.00     0.006 C 
HETATM    7  C7  UNL     1     -11.576   3.409 -18.263  1.00  0.00     0.035 C 
HETATM    8  C8  UNL     1     -11.420   3.263 -16.798  1.00  0.00    -0.073 C 
HETATM    9  C9  UNL     1     -10.521   4.073 -16.245  1.00  0.00    -0.017 C 
HETATM   10  C10 UNL     1     -10.562   4.069 -14.764  1.00  0.00     0.028 C 
HETATM   11  C11 UNL     1     -10.850   2.990 -13.979  1.00  0.00     0.010 C 
HETATM   12  C12 UNL     1     -10.795   1.555 -14.559  1.00  0.00     0.006 C 
HETATM   13  C13 UNL     1     -12.176   1.351 -15.215  1.00  0.00     0.001 C 
HETATM   14  C14 UNL     1     -12.535  -0.102 -15.262  1.00  0.00     0.036 C 
HETATM   15  C15 UNL     1     -12.325  -0.864 -16.495  1.00  0.00     0.273 C 
HETATM   16  N1  UNL     1     -12.449  -0.101 -17.688  1.00  0.00     0.091 N 
HETATM   17  C23 UNL     1     -11.512   1.017 -17.526  1.00  0.00     0.286 C 
HETATM   18  C24 UNL     1     -12.224   2.049 -16.552  1.00  0.00     0.009 C 
HETATM   19  C25 UNL     1     -13.620   2.034 -16.924  1.00  0.00     0.022 C 
ENDROOT
BRANCH  16  20
HETATM   20  C16 UNL     1     -12.111  -0.723 -18.916  1.00  0.00     0.302 C 
BRANCH  20  21
HETATM   21  C17 UNL     1     -11.084  -0.111 -19.778  1.00  0.00     0.302 C 
BRANCH  21  22
HETATM   22  N2  UNL     1     -11.477   0.388 -21.046  1.00  0.00     0.090 N 
BRANCH  22  23
HETATM   23  C18 UNL     1     -12.885   0.388 -21.272  1.00  0.00     0.268 C 
HETATM   24  C19 UNL     1     -13.509   1.686 -20.783  1.00  0.00     0.037 C 
ENDBRANCH  22  23
BRANCH  22  25
HETATM   25  C20 UNL     1     -10.708  -0.197 -22.114  1.00  0.00     0.286 C 
BRANCH  25  26
HETATM   26  C21 UNL     1     -11.490  -0.254 -23.411  1.00  0.00     0.154 C 
HETATM   27  C22 UNL     1     -11.587  -1.621 -23.913  1.00  0.00     0.060 C 
HETATM   28  N3  UNL     1     -11.683  -2.717 -24.319  1.00  0.00    -0.197 NA
ENDBRANCH  25  26
ENDBRANCH  22  25
ENDBRANCH  21  22
ENDBRANCH  20  21
ENDBRANCH  16  20
TORSDOF 6
ENDMDL
MODEL 5
REMARK VINA RESULT: -8.246285257      1.744      3.005
REMARK  6 active torsions:
REMARK  status: ('A' for Active; 'I' for Inactive)
REMARK    1  A    between atoms: N1_16  and  C16_17 
REMARK    2  A    between atoms: C16_17  and  C17_18 
REMARK    3  A    between atoms: C17_18  and  N2_19 
REMARK    4  A    between atoms: N2_19  and  C18_20 
REMARK    5  A    between atoms: N2_19  and  C20_22 
REMARK    6  A    between atoms: C20_22  and  C21_23 
ROOT
HETATM    1  C1  UNL     1     -10.764   7.693 -14.176  1.00  0.00     0.013 C 
HETATM    2  C2  UNL     1     -11.249   6.625 -14.481  1.00  0.00    -0.107 C 
HETATM    3  C3  UNL     1     -11.830   5.272 -14.862  1.00  0.00     0.026 C 
HETATM    4  C4  UNL     1     -12.785   4.987 -13.862  1.00  0.00     0.030 C 
HETATM    5  C5  UNL     1     -12.117   5.442 -16.314  1.00  0.00     0.023 C 
HETATM    6  C6  UNL     1     -12.720   4.847 -17.515  1.00  0.00     0.006 C 
HETATM    7  C7  UNL     1     -11.756   3.492 -18.001  1.00  0.00     0.035 C 
HETATM    8  C8  UNL     1     -11.447   3.421 -16.556  1.00  0.00    -0.073 C 
HETATM    9  C9  UNL     1     -10.510   4.270 -16.139  1.00  0.00    -0.017 C 
HETATM   10  C10 UNL     1     -10.397   4.339 -14.663  1.00  0.00     0.028 C 
HETATM   11  C11 UNL     1     -10.581   3.296 -13.801  1.00  0.00     0.010 C 
HETATM   12  C12 UNL     1     -10.559   1.835 -14.314  1.00  0.00     0.006 C 
HETATM   13  C13 UNL     1     -11.996   1.579 -14.813  1.00  0.00     0.001 C 
HETATM   14  C14 UNL     1     -12.330   0.121 -14.751  1.00  0.00     0.036 C 
HETATM   15  C15 UNL     1     -12.234  -0.699 -15.962  1.00  0.00     0.273 C 
HETATM   16  N1  UNL     1     -12.496   0.002 -17.170  1.00  0.00     0.091 N 
HETATM   17  C23 UNL     1     -11.569   1.141 -17.162  1.00  0.00     0.286 C 
HETATM   18  C24 UNL     1     -12.197   2.209 -16.169  1.00  0.00     0.009 C 
HETATM   19  C25 UNL     1     -13.623   2.156 -16.391  1.00  0.00     0.022 C 
ENDROOT
BRANCH  16  20
HETATM   20  C16 UNL     1     -12.275  -0.675 -18.395  1.00  0.00     0.302 C 
BRANCH  20  21
HETATM   21  C17 UNL     1     -11.711   0.064 -19.539  1.00  0.00     0.302 C 
BRANCH  21  22
HETATM   22  N2  UNL     1     -12.558   0.353 -20.639  1.00  0.00     0.090 N 
BRANCH  22  23
HETATM   23  C18 UNL     1     -12.006   0.029 -21.914  1.00  0.00     0.268 C 
HETATM   24  C19 UNL     1     -13.105  -0.121 -22.955  1.00  0.00     0.037 C 
ENDBRANCH  22  23
BRANCH  22  25
HETATM   25  C20 UNL     1     -13.112   1.679 -20.556  1.00  0.00     0.286 C 
BRANCH  25  26
HETATM   26  C21 UNL     1     -14.438   1.695 -19.822  1.00  0.00     0.154 C 
HETATM   27  C22 UNL     1     -15.015   3.035 -19.794  1.00  0.00     0.060 C 
HETATM   28  N3  UNL     1     -15.495   4.105 -19.778  1.00  0.00    -0.197 NA
ENDBRANCH  25  26
ENDBRANCH  22  25
ENDBRANCH  21  22
ENDBRANCH  20  21
ENDBRANCH  16  20
TORSDOF 6
ENDMDL
