MODEL 1
REMARK VINA RESULT: -7.272564644      0.000      0.000
REMARK  3 active torsions:
REMARK  status: ('A' for Active; 'I' for Inactive)
REMARK    1  A    between atoms: C2_2  and  N1_5 
REMARK       I    between atoms: N2_11  and  C9_13 
REMARK    2  A    between atoms: C9_13  and  C10_15 
REMARK    3  A    between atoms: C10_15  and  C11_16 
ROOT
HETATM    1  N1  UNL     1       5.577  16.828 -35.226  1.00  0.00    -0.353 N 
HETATM    2  C5  UNL     1       6.377  17.545 -34.250  1.00  0.00     0.126 C 
HETATM    3  C6  UNL     1       7.569  16.675 -33.926  1.00  0.00     0.030 C 
HETATM    4  C7  UNL     1       7.241  15.501 -33.065  1.00  0.00     0.084 C 
HETATM    5  S1  UNL     1       5.588  14.818 -33.371  1.00  0.00    -0.094 SA
HETATM    6  C8  UNL     1       4.939  15.661 -34.795  1.00  0.00     0.145 C 
HETATM    7  N2  UNL     1       3.927  15.219 -35.399  1.00  0.00    -0.307 N 
ATOM      8  H2  UNL     1       3.565  15.714 -36.215  1.00  0.00     0.171 HD
HETATM    9  C9  UNL     1       3.289  14.034 -34.951  1.00  0.00     0.225 C 
HETATM   10  O1  UNL     1       4.018  13.109 -34.520  1.00  0.00    -0.273 OA
ENDROOT
BRANCH   9  11
HETATM   11  C10 UNL     1       1.822  13.890 -34.988  1.00  0.00     0.134 C 
BRANCH  11  12
HETATM   12  C11 UNL     1       1.415  13.500 -36.388  1.00  0.00     0.178 C 
HETATM   13  S2  UNL     1       0.008  12.353 -36.266  1.00  0.00    -0.147 SA
HETATM   14  C12 UNL     1      -1.426  13.376 -36.540  1.00  0.00     0.090 C 
HETATM   15  C13 UNL     1      -1.011  14.797 -36.604  1.00  0.00     0.151 C 
HETATM   16  S3  UNL     1       0.635  14.875 -37.233  1.00  0.00     0.158 S 
HETATM   17  O2  UNL     1       0.691  14.725 -38.707  1.00  0.00    -0.227 OA
HETATM   18  O3  UNL     1       1.322  16.121 -36.740  1.00  0.00    -0.227 OA
ENDBRANCH  11  12
ENDBRANCH   9  11
BRANCH   1  19
HETATM   19  C2  UNL     1       5.484  17.329 -36.533  1.00  0.00     0.023 C 
HETATM   20  C1  UNL     1       4.616  16.649 -37.515  1.00  0.00     0.037 C 
HETATM   21  C3  UNL     1       4.981  18.776 -36.434  1.00  0.00     0.037 C 
HETATM   22  C4  UNL     1       6.867  17.462 -37.197  1.00  0.00     0.037 C 
ENDBRANCH   1  19
TORSDOF 3
ENDMDL
MODEL 2
REMARK VINA RESULT: -7.170253393      2.355      2.887
REMARK  3 active torsions:
REMARK  status: ('A' for Active; 'I' for Inactive)
REMARK    1  A    between atoms: C2_2  and  N1_5 
REMARK       I    between atoms: N2_11  and  C9_13 
REMARK    2  A    between atoms: C9_13  and  C10_15 
REMARK    3  A    between atoms: C10_15  and  C11_16 
ROOT
HETATM    1  N1  UNL     1       3.896  17.246 -32.228  1.00  0.00    -0.353 N 
HETATM    2  C5  UNL     1       4.887  17.250 -31.168  1.00  0.00     0.126 C 
HETATM    3  C6  UNL     1       6.242  17.377 -31.824  1.00  0.00     0.030 C 
HETATM    4  C7  UNL     1       6.703  16.130 -32.500  1.00  0.00     0.084 C 
HETATM    5  S1  UNL     1       5.353  15.157 -33.225  1.00  0.00    -0.094 SA
HETATM    6  C8  UNL     1       3.878  16.138 -33.080  1.00  0.00     0.145 C 
HETATM    7  N2  UNL     1       2.841  15.841 -33.729  1.00  0.00    -0.307 N 
ATOM      8  H2  UNL     1       2.001  16.413 -33.635  1.00  0.00     0.171 HD
HETATM    9  C9  UNL     1       2.836  14.715 -34.590  1.00  0.00     0.225 C 
HETATM   10  O1  UNL     1       3.879  14.478 -35.243  1.00  0.00    -0.273 OA
ENDROOT
BRANCH   9  11
HETATM   11  C10 UNL     1       1.649  13.848 -34.716  1.00  0.00     0.134 C 
BRANCH  11  12
HETATM   12  C11 UNL     1       1.439  13.536 -36.178  1.00  0.00     0.178 C 
HETATM   13  S2  UNL     1       0.081  12.332 -36.307  1.00  0.00    -0.147 SA
HETATM   14  C12 UNL     1      -1.352  13.317 -36.699  1.00  0.00     0.090 C 
HETATM   15  C13 UNL     1      -0.998  14.754 -36.624  1.00  0.00     0.151 C 
HETATM   16  S3  UNL     1       0.709  14.934 -37.031  1.00  0.00     0.158 S 
HETATM   17  O2  UNL     1       0.957  14.884 -38.491  1.00  0.00    -0.227 OA
HETATM   18  O3  UNL     1       1.272  16.169 -36.379  1.00  0.00    -0.227 OA
ENDBRANCH  11  12
ENDBRANCH   9  11
BRANCH   1  19
HETATM   19  C2  UNL     1       3.019  18.335 -32.348  1.00  0.00     0.023 C 
HETATM   20  C1  UNL     1       2.818  18.968 -33.665  1.00  0.00     0.037 C 
HETATM   21  C3  UNL     1       1.637  17.863 -31.873  1.00  0.00     0.037 C 
HETATM   22  C4  UNL     1       3.378  19.471 -31.371  1.00  0.00     0.037 C 
ENDBRANCH   1  19
TORSDOF 3
ENDMDL
MODEL 3
REMARK VINA RESULT: -6.949112195      2.060      3.297
REMARK  3 active torsions:
REMARK  status: ('A' for Active; 'I' for Inactive)
REMARK    1  A    between atoms: C2_2  and  N1_5 
REMARK       I    between atoms: N2_11  and  C9_13 
REMARK    2  A    between atoms: C9_13  and  C10_15 
REMARK    3  A    between atoms: C10_15  and  C11_16 
ROOT
HETATM    1  N1  UNL     1       6.012  16.973 -34.523  1.00  0.00    -0.353 N 
HETATM    2  C5  UNL     1       7.461  16.979 -34.578  1.00  0.00     0.126 C 
HETATM    3  C6  UNL     1       7.874  18.211 -35.349  1.00  0.00     0.030 C 
HETATM    4  C7  UNL     1       7.637  18.108 -36.819  1.00  0.00     0.084 C 
HETATM    5  S1  UNL     1       6.170  17.131 -37.249  1.00  0.00    -0.094 SA
HETATM    6  C8  UNL     1       5.329  16.768 -35.726  1.00  0.00     0.145 C 
HETATM    7  N2  UNL     1       4.147  16.335 -35.730  1.00  0.00    -0.307 N 
ATOM      8  H2  UNL     1       3.677  16.130 -34.847  1.00  0.00     0.171 HD
HETATM    9  C9  UNL     1       3.466  16.131 -36.957  1.00  0.00     0.225 C 
HETATM   10  O1  UNL     1       3.663  16.962 -37.876  1.00  0.00    -0.273 OA
ENDROOT
BRANCH   9  11
HETATM   11  C10 UNL     1       2.558  14.985 -37.152  1.00  0.00     0.134 C 
BRANCH  11  12
HETATM   12  C11 UNL     1       1.243  15.298 -36.480  1.00  0.00     0.178 C 
HETATM   13  S2  UNL     1      -0.084  14.515 -37.446  1.00  0.00    -0.147 SA
HETATM   14  C12 UNL     1      -0.432  12.998 -36.577  1.00  0.00     0.090 C 
HETATM   15  C13 UNL     1       0.560  12.813 -35.492  1.00  0.00     0.151 C 
HETATM   16  S3  UNL     1       1.086  14.402 -34.936  1.00  0.00     0.158 S 
HETATM   17  O2  UNL     1       0.109  15.039 -34.020  1.00  0.00    -0.227 OA
HETATM   18  O3  UNL     1       2.472  14.316 -34.352  1.00  0.00    -0.227 OA
ENDBRANCH  11  12
ENDBRANCH   9  11
BRANCH   1  19
HETATM   19  C2  UNL     1       5.373  17.171 -33.289  1.00  0.00     0.023 C 
HETATM   20  C1  UNL     1       4.076  17.873 -33.243  1.00  0.00     0.037 C 
HETATM   21  C3  UNL     1       5.144  15.787 -32.666  1.00  0.00     0.037 C 
HETATM   22  C4  UNL     1       6.289  17.886 -32.278  1.00  0.00     0.037 C 
ENDBRANCH   1  19
TORSDOF 3
ENDMDL
MODEL 4
REMARK VINA RESULT: -6.916277502      3.036      6.024
REMARK  3 active torsions:
REMARK  status: ('A' for Active; 'I' for Inactive)
REMARK    1  A    between atoms: C2_2  and  N1_5 
REMARK       I    between atoms: N2_11  and  C9_13 
REMARK    2  A    between atoms: C9_13  and  C10_15 
REMARK    3  A    between atoms: C10_15  and  C11_16 
ROOT
HETATM    1  N1  UNL     1       2.089  13.211 -35.901  1.00  0.00    -0.353 N 
HETATM    2  C5  UNL     1       2.356  11.895 -36.448  1.00  0.00     0.126 C 
HETATM    3  C6  UNL     1       2.690  10.989 -35.285  1.00  0.00     0.030 C 
HETATM    4  C7  UNL     1       4.045  11.224 -34.708  1.00  0.00     0.084 C 
HETATM    5  S1  UNL     1       4.569  12.960 -34.776  1.00  0.00    -0.094 SA
HETATM    6  C8  UNL     1       3.167  13.899 -35.337  1.00  0.00     0.145 C 
HETATM    7  N2  UNL     1       3.147  15.153 -35.229  1.00  0.00    -0.307 N 
ATOM      8  H2  UNL     1       2.336  15.678 -35.556  1.00  0.00     0.171 HD
HETATM    9  C9  UNL     1       4.248  15.838 -34.654  1.00  0.00     0.225 C 
HETATM   10  O1  UNL     1       4.828  15.295 -33.685  1.00  0.00    -0.273 OA
ENDROOT
BRANCH   9  11
HETATM   11  C10 UNL     1       4.700  17.142 -35.175  1.00  0.00     0.134 C 
BRANCH  11  12
HETATM   12  C11 UNL     1       5.670  16.894 -36.305  1.00  0.00     0.178 C 
HETATM   13  S2  UNL     1       4.740  16.948 -37.867  1.00  0.00    -0.147 SA
HETATM   14  C12 UNL     1       5.015  18.594 -38.493  1.00  0.00     0.090 C 
HETATM   15  C13 UNL     1       5.745  19.391 -37.480  1.00  0.00     0.151 C 
HETATM   16  S3  UNL     1       6.757  18.301 -36.532  1.00  0.00     0.158 S 
HETATM   17  O2  UNL     1       8.009  17.928 -37.233  1.00  0.00    -0.227 OA
HETATM   18  O3  UNL     1       6.999  18.877 -35.161  1.00  0.00    -0.227 OA
ENDBRANCH  11  12
ENDBRANCH   9  11
BRANCH   1  19
HETATM   19  C2  UNL     1       0.784  13.725 -35.962  1.00  0.00     0.023 C 
HETATM   20  C1  UNL     1       0.272  14.549 -34.850  1.00  0.00     0.037 C 
HETATM   21  C3  UNL     1       0.693  14.592 -37.226  1.00  0.00     0.037 C 
HETATM   22  C4  UNL     1      -0.259  12.617 -36.197  1.00  0.00     0.037 C 
ENDBRANCH   1  19
TORSDOF 3
ENDMDL
MODEL 5
REMARK VINA RESULT: -6.908808594      2.059      2.600
REMARK  3 active torsions:
REMARK  status: ('A' for Active; 'I' for Inactive)
REMARK    1  A    between atoms: C2_2  and  N1_5 
REMARK       I    between atoms: N2_11  and  C9_13 
REMARK    2  A    between atoms: C9_13  and  C10_15 
REMARK    3  A    between atoms: C10_15  and  C11_16 
ROOT
HETATM    1  N1  UNL     1       4.606  16.450 -32.303  1.00  0.00    -0.353 N 
HETATM    2  C5  UNL     1       5.673  16.199 -31.353  1.00  0.00     0.126 C 
HETATM    3  C6  UNL     1       6.970  16.194 -32.129  1.00  0.00     0.030 C 
HETATM    4  C7  UNL     1       7.171  14.970 -32.957  1.00  0.00     0.084 C 
HETATM    5  S1  UNL     1       5.629  14.286 -33.626  1.00  0.00    -0.094 SA
HETATM    6  C8  UNL     1       4.342  15.451 -33.245  1.00  0.00     0.145 C 
HETATM    7  N2  UNL     1       3.219  15.378 -33.809  1.00  0.00    -0.307 N 
ATOM      8  H2  UNL     1       2.490  16.054 -33.579  1.00  0.00     0.171 HD
HETATM    9  C9  UNL     1       2.965  14.360 -34.763  1.00  0.00     0.225 C 
HETATM   10  O1  UNL     1       3.898  14.043 -35.537  1.00  0.00    -0.273 OA
ENDROOT
BRANCH   9  11
HETATM   11  C10 UNL     1       1.651  13.694 -34.845  1.00  0.00     0.134 C 
BRANCH  11  12
HETATM   12  C11 UNL     1       1.345  13.420 -36.298  1.00  0.00     0.178 C 
HETATM   13  S2  UNL     1      -0.117  12.340 -36.370  1.00  0.00    -0.147 SA
HETATM   14  C12 UNL     1      -1.476  13.451 -36.683  1.00  0.00     0.090 C 
HETATM   15  C13 UNL     1      -0.995  14.851 -36.613  1.00  0.00     0.151 C 
HETATM   16  S3  UNL     1       0.700  14.887 -37.101  1.00  0.00     0.158 S 
HETATM   17  O2  UNL     1       0.872  14.835 -38.573  1.00  0.00    -0.227 OA
HETATM   18  O3  UNL     1       1.399  16.060 -36.467  1.00  0.00    -0.227 OA
ENDBRANCH  11  12
ENDBRANCH   9  11
BRANCH   1  19
HETATM   19  C2  UNL     1       3.902  17.662 -32.235  1.00  0.00     0.023 C 
HETATM   20  C1  UNL     1       2.492  17.663 -31.802  1.00  0.00     0.037 C 
HETATM   21  C3  UNL     1       4.659  18.577 -31.262  1.00  0.00     0.037 C 
HETATM   22  C4  UNL     1       3.945  18.426 -33.571  1.00  0.00     0.037 C 
ENDBRANCH   1  19
TORSDOF 3
ENDMDL
