MODEL 1
REMARK VINA RESULT: -8.810906244      0.000      0.000
REMARK  4 active torsions:
REMARK  status: ('A' for Active; 'I' for Inactive)
REMARK    1  A    between atoms: O1_1  and  C1_3 
REMARK    2  A    between atoms: C1_3  and  C2_4 
REMARK    3  A    between atoms: C1_3  and  N1_13 
REMARK    4  A    between atoms: N2_17  and  C12_18 
ROOT
HETATM    1  N1  UNL     1       4.797  16.301 -34.053  1.00  0.00    -0.362 N 
HETATM    2  C9  UNL     1       4.114  15.857 -32.845  1.00  0.00     0.126 C 
HETATM    3  C10 UNL     1       2.967  16.821 -32.623  1.00  0.00     0.039 C 
HETATM    4  C11 UNL     1       1.707  16.272 -33.291  1.00  0.00     0.119 C 
HETATM    5  N2  UNL     1       2.099  15.543 -34.438  1.00  0.00    -0.406 N 
HETATM    6  C18 UNL     1       2.780  16.259 -35.455  1.00  0.00     0.137 C 
HETATM    7  C19 UNL     1       4.270  16.037 -35.380  1.00  0.00     0.144 C 
ENDROOT
BRANCH   1   8
HETATM    8  C1  UNL     1       5.994  16.996 -34.016  1.00  0.00     0.143 C 
BRANCH   8   9
HETATM    9  O1  UNL     1       6.396  17.329 -32.824  1.00  0.00    -0.347 OA
ATOM     10  H1  UNL     1       6.774  18.200 -32.787  1.00  0.00     0.219 HD
ENDBRANCH   8   9
BRANCH   8  11
HETATM   11  C2  UNL     1       6.903  17.430 -35.070  1.00  0.00     0.198 C 
HETATM   12  C3  UNL     1       6.559  18.688 -35.762  1.00  0.00     0.080 C 
HETATM   13  C4  UNL     1       7.318  18.540 -37.070  1.00  0.00     0.085 C 
HETATM   14  C5  UNL     1       8.720  19.030 -36.934  1.00  0.00     0.042 C 
HETATM   15  O2  UNL     1       6.803  19.334 -38.074  1.00  0.00    -0.378 OA
HETATM   16  C8  UNL     1       7.169  17.067 -37.294  1.00  0.00     0.207 C 
HETATM   17  C6  UNL     1       8.504  20.547 -37.016  1.00  0.00     0.029 C 
HETATM   18  C7  UNL     1       7.122  20.621 -37.621  1.00  0.00     0.169 C 
HETATM   19  O3  UNL     1       7.031  16.478 -36.070  1.00  0.00    -0.375 OA
ENDBRANCH   8  11
ENDBRANCH   1   8
BRANCH   5  20
HETATM   20  C12 UNL     1       1.290  14.461 -34.846  1.00  0.00     0.079 C 
HETATM   21  C13 UNL     1       2.091  13.238 -35.265  1.00  0.00     0.025 C 
HETATM   22  C14 UNL     1       1.130  12.071 -35.291  1.00  0.00     0.002 C 
HETATM   23  C15 UNL     1      -0.029  12.285 -36.213  1.00  0.00     0.000 C 
HETATM   24  C16 UNL     1      -0.684  13.631 -36.007  1.00  0.00     0.002 C 
HETATM   25  C17 UNL     1       0.322  14.772 -35.949  1.00  0.00     0.025 C 
ENDBRANCH   5  20
TORSDOF 4
ENDMDL
MODEL 2
REMARK VINA RESULT: -8.573295170      1.277      1.942
REMARK  4 active torsions:
REMARK  status: ('A' for Active; 'I' for Inactive)
REMARK    1  A    between atoms: O1_1  and  C1_3 
REMARK    2  A    between atoms: C1_3  and  C2_4 
REMARK    3  A    between atoms: C1_3  and  N1_13 
REMARK    4  A    between atoms: N2_17  and  C12_18 
ROOT
HETATM    1  N1  UNL     1       4.654  15.628 -34.996  1.00  0.00    -0.362 N 
HETATM    2  C9  UNL     1       4.041  14.911 -33.887  1.00  0.00     0.126 C 
HETATM    3  C10 UNL     1       3.018  15.851 -33.282  1.00  0.00     0.039 C 
HETATM    4  C11 UNL     1       1.656  15.602 -33.928  1.00  0.00     0.119 C 
HETATM    5  N2  UNL     1       1.871  15.200 -35.267  1.00  0.00    -0.406 N 
HETATM    6  C18 UNL     1       2.527  16.124 -36.120  1.00  0.00     0.137 C 
HETATM    7  C19 UNL     1       3.988  15.786 -36.277  1.00  0.00     0.144 C 
ENDROOT
BRANCH   1   8
HETATM    8  C1  UNL     1       5.912  16.199 -34.906  1.00  0.00     0.143 C 
BRANCH   8   9
HETATM    9  O1  UNL     1       6.861  15.381 -34.555  1.00  0.00    -0.347 OA
ATOM     10  H1  UNL     1       6.554  14.665 -34.012  1.00  0.00     0.219 HD
ENDBRANCH   8   9
BRANCH   8  11
HETATM   11  C2  UNL     1       6.384  17.559 -35.135  1.00  0.00     0.198 C 
HETATM   12  C3  UNL     1       7.315  17.753 -36.265  1.00  0.00     0.080 C 
HETATM   13  C4  UNL     1       8.002  19.053 -35.881  1.00  0.00     0.085 C 
HETATM   14  C5  UNL     1       7.222  20.232 -36.357  1.00  0.00     0.042 C 
HETATM   15  O2  UNL     1       9.223  19.211 -36.504  1.00  0.00    -0.378 OA
HETATM   16  C8  UNL     1       8.071  18.885 -34.395  1.00  0.00     0.207 C 
HETATM   17  C6  UNL     1       7.606  20.251 -37.843  1.00  0.00     0.029 C 
HETATM   18  C7  UNL     1       8.847  19.389 -37.842  1.00  0.00     0.169 C 
HETATM   19  O3  UNL     1       7.033  18.079 -34.025  1.00  0.00    -0.375 OA
ENDBRANCH   8  11
ENDBRANCH   1   8
BRANCH   5  20
HETATM   20  C12 UNL     1       0.927  14.336 -35.862  1.00  0.00     0.079 C 
HETATM   21  C13 UNL     1      -0.468  14.936 -35.940  1.00  0.00     0.025 C 
HETATM   22  C14 UNL     1      -1.254  14.096 -36.922  1.00  0.00     0.002 C 
HETATM   23  C15 UNL     1      -1.320  12.650 -36.538  1.00  0.00     0.000 C 
HETATM   24  C16 UNL     1       0.037  12.090 -36.179  1.00  0.00     0.002 C 
HETATM   25  C17 UNL     1       0.808  12.985 -35.218  1.00  0.00     0.025 C 
ENDBRANCH   5  20
TORSDOF 4
ENDMDL
MODEL 3
REMARK VINA RESULT: -8.538316407      2.471      7.301
REMARK  4 active torsions:
REMARK  status: ('A' for Active; 'I' for Inactive)
REMARK    1  A    between atoms: O1_1  and  C1_3 
REMARK    2  A    between atoms: C1_3  and  C2_4 
REMARK    3  A    between atoms: C1_3  and  N1_13 
REMARK    4  A    between atoms: N2_17  and  C12_18 
ROOT
HETATM    1  N1  UNL     1       3.409  16.943 -34.533  1.00  0.00    -0.362 N 
HETATM    2  C9  UNL     1       4.131  17.704 -33.522  1.00  0.00     0.126 C 
HETATM    3  C10 UNL     1       5.321  16.858 -33.118  1.00  0.00     0.039 C 
HETATM    4  C11 UNL     1       6.529  17.239 -33.973  1.00  0.00     0.119 C 
HETATM    5  N2  UNL     1       6.058  17.632 -35.248  1.00  0.00    -0.406 N 
HETATM    6  C18 UNL     1       5.357  16.658 -36.004  1.00  0.00     0.137 C 
HETATM    7  C19 UNL     1       3.865  16.859 -35.909  1.00  0.00     0.144 C 
ENDROOT
BRANCH   1   8
HETATM    8  C1  UNL     1       2.241  16.256 -34.251  1.00  0.00     0.143 C 
BRANCH   8   9
HETATM    9  O1  UNL     1       1.500  16.793 -33.325  1.00  0.00    -0.347 OA
ATOM     10  H1  UNL     1       1.870  16.706 -32.455  1.00  0.00     0.219 HD
ENDBRANCH   8   9
BRANCH   8  11
HETATM   11  C2  UNL     1       1.672  15.032 -34.802  1.00  0.00     0.198 C 
HETATM   12  C3  UNL     1       2.613  13.921 -35.050  1.00  0.00     0.080 C 
HETATM   13  C4  UNL     1       1.856  13.098 -36.080  1.00  0.00     0.085 C 
HETATM   14  C5  UNL     1       0.931  12.132 -35.419  1.00  0.00     0.042 C 
HETATM   15  O2  UNL     1       2.686  12.282 -36.821  1.00  0.00    -0.378 OA
HETATM   16  C8  UNL     1       1.194  14.195 -36.856  1.00  0.00     0.207 C 
HETATM   17  C6  UNL     1       1.917  11.035 -34.994  1.00  0.00     0.029 C 
HETATM   18  C7  UNL     1       3.111  11.351 -35.864  1.00  0.00     0.169 C 
HETATM   19  O3  UNL     1       1.032  15.255 -36.012  1.00  0.00    -0.375 OA
ENDBRANCH   8  11
ENDBRANCH   1   8
BRANCH   5  20
HETATM   20  C12 UNL     1       6.809  18.585 -35.968  1.00  0.00     0.079 C 
HETATM   21  C13 UNL     1       5.949  19.506 -36.820  1.00  0.00     0.025 C 
HETATM   22  C14 UNL     1       6.815  20.685 -37.205  1.00  0.00     0.002 C 
HETATM   23  C15 UNL     1       8.055  20.287 -37.943  1.00  0.00     0.000 C 
HETATM   24  C16 UNL     1       8.795  19.164 -37.254  1.00  0.00     0.002 C 
HETATM   25  C17 UNL     1       7.881  18.015 -36.851  1.00  0.00     0.025 C 
ENDBRANCH   5  20
TORSDOF 4
ENDMDL
MODEL 4
REMARK VINA RESULT: -8.520811429      2.833      7.577
REMARK  4 active torsions:
REMARK  status: ('A' for Active; 'I' for Inactive)
REMARK    1  A    between atoms: O1_1  and  C1_3 
REMARK    2  A    between atoms: C1_3  and  C2_4 
REMARK    3  A    between atoms: C1_3  and  N1_13 
REMARK    4  A    between atoms: N2_17  and  C12_18 
ROOT
HETATM    1  N1  UNL     1       3.108  16.413 -35.876  1.00  0.00    -0.362 N 
HETATM    2  C9  UNL     1       3.238  17.411 -34.822  1.00  0.00     0.126 C 
HETATM    3  C10 UNL     1       4.280  16.883 -33.857  1.00  0.00     0.039 C 
HETATM    4  C11 UNL     1       5.655  17.419 -34.252  1.00  0.00     0.119 C 
HETATM    5  N2  UNL     1       5.682  17.567 -35.658  1.00  0.00    -0.406 N 
HETATM    6  C18 UNL     1       5.501  16.394 -36.434  1.00  0.00     0.137 C 
HETATM    7  C19 UNL     1       4.085  16.283 -36.942  1.00  0.00     0.144 C 
ENDROOT
BRANCH   1   8
HETATM    8  C1  UNL     1       2.045  15.528 -35.932  1.00  0.00     0.143 C 
BRANCH   8   9
HETATM    9  O1  UNL     1       0.960  16.010 -36.463  1.00  0.00    -0.347 OA
ATOM     10  H1  UNL     1       0.237  16.066 -35.850  1.00  0.00     0.219 HD
ENDBRANCH   8   9
BRANCH   8  11
HETATM   11  C2  UNL     1       1.909  14.140 -35.509  1.00  0.00     0.198 C 
HETATM   12  C3  UNL     1       2.681  13.139 -36.272  1.00  0.00     0.080 C 
HETATM   13  C4  UNL     1       1.914  11.861 -35.972  1.00  0.00     0.085 C 
HETATM   14  C5  UNL     1       2.396  11.231 -34.709  1.00  0.00     0.042 C 
HETATM   15  O2  UNL     1       2.130  10.879 -36.916  1.00  0.00    -0.378 OA
HETATM   16  C8  UNL     1       0.516  12.398 -35.930  1.00  0.00     0.207 C 
HETATM   17  C6  UNL     1       3.687  10.560 -35.197  1.00  0.00     0.029 C 
HETATM   18  C7  UNL     1       3.473  10.548 -36.692  1.00  0.00     0.169 C 
HETATM   19  O3  UNL     1       0.591  13.708 -35.555  1.00  0.00    -0.375 OA
ENDBRANCH   8  11
ENDBRANCH   1   8
BRANCH   5  20
HETATM   20  C12 UNL     1       6.503  18.577 -36.204  1.00  0.00     0.079 C 
HETATM   21  C13 UNL     1       5.753  19.527 -37.125  1.00  0.00     0.025 C 
HETATM   22  C14 UNL     1       6.631  20.744 -37.310  1.00  0.00     0.002 C 
HETATM   23  C15 UNL     1       7.979  20.416 -37.873  1.00  0.00     0.000 C 
HETATM   24  C16 UNL     1       8.641  19.271 -37.143  1.00  0.00     0.002 C 
HETATM   25  C17 UNL     1       7.711  18.082 -36.945  1.00  0.00     0.025 C 
ENDBRANCH   5  20
TORSDOF 4
ENDMDL
MODEL 5
REMARK VINA RESULT: -8.389772926      1.608      2.157
REMARK  4 active torsions:
REMARK  status: ('A' for Active; 'I' for Inactive)
REMARK    1  A    between atoms: O1_1  and  C1_3 
REMARK    2  A    between atoms: C1_3  and  C2_4 
REMARK    3  A    between atoms: C1_3  and  N1_13 
REMARK    4  A    between atoms: N2_17  and  C12_18 
ROOT
HETATM    1  N1  UNL     1       3.761  16.594 -35.317  1.00  0.00    -0.362 N 
HETATM    2  C9  UNL     1       3.421  15.882 -34.092  1.00  0.00     0.126 C 
HETATM    3  C10 UNL     1       1.923  16.019 -33.918  1.00  0.00     0.039 C 
HETATM    4  C11 UNL     1       1.225  14.823 -34.565  1.00  0.00     0.119 C 
HETATM    5  N2  UNL     1       1.998  14.411 -35.676  1.00  0.00    -0.406 N 
HETATM    6  C18 UNL     1       2.175  15.352 -36.722  1.00  0.00     0.137 C 
HETATM    7  C19 UNL     1       3.519  16.029 -36.632  1.00  0.00     0.144 C 
ENDROOT
BRANCH   1   8
HETATM    8  C1  UNL     1       4.341  17.851 -35.307  1.00  0.00     0.143 C 
BRANCH   8   9
HETATM    9  O1  UNL     1       3.498  18.842 -35.273  1.00  0.00    -0.347 OA
ATOM     10  H1  UNL     1       3.865  19.655 -35.598  1.00  0.00     0.219 HD
ENDBRANCH   8   9
BRANCH   8  11
HETATM   11  C2  UNL     1       5.733  18.283 -35.323  1.00  0.00     0.198 C 
HETATM   12  C3  UNL     1       6.250  18.793 -36.609  1.00  0.00     0.080 C 
HETATM   13  C4  UNL     1       7.749  18.612 -36.434  1.00  0.00     0.085 C 
HETATM   14  C5  UNL     1       8.356  19.791 -35.753  1.00  0.00     0.042 C 
HETATM   15  O2  UNL     1       8.421  18.563 -37.638  1.00  0.00    -0.378 OA
HETATM   16  C8  UNL     1       7.768  17.335 -35.651  1.00  0.00     0.207 C 
HETATM   17  C6  UNL     1       8.425  20.791 -36.915  1.00  0.00     0.029 C 
HETATM   18  C7  UNL     1       8.274  19.875 -38.107  1.00  0.00     0.169 C 
HETATM   19  O3  UNL     1       6.598  17.265 -34.951  1.00  0.00    -0.375 OA
ENDBRANCH   8  11
ENDBRANCH   1   8
BRANCH   5  20
HETATM   20  C12 UNL     1       1.968  13.047 -36.037  1.00  0.00     0.079 C 
HETATM   21  C13 UNL     1       0.649  12.368 -35.707  1.00  0.00     0.025 C 
HETATM   22  C14 UNL     1       0.616  11.070 -36.484  1.00  0.00     0.002 C 
HETATM   23  C15 UNL     1       1.768  10.168 -36.168  1.00  0.00     0.000 C 
HETATM   24  C16 UNL     1       3.093  10.893 -36.216  1.00  0.00     0.002 C 
HETATM   25  C17 UNL     1       3.070  12.211 -35.454  1.00  0.00     0.025 C 
ENDBRANCH   5  20
TORSDOF 4
ENDMDL
