MODEL 1
REMARK VINA RESULT: -8.415327436      0.000      0.000
REMARK  5 active torsions:
REMARK  status: ('A' for Active; 'I' for Inactive)
REMARK    1  A    between atoms: C2_2  and  C3_4 
REMARK    2  A    between atoms: N1_9  and  C8_10 
REMARK    3  A    between atoms: C8_10  and  O2_11 
REMARK    4  A    between atoms: C8_10  and  N2_13 
REMARK    5  A    between atoms: N3_18  and  C13_19 
ROOT
HETATM    1  N2  UNL     1       3.132  15.743 -35.064  1.00  0.00    -0.347 N 
HETATM    2  C9  UNL     1       4.178  15.161 -34.314  1.00  0.00     0.127 C 
HETATM    3  C10 UNL     1       5.563  15.691 -34.495  1.00  0.00     0.027 C 
HETATM    4  C11 UNL     1       5.705  16.895 -35.383  1.00  0.00     0.021 C 
HETATM    5  C12 UNL     1       7.107  17.097 -35.802  1.00  0.00     0.278 C 
HETATM    6  N3  UNL     1       7.335  17.703 -37.052  1.00  0.00     0.092 N 
HETATM    7  C16 UNL     1       6.242  18.366 -37.663  1.00  0.00     0.273 C 
HETATM    8  C17 UNL     1       4.952  17.637 -37.669  1.00  0.00     0.037 C 
HETATM    9  C18 UNL     1       4.723  16.738 -36.506  1.00  0.00     0.011 C 
HETATM   10  C19 UNL     1       3.379  16.986 -35.827  1.00  0.00     0.131 C 
ENDROOT
BRANCH   1  11
HETATM   11  C8  UNL     1       1.848  15.203 -35.122  1.00  0.00     0.217 C 
BRANCH  11  12
HETATM   12  N1  UNL     1       1.188  14.349 -35.965  1.00  0.00    -0.336 N 
HETATM   13  C3  UNL     1       0.546  13.133 -35.407  1.00  0.00     0.157 C 
HETATM   14  C4  UNL     1      -0.780  12.882 -36.012  1.00  0.00     0.033 C 
HETATM   15  C5  UNL     1      -1.395  13.991 -36.803  1.00  0.00     0.004 C 
HETATM   16  C6  UNL     1      -0.453  14.772 -37.652  1.00  0.00     0.020 C 
HETATM   17  C7  UNL     1       1.005  14.436 -37.368  1.00  0.00     0.127 C 
BRANCH  13  18
HETATM   18  C2  UNL     1       1.444  11.977 -35.642  1.00  0.00     0.145 C 
HETATM   19  C1  UNL     1       2.889  12.010 -35.291  1.00  0.00     0.093 C 
HETATM   20  O1  UNL     1       0.983  10.966 -36.141  1.00  0.00    -0.296 OA
ENDBRANCH  13  18
ENDBRANCH  11  12
BRANCH  11  21
HETATM   21  O2  UNL     1       1.094  15.625 -34.115  1.00  0.00    -0.332 OA
ATOM     22  H2  UNL     1       0.898  16.553 -34.162  1.00  0.00     0.220 HD
ENDBRANCH  11  21
ENDBRANCH   1  11
BRANCH   6  23
HETATM   23  C13 UNL     1       8.426  18.682 -36.929  1.00  0.00     0.215 C 
HETATM   24  C14 UNL     1       8.086  19.862 -37.800  1.00  0.00     0.042 C 
HETATM   25  C15 UNL     1       8.505  19.076 -35.467  1.00  0.00     0.042 C 
ENDBRANCH   6  23
TORSDOF 5
ENDMDL
MODEL 2
REMARK VINA RESULT: -8.252854540      3.567      4.730
REMARK  5 active torsions:
REMARK  status: ('A' for Active; 'I' for Inactive)
REMARK    1  A    between atoms: C2_2  and  C3_4 
REMARK    2  A    between atoms: N1_9  and  C8_10 
REMARK    3  A    between atoms: C8_10  and  O2_11 
REMARK    4  A    between atoms: C8_10  and  N2_13 
REMARK    5  A    between atoms: N3_18  and  C13_19 
ROOT
HETATM    1  N2  UNL     1       3.247  15.170 -34.034  1.00  0.00    -0.347 N 
HETATM    2  C9  UNL     1       1.922  15.592 -33.785  1.00  0.00     0.127 C 
HETATM    3  C10 UNL     1       1.710  16.856 -33.018  1.00  0.00     0.027 C 
HETATM    4  C11 UNL     1       2.943  17.644 -32.678  1.00  0.00     0.021 C 
HETATM    5  C12 UNL     1       2.677  18.636 -31.616  1.00  0.00     0.278 C 
HETATM    6  N3  UNL     1       3.740  18.976 -30.759  1.00  0.00     0.092 N 
HETATM    7  C16 UNL     1       5.047  18.611 -31.164  1.00  0.00     0.273 C 
HETATM    8  C17 UNL     1       5.214  17.228 -31.671  1.00  0.00     0.037 C 
HETATM    9  C18 UNL     1       4.030  16.658 -32.368  1.00  0.00     0.011 C 
HETATM   10  C19 UNL     1       4.375  16.081 -33.738  1.00  0.00     0.131 C 
ENDROOT
BRANCH   1  11
HETATM   11  C8  UNL     1       3.559  13.918 -34.562  1.00  0.00     0.217 C 
BRANCH  11  12
HETATM   12  N1  UNL     1       2.971  13.064 -35.457  1.00  0.00    -0.336 N 
HETATM   13  C3  UNL     1       2.810  11.634 -35.095  1.00  0.00     0.157 C 
HETATM   14  C4  UNL     1       1.494  11.104 -35.514  1.00  0.00     0.033 C 
HETATM   15  C5  UNL     1       0.451  12.095 -35.916  1.00  0.00     0.004 C 
HETATM   16  C6  UNL     1       0.943  13.258 -36.708  1.00  0.00     0.020 C 
HETATM   17  C7  UNL     1       2.463  13.332 -36.753  1.00  0.00     0.127 C 
BRANCH  13  18
HETATM   18  C2  UNL     1       3.902  10.861 -35.734  1.00  0.00     0.145 C 
HETATM   19  C1  UNL     1       3.712  10.129 -37.015  1.00  0.00     0.093 C 
HETATM   20  O1  UNL     1       4.991  10.823 -35.190  1.00  0.00    -0.296 OA
ENDBRANCH  13  18
ENDBRANCH  11  12
BRANCH  11  21
HETATM   21  O2  UNL     1       4.698  13.450 -34.069  1.00  0.00    -0.332 OA
ATOM     22  H2  UNL     1       4.616  13.138 -33.176  1.00  0.00     0.220 HD
ENDBRANCH  11  21
ENDBRANCH   1  11
BRANCH   6  23
HETATM   23  C13 UNL     1       3.743  20.430 -30.538  1.00  0.00     0.215 C 
HETATM   24  C14 UNL     1       2.813  20.725 -29.390  1.00  0.00     0.042 C 
HETATM   25  C15 UNL     1       5.169  20.826 -30.211  1.00  0.00     0.042 C 
ENDBRANCH   6  23
TORSDOF 5
ENDMDL
MODEL 3
REMARK VINA RESULT: -8.195716214      2.528      7.365
REMARK  5 active torsions:
REMARK  status: ('A' for Active; 'I' for Inactive)
REMARK    1  A    between atoms: C2_2  and  C3_4 
REMARK    2  A    between atoms: N1_9  and  C8_10 
REMARK    3  A    between atoms: C8_10  and  O2_11 
REMARK    4  A    between atoms: C8_10  and  N2_13 
REMARK    5  A    between atoms: N3_18  and  C13_19 
ROOT
HETATM    1  N2  UNL     1       4.757  17.028 -34.670  1.00  0.00    -0.347 N 
HETATM    2  C9  UNL     1       3.864  17.340 -33.621  1.00  0.00     0.127 C 
HETATM    3  C10 UNL     1       2.607  16.542 -33.497  1.00  0.00     0.027 C 
HETATM    4  C11 UNL     1       2.458  15.382 -34.439  1.00  0.00     0.021 C 
HETATM    5  C12 UNL     1       1.058  14.913 -34.505  1.00  0.00     0.278 C 
HETATM    6  N3  UNL     1       0.618  14.337 -35.710  1.00  0.00     0.092 N 
HETATM    7  C16 UNL     1       1.608  13.947 -36.646  1.00  0.00     0.273 C 
HETATM    8  C17 UNL     1       2.687  14.929 -36.906  1.00  0.00     0.037 C 
HETATM    9  C18 UNL     1       3.051  15.796 -35.753  1.00  0.00     0.011 C 
HETATM   10  C19 UNL     1       4.550  15.800 -35.470  1.00  0.00     0.131 C 
ENDROOT
BRANCH   1  11
HETATM   11  C8  UNL     1       5.852  17.826 -34.998  1.00  0.00     0.217 C 
BRANCH  11  12
HETATM   12  N1  UNL     1       6.438  18.244 -36.162  1.00  0.00    -0.336 N 
HETATM   13  C3  UNL     1       5.696  19.168 -37.055  1.00  0.00     0.157 C 
HETATM   14  C4  UNL     1       6.572  20.224 -37.609  1.00  0.00     0.033 C 
HETATM   15  C5  UNL     1       7.915  20.403 -36.977  1.00  0.00     0.004 C 
HETATM   16  C6  UNL     1       8.612  19.145 -36.587  1.00  0.00     0.020 C 
HETATM   17  C7  UNL     1       7.712  17.921 -36.693  1.00  0.00     0.127 C 
BRANCH  13  18
HETATM   18  C2  UNL     1       5.090  18.376 -38.153  1.00  0.00     0.145 C 
HETATM   19  C1  UNL     1       5.482  16.967 -38.425  1.00  0.00     0.093 C 
HETATM   20  O1  UNL     1       4.243  18.898 -38.856  1.00  0.00    -0.296 OA
ENDBRANCH  13  18
ENDBRANCH  11  12
BRANCH  11  21
HETATM   21  O2  UNL     1       6.467  18.282 -33.914  1.00  0.00    -0.332 OA
ATOM     22  H2  UNL     1       7.409  18.171 -33.947  1.00  0.00     0.220 HD
ENDBRANCH  11  21
ENDBRANCH   1  11
BRANCH   6  23
HETATM   23  C13 UNL     1      -0.195  13.147 -35.415  1.00  0.00     0.215 C 
HETATM   24  C14 UNL     1      -1.382  13.158 -36.342  1.00  0.00     0.042 C 
HETATM   25  C15 UNL     1       0.686  11.937 -35.658  1.00  0.00     0.042 C 
ENDBRANCH   6  23
TORSDOF 5
ENDMDL
MODEL 4
REMARK VINA RESULT: -8.179424295      2.493      7.674
REMARK  5 active torsions:
REMARK  status: ('A' for Active; 'I' for Inactive)
REMARK    1  A    between atoms: C2_2  and  C3_4 
REMARK    2  A    between atoms: N1_9  and  C8_10 
REMARK    3  A    between atoms: C8_10  and  O2_11 
REMARK    4  A    between atoms: C8_10  and  N2_13 
REMARK    5  A    between atoms: N3_18  and  C13_19 
ROOT
HETATM    1  N2  UNL     1       4.260  17.088 -36.431  1.00  0.00    -0.347 N 
HETATM    2  C9  UNL     1       3.944  17.173 -35.058  1.00  0.00     0.127 C 
HETATM    3  C10 UNL     1       2.876  16.279 -34.516  1.00  0.00     0.027 C 
HETATM    4  C11 UNL     1       2.308  15.267 -35.470  1.00  0.00     0.021 C 
HETATM    5  C12 UNL     1       1.029  14.715 -34.977  1.00  0.00     0.278 C 
HETATM    6  N3  UNL     1       0.085  14.299 -35.933  1.00  0.00     0.092 N 
HETATM    7  C16 UNL     1       0.538  14.127 -37.264  1.00  0.00     0.273 C 
HETATM    8  C17 UNL     1       1.387  15.211 -37.813  1.00  0.00     0.037 C 
HETATM    9  C18 UNL     1       2.241  15.916 -36.820  1.00  0.00     0.011 C 
HETATM   10  C19 UNL     1       3.704  15.984 -37.245  1.00  0.00     0.131 C 
ENDROOT
BRANCH   1  11
HETATM   11  C8  UNL     1       5.091  18.002 -37.078  1.00  0.00     0.217 C 
BRANCH  11  12
HETATM   12  N1  UNL     1       6.191  18.737 -36.725  1.00  0.00    -0.336 N 
HETATM   13  C3  UNL     1       7.463  18.035 -36.420  1.00  0.00     0.157 C 
HETATM   14  C4  UNL     1       8.632  18.737 -36.993  1.00  0.00     0.033 C 
HETATM   15  C5  UNL     1       8.364  19.798 -38.011  1.00  0.00     0.004 C 
HETATM   16  C6  UNL     1       7.181  20.662 -37.741  1.00  0.00     0.020 C 
HETATM   17  C7  UNL     1       6.328  20.141 -36.592  1.00  0.00     0.127 C 
BRANCH  13  18
HETATM   18  C2  UNL     1       7.599  17.928 -34.948  1.00  0.00     0.145 C 
HETATM   19  C1  UNL     1       7.394  16.646 -34.222  1.00  0.00     0.093 C 
HETATM   20  O1  UNL     1       7.889  18.925 -34.310  1.00  0.00    -0.296 OA
ENDBRANCH  13  18
ENDBRANCH  11  12
BRANCH  11  21
HETATM   21  O2  UNL     1       4.714  18.202 -38.334  1.00  0.00    -0.332 OA
ATOM     22  H2  UNL     1       3.783  18.070 -38.468  1.00  0.00     0.220 HD
ENDBRANCH  11  21
ENDBRANCH   1  11
BRANCH   6  23
HETATM   23  C13 UNL     1      -0.511  13.024 -35.507  1.00  0.00     0.215 C 
HETATM   24  C14 UNL     1      -1.722  12.771 -36.367  1.00  0.00     0.042 C 
HETATM   25  C15 UNL     1       0.543  11.953 -35.706  1.00  0.00     0.042 C 
ENDBRANCH   6  23
TORSDOF 5
ENDMDL
MODEL 5
REMARK VINA RESULT: -8.013046770      3.339      7.300
REMARK  5 active torsions:
REMARK  status: ('A' for Active; 'I' for Inactive)
REMARK    1  A    between atoms: C2_2  and  C3_4 
REMARK    2  A    between atoms: N1_9  and  C8_10 
REMARK    3  A    between atoms: C8_10  and  O2_11 
REMARK    4  A    between atoms: C8_10  and  N2_13 
REMARK    5  A    between atoms: N3_18  and  C13_19 
ROOT
HETATM    1  N2  UNL     1       2.624  15.876 -34.577  1.00  0.00    -0.347 N 
HETATM    2  C9  UNL     1       1.761  15.703 -35.682  1.00  0.00     0.127 C 
HETATM    3  C10 UNL     1       1.595  14.329 -36.246  1.00  0.00     0.027 C 
HETATM    4  C11 UNL     1       2.278  13.216 -35.502  1.00  0.00     0.021 C 
HETATM    5  C12 UNL     1       2.381  11.996 -36.328  1.00  0.00     0.278 C 
HETATM    6  N3  UNL     1       3.473  11.141 -36.097  1.00  0.00     0.092 N 
HETATM    7  C16 UNL     1       4.201  11.324 -34.895  1.00  0.00     0.273 C 
HETATM    8  C17 UNL     1       4.555  12.721 -34.549  1.00  0.00     0.037 C 
HETATM    9  C18 UNL     1       3.584  13.754 -34.998  1.00  0.00     0.011 C 
HETATM   10  C19 UNL     1       3.160  14.691 -33.871  1.00  0.00     0.131 C 
ENDROOT
BRANCH   1  11
HETATM   11  C8  UNL     1       3.003  17.130 -34.100  1.00  0.00     0.217 C 
BRANCH  11  12
HETATM   12  N1  UNL     1       3.920  17.590 -33.192  1.00  0.00    -0.336 N 
HETATM   13  C3  UNL     1       3.496  17.817 -31.788  1.00  0.00     0.157 C 
HETATM   14  C4  UNL     1       4.517  17.356 -30.822  1.00  0.00     0.033 C 
HETATM   15  C5  UNL     1       5.611  16.482 -31.344  1.00  0.00     0.004 C 
HETATM   16  C6  UNL     1       6.137  16.848 -32.690  1.00  0.00     0.020 C 
HETATM   17  C7  UNL     1       5.288  17.908 -33.379  1.00  0.00     0.127 C 
BRANCH  13  18
HETATM   18  C2  UNL     1       3.233  19.264 -31.605  1.00  0.00     0.145 C 
HETATM   19  C1  UNL     1       4.008  20.097 -30.646  1.00  0.00     0.093 C 
HETATM   20  O1  UNL     1       2.351  19.789 -32.261  1.00  0.00    -0.296 OA
ENDBRANCH  13  18
ENDBRANCH  11  12
BRANCH  11  21
HETATM   21  O2  UNL     1       2.300  18.102 -34.666  1.00  0.00    -0.332 OA
ATOM     22  H2  UNL     1       1.420  18.176 -34.317  1.00  0.00     0.220 HD
ENDBRANCH  11  21
ENDBRANCH   1  11
BRANCH   6  23
HETATM   23  C13 UNL     1       3.014   9.744 -36.119  1.00  0.00     0.215 C 
HETATM   24  C14 UNL     1       1.561   9.742 -36.516  1.00  0.00     0.042 C 
HETATM   25  C15 UNL     1       3.867   9.012 -37.137  1.00  0.00     0.042 C 
ENDBRANCH   6  23
TORSDOF 5
ENDMDL
