MODEL 1
REMARK VINA RESULT: -8.725084883      0.000      0.000
REMARK  2 active torsions:
REMARK  status: ('A' for Active; 'I' for Inactive)
REMARK    1  A    between atoms: C2_2  and  C3_4 
REMARK       I    between atoms: N2_7  and  C4_8 
REMARK       I    between atoms: N3_14  and  C9_15 
REMARK    2  A    between atoms: C9_15  and  C10_17 
ROOT
HETATM    1  C3  UNL     1       1.514  12.845 -35.528  1.00  0.00     0.073 C 
HETATM    2  N1  UNL     1       2.604  12.184 -35.599  1.00  0.00    -0.296 N 
ATOM      3  H1  UNL     1       2.693  11.264 -36.029  1.00  0.00     0.187 HD
HETATM    4  N2  UNL     1       3.676  12.900 -35.001  1.00  0.00    -0.251 N 
HETATM    5  C4  UNL     1       4.804  12.259 -34.448  1.00  0.00     0.235 C 
HETATM    6  C5  UNL     1       4.962  10.773 -34.437  1.00  0.00     0.119 C 
HETATM    7  O2  UNL     1       5.730  12.912 -33.936  1.00  0.00    -0.272 OA
HETATM    8  C6  UNL     1       3.278  14.275 -35.140  1.00  0.00     0.065 C 
HETATM    9  C7  UNL     1       3.320  14.702 -36.606  1.00  0.00     0.053 C 
HETATM   10  C8  UNL     1       3.208  16.192 -36.644  1.00  0.00     0.128 C 
HETATM   11  N3  UNL     1       4.447  16.760 -36.126  1.00  0.00    -0.352 N 
HETATM   12  C9  UNL     1       5.019  17.904 -36.730  1.00  0.00     0.224 C 
HETATM   13  O3  UNL     1       4.429  18.424 -37.732  1.00  0.00    -0.273 OA
HETATM   14  C16 UNL     1       5.015  16.077 -34.983  1.00  0.00     0.128 C 
HETATM   15  C17 UNL     1       3.933  15.262 -34.260  1.00  0.00     0.053 C 
HETATM   16  C18 UNL     1       1.780  14.124 -34.828  1.00  0.00     0.095 C 
ENDROOT
BRANCH   1  17
HETATM   17  C2  UNL     1       0.241  12.363 -36.059  1.00  0.00     0.169 C 
HETATM   18  C1  UNL     1      -0.933  13.252 -36.012  1.00  0.00     0.098 C 
HETATM   19  O1  UNL     1       0.133  11.223 -36.548  1.00  0.00    -0.292 OA
ENDBRANCH   1  17
BRANCH  12  20
HETATM   20  C10 UNL     1       6.263  18.531 -36.266  1.00  0.00     0.078 C 
HETATM   21  C11 UNL     1       7.433  17.843 -36.888  1.00  0.00     0.014 C 
HETATM   22  C12 UNL     1       8.570  18.747 -37.220  1.00  0.00     0.001 C 
HETATM   23  C13 UNL     1       8.227  19.972 -37.992  1.00  0.00     0.000 C 
HETATM   24  C14 UNL     1       6.720  20.115 -38.038  1.00  0.00     0.001 C 
HETATM   25  C15 UNL     1       6.260  20.031 -36.577  1.00  0.00     0.014 C 
ENDBRANCH  12  20
TORSDOF 2
ENDMDL
MODEL 2
REMARK VINA RESULT: -8.589958694      2.563      7.370
REMARK  2 active torsions:
REMARK  status: ('A' for Active; 'I' for Inactive)
REMARK    1  A    between atoms: C2_2  and  C3_4 
REMARK       I    between atoms: N2_7  and  C4_8 
REMARK       I    between atoms: N3_14  and  C9_15 
REMARK    2  A    between atoms: C9_15  and  C10_17 
ROOT
HETATM    1  C3  UNL     1       6.735  17.638 -34.813  1.00  0.00     0.073 C 
HETATM    2  N1  UNL     1       6.111  18.254 -33.884  1.00  0.00    -0.296 N 
ATOM      3  H1  UNL     1       6.309  19.210 -33.592  1.00  0.00     0.187 HD
HETATM    4  N2  UNL     1       5.103  17.430 -33.312  1.00  0.00    -0.251 N 
HETATM    5  C4  UNL     1       4.649  17.592 -31.987  1.00  0.00     0.235 C 
HETATM    6  C5  UNL     1       5.195  18.639 -31.071  1.00  0.00     0.119 C 
HETATM    7  O2  UNL     1       3.761  16.861 -31.515  1.00  0.00    -0.272 OA
HETATM    8  C6  UNL     1       4.762  16.530 -34.380  1.00  0.00     0.065 C 
HETATM    9  C7  UNL     1       4.039  17.274 -35.502  1.00  0.00     0.053 C 
HETATM   10  C8  UNL     1       3.444  16.248 -36.412  1.00  0.00     0.128 C 
HETATM   11  N3  UNL     1       2.339  15.601 -35.715  1.00  0.00    -0.352 N 
HETATM   12  C9  UNL     1       1.145  15.283 -36.404  1.00  0.00     0.224 C 
HETATM   13  O3  UNL     1       1.058  15.573 -37.640  1.00  0.00    -0.273 OA
HETATM   14  C16 UNL     1       2.566  15.322 -34.312  1.00  0.00     0.128 C 
HETATM   15  C17 UNL     1       4.071  15.277 -34.016  1.00  0.00     0.053 C 
HETATM   16  C18 UNL     1       6.172  16.273 -34.937  1.00  0.00     0.095 C 
ENDROOT
BRANCH   1  17
HETATM   17  C2  UNL     1       7.825  18.232 -35.584  1.00  0.00     0.169 C 
HETATM   18  C1  UNL     1       7.748  18.213 -37.055  1.00  0.00     0.098 C 
HETATM   19  O1  UNL     1       8.808  18.750 -35.023  1.00  0.00    -0.292 OA
ENDBRANCH   1  17
BRANCH  12  20
HETATM   20  C10 UNL     1      -0.008  14.632 -35.770  1.00  0.00     0.078 C 
HETATM   21  C11 UNL     1      -1.115  14.496 -36.763  1.00  0.00     0.014 C 
HETATM   22  C12 UNL     1      -1.916  13.248 -36.621  1.00  0.00     0.001 C 
HETATM   23  C13 UNL     1      -1.142  11.980 -36.540  1.00  0.00     0.000 C 
HETATM   24  C14 UNL     1       0.326  12.312 -36.375  1.00  0.00     0.001 C 
HETATM   25  C15 UNL     1       0.393  13.275 -35.182  1.00  0.00     0.014 C 
ENDBRANCH  12  20
TORSDOF 2
ENDMDL
MODEL 3
REMARK VINA RESULT: -8.554881005      1.742      2.308
REMARK  2 active torsions:
REMARK  status: ('A' for Active; 'I' for Inactive)
REMARK    1  A    between atoms: C2_2  and  C3_4 
REMARK       I    between atoms: N2_7  and  C4_8 
REMARK       I    between atoms: N3_14  and  C9_15 
REMARK    2  A    between atoms: C9_15  and  C10_17 
ROOT
HETATM    1  C3  UNL     1       0.113  13.185 -35.964  1.00  0.00     0.073 C 
HETATM    2  N1  UNL     1       0.870  12.239 -36.368  1.00  0.00    -0.296 N 
ATOM      3  H1  UNL     1       0.593  11.529 -37.045  1.00  0.00     0.187 HD
HETATM    4  N2  UNL     1       2.148  12.307 -35.750  1.00  0.00    -0.251 N 
HETATM    5  C4  UNL     1       2.963  11.171 -35.560  1.00  0.00     0.235 C 
HETATM    6  C5  UNL     1       2.546   9.801 -35.987  1.00  0.00     0.119 C 
HETATM    7  O2  UNL     1       4.080  11.262 -35.022  1.00  0.00    -0.272 OA
HETATM    8  C6  UNL     1       2.297  13.704 -35.444  1.00  0.00     0.065 C 
HETATM    9  C7  UNL     1       2.461  14.521 -36.724  1.00  0.00     0.053 C 
HETATM   10  C8  UNL     1       2.921  15.888 -36.329  1.00  0.00     0.128 C 
HETATM   11  N3  UNL     1       4.295  15.791 -35.852  1.00  0.00    -0.352 N 
HETATM   12  C9  UNL     1       5.242  16.786 -36.187  1.00  0.00     0.224 C 
HETATM   13  O3  UNL     1       4.869  17.764 -36.912  1.00  0.00    -0.273 OA
HETATM   14  C16 UNL     1       4.590  14.632 -35.035  1.00  0.00     0.128 C 
HETATM   15  C17 UNL     1       3.299  14.071 -34.424  1.00  0.00     0.053 C 
HETATM   16  C18 UNL     1       0.862  14.002 -34.980  1.00  0.00     0.095 C 
ENDROOT
BRANCH   1  17
HETATM   17  C2  UNL     1      -1.260  13.374 -36.425  1.00  0.00     0.169 C 
HETATM   18  C1  UNL     1      -1.617  14.633 -37.102  1.00  0.00     0.098 C 
HETATM   19  O1  UNL     1      -2.126  12.495 -36.259  1.00  0.00    -0.292 OA
ENDBRANCH   1  17
BRANCH  12  20
HETATM   20  C10 UNL     1       6.642  16.756 -35.745  1.00  0.00     0.078 C 
HETATM   21  C11 UNL     1       7.314  18.035 -36.122  1.00  0.00     0.014 C 
HETATM   22  C12 UNL     1       8.316  18.517 -35.130  1.00  0.00     0.001 C 
HETATM   23  C13 UNL     1       7.858  18.578 -33.715  1.00  0.00     0.000 C 
HETATM   24  C14 UNL     1       6.518  17.881 -33.605  1.00  0.00     0.001 C 
HETATM   25  C15 UNL     1       6.726  16.498 -34.237  1.00  0.00     0.014 C 
ENDBRANCH  12  20
TORSDOF 2
ENDMDL
MODEL 4
REMARK VINA RESULT: -8.408636937      2.297      7.322
REMARK  2 active torsions:
REMARK  status: ('A' for Active; 'I' for Inactive)
REMARK    1  A    between atoms: C2_2  and  C3_4 
REMARK       I    between atoms: N2_7  and  C4_8 
REMARK       I    between atoms: N3_14  and  C9_15 
REMARK    2  A    between atoms: C9_15  and  C10_17 
ROOT
HETATM    1  C3  UNL     1       7.399  18.239 -36.192  1.00  0.00     0.073 C 
HETATM    2  N1  UNL     1       7.100  18.615 -35.009  1.00  0.00    -0.296 N 
ATOM      3  H1  UNL     1       7.325  19.531 -34.621  1.00  0.00     0.187 HD
HETATM    4  N2  UNL     1       6.411  17.591 -34.305  1.00  0.00    -0.251 N 
HETATM    5  C4  UNL     1       6.439  17.483 -32.899  1.00  0.00     0.235 C 
HETATM    6  C5  UNL     1       7.202  18.432 -32.033  1.00  0.00     0.119 C 
HETATM    7  O2  UNL     1       5.821  16.579 -32.309  1.00  0.00    -0.272 OA
HETATM    8  C6  UNL     1       5.778  16.835 -35.351  1.00  0.00     0.065 C 
HETATM    9  C7  UNL     1       4.662  17.649 -36.004  1.00  0.00     0.053 C 
HETATM   10  C8  UNL     1       3.854  16.713 -36.844  1.00  0.00     0.128 C 
HETATM   11  N3  UNL     1       3.107  15.829 -35.959  1.00  0.00    -0.352 N 
HETATM   12  C9  UNL     1       1.771  15.475 -36.259  1.00  0.00     0.224 C 
HETATM   13  O3  UNL     1       1.239  15.944 -37.317  1.00  0.00    -0.273 OA
HETATM   14  C16 UNL     1       3.826  15.363 -34.791  1.00  0.00     0.128 C 
HETATM   15  C17 UNL     1       5.340  15.463 -35.026  1.00  0.00     0.053 C 
HETATM   16  C18 UNL     1       6.918  16.850 -36.382  1.00  0.00     0.095 C 
ENDROOT
BRANCH   1  17
HETATM   17  C2  UNL     1       8.110  19.080 -37.152  1.00  0.00     0.169 C 
HETATM   18  C1  UNL     1       7.555  20.404 -37.486  1.00  0.00     0.098 C 
HETATM   19  O1  UNL     1       9.169  18.702 -37.685  1.00  0.00    -0.292 OA
ENDBRANCH   1  17
BRANCH  12  20
HETATM   20  C10 UNL     1       0.956  14.591 -35.416  1.00  0.00     0.078 C 
HETATM   21  C11 UNL     1      -0.375  14.374 -36.057  1.00  0.00     0.014 C 
HETATM   22  C12 UNL     1      -0.933  13.006 -35.864  1.00  0.00     0.001 C 
HETATM   23  C13 UNL     1      -0.020  11.876 -36.186  1.00  0.00     0.000 C 
HETATM   24  C14 UNL     1       1.374  12.422 -36.406  1.00  0.00     0.001 C 
HETATM   25  C15 UNL     1       1.682  13.266 -35.163  1.00  0.00     0.014 C 
ENDBRANCH  12  20
TORSDOF 2
ENDMDL
MODEL 5
REMARK VINA RESULT: -8.050773097      2.513      8.031
REMARK  2 active torsions:
REMARK  status: ('A' for Active; 'I' for Inactive)
REMARK    1  A    between atoms: C2_2  and  C3_4 
REMARK       I    between atoms: N2_7  and  C4_8 
REMARK       I    between atoms: N3_14  and  C9_15 
REMARK    2  A    between atoms: C9_15  and  C10_17 
ROOT
HETATM    1  C3  UNL     1       6.718  19.373 -36.796  1.00  0.00     0.073 C 
HETATM    2  N1  UNL     1       5.777  20.194 -37.059  1.00  0.00    -0.296 N 
ATOM      3  H1  UNL     1       5.845  20.951 -37.739  1.00  0.00     0.187 HD
HETATM    4  N2  UNL     1       4.622  19.915 -36.279  1.00  0.00    -0.251 N 
HETATM    5  C4  UNL     1       3.676  20.903 -35.939  1.00  0.00     0.235 C 
HETATM    6  C5  UNL     1       3.812  22.330 -36.363  1.00  0.00     0.119 C 
HETATM    7  O2  UNL     1       2.670  20.628 -35.260  1.00  0.00    -0.272 OA
HETATM    8  C6  UNL     1       4.734  18.506 -36.009  1.00  0.00     0.065 C 
HETATM    9  C7  UNL     1       4.523  17.695 -37.287  1.00  0.00     0.053 C 
HETATM   10  C8  UNL     1       4.339  16.267 -36.888  1.00  0.00     0.128 C 
HETATM   11  N3  UNL     1       3.046  16.136 -36.228  1.00  0.00    -0.352 N 
HETATM   12  C9  UNL     1       2.226  15.010 -36.473  1.00  0.00     0.224 C 
HETATM   13  O3  UNL     1       2.643  14.116 -37.278  1.00  0.00    -0.273 OA
HETATM   14  C16 UNL     1       2.690  17.220 -35.335  1.00  0.00     0.128 C 
HETATM   15  C17 UNL     1       3.950  17.968 -34.880  1.00  0.00     0.053 C 
HETATM   16  C18 UNL     1       6.248  18.431 -35.753  1.00  0.00     0.095 C 
ENDROOT
BRANCH   1  17
HETATM   17  C2  UNL     1       8.028  19.412 -37.443  1.00  0.00     0.169 C 
HETATM   18  C1  UNL     1       8.552  20.708 -37.912  1.00  0.00     0.098 C 
HETATM   19  O1  UNL     1       8.704  18.379 -37.602  1.00  0.00    -0.292 OA
ENDBRANCH   1  17
BRANCH  12  20
HETATM   20  C10 UNL     1       0.913  14.810 -35.847  1.00  0.00     0.078 C 
HETATM   21  C11 UNL     1      -0.147  14.803 -36.898  1.00  0.00     0.014 C 
HETATM   22  C12 UNL     1      -1.268  13.858 -36.633  1.00  0.00     0.001 C 
HETATM   23  C13 UNL     1      -0.879  12.463 -36.290  1.00  0.00     0.000 C 
HETATM   24  C14 UNL     1       0.615  12.416 -36.053  1.00  0.00     0.001 C 
HETATM   25  C15 UNL     1       0.899  13.518 -35.023  1.00  0.00     0.014 C 
ENDBRANCH  12  20
TORSDOF 2
ENDMDL
