MODEL 1
REMARK VINA RESULT: -8.411605065      0.000      0.000
REMARK  2 active torsions:
REMARK  status: ('A' for Active; 'I' for Inactive)
REMARK    1  A    between atoms: C1_2  and  C2_3 
REMARK       I    between atoms: C1_2  and  N2_9 
REMARK       I    between atoms: N3_17  and  C12_18 
REMARK    2  A    between atoms: C12_18  and  C13_20 
ROOT
HETATM    1  O1  UNL     1       7.037  16.329 -37.190  1.00  0.00    -0.266 OA
HETATM    2  C1  UNL     1       6.548  17.364 -36.674  1.00  0.00     0.271 C 
HETATM    3  N2  UNL     1       5.310  17.275 -35.983  1.00  0.00    -0.340 N 
HETATM    4  C5  UNL     1       4.632  18.383 -35.341  1.00  0.00     0.129 C 
HETATM    5  C6  UNL     1       3.312  17.790 -34.824  1.00  0.00     0.047 C 
HETATM    6  C7  UNL     1       3.134  16.630 -35.734  1.00  0.00     0.111 C 
HETATM    7  C8  UNL     1       4.522  16.061 -35.806  1.00  0.00     0.110 C 
HETATM    8  C9  UNL     1       4.957  15.228 -34.676  1.00  0.00     0.029 C 
HETATM    9  C10 UNL     1       3.929  14.525 -33.881  1.00  0.00     0.022 C 
HETATM   10  C11 UNL     1       2.533  15.058 -33.989  1.00  0.00     0.126 C 
HETATM   11  N3  UNL     1       2.240  15.604 -35.297  1.00  0.00    -0.345 N 
HETATM   12  C12 UNL     1       1.172  15.210 -36.125  1.00  0.00     0.224 C 
HETATM   13  O2  UNL     1       1.044  15.819 -37.242  1.00  0.00    -0.273 OA
ENDROOT
BRANCH   2  14
HETATM   14  C2  UNL     1       7.291  18.642 -36.812  1.00  0.00     0.107 A 
HETATM   15  C3  UNL     1       8.252  19.034 -35.915  1.00  0.00     0.086 A 
HETATM   16  S1  UNL     1       8.744  20.534 -36.562  1.00  0.00    -0.094 SA
HETATM   17  C4  UNL     1       7.715  20.581 -37.920  1.00  0.00     0.138 A 
HETATM   18  N1  UNL     1       7.049  19.449 -37.811  1.00  0.00    -0.355 N 
ATOM     19  H1  UNL     1       6.344  19.202 -38.506  1.00  0.00     0.166 HD
ENDBRANCH   2  14
BRANCH  12  20
HETATM   20  C13 UNL     1       0.184  14.162 -35.831  1.00  0.00     0.078 C 
HETATM   21  C14 UNL     1       0.611  12.772 -36.156  1.00  0.00     0.014 C 
HETATM   22  C15 UNL     1      -0.731  12.041 -36.295  1.00  0.00     0.001 C 
HETATM   23  C16 UNL     1      -1.774  13.082 -36.534  1.00  0.00     0.001 C 
HETATM   24  C17 UNL     1      -1.017  14.354 -36.730  1.00  0.00     0.014 C 
ENDBRANCH  12  20
TORSDOF 2
ENDMDL
MODEL 2
REMARK VINA RESULT: -7.678277386      3.726      5.232
REMARK  2 active torsions:
REMARK  status: ('A' for Active; 'I' for Inactive)
REMARK    1  A    between atoms: C1_2  and  C2_3 
REMARK       I    between atoms: C1_2  and  N2_9 
REMARK       I    between atoms: N3_17  and  C12_18 
REMARK    2  A    between atoms: C12_18  and  C13_20 
ROOT
HETATM    1  O1  UNL     1       1.274  16.731 -31.681  1.00  0.00    -0.266 OA
HETATM    2  C1  UNL     1       2.283  17.228 -32.240  1.00  0.00     0.271 C 
HETATM    3  N2  UNL     1       2.783  16.627 -33.426  1.00  0.00    -0.340 N 
HETATM    4  C5  UNL     1       3.934  17.092 -34.174  1.00  0.00     0.129 C 
HETATM    5  C6  UNL     1       4.112  16.064 -35.302  1.00  0.00     0.047 C 
HETATM    6  C7  UNL     1       3.456  14.867 -34.716  1.00  0.00     0.111 C 
HETATM    7  C8  UNL     1       2.226  15.451 -34.083  1.00  0.00     0.110 C 
HETATM    8  C9  UNL     1       1.097  15.748 -34.977  1.00  0.00     0.029 C 
HETATM    9  C10 UNL     1       0.967  14.975 -36.230  1.00  0.00     0.022 C 
HETATM   10  C11 UNL     1       2.208  14.286 -36.711  1.00  0.00     0.126 C 
HETATM   11  N3  UNL     1       3.060  13.842 -35.629  1.00  0.00    -0.345 N 
HETATM   12  C12 UNL     1       3.508  12.521 -35.433  1.00  0.00     0.224 C 
HETATM   13  O2  UNL     1       4.280  12.309 -34.436  1.00  0.00    -0.273 OA
ENDROOT
BRANCH   2  14
HETATM   14  C2  UNL     1       2.910  18.427 -31.631  1.00  0.00     0.107 A 
HETATM   15  C3  UNL     1       2.366  19.681 -31.747  1.00  0.00     0.086 A 
HETATM   16  S1  UNL     1       3.483  20.631 -30.876  1.00  0.00    -0.094 SA
HETATM   17  C4  UNL     1       4.568  19.398 -30.416  1.00  0.00     0.138 A 
HETATM   18  N1  UNL     1       4.022  18.325 -30.951  1.00  0.00    -0.355 N 
ATOM     19  H1  UNL     1       4.466  17.414 -30.834  1.00  0.00     0.166 HD
ENDBRANCH   2  14
BRANCH  12  20
HETATM   20  C13 UNL     1       3.174  11.357 -36.266  1.00  0.00     0.078 C 
HETATM   21  C14 UNL     1       1.832  10.759 -36.020  1.00  0.00     0.014 C 
HETATM   22  C15 UNL     1       2.005   9.332 -36.557  1.00  0.00     0.001 C 
HETATM   23  C16 UNL     1       3.471   9.056 -36.601  1.00  0.00     0.001 C 
HETATM   24  C17 UNL     1       4.108  10.220 -35.915  1.00  0.00     0.014 C 
ENDBRANCH  12  20
TORSDOF 2
ENDMDL
MODEL 3
REMARK VINA RESULT: -7.471983063      4.342      7.283
REMARK  2 active torsions:
REMARK  status: ('A' for Active; 'I' for Inactive)
REMARK    1  A    between atoms: C1_2  and  C2_3 
REMARK       I    between atoms: C1_2  and  N2_9 
REMARK       I    between atoms: N3_17  and  C12_18 
REMARK    2  A    between atoms: C12_18  and  C13_20 
ROOT
HETATM    1  O1  UNL     1       5.012  12.119 -34.153  1.00  0.00    -0.266 OA
HETATM    2  C1  UNL     1       4.024  12.438 -34.860  1.00  0.00     0.271 C 
HETATM    3  N2  UNL     1       3.626  13.800 -34.918  1.00  0.00    -0.340 N 
HETATM    4  C5  UNL     1       2.510  14.310 -35.689  1.00  0.00     0.129 C 
HETATM    5  C6  UNL     1       2.445  15.807 -35.347  1.00  0.00     0.047 C 
HETATM    6  C7  UNL     1       3.106  15.833 -34.017  1.00  0.00     0.111 C 
HETATM    7  C8  UNL     1       4.269  14.904 -34.217  1.00  0.00     0.110 C 
HETATM    8  C9  UNL     1       5.442  15.450 -34.915  1.00  0.00     0.029 C 
HETATM    9  C10 UNL     1       5.683  16.907 -34.856  1.00  0.00     0.022 C 
HETATM   10  C11 UNL     1       4.504  17.756 -34.491  1.00  0.00     0.126 C 
HETATM   11  N3  UNL     1       3.600  17.098 -33.572  1.00  0.00    -0.345 N 
HETATM   12  C12 UNL     1       3.190  17.608 -32.325  1.00  0.00     0.224 C 
HETATM   13  O2  UNL     1       2.363  16.904 -31.650  1.00  0.00    -0.273 OA
ENDROOT
BRANCH   2  14
HETATM   14  C2  UNL     1       3.313  11.369 -35.606  1.00  0.00     0.107 A 
HETATM   15  C3  UNL     1       1.994  11.067 -35.378  1.00  0.00     0.086 A 
HETATM   16  S1  UNL     1       1.728   9.800 -36.489  1.00  0.00    -0.094 SA
HETATM   17  C4  UNL     1       3.287   9.725 -37.174  1.00  0.00     0.138 A 
HETATM   18  N1  UNL     1       3.932  10.671 -36.520  1.00  0.00    -0.355 N 
ATOM     19  H1  UNL     1       4.912  10.858 -36.728  1.00  0.00     0.166 HD
ENDBRANCH   2  14
BRANCH  12  20
HETATM   20  C13 UNL     1       3.622  18.875 -31.720  1.00  0.00     0.078 C 
HETATM   21  C14 UNL     1       4.471  18.746 -30.502  1.00  0.00     0.014 C 
HETATM   22  C15 UNL     1       4.271  20.104 -29.817  1.00  0.00     0.001 C 
HETATM   23  C16 UNL     1       3.015  20.692 -30.368  1.00  0.00     0.001 C 
HETATM   24  C17 UNL     1       2.407  19.607 -31.194  1.00  0.00     0.014 C 
ENDBRANCH  12  20
TORSDOF 2
ENDMDL
MODEL 4
REMARK VINA RESULT: -7.387275844      3.125      7.766
REMARK  2 active torsions:
REMARK  status: ('A' for Active; 'I' for Inactive)
REMARK    1  A    between atoms: C1_2  and  C2_3 
REMARK       I    between atoms: C1_2  and  N2_9 
REMARK       I    between atoms: N3_17  and  C12_18 
REMARK    2  A    between atoms: C12_18  and  C13_20 
ROOT
HETATM    1  O1  UNL     1       1.307  15.692 -33.914  1.00  0.00    -0.266 OA
HETATM    2  C1  UNL     1       1.356  15.293 -35.104  1.00  0.00     0.271 C 
HETATM    3  N2  UNL     1       2.515  15.567 -35.879  1.00  0.00    -0.340 N 
HETATM    4  C5  UNL     1       2.708  15.168 -37.259  1.00  0.00     0.129 C 
HETATM    5  C6  UNL     1       4.062  15.775 -37.658  1.00  0.00     0.047 C 
HETATM    6  C7  UNL     1       4.172  16.906 -36.701  1.00  0.00     0.111 C 
HETATM    7  C8  UNL     1       3.694  16.289 -35.418  1.00  0.00     0.110 C 
HETATM    8  C9  UNL     1       4.656  15.453 -34.684  1.00  0.00     0.029 C 
HETATM    9  C10 UNL     1       6.099  15.712 -34.868  1.00  0.00     0.022 C 
HETATM   10  C11 UNL     1       6.480  16.476 -36.099  1.00  0.00     0.126 C 
HETATM   11  N3  UNL     1       5.479  17.444 -36.493  1.00  0.00    -0.345 N 
HETATM   12  C12 UNL     1       5.705  18.821 -36.682  1.00  0.00     0.224 C 
HETATM   13  O2  UNL     1       4.709  19.530 -37.058  1.00  0.00    -0.273 OA
ENDROOT
BRANCH   2  14
HETATM   14  C2  UNL     1       0.192  14.550 -35.649  1.00  0.00     0.107 A 
HETATM   15  C3  UNL     1      -0.068  13.245 -35.317  1.00  0.00     0.086 A 
HETATM   16  S1  UNL     1      -1.483  12.929 -36.215  1.00  0.00    -0.094 SA
HETATM   17  C4  UNL     1      -1.666  14.454 -36.955  1.00  0.00     0.138 A 
HETATM   18  N1  UNL     1      -0.637  15.127 -36.478  1.00  0.00    -0.355 N 
ATOM     19  H1  UNL     1      -0.489  16.097 -36.755  1.00  0.00     0.166 HD
ENDBRANCH   2  14
BRANCH  12  20
HETATM   20  C13 UNL     1       6.979  19.528 -36.489  1.00  0.00     0.078 C 
HETATM   21  C14 UNL     1       7.112  20.818 -37.220  1.00  0.00     0.014 C 
HETATM   22  C15 UNL     1       8.634  20.998 -37.297  1.00  0.00     0.001 C 
HETATM   23  C16 UNL     1       9.244  19.653 -37.080  1.00  0.00     0.001 C 
HETATM   24  C17 UNL     1       8.095  18.698 -37.084  1.00  0.00     0.014 C 
ENDBRANCH  12  20
TORSDOF 2
ENDMDL
MODEL 5
REMARK VINA RESULT: -6.576656838      6.681      8.344
REMARK  2 active torsions:
REMARK  status: ('A' for Active; 'I' for Inactive)
REMARK    1  A    between atoms: C1_2  and  C2_3 
REMARK       I    between atoms: C1_2  and  N2_9 
REMARK       I    between atoms: N3_17  and  C12_18 
REMARK    2  A    between atoms: C12_18  and  C13_20 
ROOT
HETATM    1  O1  UNL     1       0.286  20.048 -31.934  1.00  0.00    -0.266 OA
HETATM    2  C1  UNL     1       1.393  20.218 -32.502  1.00  0.00     0.271 C 
HETATM    3  N2  UNL     1       1.477  21.116 -33.600  1.00  0.00    -0.340 N 
HETATM    4  C5  UNL     1       2.683  21.409 -34.347  1.00  0.00     0.129 C 
HETATM    5  C6  UNL     1       2.231  22.354 -35.471  1.00  0.00     0.047 C 
HETATM    6  C7  UNL     1       0.793  22.003 -35.590  1.00  0.00     0.111 C 
HETATM    7  C8  UNL     1       0.370  21.887 -34.154  1.00  0.00     0.110 C 
HETATM    8  C9  UNL     1       0.101  23.142 -33.437  1.00  0.00     0.029 C 
HETATM    9  C10 UNL     1      -0.315  24.325 -34.219  1.00  0.00     0.022 C 
HETATM   10  C11 UNL     1       0.003  24.293 -35.682  1.00  0.00     0.126 C 
HETATM   11  N3  UNL     1      -0.048  22.959 -36.240  1.00  0.00    -0.345 N 
HETATM   12  C12 UNL     1      -0.834  22.563 -37.339  1.00  0.00     0.224 C 
HETATM   13  O2  UNL     1      -0.737  21.346 -37.718  1.00  0.00    -0.273 OA
ENDROOT
BRANCH   2  14
HETATM   14  C2  UNL     1       2.570  19.468 -31.997  1.00  0.00     0.107 A 
HETATM   15  C3  UNL     1       2.904  18.222 -32.465  1.00  0.00     0.086 A 
HETATM   16  S1  UNL     1       4.299  17.867 -31.552  1.00  0.00    -0.094 SA
HETATM   17  C4  UNL     1       4.383  19.302 -30.636  1.00  0.00     0.138 A 
HETATM   18  N1  UNL     1       3.341  19.980 -31.075  1.00  0.00    -0.355 N 
ATOM     19  H1  UNL     1       3.136  20.904 -30.695  1.00  0.00     0.166 HD
ENDBRANCH   2  14
BRANCH  12  20
HETATM   20  C13 UNL     1      -1.761  23.415 -38.096  1.00  0.00     0.078 C 
HETATM   21  C14 UNL     1      -3.201  23.259 -37.751  1.00  0.00     0.014 C 
HETATM   22  C15 UNL     1      -3.901  23.783 -39.012  1.00  0.00     0.001 C 
HETATM   23  C16 UNL     1      -2.902  23.729 -40.120  1.00  0.00     0.001 C 
HETATM   24  C17 UNL     1      -1.728  23.003 -39.552  1.00  0.00     0.014 C 
ENDBRANCH  12  20
TORSDOF 2
ENDMDL
