MODEL 1
REMARK VINA RESULT: -7.956486205      0.000      0.000
REMARK  9 active torsions:
REMARK  status: ('A' for Active; 'I' for Inactive)
REMARK    1  A    between atoms: C2_2  and  C3_3 
REMARK    2  A    between atoms: C3_3  and  N1_4 
REMARK    3  A    between atoms: C3_3  and  C4_8 
REMARK    4  A    between atoms: C4_8  and  O1_9 
REMARK    5  A    between atoms: C4_8  and  N2_11 
REMARK    6  A    between atoms: N2_11  and  C5_13 
REMARK    7  A    between atoms: C6_16  and  N4_17 
REMARK    8  A    between atoms: C9_26  and  N7_27 
REMARK    9  A    between atoms: N7_27  and  O2_29 
ROOT
HETATM    1  C5  UNL     1      18.072  39.647  36.181  1.00  0.00     0.149 A 
HETATM    2  N3  UNL     1      18.746  40.754  36.510  1.00  0.00    -0.175 N 
ATOM      3  H3  UNL     1      18.446  41.648  36.122  1.00  0.00     0.186 HD
HETATM    4  C6  UNL     1      19.822  40.723  37.350  1.00  0.00     0.679 A 
HETATM    5  N5  UNL     1      20.217  39.546  37.859  1.00  0.00    -0.173 N 
ATOM      6  H5  UNL     1      21.022  39.524  38.485  1.00  0.00     0.186 HD
HETATM    7  C7  UNL     1      19.588  38.397  37.572  1.00  0.00     0.173 A 
HETATM    8  C8  UNL     1      18.488  38.450  36.711  1.00  0.00     0.125 A 
HETATM    9  N6  UNL     1      17.860  37.291  36.426  1.00  0.00    -0.332 N 
ATOM     10  H6  UNL     1      17.057  37.319  35.799  1.00  0.00     0.168 HD
HETATM   11  C9  UNL     1      18.232  36.112  36.919  1.00  0.00     0.173 A 
HETATM   12  C11 UNL     1      19.325  36.096  37.767  1.00  0.00     0.186 A 
HETATM   13  N8  UNL     1      19.887  35.033  38.388  1.00  0.00    -0.267 N 
ATOM     14  H8  UNL     1      19.601  34.055  38.336  1.00  0.00     0.185 HD
HETATM   15  N9  UNL     1      20.903  35.555  39.085  1.00  0.00    -0.006 NA
HETATM   16  N10 UNL     1      20.955  36.864  38.898  1.00  0.00     0.002 NA
HETATM   17  N11 UNL     1      19.979  37.219  38.080  1.00  0.00    -0.202 N 
ENDROOT
BRANCH   1  18
HETATM   18  N2  UNL     1      17.066  39.664  35.398  1.00  0.00    -0.346 N 
ATOM     19  H2  UNL     1      17.151  39.168  34.510  1.00  0.00     0.163 HD
BRANCH  18  20
HETATM   20  C4  UNL     1      15.818  40.330  35.673  1.00  0.00     0.253 C 
BRANCH  20  21
HETATM   21  C3  UNL     1      15.126  40.789  34.406  1.00  0.00     0.253 C 
BRANCH  21  22
HETATM   22  C2  UNL     1      16.153  41.218  33.437  1.00  0.00    -0.000 C 
HETATM   23  C1  UNL     1      15.904  42.243  32.638  1.00  0.00     0.009 C 
ENDBRANCH  21  22
BRANCH  21  24
HETATM   24  N1  UNL     1      14.161  41.814  34.717  1.00  0.00    -0.068 N 
ATOM     25  H13 UNL     1      14.006  41.871  35.723  1.00  0.00     0.275 HD
ATOM     26  H12 UNL     1      14.555  42.741  34.553  1.00  0.00     0.275 HD
ATOM     27  H11 UNL     1      13.277  41.707  34.221  1.00  0.00     0.275 HD
ENDBRANCH  21  24
ENDBRANCH  20  21
BRANCH  20  28
HETATM   28  O1  UNL     1      14.985  39.610  36.498  1.00  0.00    -0.374 OA
ATOM     29  H1  UNL     1      14.680  40.117  37.241  1.00  0.00     0.212 HD
ENDBRANCH  20  28
ENDBRANCH  18  20
ENDBRANCH   1  18
BRANCH   4  30
HETATM   30  N4  UNL     1      20.455  41.796  37.653  1.00  0.00    -0.234 N 
ATOM     31  H42 UNL     1      20.897  41.885  38.568  1.00  0.00     0.174 HD
ATOM     32  H41 UNL     1      20.528  42.569  36.991  1.00  0.00     0.174 HD
ENDBRANCH   4  30
BRANCH  11  33
HETATM   33  N7  UNL     1      17.587  35.057  36.603  1.00  0.00    -0.248 N 
ATOM     34  H7  UNL     1      17.640  34.708  35.647  1.00  0.00     0.196 HD
BRANCH  33  35
HETATM   35  O2  UNL     1      16.834  34.390  37.510  1.00  0.00    -0.284 OA
HETATM   36  C10 UNL     1      17.235  33.177  38.127  1.00  0.00     0.237 C 
ENDBRANCH  33  35
ENDBRANCH  11  33
TORSDOF 9
ENDMDL
MODEL 2
REMARK VINA RESULT: -7.804818557      1.199      1.399
REMARK  9 active torsions:
REMARK  status: ('A' for Active; 'I' for Inactive)
REMARK    1  A    between atoms: C2_2  and  C3_3 
REMARK    2  A    between atoms: C3_3  and  N1_4 
REMARK    3  A    between atoms: C3_3  and  C4_8 
REMARK    4  A    between atoms: C4_8  and  O1_9 
REMARK    5  A    between atoms: C4_8  and  N2_11 
REMARK    6  A    between atoms: N2_11  and  C5_13 
REMARK    7  A    between atoms: C6_16  and  N4_17 
REMARK    8  A    between atoms: C9_26  and  N7_27 
REMARK    9  A    between atoms: N7_27  and  O2_29 
ROOT
HETATM    1  C5  UNL     1      18.167  39.283  35.998  1.00  0.00     0.149 A 
HETATM    2  N3  UNL     1      18.753  40.440  36.321  1.00  0.00    -0.175 N 
ATOM      3  H3  UNL     1      18.459  41.293  35.845  1.00  0.00     0.186 HD
HETATM    4  C6  UNL     1      19.732  40.517  37.270  1.00  0.00     0.679 A 
HETATM    5  N5  UNL     1      20.120  39.395  37.897  1.00  0.00    -0.173 N 
ATOM      6  H5  UNL     1      20.852  39.453  38.604  1.00  0.00     0.186 HD
HETATM    7  C7  UNL     1      19.576  38.200  37.623  1.00  0.00     0.173 A 
HETATM    8  C8  UNL     1      18.576  38.144  36.649  1.00  0.00     0.125 A 
HETATM    9  N6  UNL     1      18.033  36.939  36.378  1.00  0.00    -0.332 N 
ATOM     10  H6  UNL     1      17.302  36.887  35.669  1.00  0.00     0.168 HD
HETATM   11  C9  UNL     1      18.400  35.813  36.987  1.00  0.00     0.173 A 
HETATM   12  C11 UNL     1      19.393  35.905  37.945  1.00  0.00     0.186 A 
HETATM   13  N8  UNL     1      19.931  34.913  38.692  1.00  0.00    -0.267 N 
ATOM     14  H8  UNL     1      19.695  33.921  38.676  1.00  0.00     0.185 HD
HETATM   15  N9  UNL     1      20.841  35.528  39.455  1.00  0.00    -0.006 NA
HETATM   16  N10 UNL     1      20.857  36.824  39.186  1.00  0.00     0.002 NA
HETATM   17  N11 UNL     1      19.961  37.077  38.248  1.00  0.00    -0.202 N 
ENDROOT
BRANCH   1  18
HETATM   18  N2  UNL     1      17.253  39.200  35.114  1.00  0.00    -0.346 N 
ATOM     19  H2  UNL     1      17.243  38.369  34.523  1.00  0.00     0.163 HD
BRANCH  18  20
HETATM   20  C4  UNL     1      16.232  40.191  34.888  1.00  0.00     0.253 C 
BRANCH  20  21
HETATM   21  C3  UNL     1      15.314  40.347  36.083  1.00  0.00     0.253 C 
BRANCH  21  22
HETATM   22  C2  UNL     1      13.924  40.448  35.598  1.00  0.00    -0.000 C 
HETATM   23  C1  UNL     1      13.447  41.628  35.235  1.00  0.00     0.009 C 
ENDBRANCH  21  22
BRANCH  21  24
HETATM   24  N1  UNL     1      15.730  41.473  36.880  1.00  0.00    -0.068 N 
ATOM     25  H13 UNL     1      15.864  42.299  36.296  1.00  0.00     0.275 HD
ATOM     26  H12 UNL     1      14.964  41.803  37.468  1.00  0.00     0.275 HD
ATOM     27  H11 UNL     1      16.561  41.291  37.442  1.00  0.00     0.275 HD
ENDBRANCH  21  24
ENDBRANCH  20  21
BRANCH  20  28
HETATM   28  O1  UNL     1      16.729  41.395  34.445  1.00  0.00    -0.374 OA
ATOM     29  H1  UNL     1      16.953  41.379  33.521  1.00  0.00     0.212 HD
ENDBRANCH  20  28
ENDBRANCH  18  20
ENDBRANCH   1  18
BRANCH   4  30
HETATM   30  N4  UNL     1      20.281  41.637  37.565  1.00  0.00    -0.234 N 
ATOM     31  H42 UNL     1      19.889  42.216  38.308  1.00  0.00     0.174 HD
ATOM     32  H41 UNL     1      21.111  41.963  37.069  1.00  0.00     0.174 HD
ENDBRANCH   4  30
BRANCH  11  33
HETATM   33  N7  UNL     1      17.840  34.709  36.677  1.00  0.00    -0.248 N 
ATOM     34  H7  UNL     1      18.127  34.226  35.826  1.00  0.00     0.196 HD
BRANCH  33  35
HETATM   35  O2  UNL     1      16.872  34.165  37.451  1.00  0.00    -0.284 OA
HETATM   36  C10 UNL     1      17.102  33.113  38.376  1.00  0.00     0.237 C 
ENDBRANCH  33  35
ENDBRANCH  11  33
TORSDOF 9
ENDMDL
MODEL 3
REMARK VINA RESULT: -7.723328885      2.950      7.248
REMARK  9 active torsions:
REMARK  status: ('A' for Active; 'I' for Inactive)
REMARK    1  A    between atoms: C2_2  and  C3_3 
REMARK    2  A    between atoms: C3_3  and  N1_4 
REMARK    3  A    between atoms: C3_3  and  C4_8 
REMARK    4  A    between atoms: C4_8  and  O1_9 
REMARK    5  A    between atoms: C4_8  and  N2_11 
REMARK    6  A    between atoms: N2_11  and  C5_13 
REMARK    7  A    between atoms: C6_16  and  N4_17 
REMARK    8  A    between atoms: C9_26  and  N7_27 
REMARK    9  A    between atoms: N7_27  and  O2_29 
ROOT
HETATM    1  C5  UNL     1      20.053  36.843  38.548  1.00  0.00     0.149 A 
HETATM    2  N3  UNL     1      19.531  35.633  38.325  1.00  0.00    -0.175 N 
ATOM      3  H3  UNL     1      19.896  34.834  38.844  1.00  0.00     0.186 HD
HETATM    4  C6  UNL     1      18.523  35.433  37.426  1.00  0.00     0.679 A 
HETATM    5  N5  UNL     1      18.042  36.484  36.743  1.00  0.00    -0.173 N 
ATOM      6  H5  UNL     1      17.290  36.333  36.070  1.00  0.00     0.186 HD
HETATM    7  C7  UNL     1      18.518  37.725  36.916  1.00  0.00     0.173 A 
HETATM    8  C8  UNL     1      19.549  37.908  37.841  1.00  0.00     0.125 A 
HETATM    9  N6  UNL     1      20.024  39.160  38.010  1.00  0.00    -0.332 N 
ATOM     10  H6  UNL     1      20.777  39.303  38.683  1.00  0.00     0.168 HD
HETATM   11  C9  UNL     1      19.563  40.217  37.346  1.00  0.00     0.173 A 
HETATM   12  C11 UNL     1      18.543  40.000  36.437  1.00  0.00     0.186 A 
HETATM   13  N8  UNL     1      17.916  40.905  35.651  1.00  0.00    -0.267 N 
ATOM     14  H8  UNL     1      18.089  41.908  35.591  1.00  0.00     0.185 HD
HETATM   15  N9  UNL     1      17.018  40.186  34.968  1.00  0.00    -0.006 NA
HETATM   16  N10 UNL     1      17.095  38.913  35.321  1.00  0.00     0.002 NA
HETATM   17  N11 UNL     1      18.040  38.778  36.236  1.00  0.00    -0.202 N 
ENDROOT
BRANCH   1  18
HETATM   18  N2  UNL     1      20.994  37.041  39.385  1.00  0.00    -0.346 N 
ATOM     19  H2  UNL     1      21.931  37.194  39.012  1.00  0.00     0.163 HD
BRANCH  18  20
HETATM   20  C4  UNL     1      20.833  37.065  40.816  1.00  0.00     0.253 C 
BRANCH  20  21
HETATM   21  C3  UNL     1      21.913  37.879  41.498  1.00  0.00     0.253 C 
BRANCH  21  22
HETATM   22  C2  UNL     1      21.542  38.062  42.914  1.00  0.00    -0.000 C 
HETATM   23  C1  UNL     1      21.819  37.106  43.787  1.00  0.00     0.009 C 
ENDBRANCH  21  22
BRANCH  21  24
HETATM   24  N1  UNL     1      22.116  39.118  40.790  1.00  0.00    -0.068 N 
ATOM     25  H13 UNL     1      23.032  39.132  40.342  1.00  0.00     0.275 HD
ATOM     26  H12 UNL     1      21.521  39.162  39.962  1.00  0.00     0.275 HD
ATOM     27  H11 UNL     1      21.986  39.946  41.370  1.00  0.00     0.275 HD
ENDBRANCH  21  24
ENDBRANCH  20  21
BRANCH  20  28
HETATM   28  O1  UNL     1      19.568  37.427  41.217  1.00  0.00    -0.374 OA
ATOM     29  H1  UNL     1      18.992  36.679  41.328  1.00  0.00     0.212 HD
ENDBRANCH  20  28
ENDBRANCH  18  20
ENDBRANCH   1  18
BRANCH   4  30
HETATM   30  N4  UNL     1      18.036  34.264  37.227  1.00  0.00    -0.234 N 
ATOM     31  H42 UNL     1      17.825  33.955  36.278  1.00  0.00     0.174 HD
ATOM     32  H41 UNL     1      17.855  33.630  38.005  1.00  0.00     0.174 HD
ENDBRANCH   4  30
BRANCH  11  33
HETATM   33  N7  UNL     1      20.064  41.372  37.560  1.00  0.00    -0.248 N 
ATOM     34  H7  UNL     1      20.059  41.749  38.507  1.00  0.00     0.196 HD
BRANCH  33  35
HETATM   35  O2  UNL     1      20.600  42.107  36.558  1.00  0.00    -0.284 OA
HETATM   36  C10 UNL     1      21.828  42.811  36.667  1.00  0.00     0.237 C 
ENDBRANCH  33  35
ENDBRANCH  11  33
TORSDOF 9
ENDMDL
MODEL 4
REMARK VINA RESULT: -7.639683733      1.029      1.219
REMARK  9 active torsions:
REMARK  status: ('A' for Active; 'I' for Inactive)
REMARK    1  A    between atoms: C2_2  and  C3_3 
REMARK    2  A    between atoms: C3_3  and  N1_4 
REMARK    3  A    between atoms: C3_3  and  C4_8 
REMARK    4  A    between atoms: C4_8  and  O1_9 
REMARK    5  A    between atoms: C4_8  and  N2_11 
REMARK    6  A    between atoms: N2_11  and  C5_13 
REMARK    7  A    between atoms: C6_16  and  N4_17 
REMARK    8  A    between atoms: C9_26  and  N7_27 
REMARK    9  A    between atoms: N7_27  and  O2_29 
ROOT
HETATM    1  C5  UNL     1      18.096  39.716  36.488  1.00  0.00     0.149 A 
HETATM    2  N3  UNL     1      18.826  40.825  36.645  1.00  0.00    -0.175 N 
ATOM      3  H3  UNL     1      18.498  41.696  36.228  1.00  0.00     0.186 HD
HETATM    4  C6  UNL     1      19.998  40.827  37.345  1.00  0.00     0.679 A 
HETATM    5  N5  UNL     1      20.432  39.680  37.893  1.00  0.00    -0.173 N 
ATOM      6  H5  UNL     1      21.307  39.683  38.415  1.00  0.00     0.186 HD
HETATM    7  C7  UNL     1      19.749  38.532  37.776  1.00  0.00     0.173 A 
HETATM    8  C8  UNL     1      18.552  38.552  37.055  1.00  0.00     0.125 A 
HETATM    9  N6  UNL     1      17.871  37.392  36.941  1.00  0.00    -0.332 N 
ATOM     10  H6  UNL     1      16.997  37.396  36.417  1.00  0.00     0.168 HD
HETATM   11  C9  UNL     1      18.280  36.243  37.476  1.00  0.00     0.173 A 
HETATM   12  C11 UNL     1      19.469  36.260  38.182  1.00  0.00     0.186 A 
HETATM   13  N8  UNL     1      20.084  35.232  38.810  1.00  0.00    -0.267 N 
ATOM     14  H8  UNL     1      19.775  34.261  38.870  1.00  0.00     0.185 HD
HETATM   15  N9  UNL     1      21.189  35.775  39.333  1.00  0.00    -0.006 NA
HETATM   16  N10 UNL     1      21.242  37.064  39.040  1.00  0.00     0.002 NA
HETATM   17  N11 UNL     1      20.179  37.385  38.323  1.00  0.00    -0.202 N 
ENDROOT
BRANCH   1  18
HETATM   18  N2  UNL     1      17.001  39.703  35.836  1.00  0.00    -0.346 N 
ATOM     19  H2  UNL     1      17.040  39.429  34.854  1.00  0.00     0.163 HD
BRANCH  18  20
HETATM   20  C4  UNL     1      15.712  40.045  36.381  1.00  0.00     0.253 C 
BRANCH  20  21
HETATM   21  C3  UNL     1      15.004  41.098  35.553  1.00  0.00     0.253 C 
BRANCH  21  22
HETATM   22  C2  UNL     1      13.549  40.861  35.633  1.00  0.00    -0.000 C 
HETATM   23  C1  UNL     1      12.829  40.864  34.523  1.00  0.00     0.009 C 
ENDBRANCH  21  22
BRANCH  21  24
HETATM   24  N1  UNL     1      15.516  41.090  34.206  1.00  0.00    -0.068 N 
ATOM     25  H13 UNL     1      15.825  42.023  33.932  1.00  0.00     0.275 HD
ATOM     26  H12 UNL     1      16.408  40.596  34.162  1.00  0.00     0.275 HD
ATOM     27  H11 UNL     1      14.862  40.712  33.521  1.00  0.00     0.275 HD
ENDBRANCH  21  24
ENDBRANCH  20  21
BRANCH  20  28
HETATM   28  O1  UNL     1      14.918  38.951  36.634  1.00  0.00    -0.374 OA
ATOM     29  H1  UNL     1      15.397  38.238  37.040  1.00  0.00     0.212 HD
ENDBRANCH  20  28
ENDBRANCH  18  20
ENDBRANCH   1  18
BRANCH   4  30
HETATM   30  N4  UNL     1      20.684  41.901  37.484  1.00  0.00    -0.234 N 
ATOM     31  H42 UNL     1      21.353  42.175  36.763  1.00  0.00     0.174 HD
ATOM     32  H41 UNL     1      20.573  42.495  38.306  1.00  0.00     0.174 HD
ENDBRANCH   4  30
BRANCH  11  33
HETATM   33  N7  UNL     1      17.581  35.186  37.325  1.00  0.00    -0.248 N 
ATOM     34  H7  UNL     1      17.168  34.988  36.413  1.00  0.00     0.196 HD
BRANCH  33  35
HETATM   35  O2  UNL     1      17.374  34.323  38.347  1.00  0.00    -0.284 OA
HETATM   36  C10 UNL     1      17.061  32.951  38.168  1.00  0.00     0.237 C 
ENDBRANCH  33  35
ENDBRANCH  11  33
TORSDOF 9
ENDMDL
MODEL 5
REMARK VINA RESULT: -7.588535227      1.574      6.229
REMARK  9 active torsions:
REMARK  status: ('A' for Active; 'I' for Inactive)
REMARK    1  A    between atoms: C2_2  and  C3_3 
REMARK    2  A    between atoms: C3_3  and  N1_4 
REMARK    3  A    between atoms: C3_3  and  C4_8 
REMARK    4  A    between atoms: C4_8  and  O1_9 
REMARK    5  A    between atoms: C4_8  and  N2_11 
REMARK    6  A    between atoms: N2_11  and  C5_13 
REMARK    7  A    between atoms: C6_16  and  N4_17 
REMARK    8  A    between atoms: C9_26  and  N7_27 
REMARK    9  A    between atoms: N7_27  and  O2_29 
ROOT
HETATM    1  C5  UNL     1      18.902  36.183  37.234  1.00  0.00     0.149 A 
HETATM    2  N3  UNL     1      19.771  35.714  38.136  1.00  0.00    -0.175 N 
ATOM      3  H3  UNL     1      19.780  34.715  38.341  1.00  0.00     0.186 HD
HETATM    4  C6  UNL     1      20.648  36.532  38.790  1.00  0.00     0.679 A 
HETATM    5  N5  UNL     1      20.637  37.847  38.520  1.00  0.00    -0.173 N 
ATOM      6  H5  UNL     1      21.291  38.456  39.010  1.00  0.00     0.186 HD
HETATM    7  C7  UNL     1      19.793  38.385  37.628  1.00  0.00     0.173 A 
HETATM    8  C8  UNL     1      18.904  37.530  36.970  1.00  0.00     0.125 A 
HETATM    9  N6  UNL     1      18.057  38.079  36.074  1.00  0.00    -0.332 N 
ATOM     10  H6  UNL     1      17.404  37.464  35.588  1.00  0.00     0.168 HD
HETATM   11  C9  UNL     1      18.027  39.379  35.789  1.00  0.00     0.173 A 
HETATM   12  C11 UNL     1      18.920  40.195  36.459  1.00  0.00     0.186 A 
HETATM   13  N8  UNL     1      19.080  41.533  36.344  1.00  0.00    -0.267 N 
ATOM     14  H8  UNL     1      18.566  42.175  35.739  1.00  0.00     0.185 HD
HETATM   15  N9  UNL     1      20.064  41.826  37.201  1.00  0.00    -0.006 NA
HETATM   16  N10 UNL     1      20.480  40.724  37.806  1.00  0.00     0.002 NA
HETATM   17  N11 UNL     1      19.779  39.698  37.356  1.00  0.00    -0.202 N 
ENDROOT
BRANCH   1  18
HETATM   18  N2  UNL     1      18.079  35.429  36.618  1.00  0.00    -0.346 N 
ATOM     19  H2  UNL     1      17.407  35.875  35.994  1.00  0.00     0.163 HD
BRANCH  18  20
HETATM   20  C4  UNL     1      18.027  33.994  36.738  1.00  0.00     0.253 C 
BRANCH  20  21
HETATM   21  C3  UNL     1      17.771  33.549  38.163  1.00  0.00     0.253 C 
BRANCH  21  22
HETATM   22  C2  UNL     1      18.909  32.723  38.610  1.00  0.00    -0.000 C 
HETATM   23  C1  UNL     1      19.089  31.523  38.081  1.00  0.00     0.009 C 
ENDBRANCH  21  22
BRANCH  21  24
HETATM   24  N1  UNL     1      16.500  32.874  38.246  1.00  0.00    -0.068 N 
ATOM     25  H13 UNL     1      15.910  33.303  38.959  1.00  0.00     0.275 HD
ATOM     26  H12 UNL     1      15.934  33.066  37.420  1.00  0.00     0.275 HD
ATOM     27  H11 UNL     1      16.580  31.869  38.402  1.00  0.00     0.275 HD
ENDBRANCH  21  24
ENDBRANCH  20  21
BRANCH  20  28
HETATM   28  O1  UNL     1      17.171  33.402  35.838  1.00  0.00    -0.374 OA
ATOM     29  H1  UNL     1      16.569  34.023  35.445  1.00  0.00     0.212 HD
ENDBRANCH  20  28
ENDBRANCH  18  20
ENDBRANCH   1  18
BRANCH   4  30
HETATM   30  N4  UNL     1      21.474  36.062  39.651  1.00  0.00    -0.234 N 
ATOM     31  H42 UNL     1      21.175  35.917  40.616  1.00  0.00     0.174 HD
ATOM     32  H41 UNL     1      22.431  35.827  39.389  1.00  0.00     0.174 HD
ENDBRANCH   4  30
BRANCH  11  33
HETATM   33  N7  UNL     1      17.196  39.824  34.928  1.00  0.00    -0.248 N 
ATOM     34  H7  UNL     1      17.173  39.408  33.997  1.00  0.00     0.196 HD
BRANCH  33  35
HETATM   35  O2  UNL     1      16.346  40.834  35.223  1.00  0.00    -0.284 OA
HETATM   36  C10 UNL     1      15.206  40.688  36.056  1.00  0.00     0.237 C 
ENDBRANCH  33  35
ENDBRANCH  11  33
TORSDOF 9
ENDMDL
