MODEL 1
REMARK VINA RESULT: -8.920402030      0.000      0.000
REMARK  8 active torsions:
REMARK  status: ('A' for Active; 'I' for Inactive)
REMARK    1  A    between atoms: N1_2  and  C2_4 
REMARK    2  A    between atoms: C3_7  and  N3_8 
REMARK    3  A    between atoms: N3_8  and  C4_10 
REMARK    4  A    between atoms: C4_10  and  C5_11 
REMARK    5  A    between atoms: C5_11  and  C6_12 
REMARK    6  A    between atoms: N5_18  and  C8_19 
REMARK    7  A    between atoms: C9_26  and  N9_27 
REMARK    8  A    between atoms: N9_27  and  N10_29 
ROOT
HETATM    1  C2  UNL     1      20.296  37.764  38.968  1.00  0.00     0.681 A 
HETATM    2  N2  UNL     1      20.140  36.618  38.285  1.00  0.00    -0.175 N 
ATOM      3  H2  UNL     1      20.560  35.754  38.628  1.00  0.00     0.186 HD
HETATM    4  C3  UNL     1      19.414  36.616  37.128  1.00  0.00     0.149 A 
HETATM    5  C7  UNL     1      18.846  37.774  36.659  1.00  0.00     0.140 A 
HETATM    6  N4  UNL     1      18.105  38.132  35.615  1.00  0.00    -0.271 N 
ATOM      7  H4  UNL     1      17.802  37.485  34.887  1.00  0.00     0.189 HD
HETATM    8  N5  UNL     1      17.803  39.429  35.625  1.00  0.00    -0.172 N 
HETATM    9  N11 UNL     1      18.389  39.899  36.738  1.00  0.00    -0.260 N 
ATOM     10  H11 UNL     1      18.348  40.872  37.043  1.00  0.00     0.191 HD
HETATM   11  C10 UNL     1      19.030  38.933  37.394  1.00  0.00     0.169 A 
HETATM   12  N12 UNL     1      19.752  38.927  38.540  1.00  0.00    -0.173 N 
ATOM     13  H12 UNL     1      19.884  39.786  39.073  1.00  0.00     0.186 HD
ENDROOT
BRANCH   8  14
HETATM   14  C8  UNL     1      17.041  40.161  34.688  1.00  0.00     0.208 A 
HETATM   15  N6  UNL     1      17.338  40.359  33.405  1.00  0.00    -0.265 N 
HETATM   16  N7  UNL     1      16.360  41.101  32.875  1.00  0.00    -0.239 N 
ATOM     17  H6  UNL     1      18.161  40.008  32.915  1.00  0.00     0.190 HD
HETATM   18  N8  UNL     1      15.439  41.391  33.771  1.00  0.00    -0.267 N 
ATOM     19  H7  UNL     1      16.332  41.403  31.902  1.00  0.00     0.208 HD
HETATM   20  C9  UNL     1      15.857  40.800  34.931  1.00  0.00     0.185 A 
ATOM     21  H8  UNL     1      14.592  41.940  33.629  1.00  0.00     0.190 HD
BRANCH  20  22
HETATM   22  N9  UNL     1      15.183  40.839  36.179  1.00  0.00    -0.288 N 
ATOM     23  H9  UNL     1      15.688  41.098  37.026  1.00  0.00     0.188 HD
BRANCH  22  24
HETATM   24  N10 UNL     1      13.842  40.524  36.242  1.00  0.00    -0.343 N 
ATOM     25 2H10 UNL     1      13.376  40.163  35.410  1.00  0.00     0.176 HD
ATOM     26 1H10 UNL     1      13.332  40.654  37.116  1.00  0.00     0.176 HD
ENDBRANCH  22  24
ENDBRANCH  20  22
ENDBRANCH   8  14
BRANCH   4  27
HETATM   27  N3  UNL     1      19.294  35.530  36.525  1.00  0.00    -0.373 N 
ATOM     28  H3  UNL     1      20.165  35.189  36.117  1.00  0.00     0.161 HD
BRANCH  27  29
HETATM   29  C4  UNL     1      18.185  34.680  36.299  1.00  0.00     0.132 C 
BRANCH  29  30
HETATM   30  C5  UNL     1      17.710  33.958  37.540  1.00  0.00     0.132 C 
BRANCH  30  31
HETATM   31  C6  UNL     1      18.840  33.306  38.247  1.00  0.00     0.174 C 
HETATM   32  O1  UNL     1      19.206  32.173  37.856  1.00  0.00    -0.648 OA
HETATM   33  O2  UNL     1      19.496  33.898  39.314  1.00  0.00    -0.648 OA
ENDBRANCH  30  31
ENDBRANCH  29  30
ENDBRANCH  27  29
ENDBRANCH   4  27
BRANCH   1  34
HETATM   34  N1  UNL     1      20.976  37.789  40.061  1.00  0.00    -0.230 N 
HETATM   35  C1  UNL     1      20.381  37.800  41.370  1.00  0.00     0.165 C 
ATOM     36  H1  UNL     1      21.994  37.801  39.994  1.00  0.00     0.177 HD
ENDBRANCH   1  34
TORSDOF 8
ENDMDL
MODEL 2
REMARK VINA RESULT: -8.889207489      0.788      1.889
REMARK  8 active torsions:
REMARK  status: ('A' for Active; 'I' for Inactive)
REMARK    1  A    between atoms: N1_2  and  C2_4 
REMARK    2  A    between atoms: C3_7  and  N3_8 
REMARK    3  A    between atoms: N3_8  and  C4_10 
REMARK    4  A    between atoms: C4_10  and  C5_11 
REMARK    5  A    between atoms: C5_11  and  C6_12 
REMARK    6  A    between atoms: N5_18  and  C8_19 
REMARK    7  A    between atoms: C9_26  and  N9_27 
REMARK    8  A    between atoms: N9_27  and  N10_29 
ROOT
HETATM    1  C2  UNL     1      20.573  37.287  39.205  1.00  0.00     0.681 A 
HETATM    2  N2  UNL     1      20.262  36.211  38.464  1.00  0.00    -0.175 N 
ATOM      3  H2  UNL     1      20.760  35.331  38.603  1.00  0.00     0.186 HD
HETATM    4  C3  UNL     1      19.275  36.301  37.524  1.00  0.00     0.149 A 
HETATM    5  C7  UNL     1      18.602  37.480  37.331  1.00  0.00     0.140 A 
HETATM    6  N4  UNL     1      17.626  37.916  36.541  1.00  0.00    -0.271 N 
ATOM      7  H4  UNL     1      17.159  37.336  35.845  1.00  0.00     0.189 HD
HETATM    8  N5  UNL     1      17.327  39.196  36.760  1.00  0.00    -0.172 N 
HETATM    9  N11 UNL     1      18.164  39.572  37.740  1.00  0.00    -0.260 N 
ATOM     10  H11 UNL     1      18.192  40.508  38.146  1.00  0.00     0.191 HD
HETATM   11  C10 UNL     1      18.953  38.566  38.117  1.00  0.00     0.169 A 
HETATM   12  N12 UNL     1      19.932  38.469  39.046  1.00  0.00    -0.173 N 
ATOM     13  H12 UNL     1      20.185  39.274  39.618  1.00  0.00     0.186 HD
ENDROOT
BRANCH   8  14
HETATM   14  C8  UNL     1      16.353  39.993  36.117  1.00  0.00     0.208 A 
HETATM   15  N6  UNL     1      15.221  40.448  36.651  1.00  0.00    -0.265 N 
HETATM   16  N7  UNL     1      14.590  41.158  35.711  1.00  0.00    -0.239 N 
ATOM     17  H6  UNL     1      14.895  40.285  37.604  1.00  0.00     0.190 HD
HETATM   18  N8  UNL     1      15.274  41.179  34.585  1.00  0.00    -0.267 N 
ATOM     19  H7  UNL     1      13.693  41.624  35.848  1.00  0.00     0.208 HD
HETATM   20  C9  UNL     1      16.400  40.442  34.826  1.00  0.00     0.185 A 
ATOM     21  H8  UNL     1      15.018  41.648  33.716  1.00  0.00     0.190 HD
BRANCH  20  22
HETATM   22  N9  UNL     1      17.443  40.182  33.901  1.00  0.00    -0.288 N 
ATOM     23  H9  UNL     1      18.313  39.753  34.216  1.00  0.00     0.188 HD
BRANCH  22  24
HETATM   24  N10 UNL     1      17.277  40.511  32.572  1.00  0.00    -0.343 N 
ATOM     25 2H10 UNL     1      17.835  40.030  31.867  1.00  0.00     0.176 HD
ATOM     26 1H10 UNL     1      16.601  41.228  32.309  1.00  0.00     0.176 HD
ENDBRANCH  22  24
ENDBRANCH  20  22
ENDBRANCH   8  14
BRANCH   4  27
HETATM   27  N3  UNL     1      19.020  35.277  36.859  1.00  0.00    -0.373 N 
ATOM     28  H3  UNL     1      19.801  34.952  36.289  1.00  0.00     0.161 HD
BRANCH  27  29
HETATM   29  C4  UNL     1      17.856  34.479  36.741  1.00  0.00     0.132 C 
BRANCH  29  30
HETATM   30  C5  UNL     1      17.585  33.619  37.955  1.00  0.00     0.132 C 
BRANCH  30  31
HETATM   31  C6  UNL     1      18.832  32.996  38.461  1.00  0.00     0.174 C 
HETATM   32  O1  UNL     1      19.441  33.568  39.396  1.00  0.00    -0.648 OA
HETATM   33  O2  UNL     1      19.344  31.818  37.942  1.00  0.00    -0.648 OA
ENDBRANCH  30  31
ENDBRANCH  29  30
ENDBRANCH  27  29
ENDBRANCH   4  27
BRANCH   1  34
HETATM   34  N1  UNL     1      21.499  37.225  40.097  1.00  0.00    -0.230 N 
HETATM   35  C1  UNL     1      21.387  37.810  41.406  1.00  0.00     0.165 C 
ATOM     36  H1  UNL     1      22.361  36.732  39.861  1.00  0.00     0.177 HD
ENDBRANCH   1  34
TORSDOF 8
ENDMDL
MODEL 3
REMARK VINA RESULT: -8.558284848      3.583      6.584
REMARK  8 active torsions:
REMARK  status: ('A' for Active; 'I' for Inactive)
REMARK    1  A    between atoms: N1_2  and  C2_4 
REMARK    2  A    between atoms: C3_7  and  N3_8 
REMARK    3  A    between atoms: N3_8  and  C4_10 
REMARK    4  A    between atoms: C4_10  and  C5_11 
REMARK    5  A    between atoms: C5_11  and  C6_12 
REMARK    6  A    between atoms: N5_18  and  C8_19 
REMARK    7  A    between atoms: C9_26  and  N9_27 
REMARK    8  A    between atoms: N9_27  and  N10_29 
ROOT
HETATM    1  C2  UNL     1      19.981  40.887  37.161  1.00  0.00     0.681 A 
HETATM    2  N2  UNL     1      18.817  41.180  36.558  1.00  0.00    -0.175 N 
ATOM      3  H2  UNL     1      18.558  42.152  36.386  1.00  0.00     0.186 HD
HETATM    4  C3  UNL     1      17.982  40.168  36.177  1.00  0.00     0.149 A 
HETATM    5  C7  UNL     1      18.322  38.859  36.406  1.00  0.00     0.140 A 
HETATM    6  N4  UNL     1      17.779  37.667  36.181  1.00  0.00    -0.271 N 
ATOM      7  H4  UNL     1      16.875  37.533  35.728  1.00  0.00     0.189 HD
HETATM    8  N5  UNL     1      18.547  36.668  36.612  1.00  0.00    -0.172 N 
HETATM    9  N11 UNL     1      19.625  37.276  37.133  1.00  0.00    -0.260 N 
ATOM     10  H11 UNL     1      20.415  36.786  37.553  1.00  0.00     0.191 HD
HETATM   11  C10 UNL     1      19.532  38.601  37.030  1.00  0.00     0.169 A 
HETATM   12  N12 UNL     1      20.354  39.609  37.405  1.00  0.00    -0.173 N 
ATOM     13  H12 UNL     1      21.242  39.409  37.865  1.00  0.00     0.186 HD
ENDROOT
BRANCH   8  14
HETATM   14  C8  UNL     1      18.300  35.279  36.546  1.00  0.00     0.208 A 
HETATM   15  N6  UNL     1      17.857  34.600  35.489  1.00  0.00    -0.265 N 
HETATM   16  N7  UNL     1      17.761  33.316  35.845  1.00  0.00    -0.239 N 
ATOM     17  H6  UNL     1      17.632  34.990  34.573  1.00  0.00     0.190 HD
HETATM   18  N8  UNL     1      18.127  33.138  37.098  1.00  0.00    -0.267 N 
ATOM     19  H7  UNL     1      17.445  32.570  35.227  1.00  0.00     0.208 HD
HETATM   20  C9  UNL     1      18.473  34.377  37.560  1.00  0.00     0.185 A 
ATOM     21  H8  UNL     1      18.148  32.259  37.616  1.00  0.00     0.190 HD
BRANCH  20  22
HETATM   22  N9  UNL     1      18.934  34.685  38.865  1.00  0.00    -0.288 N 
ATOM     23  H9  UNL     1      18.291  34.653  39.657  1.00  0.00     0.188 HD
BRANCH  22  24
HETATM   24  N10 UNL     1      20.255  35.028  39.061  1.00  0.00    -0.343 N 
ATOM     25 2H10 UNL     1      20.907  34.962  38.280  1.00  0.00     0.176 HD
ATOM     26 1H10 UNL     1      20.566  35.342  39.981  1.00  0.00     0.176 HD
ENDBRANCH  22  24
ENDBRANCH  20  22
ENDBRANCH   8  14
BRANCH   4  27
HETATM   27  N3  UNL     1      16.911  40.486  35.621  1.00  0.00    -0.373 N 
ATOM     28  H3  UNL     1      16.972  40.527  34.604  1.00  0.00     0.161 HD
BRANCH  27  29
HETATM   29  C4  UNL     1      15.627  40.800  36.129  1.00  0.00     0.132 C 
BRANCH  29  30
HETATM   30  C5  UNL     1      14.655  41.273  35.071  1.00  0.00     0.132 C 
BRANCH  30  31
HETATM   31  C6  UNL     1      13.264  40.881  35.407  1.00  0.00     0.174 C 
HETATM   32  O1  UNL     1      12.954  40.782  36.617  1.00  0.00    -0.648 OA
HETATM   33  O2  UNL     1      12.306  40.623  34.440  1.00  0.00    -0.648 OA
ENDBRANCH  30  31
ENDBRANCH  29  30
ENDBRANCH  27  29
ENDBRANCH   4  27
BRANCH   1  34
HETATM   34  N1  UNL     1      20.783  41.824  37.529  1.00  0.00    -0.230 N 
HETATM   35  C1  UNL     1      21.566  42.609  36.612  1.00  0.00     0.165 C 
ATOM     36  H1  UNL     1      20.868  42.021  38.526  1.00  0.00     0.177 HD
ENDBRANCH   1  34
TORSDOF 8
ENDMDL
MODEL 4
REMARK VINA RESULT: -8.236141409      3.638      6.676
REMARK  8 active torsions:
REMARK  status: ('A' for Active; 'I' for Inactive)
REMARK    1  A    between atoms: N1_2  and  C2_4 
REMARK    2  A    between atoms: C3_7  and  N3_8 
REMARK    3  A    between atoms: N3_8  and  C4_10 
REMARK    4  A    between atoms: C4_10  and  C5_11 
REMARK    5  A    between atoms: C5_11  and  C6_12 
REMARK    6  A    between atoms: N5_18  and  C8_19 
REMARK    7  A    between atoms: C9_26  and  N9_27 
REMARK    8  A    between atoms: N9_27  and  N10_29 
ROOT
HETATM    1  C2  UNL     1      19.800  40.845  37.093  1.00  0.00     0.681 A 
HETATM    2  N2  UNL     1      18.730  41.094  36.320  1.00  0.00    -0.175 N 
ATOM      3  H2  UNL     1      18.491  42.053  36.066  1.00  0.00     0.186 HD
HETATM    4  C3  UNL     1      17.964  40.054  35.874  1.00  0.00     0.149 A 
HETATM    5  C7  UNL     1      18.279  38.762  36.211  1.00  0.00     0.140 A 
HETATM    6  N4  UNL     1      17.781  37.553  35.969  1.00  0.00    -0.271 N 
ATOM      7  H4  UNL     1      16.951  37.386  35.401  1.00  0.00     0.189 HD
HETATM    8  N5  UNL     1      18.488  36.586  36.551  1.00  0.00    -0.172 N 
HETATM    9  N11 UNL     1      19.478  37.232  37.188  1.00  0.00    -0.260 N 
ATOM     10  H11 UNL     1      20.204  36.773  37.738  1.00  0.00     0.191 HD
HETATM   11  C10 UNL     1      19.390  38.549  37.010  1.00  0.00     0.169 A 
HETATM   12  N12 UNL     1      20.144  39.585  37.448  1.00  0.00    -0.173 N 
ATOM     13  H12 UNL     1      20.960  39.419  38.037  1.00  0.00     0.186 HD
ENDROOT
BRANCH   8  14
HETATM   14  C8  UNL     1      18.263  35.191  36.518  1.00  0.00     0.208 A 
HETATM   15  N6  UNL     1      17.844  34.479  35.473  1.00  0.00    -0.265 N 
HETATM   16  N7  UNL     1      17.763  33.203  35.861  1.00  0.00    -0.239 N 
ATOM     17  H6  UNL     1      17.625  34.842  34.545  1.00  0.00     0.190 HD
HETATM   18  N8  UNL     1      18.115  33.063  37.123  1.00  0.00    -0.267 N 
ATOM     19  H7  UNL     1      17.466  32.437  35.258  1.00  0.00     0.208 HD
HETATM   20  C9  UNL     1      18.437  34.319  37.557  1.00  0.00     0.185 A 
ATOM     21  H8  UNL     1      18.142  32.198  37.663  1.00  0.00     0.190 HD
BRANCH  20  22
HETATM   22  N9  UNL     1      18.876  34.667  38.860  1.00  0.00    -0.288 N 
ATOM     23  H9  UNL     1      18.207  34.726  39.627  1.00  0.00     0.188 HD
BRANCH  22  24
HETATM   24  N10 UNL     1      20.211  34.926  39.085  1.00  0.00    -0.343 N 
ATOM     25 2H10 UNL     1      20.609  35.806  38.759  1.00  0.00     0.176 HD
ATOM     26 1H10 UNL     1      20.785  34.238  39.573  1.00  0.00     0.176 HD
ENDBRANCH  22  24
ENDBRANCH  20  22
ENDBRANCH   8  14
BRANCH   4  27
HETATM   27  N3  UNL     1      16.980  40.330  35.159  1.00  0.00    -0.373 N 
ATOM     28  H3  UNL     1      17.130  40.150  34.166  1.00  0.00     0.161 HD
BRANCH  27  29
HETATM   29  C4  UNL     1      15.696  40.846  35.459  1.00  0.00     0.132 C 
BRANCH  29  30
HETATM   30  C5  UNL     1      14.931  41.315  34.242  1.00  0.00     0.132 C 
BRANCH  30  31
HETATM   31  C6  UNL     1      15.845  41.589  33.106  1.00  0.00     0.174 C 
HETATM   32  O1  UNL     1      15.991  42.777  32.738  1.00  0.00    -0.648 OA
HETATM   33  O2  UNL     1      16.535  40.586  32.443  1.00  0.00    -0.648 OA
ENDBRANCH  30  31
ENDBRANCH  29  30
ENDBRANCH  27  29
ENDBRANCH   4  27
BRANCH   1  34
HETATM   34  N1  UNL     1      20.536  41.809  37.524  1.00  0.00    -0.230 N 
HETATM   35  C1  UNL     1      21.560  42.444  36.738  1.00  0.00     0.165 C 
ATOM     36  H1  UNL     1      20.384  42.142  38.476  1.00  0.00     0.177 HD
ENDBRANCH   1  34
TORSDOF 8
ENDMDL
MODEL 5
REMARK VINA RESULT: -8.086398075      1.325      1.469
REMARK  8 active torsions:
REMARK  status: ('A' for Active; 'I' for Inactive)
REMARK    1  A    between atoms: N1_2  and  C2_4 
REMARK    2  A    between atoms: C3_7  and  N3_8 
REMARK    3  A    between atoms: N3_8  and  C4_10 
REMARK    4  A    between atoms: C4_10  and  C5_11 
REMARK    5  A    between atoms: C5_11  and  C6_12 
REMARK    6  A    between atoms: N5_18  and  C8_19 
REMARK    7  A    between atoms: C9_26  and  N9_27 
REMARK    8  A    between atoms: N9_27  and  N10_29 
ROOT
HETATM    1  C2  UNL     1      20.523  37.836  39.527  1.00  0.00     0.681 A 
HETATM    2  N2  UNL     1      19.805  36.710  39.379  1.00  0.00    -0.175 N 
ATOM      3  H2  UNL     1      19.992  35.901  39.971  1.00  0.00     0.186 HD
HETATM    4  C3  UNL     1      18.824  36.656  38.430  1.00  0.00     0.149 A 
HETATM    5  C7  UNL     1      18.567  37.740  37.629  1.00  0.00     0.140 A 
HETATM    6  N4  UNL     1      17.725  38.034  36.644  1.00  0.00    -0.271 N 
ATOM      7  H4  UNL     1      17.029  37.383  36.280  1.00  0.00     0.189 HD
HETATM    8  N5  UNL     1      17.891  39.274  36.186  1.00  0.00    -0.172 N 
HETATM    9  N11 UNL     1      18.891  39.774  36.929  1.00  0.00    -0.260 N 
ATOM     10  H11 UNL     1      19.266  40.718  36.829  1.00  0.00     0.191 HD
HETATM   11  C10 UNL     1      19.330  38.881  37.815  1.00  0.00     0.169 A 
HETATM   12  N12 UNL     1      20.302  38.927  38.757  1.00  0.00    -0.173 N 
ATOM     13  H12 UNL     1      20.860  39.771  38.885  1.00  0.00     0.186 HD
ENDROOT
BRANCH   8  14
HETATM   14  C8  UNL     1      17.185  39.931  35.153  1.00  0.00     0.208 A 
HETATM   15  N6  UNL     1      17.581  40.080  33.890  1.00  0.00    -0.265 N 
HETATM   16  N7  UNL     1      16.626  40.757  33.246  1.00  0.00    -0.239 N 
ATOM     17  H6  UNL     1      18.454  39.739  33.489  1.00  0.00     0.190 HD
HETATM   18  N8  UNL     1      15.623  41.052  34.047  1.00  0.00    -0.267 N 
ATOM     19  H7  UNL     1      16.668  41.012  32.260  1.00  0.00     0.208 HD
HETATM   20  C9  UNL     1      15.962  40.533  35.266  1.00  0.00     0.185 A 
ATOM     21  H8  UNL     1      14.771  41.560  33.809  1.00  0.00     0.190 HD
BRANCH  20  22
HETATM   22  N9  UNL     1      15.185  40.604  36.451  1.00  0.00    -0.288 N 
ATOM     23  H9  UNL     1      15.637  40.556  37.364  1.00  0.00     0.188 HD
BRANCH  22  24
HETATM   24  N10 UNL     1      13.815  40.738  36.364  1.00  0.00    -0.343 N 
ATOM     25 2H10 UNL     1      13.416  41.263  35.585  1.00  0.00     0.176 HD
ATOM     26 1H10 UNL     1      13.219  40.314  37.074  1.00  0.00     0.176 HD
ENDBRANCH  22  24
ENDBRANCH  20  22
ENDBRANCH   8  14
BRANCH   4  27
HETATM   27  N3  UNL     1      18.182  35.591  38.327  1.00  0.00    -0.373 N 
ATOM     28  H3  UNL     1      17.287  35.695  37.849  1.00  0.00     0.161 HD
BRANCH  27  29
HETATM   29  C4  UNL     1      18.455  34.267  38.745  1.00  0.00     0.132 C 
BRANCH  29  30
HETATM   30  C5  UNL     1      18.595  33.286  37.603  1.00  0.00     0.132 C 
BRANCH  30  31
HETATM   31  C6  UNL     1      18.228  33.913  36.309  1.00  0.00     0.174 C 
HETATM   32  O1  UNL     1      17.107  33.644  35.819  1.00  0.00    -0.648 OA
HETATM   33  O2  UNL     1      19.074  34.775  35.630  1.00  0.00    -0.648 OA
ENDBRANCH  30  31
ENDBRANCH  29  30
ENDBRANCH  27  29
ENDBRANCH   4  27
BRANCH   1  34
HETATM   34  N1  UNL     1      21.453  37.909  40.414  1.00  0.00    -0.230 N 
HETATM   35  C1  UNL     1      21.212  37.832  41.830  1.00  0.00     0.165 C 
ATOM     36  H1  UNL     1      22.414  38.028  40.094  1.00  0.00     0.177 HD
ENDBRANCH   1  34
TORSDOF 8
ENDMDL
