MODEL 1
REMARK VINA RESULT: -7.598654803      0.000      0.000
REMARK  9 active torsions:
REMARK  status: ('A' for Active; 'I' for Inactive)
REMARK    1  A    between atoms: C2_2  and  C3_3 
REMARK    2  A    between atoms: C3_3  and  O1_4 
REMARK    3  A    between atoms: O1_4  and  N1_5 
REMARK    4  A    between atoms: N1_5  and  C4_7 
REMARK    5  A    between atoms: C6_13  and  N4_14 
REMARK    6  A    between atoms: N4_14  and  N5_16 
REMARK    7  A    between atoms: C7_19  and  N6_20 
REMARK    8  A    between atoms: N6_20  and  N7_22 
REMARK    9  A    between atoms: N7_22  and  C8_24 
ROOT
HETATM    1  C4  UNL     1      17.057  39.636  36.497  1.00  0.00     0.206 C 
HETATM    2  N2  UNL     1      17.297  38.571  37.173  1.00  0.00    -0.303 N 
ATOM      3  H2  UNL     1      16.605  37.867  37.428  1.00  0.00     0.168 HD
HETATM    4  C5  UNL     1      18.688  38.524  37.513  1.00  0.00     0.311 A 
HETATM    5  N3  UNL     1      18.955  38.848  38.909  1.00  0.00    -0.314 N 
ATOM      6  H3  UNL     1      18.737  39.720  39.394  1.00  0.00     0.166 HD
HETATM    7  C6  UNL     1      19.580  37.700  39.449  1.00  0.00     0.173 A 
HETATM    8  C7  UNL     1      19.737  36.744  38.439  1.00  0.00     0.207 A 
HETATM    9  O2  UNL     1      19.216  37.270  37.245  1.00  0.00    -0.272 OA
HETATM   10  C9  UNL     1      19.345  39.603  36.748  1.00  0.00     0.303 C 
HETATM   11  O3  UNL     1      20.496  39.887  36.560  1.00  0.00    -0.265 OA
HETATM   12  N9  UNL     1      18.247  40.365  36.182  1.00  0.00    -0.291 N 
ATOM     13  H9  UNL     1      18.310  41.242  35.666  1.00  0.00     0.172 HD
ENDROOT
BRANCH   1  14
HETATM   14  N1  UNL     1      15.796  40.002  36.038  1.00  0.00    -0.236 N 
ATOM     15  H1  UNL     1      15.006  39.360  35.981  1.00  0.00     0.197 HD
BRANCH  14  16
HETATM   16  O1  UNL     1      15.732  41.358  35.658  1.00  0.00    -0.278 OA
BRANCH  16  17
HETATM   17  C3  UNL     1      14.984  41.227  34.426  1.00  0.00     0.201 C 
BRANCH  17  18
HETATM   18  C2  UNL     1      16.052  41.244  33.355  1.00  0.00     0.024 C 
HETATM   19  C1  UNL     1      15.862  42.459  32.476  1.00  0.00     0.007 C 
ENDBRANCH  17  18
ENDBRANCH  16  17
ENDBRANCH  14  16
ENDBRANCH   1  14
BRANCH   7  20
HETATM   20  N4  UNL     1      19.893  37.597  40.762  1.00  0.00    -0.289 N 
ATOM     21  H4  UNL     1      19.254  37.180  41.439  1.00  0.00     0.188 HD
BRANCH  20  22
HETATM   22  N5  UNL     1      21.135  38.092  41.132  1.00  0.00    -0.344 N 
ATOM     23  H52 UNL     1      21.512  38.939  40.708  1.00  0.00     0.176 HD
ATOM     24  H51 UNL     1      21.635  37.559  41.844  1.00  0.00     0.176 HD
ENDBRANCH  20  22
ENDBRANCH   7  20
BRANCH   8  25
HETATM   25  N6  UNL     1      20.247  35.541  38.468  1.00  0.00    -0.275 N 
ATOM     26  H6  UNL     1      21.256  35.424  38.369  1.00  0.00     0.189 HD
BRANCH  25  27
HETATM   27  N7  UNL     1      19.460  34.443  38.629  1.00  0.00    -0.277 N 
ATOM     28  H7  UNL     1      19.815  33.800  39.337  1.00  0.00     0.189 HD
BRANCH  27  29
HETATM   29  C8  UNL     1      18.294  34.008  38.048  1.00  0.00     0.199 C 
HETATM   30  N8  UNL     1      17.260  33.552  39.023  1.00  0.00    -0.068 NA
HETATM   31  S1  UNL     1      17.853  33.944  36.495  1.00  0.00    -0.043 SA
ENDBRANCH  27  29
ENDBRANCH  25  27
ENDBRANCH   8  25
TORSDOF 9
ENDMDL
MODEL 2
REMARK VINA RESULT: -7.557668230      0.945      1.111
REMARK  9 active torsions:
REMARK  status: ('A' for Active; 'I' for Inactive)
REMARK    1  A    between atoms: C2_2  and  C3_3 
REMARK    2  A    between atoms: C3_3  and  O1_4 
REMARK    3  A    between atoms: O1_4  and  N1_5 
REMARK    4  A    between atoms: N1_5  and  C4_7 
REMARK    5  A    between atoms: C6_13  and  N4_14 
REMARK    6  A    between atoms: N4_14  and  N5_16 
REMARK    7  A    between atoms: C7_19  and  N6_20 
REMARK    8  A    between atoms: N6_20  and  N7_22 
REMARK    9  A    between atoms: N7_22  and  C8_24 
ROOT
HETATM    1  C4  UNL     1      17.534  39.695  37.241  1.00  0.00     0.206 C 
HETATM    2  N2  UNL     1      17.695  38.683  38.015  1.00  0.00    -0.303 N 
ATOM      3  H2  UNL     1      16.997  38.323  38.666  1.00  0.00     0.168 HD
HETATM    4  C5  UNL     1      19.005  38.138  37.823  1.00  0.00     0.311 A 
HETATM    5  N3  UNL     1      19.931  38.458  38.904  1.00  0.00    -0.314 N 
ATOM      6  H3  UNL     1      20.225  39.385  39.211  1.00  0.00     0.166 HD
HETATM    7  C6  UNL     1      20.335  37.210  39.435  1.00  0.00     0.173 A 
HETATM    8  C7  UNL     1      19.738  36.182  38.698  1.00  0.00     0.207 A 
HETATM    9  O2  UNL     1      18.949  36.759  37.688  1.00  0.00    -0.272 OA
HETATM   10  C9  UNL     1      19.572  38.812  36.637  1.00  0.00     0.303 C 
HETATM   11  O3  UNL     1      20.557  38.616  35.979  1.00  0.00    -0.265 OA
HETATM   12  N9  UNL     1      18.636  39.882  36.348  1.00  0.00    -0.291 N 
ATOM     13  H9  UNL     1      18.742  40.619  35.651  1.00  0.00     0.172 HD
ENDROOT
BRANCH   1  14
HETATM   14  N1  UNL     1      16.382  40.472  37.202  1.00  0.00    -0.236 N 
ATOM     15  H1  UNL     1      15.847  40.735  38.030  1.00  0.00     0.197 HD
BRANCH  14  16
HETATM   16  O1  UNL     1      16.034  40.857  35.890  1.00  0.00    -0.278 OA
BRANCH  16  17
HETATM   17  C3  UNL     1      14.592  40.849  36.014  1.00  0.00     0.201 C 
BRANCH  17  18
HETATM   18  C2  UNL     1      14.122  41.566  34.768  1.00  0.00     0.024 C 
HETATM   19  C1  UNL     1      15.207  41.511  33.716  1.00  0.00     0.007 C 
ENDBRANCH  17  18
ENDBRANCH  16  17
ENDBRANCH  14  16
ENDBRANCH   1  14
BRANCH   7  20
HETATM   20  N4  UNL     1      21.130  37.112  40.526  1.00  0.00    -0.289 N 
ATOM     21  H4  UNL     1      21.182  36.258  41.082  1.00  0.00     0.188 HD
BRANCH  20  22
HETATM   22  N5  UNL     1      21.871  38.241  40.842  1.00  0.00    -0.344 N 
ATOM     23  H52 UNL     1      22.516  38.653  40.169  1.00  0.00     0.176 HD
ATOM     24  H51 UNL     1      21.727  38.622  41.778  1.00  0.00     0.176 HD
ENDBRANCH  20  22
ENDBRANCH   7  20
BRANCH   8  25
HETATM   25  N6  UNL     1      19.808  34.883  38.824  1.00  0.00    -0.275 N 
ATOM     26  H6  UNL     1      20.723  34.435  38.873  1.00  0.00     0.189 HD
BRANCH  25  27
HETATM   27  N7  UNL     1      18.686  34.117  38.892  1.00  0.00    -0.277 N 
ATOM     28  H7  UNL     1      18.466  33.818  39.842  1.00  0.00     0.189 HD
BRANCH  27  29
HETATM   29  C8  UNL     1      17.783  33.657  37.965  1.00  0.00     0.199 C 
HETATM   30  N8  UNL     1      16.612  32.944  38.555  1.00  0.00    -0.068 NA
HETATM   31  S1  UNL     1      17.768  33.793  36.355  1.00  0.00    -0.043 SA
ENDBRANCH  27  29
ENDBRANCH  25  27
ENDBRANCH   8  25
TORSDOF 9
ENDMDL
MODEL 3
REMARK VINA RESULT: -7.445568331      2.634      4.189
REMARK  9 active torsions:
REMARK  status: ('A' for Active; 'I' for Inactive)
REMARK    1  A    between atoms: C2_2  and  C3_3 
REMARK    2  A    between atoms: C3_3  and  O1_4 
REMARK    3  A    between atoms: O1_4  and  N1_5 
REMARK    4  A    between atoms: N1_5  and  C4_7 
REMARK    5  A    between atoms: C6_13  and  N4_14 
REMARK    6  A    between atoms: N4_14  and  N5_16 
REMARK    7  A    between atoms: C7_19  and  N6_20 
REMARK    8  A    between atoms: N6_20  and  N7_22 
REMARK    9  A    between atoms: N7_22  and  C8_24 
ROOT
HETATM    1  C4  UNL     1      19.349  40.738  37.098  1.00  0.00     0.206 C 
HETATM    2  N2  UNL     1      19.876  39.596  37.357  1.00  0.00    -0.303 N 
ATOM      3  H2  UNL     1      20.869  39.429  37.520  1.00  0.00     0.168 HD
HETATM    4  C5  UNL     1      18.855  38.592  37.382  1.00  0.00     0.311 A 
HETATM    5  N3  UNL     1      18.849  37.741  36.197  1.00  0.00    -0.314 N 
ATOM      6  H3  UNL     1      18.716  38.032  35.228  1.00  0.00     0.166 HD
HETATM    7  C6  UNL     1      19.066  36.428  36.677  1.00  0.00     0.173 A 
HETATM    8  C7  UNL     1      19.150  36.457  38.073  1.00  0.00     0.207 A 
HETATM    9  O2  UNL     1      18.986  37.785  38.502  1.00  0.00    -0.272 OA
HETATM   10  C9  UNL     1      17.562  39.306  37.332  1.00  0.00     0.303 C 
HETATM   11  O3  UNL     1      16.426  38.949  37.479  1.00  0.00    -0.265 OA
HETATM   12  N9  UNL     1      17.921  40.683  37.047  1.00  0.00    -0.291 N 
ATOM     13  H9  UNL     1      17.284  41.455  36.850  1.00  0.00     0.172 HD
ENDROOT
BRANCH   1  14
HETATM   14  N1  UNL     1      20.071  41.920  36.971  1.00  0.00    -0.236 N 
ATOM     15  H1  UNL     1      19.726  42.830  37.276  1.00  0.00     0.197 HD
BRANCH  14  16
HETATM   16  O1  UNL     1      21.333  41.720  36.374  1.00  0.00    -0.278 OA
BRANCH  16  17
HETATM   17  C3  UNL     1      22.088  42.746  37.062  1.00  0.00     0.201 C 
BRANCH  17  18
HETATM   18  C2  UNL     1      21.587  44.033  36.445  1.00  0.00     0.024 C 
HETATM   19  C1  UNL     1      21.850  45.181  37.393  1.00  0.00     0.007 C 
ENDBRANCH  17  18
ENDBRANCH  16  17
ENDBRANCH  14  16
ENDBRANCH   1  14
BRANCH   7  20
HETATM   20  N4  UNL     1      19.218  35.370  35.846  1.00  0.00    -0.289 N 
ATOM     21  H4  UNL     1      20.137  34.999  35.605  1.00  0.00     0.188 HD
BRANCH  20  22
HETATM   22  N5  UNL     1      18.048  34.822  35.341  1.00  0.00    -0.344 N 
ATOM     23  H52 UNL     1      17.208  34.754  35.915  1.00  0.00     0.176 HD
ATOM     24  H51 UNL     1      18.088  34.497  34.374  1.00  0.00     0.176 HD
ENDBRANCH  20  22
ENDBRANCH   7  20
BRANCH   8  25
HETATM   25  N6  UNL     1      19.351  35.500  38.940  1.00  0.00    -0.275 N 
ATOM     26  H6  UNL     1      19.412  35.729  39.932  1.00  0.00     0.189 HD
BRANCH  25  27
HETATM   27  N7  UNL     1      19.480  34.204  38.546  1.00  0.00    -0.277 N 
ATOM     28  H7  UNL     1      20.427  33.972  38.247  1.00  0.00     0.189 HD
BRANCH  27  29
HETATM   29  C8  UNL     1      18.617  33.139  38.461  1.00  0.00     0.199 C 
HETATM   30  N8  UNL     1      19.289  31.806  38.472  1.00  0.00    -0.068 NA
HETATM   31  S1  UNL     1      17.004  33.096  38.387  1.00  0.00    -0.043 SA
ENDBRANCH  27  29
ENDBRANCH  25  27
ENDBRANCH   8  25
TORSDOF 9
ENDMDL
MODEL 4
REMARK VINA RESULT: -7.438105700      1.114      1.166
REMARK  9 active torsions:
REMARK  status: ('A' for Active; 'I' for Inactive)
REMARK    1  A    between atoms: C2_2  and  C3_3 
REMARK    2  A    between atoms: C3_3  and  O1_4 
REMARK    3  A    between atoms: O1_4  and  N1_5 
REMARK    4  A    between atoms: N1_5  and  C4_7 
REMARK    5  A    between atoms: C6_13  and  N4_14 
REMARK    6  A    between atoms: N4_14  and  N5_16 
REMARK    7  A    between atoms: C7_19  and  N6_20 
REMARK    8  A    between atoms: N6_20  and  N7_22 
REMARK    9  A    between atoms: N7_22  and  C8_24 
ROOT
HETATM    1  C4  UNL     1      16.988  40.539  36.794  1.00  0.00     0.206 C 
HETATM    2  N2  UNL     1      17.165  39.291  37.036  1.00  0.00    -0.303 N 
ATOM      3  H2  UNL     1      16.424  38.592  37.095  1.00  0.00     0.168 HD
HETATM    4  C5  UNL     1      18.562  39.031  37.210  1.00  0.00     0.311 A 
HETATM    5  N3  UNL     1      18.945  38.825  38.602  1.00  0.00    -0.314 N 
ATOM      6  H3  UNL     1      18.843  39.483  39.375  1.00  0.00     0.166 HD
HETATM    7  C6  UNL     1      19.488  37.519  38.654  1.00  0.00     0.173 A 
HETATM    8  C7  UNL     1      19.489  36.971  37.367  1.00  0.00     0.207 A 
HETATM    9  O2  UNL     1      18.950  37.918  36.479  1.00  0.00    -0.272 OA
HETATM   10  C9  UNL     1      19.272  40.262  36.808  1.00  0.00     0.303 C 
HETATM   11  O3  UNL     1      20.432  40.513  36.625  1.00  0.00    -0.265 OA
HETATM   12  N9  UNL     1      18.221  41.248  36.643  1.00  0.00    -0.291 N 
ATOM     13  H9  UNL     1      18.337  42.244  36.456  1.00  0.00     0.172 HD
ENDROOT
BRANCH   1  14
HETATM   14  N1  UNL     1      15.742  41.129  36.606  1.00  0.00    -0.236 N 
ATOM     15  H1  UNL     1      15.419  41.948  37.120  1.00  0.00     0.197 HD
BRANCH  14  16
HETATM   16  O1  UNL     1      14.975  40.468  35.625  1.00  0.00    -0.278 OA
BRANCH  16  17
HETATM   17  C3  UNL     1      14.808  41.553  34.681  1.00  0.00     0.201 C 
BRANCH  17  18
HETATM   18  C2  UNL     1      15.743  41.189  33.549  1.00  0.00     0.024 C 
HETATM   19  C1  UNL     1      15.833  42.346  32.579  1.00  0.00     0.007 C 
ENDBRANCH  17  18
ENDBRANCH  16  17
ENDBRANCH  14  16
ENDBRANCH   1  14
BRANCH   7  20
HETATM   20  N4  UNL     1      19.870  36.940  39.816  1.00  0.00    -0.289 N 
ATOM     21  H4  UNL     1      19.204  36.732  40.561  1.00  0.00     0.188 HD
BRANCH  20  22
HETATM   22  N5  UNL     1      21.220  36.646  39.935  1.00  0.00    -0.344 N 
ATOM     23  H52 UNL     1      21.774  37.016  40.707  1.00  0.00     0.176 HD
ATOM     24  H51 UNL     1      21.613  36.046  39.209  1.00  0.00     0.176 HD
ENDBRANCH  20  22
ENDBRANCH   7  20
BRANCH   8  25
HETATM   25  N6  UNL     1      19.882  35.803  36.932  1.00  0.00    -0.275 N 
ATOM     26  H6  UNL     1      20.807  35.711  36.512  1.00  0.00     0.189 HD
BRANCH  25  27
HETATM   27  N7  UNL     1      19.082  34.706  37.030  1.00  0.00    -0.277 N 
ATOM     28  H7  UNL     1      18.775  34.356  36.123  1.00  0.00     0.189 HD
BRANCH  27  29
HETATM   29  C8  UNL     1      18.596  33.967  38.081  1.00  0.00     0.199 C 
HETATM   30  N8  UNL     1      19.548  33.829  39.222  1.00  0.00    -0.068 NA
HETATM   31  S1  UNL     1      17.159  33.260  38.293  1.00  0.00    -0.043 SA
ENDBRANCH  27  29
ENDBRANCH  25  27
ENDBRANCH   8  25
TORSDOF 9
ENDMDL
MODEL 5
REMARK VINA RESULT: -7.288571552      2.921      7.036
REMARK  9 active torsions:
REMARK  status: ('A' for Active; 'I' for Inactive)
REMARK    1  A    between atoms: C2_2  and  C3_3 
REMARK    2  A    between atoms: C3_3  and  O1_4 
REMARK    3  A    between atoms: O1_4  and  N1_5 
REMARK    4  A    between atoms: N1_5  and  C4_7 
REMARK    5  A    between atoms: C6_13  and  N4_14 
REMARK    6  A    between atoms: N4_14  and  N5_16 
REMARK    7  A    between atoms: C7_19  and  N6_20 
REMARK    8  A    between atoms: N6_20  and  N7_22 
REMARK    9  A    between atoms: N7_22  and  C8_24 
ROOT
HETATM    1  C4  UNL     1      20.272  36.412  37.857  1.00  0.00     0.206 C 
HETATM    2  N2  UNL     1      19.960  37.592  37.458  1.00  0.00    -0.303 N 
ATOM      3  H2  UNL     1      20.488  38.440  37.661  1.00  0.00     0.168 HD
HETATM    4  C5  UNL     1      18.757  37.532  36.683  1.00  0.00     0.311 A 
HETATM    5  N3  UNL     1      17.584  38.024  37.395  1.00  0.00    -0.314 N 
ATOM      6  H3  UNL     1      17.191  37.661  38.264  1.00  0.00     0.166 HD
HETATM    7  C6  UNL     1      17.105  39.111  36.626  1.00  0.00     0.173 A 
HETATM    8  C7  UNL     1      17.900  39.251  35.483  1.00  0.00     0.207 A 
HETATM    9  O2  UNL     1      18.893  38.257  35.508  1.00  0.00    -0.272 OA
HETATM   10  C9  UNL     1      18.477  36.101  36.450  1.00  0.00     0.303 C 
HETATM   11  O3  UNL     1      17.692  35.526  35.746  1.00  0.00    -0.265 OA
HETATM   12  N9  UNL     1      19.418  35.405  37.308  1.00  0.00    -0.291 N 
ATOM     13  H9  UNL     1      19.462  34.401  37.483  1.00  0.00     0.172 HD
ENDROOT
BRANCH   1  14
HETATM   14  N1  UNL     1      21.371  36.124  38.659  1.00  0.00    -0.236 N 
ATOM     15  H1  UNL     1      22.301  35.920  38.294  1.00  0.00     0.197 HD
BRANCH  14  16
HETATM   16  O1  UNL     1      21.056  36.146  40.034  1.00  0.00    -0.278 OA
BRANCH  16  17
HETATM   17  C3  UNL     1      21.235  37.558  40.297  1.00  0.00     0.201 C 
BRANCH  17  18
HETATM   18  C2  UNL     1      20.572  37.758  41.642  1.00  0.00     0.024 C 
HETATM   19  C1  UNL     1      21.595  37.572  42.740  1.00  0.00     0.007 C 
ENDBRANCH  17  18
ENDBRANCH  16  17
ENDBRANCH  14  16
ENDBRANCH   1  14
BRANCH   7  20
HETATM   20  N4  UNL     1      16.069  39.883  37.031  1.00  0.00    -0.289 N 
ATOM     21  H4  UNL     1      16.207  40.715  37.605  1.00  0.00     0.188 HD
BRANCH  20  22
HETATM   22  N5  UNL     1      14.809  39.476  36.618  1.00  0.00    -0.344 N 
ATOM     23  H52 UNL     1      14.545  39.497  35.633  1.00  0.00     0.176 HD
ATOM     24  H51 UNL     1      14.178  39.160  37.355  1.00  0.00     0.176 HD
ENDBRANCH  20  22
ENDBRANCH   7  20
BRANCH   8  25
HETATM   25  N6  UNL     1      17.846  40.110  34.500  1.00  0.00    -0.275 N 
ATOM     26  H6  UNL     1      18.672  40.662  34.272  1.00  0.00     0.189 HD
BRANCH  25  27
HETATM   27  N7  UNL     1      16.707  40.282  33.774  1.00  0.00    -0.277 N 
ATOM     28  H7  UNL     1      16.394  39.425  33.318  1.00  0.00     0.189 HD
BRANCH  27  29
HETATM   29  C8  UNL     1      15.888  41.354  33.519  1.00  0.00     0.199 C 
HETATM   30  N8  UNL     1      14.845  41.586  34.561  1.00  0.00    -0.068 NA
HETATM   31  S1  UNL     1      15.893  42.415  32.301  1.00  0.00    -0.043 SA
ENDBRANCH  27  29
ENDBRANCH  25  27
ENDBRANCH   8  25
TORSDOF 9
ENDMDL
