MODEL 1
REMARK VINA RESULT: -5.075782385      0.000      0.000
REMARK  4 active torsions:
REMARK  status: ('A' for Active; 'I' for Inactive)
REMARK    1  A    between atoms: C2_2  and  N1_3 
REMARK    2  A    between atoms: N4_14  and  O1_15 
REMARK    3  A    between atoms: O1_15  and  N5_16 
REMARK    4  A    between atoms: C9_20  and  C10_21 
REMARK       I    between atoms: C10_21  and  N6_23 
REMARK       I    between atoms: N6_23  and  C11_25 
REMARK       I    between atoms: C11_25  and  N7_26 
REMARK       I    between atoms: C11_25  and  N8_30 
ROOT
HETATM    1  N1  UNL     1      21.622  38.041  41.720  1.00  0.00    -0.226 N 
ATOM      2  H1  UNL     1      21.681  39.029  41.969  1.00  0.00     0.177 HD
HETATM    3  C3  UNL     1      20.966  37.697  40.674  1.00  0.00     0.680 A 
HETATM    4  N2  UNL     1      20.807  36.440  40.236  1.00  0.00    -0.194 N 
ATOM      5  H2  UNL     1      21.227  35.681  40.774  1.00  0.00     0.184 HD
HETATM    6  C4  UNL     1      20.121  36.132  39.123  1.00  0.00     0.055 A 
HETATM    7  C5  UNL     1      19.927  34.733  38.647  1.00  0.00     0.071 C 
HETATM    8  C6  UNL     1      19.564  37.170  38.416  1.00  0.00     0.128 A 
HETATM    9  C7  UNL     1      19.686  38.492  38.814  1.00  0.00     0.183 A 
HETATM   10  N3  UNL     1      20.399  38.701  39.951  1.00  0.00    -0.172 N 
ATOM     11  H3  UNL     1      20.517  39.660  40.280  1.00  0.00     0.186 HD
HETATM   12  N4  UNL     1      19.046  39.287  37.925  1.00  0.00    -0.159 N 
HETATM   13  C8  UNL     1      18.537  38.442  36.989  1.00  0.00     0.176 A 
HETATM   14  C9  UNL     1      17.816  38.433  35.812  1.00  0.00     0.097 A 
HETATM   15  C12 UNL     1      17.730  37.102  35.444  1.00  0.00     0.128 A 
HETATM   16  N9  UNL     1      18.371  36.356  36.365  1.00  0.00    -0.302 N 
ATOM     17  H9  UNL     1      18.471  35.341  36.357  1.00  0.00     0.186 HD
HETATM   18  N10 UNL     1      18.843  37.175  37.274  1.00  0.00    -0.231 N 
ENDROOT
BRANCH  14  19
HETATM   19  C10 UNL     1      17.190  39.597  35.141  1.00  0.00     0.259 C 
HETATM   20  O2  UNL     1      17.709  40.085  34.117  1.00  0.00    -0.267 OA
HETATM   21  N6  UNL     1      16.002  40.081  35.742  1.00  0.00    -0.307 N 
HETATM   22  C11 UNL     1      15.240  41.226  35.240  1.00  0.00     0.483 C 
ATOM     23  H6  UNL     1      15.656  39.603  36.574  1.00  0.00     0.166 HD
HETATM   24  N7  UNL     1      14.162  40.739  34.382  1.00  0.00    -0.033 N 
HETATM   25  N8  UNL     1      14.593  41.878  36.356  1.00  0.00    -0.033 N 
ATOM     26  H73 UNL     1      14.505  40.140  33.630  1.00  0.00     0.278 HD
ATOM     27  H72 UNL     1      13.571  40.055  34.851  1.00  0.00     0.278 HD
ATOM     28  H71 UNL     1      13.631  41.537  34.032  1.00  0.00     0.278 HD
ATOM     29  H83 UNL     1      14.019  41.238  36.903  1.00  0.00     0.278 HD
ATOM     30  H82 UNL     1      15.252  42.140  37.090  1.00  0.00     0.278 HD
ATOM     31  H81 UNL     1      14.062  42.676  36.006  1.00  0.00     0.278 HD
ENDBRANCH  14  19
BRANCH  12  32
HETATM   32  O1  UNL     1      18.993  40.651  38.010  1.00  0.00    -0.153 OA
BRANCH  32  33
HETATM   33  N5  UNL     1      19.789  41.491  37.311  1.00  0.00    -0.285 N 
ATOM     34  H52 UNL     1      20.727  41.650  37.682  1.00  0.00     0.186 HD
ATOM     35  H51 UNL     1      19.513  41.967  36.453  1.00  0.00     0.186 HD
ENDBRANCH  32  33
ENDBRANCH  12  32
BRANCH   1  36
HETATM   36  C2  UNL     1      22.279  37.062  42.556  1.00  0.00     0.133 C 
HETATM   37  C1  UNL     1      21.814  37.130  43.980  1.00  0.00     0.027 C 
ENDBRANCH   1  36
TORSDOF 4
ENDMDL
MODEL 2
REMARK VINA RESULT: -4.336867600      2.638      7.212
REMARK  4 active torsions:
REMARK  status: ('A' for Active; 'I' for Inactive)
REMARK    1  A    between atoms: C2_2  and  N1_3 
REMARK    2  A    between atoms: N4_14  and  O1_15 
REMARK    3  A    between atoms: O1_15  and  N5_16 
REMARK    4  A    between atoms: C9_20  and  C10_21 
REMARK       I    between atoms: C10_21  and  N6_23 
REMARK       I    between atoms: N6_23  and  C11_25 
REMARK       I    between atoms: C11_25  and  N7_26 
REMARK       I    between atoms: C11_25  and  N8_30 
ROOT
HETATM    1  N1  UNL     1      16.300  40.601  34.003  1.00  0.00    -0.226 N 
ATOM      2  H1  UNL     1      15.698  39.926  33.531  1.00  0.00     0.177 HD
HETATM    3  C3  UNL     1      17.086  40.197  34.933  1.00  0.00     0.680 A 
HETATM    4  N2  UNL     1      17.924  40.975  35.633  1.00  0.00    -0.194 N 
ATOM      5  H2  UNL     1      17.943  41.975  35.430  1.00  0.00     0.184 HD
HETATM    6  C4  UNL     1      18.738  40.501  36.589  1.00  0.00     0.055 A 
HETATM    7  C5  UNL     1      19.655  41.368  37.382  1.00  0.00     0.071 C 
HETATM    8  C6  UNL     1      18.695  39.151  36.847  1.00  0.00     0.128 A 
HETATM    9  C7  UNL     1      17.849  38.291  36.162  1.00  0.00     0.183 A 
HETATM   10  N3  UNL     1      17.065  38.866  35.214  1.00  0.00    -0.172 N 
ATOM     11  H3  UNL     1      16.429  38.269  34.685  1.00  0.00     0.186 HD
HETATM   12  N4  UNL     1      18.030  37.031  36.621  1.00  0.00    -0.159 N 
HETATM   13  C8  UNL     1      18.986  37.131  37.583  1.00  0.00     0.176 A 
HETATM   14  C9  UNL     1      19.716  36.369  38.472  1.00  0.00     0.097 A 
HETATM   15  C12 UNL     1      20.553  37.260  39.120  1.00  0.00     0.128 A 
HETATM   16  N9  UNL     1      20.325  38.497  38.636  1.00  0.00    -0.302 N 
ATOM     17  H9  UNL     1      20.794  39.355  38.927  1.00  0.00     0.186 HD
HETATM   18  N10 UNL     1      19.390  38.395  37.723  1.00  0.00    -0.231 N 
ENDROOT
BRANCH  14  19
HETATM   19  C10 UNL     1      19.564  34.918  38.737  1.00  0.00     0.259 C 
HETATM   20  O2  UNL     1      20.123  34.398  39.724  1.00  0.00    -0.267 OA
HETATM   21  N6  UNL     1      18.761  34.210  37.810  1.00  0.00    -0.307 N 
HETATM   22  C11 UNL     1      18.497  32.772  37.888  1.00  0.00     0.483 C 
ATOM     23  H6  UNL     1      18.342  34.733  37.040  1.00  0.00     0.166 HD
HETATM   24  N7  UNL     1      17.228  32.559  38.578  1.00  0.00    -0.033 N 
HETATM   25  N8  UNL     1      18.311  32.260  36.549  1.00  0.00    -0.033 N 
ATOM     26  H73 UNL     1      17.203  33.010  39.493  1.00  0.00     0.278 HD
ATOM     27  H72 UNL     1      16.460  33.072  38.146  1.00  0.00     0.278 HD
ATOM     28  H71 UNL     1      17.043  31.558  38.633  1.00  0.00     0.278 HD
ATOM     29  H83 UNL     1      17.586  32.763  36.037  1.00  0.00     0.278 HD
ATOM     30  H82 UNL     1      19.095  32.480  35.935  1.00  0.00     0.278 HD
ATOM     31  H81 UNL     1      18.126  31.258  36.603  1.00  0.00     0.278 HD
ENDBRANCH  14  19
BRANCH  12  32
HETATM   32  O1  UNL     1      17.366  35.934  36.142  1.00  0.00    -0.153 OA
BRANCH  32  33
HETATM   33  N5  UNL     1      17.838  35.119  35.173  1.00  0.00    -0.285 N 
ATOM     34  H52 UNL     1      18.166  34.198  35.466  1.00  0.00     0.186 HD
ATOM     35  H51 UNL     1      17.885  35.366  34.184  1.00  0.00     0.186 HD
ENDBRANCH  32  33
ENDBRANCH  12  32
BRANCH   1  36
HETATM   36  C2  UNL     1      16.248  41.990  33.609  1.00  0.00     0.133 C 
HETATM   37  C1  UNL     1      15.990  42.153  32.141  1.00  0.00     0.027 C 
ENDBRANCH   1  36
TORSDOF 4
ENDMDL
MODEL 3
REMARK VINA RESULT: -3.947301010      1.051      1.187
REMARK  4 active torsions:
REMARK  status: ('A' for Active; 'I' for Inactive)
REMARK    1  A    between atoms: C2_2  and  N1_3 
REMARK    2  A    between atoms: N4_14  and  O1_15 
REMARK    3  A    between atoms: O1_15  and  N5_16 
REMARK    4  A    between atoms: C9_20  and  C10_21 
REMARK       I    between atoms: C10_21  and  N6_23 
REMARK       I    between atoms: N6_23  and  C11_25 
REMARK       I    between atoms: C11_25  and  N7_26 
REMARK       I    between atoms: C11_25  and  N8_30 
ROOT
HETATM    1  N1  UNL     1      21.892  37.750  41.729  1.00  0.00    -0.226 N 
ATOM      2  H1  UNL     1      22.211  38.700  41.922  1.00  0.00     0.177 HD
HETATM    3  C3  UNL     1      21.142  37.536  40.711  1.00  0.00     0.680 A 
HETATM    4  N2  UNL     1      20.653  36.344  40.344  1.00  0.00    -0.194 N 
ATOM      5  H2  UNL     1      20.877  35.530  40.917  1.00  0.00     0.184 HD
HETATM    6  C4  UNL     1      19.882  36.169  39.258  1.00  0.00     0.055 A 
HETATM    7  C5  UNL     1      19.321  34.847  38.862  1.00  0.00     0.071 C 
HETATM    8  C6  UNL     1      19.593  37.280  38.502  1.00  0.00     0.128 A 
HETATM    9  C7  UNL     1      20.064  38.544  38.826  1.00  0.00     0.183 A 
HETATM   10  N3  UNL     1      20.836  38.616  39.941  1.00  0.00    -0.172 N 
ATOM     11  H3  UNL     1      21.205  39.527  40.216  1.00  0.00     0.186 HD
HETATM   12  N4  UNL     1      19.628  39.432  37.903  1.00  0.00    -0.159 N 
HETATM   13  C8  UNL     1      18.894  38.703  37.021  1.00  0.00     0.176 A 
HETATM   14  C9  UNL     1      18.165  38.823  35.855  1.00  0.00     0.097 A 
HETATM   15  C12 UNL     1      17.729  37.543  35.561  1.00  0.00     0.128 A 
HETATM   16  N9  UNL     1      18.178  36.703  36.513  1.00  0.00    -0.302 N 
ATOM     17  H9  UNL     1      18.012  35.698  36.559  1.00  0.00     0.186 HD
HETATM   18  N10 UNL     1      18.869  37.415  37.370  1.00  0.00    -0.231 N 
ENDROOT
BRANCH  14  19
HETATM   19  C10 UNL     1      17.843  40.075  35.130  1.00  0.00     0.259 C 
HETATM   20  O2  UNL     1      18.604  41.061  35.212  1.00  0.00    -0.267 OA
HETATM   21  N6  UNL     1      16.649  40.050  34.368  1.00  0.00    -0.307 N 
HETATM   22  C11 UNL     1      16.151  41.185  33.590  1.00  0.00     0.483 C 
ATOM     23  H6  UNL     1      16.103  39.188  34.361  1.00  0.00     0.166 HD
HETATM   24  N7  UNL     1      16.594  41.043  32.205  1.00  0.00    -0.033 N 
HETATM   25  N8  UNL     1      14.708  41.126  33.553  1.00  0.00    -0.033 N 
ATOM     26  H73 UNL     1      17.606  40.933  32.130  1.00  0.00     0.278 HD
ATOM     27  H72 UNL     1      16.324  40.147  31.801  1.00  0.00     0.278 HD
ATOM     28  H71 UNL     1      16.247  41.834  31.663  1.00  0.00     0.278 HD
ATOM     29  H83 UNL     1      14.363  40.232  33.202  1.00  0.00     0.278 HD
ATOM     30  H82 UNL     1      14.295  41.080  34.484  1.00  0.00     0.278 HD
ATOM     31  H81 UNL     1      14.361  41.917  33.010  1.00  0.00     0.278 HD
ENDBRANCH  14  19
BRANCH  12  32
HETATM   32  O1  UNL     1      19.932  40.766  37.914  1.00  0.00    -0.153 OA
BRANCH  32  33
HETATM   33  N5  UNL     1      21.061  41.296  37.395  1.00  0.00    -0.285 N 
ATOM     34  H52 UNL     1      21.627  40.685  36.806  1.00  0.00     0.186 HD
ATOM     35  H51 UNL     1      21.376  42.253  37.556  1.00  0.00     0.186 HD
ENDBRANCH  32  33
ENDBRANCH  12  32
BRANCH   1  36
HETATM   36  C2  UNL     1      22.295  36.676  42.608  1.00  0.00     0.133 C 
HETATM   37  C1  UNL     1      21.864  36.914  44.025  1.00  0.00     0.027 C 
ENDBRANCH   1  36
TORSDOF 4
ENDMDL
MODEL 4
REMARK VINA RESULT: -3.282998330      2.691      4.075
REMARK  4 active torsions:
REMARK  status: ('A' for Active; 'I' for Inactive)
REMARK    1  A    between atoms: C2_2  and  N1_3 
REMARK    2  A    between atoms: N4_14  and  O1_15 
REMARK    3  A    between atoms: O1_15  and  N5_16 
REMARK    4  A    between atoms: C9_20  and  C10_21 
REMARK       I    between atoms: C10_21  and  N6_23 
REMARK       I    between atoms: N6_23  and  C11_25 
REMARK       I    between atoms: C11_25  and  N7_26 
REMARK       I    between atoms: C11_25  and  N8_30 
ROOT
HETATM    1  N1  UNL     1      18.097  33.119  38.348  1.00  0.00    -0.226 N 
ATOM      2  H1  UNL     1      17.142  32.841  38.120  1.00  0.00     0.177 HD
HETATM    3  C3  UNL     1      18.482  34.314  38.084  1.00  0.00     0.680 A 
HETATM    4  N2  UNL     1      19.704  34.807  38.328  1.00  0.00    -0.194 N 
ATOM      5  H2  UNL     1      20.401  34.192  38.749  1.00  0.00     0.184 HD
HETATM    6  C4  UNL     1      20.054  36.072  38.046  1.00  0.00     0.055 A 
HETATM    7  C5  UNL     1      21.419  36.615  38.298  1.00  0.00     0.071 C 
HETATM    8  C6  UNL     1      19.099  36.882  37.479  1.00  0.00     0.128 A 
HETATM    9  C7  UNL     1      17.817  36.435  37.197  1.00  0.00     0.183 A 
HETATM   10  N3  UNL     1      17.560  35.141  37.521  1.00  0.00    -0.172 N 
ATOM     11  H3  UNL     1      16.629  34.770  37.332  1.00  0.00     0.186 HD
HETATM   12  N4  UNL     1      17.102  37.447  36.655  1.00  0.00    -0.159 N 
HETATM   13  C8  UNL     1      17.953  38.506  36.610  1.00  0.00     0.176 A 
HETATM   14  C9  UNL     1      18.014  39.836  36.245  1.00  0.00     0.097 A 
HETATM   15  C12 UNL     1      19.299  40.244  36.556  1.00  0.00     0.128 A 
HETATM   16  N9  UNL     1      19.970  39.200  37.080  1.00  0.00    -0.302 N 
ATOM     17  H9  UNL     1      20.938  39.203  37.400  1.00  0.00     0.186 HD
HETATM   18  N10 UNL     1      19.149  38.178  37.102  1.00  0.00    -0.231 N 
ENDROOT
BRANCH  14  19
HETATM   19  C10 UNL     1      16.953  40.626  35.577  1.00  0.00     0.259 C 
HETATM   20  O2  UNL     1      16.126  41.269  36.256  1.00  0.00    -0.267 OA
HETATM   21  N6  UNL     1      16.963  40.587  34.161  1.00  0.00    -0.307 N 
HETATM   22  C11 UNL     1      15.995  41.289  33.316  1.00  0.00     0.483 C 
ATOM     23  H6  UNL     1      17.689  40.037  33.702  1.00  0.00     0.166 HD
HETATM   24  N7  UNL     1      16.562  42.573  32.911  1.00  0.00    -0.033 N 
HETATM   25  N8  UNL     1      15.810  40.536  32.097  1.00  0.00    -0.033 N 
ATOM     26  H73 UNL     1      16.862  43.135  33.709  1.00  0.00     0.278 HD
ATOM     27  H72 UNL     1      17.470  42.472  32.460  1.00  0.00     0.278 HD
ATOM     28  H71 UNL     1      15.888  43.063  32.323  1.00  0.00     0.278 HD
ATOM     29  H83 UNL     1      16.690  40.354  31.614  1.00  0.00     0.278 HD
ATOM     30  H82 UNL     1      15.543  39.567  32.273  1.00  0.00     0.278 HD
ATOM     31  H81 UNL     1      15.136  41.025  31.508  1.00  0.00     0.278 HD
ENDBRANCH  14  19
BRANCH  12  32
HETATM   32  O1  UNL     1      15.789  37.349  36.281  1.00  0.00    -0.153 OA
BRANCH  32  33
HETATM   33  N5  UNL     1      14.858  38.303  36.503  1.00  0.00    -0.285 N 
ATOM     34  H52 UNL     1      13.985  38.001  36.935  1.00  0.00     0.186 HD
ATOM     35  H51 UNL     1      14.976  39.289  36.269  1.00  0.00     0.186 HD
ENDBRANCH  32  33
ENDBRANCH  12  32
BRANCH   1  36
HETATM   36  C2  UNL     1      18.986  32.158  38.961  1.00  0.00     0.133 C 
HETATM   37  C1  UNL     1      19.355  31.049  38.021  1.00  0.00     0.027 C 
ENDBRANCH   1  36
TORSDOF 4
ENDMDL
MODEL 5
REMARK VINA RESULT: -3.164818349      3.281      6.379
REMARK  4 active torsions:
REMARK  status: ('A' for Active; 'I' for Inactive)
REMARK    1  A    between atoms: C2_2  and  N1_3 
REMARK    2  A    between atoms: N4_14  and  O1_15 
REMARK    3  A    between atoms: O1_15  and  N5_16 
REMARK    4  A    between atoms: C9_20  and  C10_21 
REMARK       I    between atoms: C10_21  and  N6_23 
REMARK       I    between atoms: N6_23  and  C11_25 
REMARK       I    between atoms: C11_25  and  N7_26 
REMARK       I    between atoms: C11_25  and  N8_30 
ROOT
HETATM    1  N1  UNL     1      21.033  42.257  37.349  1.00  0.00    -0.226 N 
ATOM      2  H1  UNL     1      21.770  42.187  38.051  1.00  0.00     0.177 HD
HETATM    3  C3  UNL     1      20.325  41.222  37.078  1.00  0.00     0.680 A 
HETATM    4  N2  UNL     1      19.331  41.175  36.180  1.00  0.00    -0.194 N 
ATOM      5  H2  UNL     1      19.114  42.020  35.652  1.00  0.00     0.184 HD
HETATM    6  C4  UNL     1      18.608  40.069  35.944  1.00  0.00     0.055 A 
HETATM    7  C5  UNL     1      17.517  40.010  34.930  1.00  0.00     0.071 C 
HETATM    8  C6  UNL     1      18.920  38.942  36.667  1.00  0.00     0.128 A 
HETATM    9  C7  UNL     1      19.937  38.921  37.609  1.00  0.00     0.183 A 
HETATM   10  N3  UNL     1      20.609  40.089  37.777  1.00  0.00    -0.172 N 
ATOM     11  H3  UNL     1      21.365  40.119  38.461  1.00  0.00     0.186 HD
HETATM   12  N4  UNL     1      20.006  37.688  38.163  1.00  0.00    -0.159 N 
HETATM   13  C8  UNL     1      19.028  36.965  37.555  1.00  0.00     0.176 A 
HETATM   14  C9  UNL     1      18.448  35.713  37.548  1.00  0.00     0.097 A 
HETATM   15  C12 UNL     1      17.433  35.782  36.611  1.00  0.00     0.128 A 
HETATM   16  N9  UNL     1      17.416  37.022  36.083  1.00  0.00    -0.302 N 
ATOM     17  H9  UNL     1      16.776  37.364  35.366  1.00  0.00     0.186 HD
HETATM   18  N10 UNL     1      18.373  37.707  36.660  1.00  0.00    -0.231 N 
ENDROOT
BRANCH  14  19
HETATM   19  C10 UNL     1      18.885  34.524  38.318  1.00  0.00     0.259 C 
HETATM   20  O2  UNL     1      19.382  34.660  39.455  1.00  0.00    -0.267 OA
HETATM   21  N6  UNL     1      18.696  33.277  37.675  1.00  0.00    -0.307 N 
HETATM   22  C11 UNL     1      19.071  31.989  38.261  1.00  0.00     0.483 C 
ATOM     23  H6  UNL     1      18.272  33.275  36.747  1.00  0.00     0.166 HD
HETATM   24  N7  UNL     1      17.901  31.406  38.914  1.00  0.00    -0.033 N 
HETATM   25  N8  UNL     1      19.424  31.078  37.195  1.00  0.00    -0.033 N 
ATOM     26  H73 UNL     1      17.482  32.037  39.597  1.00  0.00     0.278 HD
ATOM     27  H72 UNL     1      17.103  31.328  38.284  1.00  0.00     0.278 HD
ATOM     28  H71 UNL     1      18.162  30.508  39.322  1.00  0.00     0.278 HD
ATOM     29  H83 UNL     1      18.686  30.989  36.497  1.00  0.00     0.278 HD
ATOM     30  H82 UNL     1      20.150  31.455  36.585  1.00  0.00     0.278 HD
ATOM     31  H81 UNL     1      19.685  30.181  37.604  1.00  0.00     0.278 HD
ENDBRANCH  14  19
BRANCH  12  32
HETATM   32  O1  UNL     1      20.889  37.333  39.146  1.00  0.00    -0.153 OA
BRANCH  32  33
HETATM   33  N5  UNL     1      21.703  36.256  39.088  1.00  0.00    -0.285 N 
ATOM     34  H52 UNL     1      22.595  36.380  38.607  1.00  0.00     0.186 HD
ATOM     35  H51 UNL     1      21.483  35.344  39.489  1.00  0.00     0.186 HD
ENDBRANCH  32  33
ENDBRANCH  12  32
BRANCH   1  36
HETATM   36  C2  UNL     1      20.811  43.519  36.681  1.00  0.00     0.133 C 
HETATM   37  C1  UNL     1      21.844  44.543  37.048  1.00  0.00     0.027 C 
ENDBRANCH   1  36
TORSDOF 4
ENDMDL
