MODEL 1
REMARK VINA RESULT: -8.720769600      0.000      0.000
REMARK  11 active torsions:
REMARK  status: ('A' for Active; 'I' for Inactive)
REMARK    1  A    between atoms: N1_1  and  N2_4 
REMARK    2  A    between atoms: N2_4  and  C1_6 
REMARK    3  A    between atoms: C3_12  and  O1_13 
REMARK    4  A    between atoms: C4_15  and  C5_16 
REMARK    5  A    between atoms: C5_16  and  O3_18 
REMARK    6  A    between atoms: O3_18  and  C6_19 
REMARK    7  A    between atoms: C6_19  and  C7_20 
REMARK    8  A    between atoms: C7_20  and  O4_21 
REMARK    9  A    between atoms: C8_25  and  C9_26 
REMARK       I    between atoms: C9_26  and  N6_28 
REMARK   10  A    between atoms: N6_28  and  N7_30 
REMARK   11  A    between atoms: N8_34  and  O6_35 
ROOT
HETATM    1  C1  UNL     1      18.319  34.441  37.320  1.00  0.00     0.738 A 
HETATM    2  N3  UNL     1      17.767  34.953  36.213  1.00  0.00    -0.128 N 
ATOM      3  H3  UNL     1      17.201  34.353  35.613  1.00  0.00     0.205 HD
HETATM    4  N4  UNL     1      17.941  36.215  35.882  1.00  0.00    -0.281 N 
ATOM      5  H4  UNL     1      17.516  36.596  35.037  1.00  0.00     0.187 HD
HETATM    6  C2  UNL     1      18.691  36.991  36.685  1.00  0.00     0.116 A 
HETATM    7  C3  UNL     1      18.832  38.306  36.333  1.00  0.00     0.129 A 
HETATM    8  C4  UNL     1      19.571  39.107  37.156  1.00  0.00     0.145 A 
HETATM    9  N5  UNL     1      20.133  38.637  38.250  1.00  0.00    -0.343 N 
ATOM     10  H5  UNL     1      20.673  39.284  38.823  1.00  0.00     0.166 HD
HETATM   11  C8  UNL     1      20.038  37.313  38.675  1.00  0.00     0.135 A 
HETATM   12  C10 UNL     1      19.291  36.502  37.854  1.00  0.00     0.144 A 
HETATM   13  N8  UNL     1      19.080  35.225  38.137  1.00  0.00    -0.045 N 
ENDROOT
BRANCH   8  14
HETATM   14  C5  UNL     1      19.730  40.533  36.787  1.00  0.00     0.313 C 
HETATM   15  O2  UNL     1      18.736  41.265  36.596  1.00  0.00    -0.258 OA
BRANCH  14  16
HETATM   16  O3  UNL     1      21.003  41.016  36.664  1.00  0.00    -0.314 OA
BRANCH  16  17
HETATM   17  C6  UNL     1      21.509  42.093  37.377  1.00  0.00     0.205 C 
BRANCH  17  18
HETATM   18  C7  UNL     1      21.813  43.289  36.517  1.00  0.00     0.191 C 
BRANCH  18  19
HETATM   19  O4  UNL     1      20.630  43.797  35.977  1.00  0.00    -0.399 OA
ATOM     20  H4  UNL     1      20.723  44.729  35.815  1.00  0.00     0.209 HD
ENDBRANCH  18  19
ENDBRANCH  17  18
ENDBRANCH  16  17
ENDBRANCH  14  16
ENDBRANCH   8  14
BRANCH   7  21
HETATM   21  O1  UNL     1      18.253  38.815  35.190  1.00  0.00    -0.356 OA
ATOM     22  H1  UNL     1      18.548  39.632  34.804  1.00  0.00     0.218 HD
ENDBRANCH   7  21
BRANCH  11  23
HETATM   23  C9  UNL     1      20.707  36.976  39.894  1.00  0.00     0.288 C 
HETATM   24  O5  UNL     1      21.551  36.128  40.089  1.00  0.00    -0.264 OA
HETATM   25  N6  UNL     1      20.338  37.741  41.072  1.00  0.00    -0.271 N 
ATOM     26  H6  UNL     1      19.633  38.470  40.972  1.00  0.00     0.189 HD
BRANCH  25  27
HETATM   27  N7  UNL     1      20.889  37.534  42.315  1.00  0.00    -0.342 N 
ATOM     28  H72 UNL     1      21.772  37.025  42.354  1.00  0.00     0.176 HD
ATOM     29  H71 UNL     1      20.462  37.860  43.182  1.00  0.00     0.176 HD
ENDBRANCH  25  27
ENDBRANCH  11  23
BRANCH  13  30
HETATM   30  O6  UNL     1      19.579  34.671  39.284  1.00  0.00    -0.269 OA
ATOM     31  H6  UNL     1      19.779  35.248  40.012  1.00  0.00     0.245 HD
ENDBRANCH  13  30
BRANCH   1  32
HETATM   32  N2  UNL     1      18.163  33.199  37.668  1.00  0.00    -0.135 N 
ATOM     33  H2  UNL     1      18.833  32.491  37.369  1.00  0.00     0.205 HD
BRANCH  32  34
HETATM   34  N1  UNL     1      17.072  32.848  38.452  1.00  0.00    -0.331 N 
ATOM     35  H12 UNL     1      16.187  33.338  38.327  1.00  0.00     0.177 HD
ATOM     36  H11 UNL     1      17.174  32.103  39.142  1.00  0.00     0.177 HD
ENDBRANCH  32  34
ENDBRANCH   1  32
TORSDOF 11
ENDMDL
MODEL 2
REMARK VINA RESULT: -8.129454840      1.810      2.698
REMARK  11 active torsions:
REMARK  status: ('A' for Active; 'I' for Inactive)
REMARK    1  A    between atoms: N1_1  and  N2_4 
REMARK    2  A    between atoms: N2_4  and  C1_6 
REMARK    3  A    between atoms: C3_12  and  O1_13 
REMARK    4  A    between atoms: C4_15  and  C5_16 
REMARK    5  A    between atoms: C5_16  and  O3_18 
REMARK    6  A    between atoms: O3_18  and  C6_19 
REMARK    7  A    between atoms: C6_19  and  C7_20 
REMARK    8  A    between atoms: C7_20  and  O4_21 
REMARK    9  A    between atoms: C8_25  and  C9_26 
REMARK       I    between atoms: C9_26  and  N6_28 
REMARK   10  A    between atoms: N6_28  and  N7_30 
REMARK   11  A    between atoms: N8_34  and  O6_35 
ROOT
HETATM    1  C1  UNL     1      18.674  34.228  37.200  1.00  0.00     0.738 A 
HETATM    2  N3  UNL     1      18.228  34.560  35.982  1.00  0.00    -0.128 N 
ATOM      3  H3  UNL     1      17.949  33.825  35.334  1.00  0.00     0.205 HD
HETATM    4  N4  UNL     1      18.142  35.819  35.605  1.00  0.00    -0.281 N 
ATOM      5  H4  UNL     1      17.801  36.063  34.676  1.00  0.00     0.187 HD
HETATM    6  C2  UNL     1      18.515  36.775  36.474  1.00  0.00     0.116 A 
HETATM    7  C3  UNL     1      18.390  38.076  36.068  1.00  0.00     0.129 A 
HETATM    8  C4  UNL     1      18.742  39.055  36.952  1.00  0.00     0.145 A 
HETATM    9  N5  UNL     1      19.190  38.764  38.156  1.00  0.00    -0.343 N 
ATOM     10  H5  UNL     1      19.437  39.538  38.772  1.00  0.00     0.166 HD
HETATM   11  C8  UNL     1      19.347  37.468  38.644  1.00  0.00     0.135 A 
HETATM   12  C10 UNL     1      18.990  36.478  37.759  1.00  0.00     0.144 A 
HETATM   13  N8  UNL     1      19.052  35.195  38.084  1.00  0.00    -0.045 N 
ENDROOT
BRANCH   8  14
HETATM   14  C5  UNL     1      18.610  40.467  36.525  1.00  0.00     0.313 C 
HETATM   15  O2  UNL     1      19.563  41.266  36.634  1.00  0.00    -0.258 OA
BRANCH  14  16
HETATM   16  O3  UNL     1      17.408  40.860  36.005  1.00  0.00    -0.314 OA
BRANCH  16  17
HETATM   17  C6  UNL     1      16.177  40.623  36.599  1.00  0.00     0.205 C 
BRANCH  17  18
HETATM   18  C7  UNL     1      15.014  40.847  35.672  1.00  0.00     0.191 C 
BRANCH  18  19
HETATM   19  O4  UNL     1      13.840  40.371  36.260  1.00  0.00    -0.399 OA
ATOM     20  H4  UNL     1      13.219  41.082  36.362  1.00  0.00     0.209 HD
ENDBRANCH  18  19
ENDBRANCH  17  18
ENDBRANCH  16  17
ENDBRANCH  14  16
ENDBRANCH   8  14
BRANCH   7  21
HETATM   21  O1  UNL     1      17.926  38.399  34.810  1.00  0.00    -0.356 OA
ATOM     22  H1  UNL     1      18.332  39.083  34.290  1.00  0.00     0.218 HD
ENDBRANCH   7  21
BRANCH  11  23
HETATM   23  C9  UNL     1      19.841  37.335  39.980  1.00  0.00     0.288 C 
HETATM   24  O5  UNL     1      19.218  37.205  41.013  1.00  0.00    -0.264 OA
HETATM   25  N6  UNL     1      21.283  37.359  40.146  1.00  0.00    -0.271 N 
ATOM     26  H6  UNL     1      21.863  37.465  39.314  1.00  0.00     0.189 HD
BRANCH  25  27
HETATM   27  N7  UNL     1      21.909  37.245  41.365  1.00  0.00    -0.342 N 
ATOM     28  H72 UNL     1      22.754  37.799  41.508  1.00  0.00     0.176 HD
ATOM     29  H71 UNL     1      21.573  36.644  42.117  1.00  0.00     0.176 HD
ENDBRANCH  25  27
ENDBRANCH  11  23
BRANCH  13  30
HETATM   30  O6  UNL     1      19.451  34.808  39.334  1.00  0.00    -0.269 OA
ATOM     31  H6  UNL     1      18.921  35.073  40.077  1.00  0.00     0.245 HD
ENDBRANCH  13  30
BRANCH   1  32
HETATM   32  N2  UNL     1      18.767  32.994  37.596  1.00  0.00    -0.135 N 
ATOM     33  H2  UNL     1      19.560  32.419  37.312  1.00  0.00     0.205 HD
BRANCH  32  34
HETATM   34  N1  UNL     1      17.774  32.466  38.410  1.00  0.00    -0.331 N 
ATOM     35  H12 UNL     1      17.488  32.976  39.246  1.00  0.00     0.177 HD
ATOM     36  H11 UNL     1      17.344  31.576  38.158  1.00  0.00     0.177 HD
ENDBRANCH  32  34
ENDBRANCH   1  32
TORSDOF 11
ENDMDL
MODEL 3
REMARK VINA RESULT: -7.945454812      2.405      4.835
REMARK  11 active torsions:
REMARK  status: ('A' for Active; 'I' for Inactive)
REMARK    1  A    between atoms: N1_1  and  N2_4 
REMARK    2  A    between atoms: N2_4  and  C1_6 
REMARK    3  A    between atoms: C3_12  and  O1_13 
REMARK    4  A    between atoms: C4_15  and  C5_16 
REMARK    5  A    between atoms: C5_16  and  O3_18 
REMARK    6  A    between atoms: O3_18  and  C6_19 
REMARK    7  A    between atoms: C6_19  and  C7_20 
REMARK    8  A    between atoms: C7_20  and  O4_21 
REMARK    9  A    between atoms: C8_25  and  C9_26 
REMARK       I    between atoms: C9_26  and  N6_28 
REMARK   10  A    between atoms: N6_28  and  N7_30 
REMARK   11  A    between atoms: N8_34  and  O6_35 
ROOT
HETATM    1  C1  UNL     1      20.804  37.454  39.408  1.00  0.00     0.738 A 
HETATM    2  N3  UNL     1      20.813  38.791  39.475  1.00  0.00    -0.128 N 
ATOM      3  H3  UNL     1      21.354  39.252  40.205  1.00  0.00     0.205 HD
HETATM    4  N4  UNL     1      20.135  39.523  38.616  1.00  0.00    -0.281 N 
ATOM      5  H4  UNL     1      20.147  40.542  38.674  1.00  0.00     0.187 HD
HETATM    6  C2  UNL     1      19.426  38.897  37.659  1.00  0.00     0.116 A 
HETATM    7  C3  UNL     1      18.753  39.682  36.762  1.00  0.00     0.129 A 
HETATM    8  C4  UNL     1      18.050  39.056  35.772  1.00  0.00     0.145 A 
HETATM    9  N5  UNL     1      18.016  37.743  35.680  1.00  0.00    -0.343 N 
ATOM     10  H5  UNL     1      17.474  37.334  34.919  1.00  0.00     0.166 HD
HETATM   11  C8  UNL     1      18.671  36.876  36.552  1.00  0.00     0.135 A 
HETATM   12  C10 UNL     1      19.384  37.501  37.548  1.00  0.00     0.144 A 
HETATM   13  N8  UNL     1      20.087  36.816  38.439  1.00  0.00    -0.045 N 
ENDROOT
BRANCH   8  14
HETATM   14  C5  UNL     1      17.319  39.894  34.795  1.00  0.00     0.313 C 
HETATM   15  O2  UNL     1      17.511  39.770  33.567  1.00  0.00    -0.258 OA
BRANCH  14  16
HETATM   16  O3  UNL     1      16.427  40.807  35.286  1.00  0.00    -0.314 OA
BRANCH  16  17
HETATM   17  C6  UNL     1      15.334  40.492  36.079  1.00  0.00     0.205 C 
BRANCH  17  18
HETATM   18  C7  UNL     1      14.077  41.212  35.675  1.00  0.00     0.191 C 
BRANCH  18  19
HETATM   19  O4  UNL     1      13.010  40.787  36.471  1.00  0.00    -0.399 OA
ATOM     20  H4  UNL     1      13.326  40.554  37.336  1.00  0.00     0.209 HD
ENDBRANCH  18  19
ENDBRANCH  17  18
ENDBRANCH  16  17
ENDBRANCH  14  16
ENDBRANCH   8  14
BRANCH   7  21
HETATM   21  O1  UNL     1      18.775  41.058  36.846  1.00  0.00    -0.356 OA
ATOM     22  H1  UNL     1      18.324  41.523  37.541  1.00  0.00     0.218 HD
ENDBRANCH   7  21
BRANCH  11  23
HETATM   23  C9  UNL     1      18.531  35.475  36.299  1.00  0.00     0.288 C 
HETATM   24  O5  UNL     1      19.083  34.793  35.462  1.00  0.00    -0.264 OA
HETATM   25  N6  UNL     1      17.603  34.750  37.150  1.00  0.00    -0.271 N 
ATOM     26  H6  UNL     1      17.108  35.269  37.874  1.00  0.00     0.189 HD
BRANCH  25  27
HETATM   27  N7  UNL     1      17.358  33.403  37.029  1.00  0.00    -0.342 N 
ATOM     28  H72 UNL     1      17.612  32.811  37.819  1.00  0.00     0.176 HD
ATOM     29  H71 UNL     1      16.939  32.978  36.201  1.00  0.00     0.176 HD
ENDBRANCH  25  27
ENDBRANCH  11  23
BRANCH  13  30
HETATM   30  O6  UNL     1      20.152  35.451  38.379  1.00  0.00    -0.269 OA
ATOM     31  H6  UNL     1      20.472  34.982  39.141  1.00  0.00     0.245 HD
ENDBRANCH  13  30
BRANCH   1  32
HETATM   32  N2  UNL     1      21.465  36.710  40.243  1.00  0.00    -0.135 N 
ATOM     33  H2  UNL     1      21.773  35.776  39.970  1.00  0.00     0.205 HD
BRANCH  32  34
HETATM   34  N1  UNL     1      21.748  37.200  41.510  1.00  0.00    -0.331 N 
ATOM     35  H12 UNL     1      22.290  38.059  41.606  1.00  0.00     0.177 HD
ATOM     36  H11 UNL     1      21.408  36.693  42.328  1.00  0.00     0.177 HD
ENDBRANCH  32  34
ENDBRANCH   1  32
TORSDOF 11
ENDMDL
MODEL 4
REMARK VINA RESULT: -7.394031523      2.178      4.733
REMARK  11 active torsions:
REMARK  status: ('A' for Active; 'I' for Inactive)
REMARK    1  A    between atoms: N1_1  and  N2_4 
REMARK    2  A    between atoms: N2_4  and  C1_6 
REMARK    3  A    between atoms: C3_12  and  O1_13 
REMARK    4  A    between atoms: C4_15  and  C5_16 
REMARK    5  A    between atoms: C5_16  and  O3_18 
REMARK    6  A    between atoms: O3_18  and  C6_19 
REMARK    7  A    between atoms: C6_19  and  C7_20 
REMARK    8  A    between atoms: C7_20  and  O4_21 
REMARK    9  A    between atoms: C8_25  and  C9_26 
REMARK       I    between atoms: C9_26  and  N6_28 
REMARK   10  A    between atoms: N6_28  and  N7_30 
REMARK   11  A    between atoms: N8_34  and  O6_35 
ROOT
HETATM    1  C1  UNL     1      20.722  37.440  39.753  1.00  0.00     0.738 A 
HETATM    2  N3  UNL     1      20.984  38.741  39.579  1.00  0.00    -0.128 N 
ATOM      3  H3  UNL     1      21.643  39.206  40.202  1.00  0.00     0.205 HD
HETATM    4  N4  UNL     1      20.406  39.432  38.619  1.00  0.00    -0.281 N 
ATOM      5  H4  UNL     1      20.611  40.423  38.493  1.00  0.00     0.187 HD
HETATM    6  C2  UNL     1      19.538  38.801  37.807  1.00  0.00     0.116 A 
HETATM    7  C3  UNL     1      18.973  39.535  36.800  1.00  0.00     0.129 A 
HETATM    8  C4  UNL     1      18.110  38.897  35.956  1.00  0.00     0.145 A 
HETATM    9  N5  UNL     1      17.826  37.619  36.101  1.00  0.00    -0.343 N 
ATOM     10  H5  UNL     1      17.174  37.198  35.440  1.00  0.00     0.166 HD
HETATM   11  C8  UNL     1      18.358  36.805  37.099  1.00  0.00     0.135 A 
HETATM   12  C10 UNL     1      19.230  37.441  37.950  1.00  0.00     0.144 A 
HETATM   13  N8  UNL     1      19.844  36.796  38.932  1.00  0.00    -0.045 N 
ENDROOT
BRANCH   8  14
HETATM   14  C5  UNL     1      17.493  39.681  34.861  1.00  0.00     0.313 C 
HETATM   15  O2  UNL     1      17.630  39.340  33.667  1.00  0.00    -0.258 OA
BRANCH  14  16
HETATM   16  O3  UNL     1      16.768  40.787  35.206  1.00  0.00    -0.314 OA
BRANCH  16  17
HETATM   17  C6  UNL     1      15.383  40.847  35.229  1.00  0.00     0.205 C 
BRANCH  17  18
HETATM   18  C7  UNL     1      14.793  41.483  34.001  1.00  0.00     0.191 C 
BRANCH  18  19
HETATM   19  O4  UNL     1      15.812  42.005  33.201  1.00  0.00    -0.399 OA
ATOM     20  H4  UNL     1      16.624  41.540  33.368  1.00  0.00     0.209 HD
ENDBRANCH  18  19
ENDBRANCH  17  18
ENDBRANCH  16  17
ENDBRANCH  14  16
ENDBRANCH   8  14
BRANCH   7  21
HETATM   21  O1  UNL     1      19.257  40.874  36.635  1.00  0.00    -0.356 OA
ATOM     22  H1  UNL     1      20.063  41.257  36.961  1.00  0.00     0.218 HD
ENDBRANCH   7  21
BRANCH  11  23
HETATM   23  C9  UNL     1      17.944  35.435  37.105  1.00  0.00     0.288 C 
HETATM   24  O5  UNL     1      17.433  34.798  38.002  1.00  0.00    -0.264 OA
HETATM   25  N6  UNL     1      18.157  34.686  35.880  1.00  0.00    -0.271 N 
ATOM     26  H6  UNL     1      18.584  35.167  35.088  1.00  0.00     0.189 HD
BRANCH  25  27
HETATM   27  N7  UNL     1      17.816  33.362  35.730  1.00  0.00    -0.342 N 
ATOM     28  H72 UNL     1      16.822  33.134  35.733  1.00  0.00     0.176 HD
ATOM     29  H71 UNL     1      18.500  32.613  35.619  1.00  0.00     0.176 HD
ENDBRANCH  25  27
ENDBRANCH  11  23
BRANCH  13  30
HETATM   30  O6  UNL     1      19.650  35.455  39.117  1.00  0.00    -0.269 OA
ATOM     31  H6  UNL     1      18.767  35.112  39.032  1.00  0.00     0.245 HD
ENDBRANCH  13  30
BRANCH   1  32
HETATM   32  N2  UNL     1      21.280  36.736  40.692  1.00  0.00    -0.135 N 
ATOM     33  H2  UNL     1      21.349  35.722  40.606  1.00  0.00     0.205 HD
BRANCH  32  34
HETATM   34  N1  UNL     1      21.781  37.380  41.815  1.00  0.00    -0.331 N 
ATOM     35  H12 UNL     1      22.414  36.880  42.439  1.00  0.00     0.177 HD
ATOM     36  H11 UNL     1      21.509  38.347  41.998  1.00  0.00     0.177 HD
ENDBRANCH  32  34
ENDBRANCH   1  32
TORSDOF 11
ENDMDL
MODEL 5
REMARK VINA RESULT: -7.298629237      2.637      7.203
REMARK  11 active torsions:
REMARK  status: ('A' for Active; 'I' for Inactive)
REMARK    1  A    between atoms: N1_1  and  N2_4 
REMARK    2  A    between atoms: N2_4  and  C1_6 
REMARK    3  A    between atoms: C3_12  and  O1_13 
REMARK    4  A    between atoms: C4_15  and  C5_16 
REMARK    5  A    between atoms: C5_16  and  O3_18 
REMARK    6  A    between atoms: O3_18  and  C6_19 
REMARK    7  A    between atoms: C6_19  and  C7_20 
REMARK    8  A    between atoms: C7_20  and  O4_21 
REMARK    9  A    between atoms: C8_25  and  C9_26 
REMARK       I    between atoms: C9_26  and  N6_28 
REMARK   10  A    between atoms: N6_28  and  N7_30 
REMARK   11  A    between atoms: N8_34  and  O6_35 
ROOT
HETATM    1  C1  UNL     1      20.416  41.078  37.509  1.00  0.00     0.738 A 
HETATM    2  N3  UNL     1      21.070  40.135  38.198  1.00  0.00    -0.128 N 
ATOM      3  H3  UNL     1      21.875  40.400  38.766  1.00  0.00     0.205 HD
HETATM    4  N4  UNL     1      20.696  38.874  38.157  1.00  0.00    -0.281 N 
ATOM      5  H4  UNL     1      21.201  38.162  38.686  1.00  0.00     0.187 HD
HETATM    6  C2  UNL     1      19.633  38.545  37.402  1.00  0.00     0.116 A 
HETATM    7  C3  UNL     1      19.248  37.232  37.398  1.00  0.00     0.129 A 
HETATM    8  C4  UNL     1      18.154  36.892  36.654  1.00  0.00     0.145 A 
HETATM    9  N5  UNL     1      17.490  37.792  35.959  1.00  0.00    -0.343 N 
ATOM     10  H5  UNL     1      16.682  37.478  35.423  1.00  0.00     0.166 HD
HETATM   11  C8  UNL     1      17.818  39.146  35.909  1.00  0.00     0.135 A 
HETATM   12  C10 UNL     1      18.916  39.494  36.660  1.00  0.00     0.144 A 
HETATM   13  N8  UNL     1      19.337  40.748  36.742  1.00  0.00    -0.045 N 
ENDROOT
BRANCH   8  14
HETATM   14  C5  UNL     1      17.727  35.474  36.644  1.00  0.00     0.313 C 
HETATM   15  O2  UNL     1      17.517  34.871  35.570  1.00  0.00    -0.258 OA
BRANCH  14  16
HETATM   16  O3  UNL     1      17.571  34.852  37.851  1.00  0.00    -0.314 OA
BRANCH  16  17
HETATM   17  C6  UNL     1      17.478  33.479  38.024  1.00  0.00     0.205 C 
BRANCH  17  18
HETATM   18  C7  UNL     1      18.761  32.847  38.487  1.00  0.00     0.191 C 
BRANCH  18  19
HETATM   19  O4  UNL     1      19.468  33.743  39.292  1.00  0.00    -0.399 OA
ATOM     20  H4  UNL     1      20.390  33.726  39.063  1.00  0.00     0.209 HD
ENDBRANCH  18  19
ENDBRANCH  17  18
ENDBRANCH  16  17
ENDBRANCH  14  16
ENDBRANCH   8  14
BRANCH   7  21
HETATM   21  O1  UNL     1      19.933  36.275  38.117  1.00  0.00    -0.356 OA
ATOM     22  H1  UNL     1      20.860  36.364  38.307  1.00  0.00     0.218 HD
ENDBRANCH   7  21
BRANCH  11  23
HETATM   23  C9  UNL     1      16.982  39.985  35.108  1.00  0.00     0.288 C 
HETATM   24  O5  UNL     1      15.976  40.584  35.425  1.00  0.00    -0.264 OA
HETATM   25  N6  UNL     1      17.373  40.156  33.719  1.00  0.00    -0.271 N 
ATOM     26  H6  UNL     1      18.211  39.678  33.392  1.00  0.00     0.189 HD
BRANCH  25  27
HETATM   27  N7  UNL     1      16.672  40.928  32.823  1.00  0.00    -0.342 N 
ATOM     28  H72 UNL     1      15.687  41.099  33.026  1.00  0.00     0.176 HD
ATOM     29  H71 UNL     1      17.085  41.331  31.982  1.00  0.00     0.176 HD
ENDBRANCH  25  27
ENDBRANCH  11  23
BRANCH  13  30
HETATM   30  O6  UNL     1      18.669  41.754  36.098  1.00  0.00    -0.269 OA
ATOM     31  H6  UNL     1      18.087  42.305  36.608  1.00  0.00     0.245 HD
ENDBRANCH  13  30
BRANCH   1  32
HETATM   32  N2  UNL     1      20.765  42.329  37.533  1.00  0.00    -0.135 N 
ATOM     33  H2  UNL     1      20.725  42.859  38.404  1.00  0.00     0.205 HD
BRANCH  32  34
HETATM   34  N1  UNL     1      21.194  42.937  36.361  1.00  0.00    -0.331 N 
ATOM     35  H12 UNL     1      22.172  43.209  36.266  1.00  0.00     0.177 HD
ATOM     36  H11 UNL     1      20.522  43.102  35.611  1.00  0.00     0.177 HD
ENDBRANCH  32  34
ENDBRANCH   1  32
TORSDOF 11
ENDMDL
