MODEL 1
REMARK VINA RESULT: -8.811602467      0.000      0.000
REMARK  7 active torsions:
REMARK  status: ('A' for Active; 'I' for Inactive)
REMARK    1  A    between atoms: O1_2  and  N1_3 
REMARK    2  A    between atoms: C2_5  and  N2_6 
REMARK    3  A    between atoms: C2_5  and  C5_17 
REMARK       I    between atoms: C3_8  and  N3_9 
REMARK       I    between atoms: C3_8  and  N4_13 
REMARK    4  A    between atoms: N3_9  and  O2_11 
REMARK    5  A    between atoms: N8_22  and  C6_23 
REMARK    6  A    between atoms: C7_26  and  N10_27 
REMARK    7  A    between atoms: C8_32  and  N12_33 
ROOT
HETATM    1  N2  UNL     1      20.252  38.011  39.637  1.00  0.00    -0.169 N 
ATOM      2  H2  UNL     1      20.194  38.864  40.193  1.00  0.00     0.186 HD
HETATM    3  C3  UNL     1      21.215  37.190  39.849  1.00  0.00     0.712 C 
HETATM    4  N3  UNL     1      21.374  35.985  39.128  1.00  0.00    -0.098 N 
ATOM      5  H3  UNL     1      21.169  35.089  39.572  1.00  0.00     0.213 HD
HETATM    6  N4  UNL     1      22.166  37.503  40.851  1.00  0.00    -0.124 N 
ATOM      7  H4  UNL     1      23.166  37.376  40.695  1.00  0.00     0.197 HD
HETATM    8  C4  UNL     1      21.670  37.995  42.068  1.00  0.00     0.196 C 
HETATM    9  N5  UNL     1      21.267  38.407  43.084  1.00  0.00    -0.171 NA
ENDROOT
BRANCH   1  10
HETATM   10  C2  UNL     1      19.260  37.758  38.643  1.00  0.00     0.188 C 
HETATM   11  N1  UNL     1      18.850  36.541  38.535  1.00  0.00    -0.247 N 
ATOM     12  H1  UNL     1      19.261  35.852  39.165  1.00  0.00     0.196 HD
BRANCH  11  13
HETATM   13  O1  UNL     1      17.919  36.103  37.657  1.00  0.00    -0.284 OA
HETATM   14  C1  UNL     1      18.295  35.225  36.589  1.00  0.00     0.237 C 
ENDBRANCH  11  13
BRANCH  10  15
HETATM   15  C5  UNL     1      18.751  38.819  37.807  1.00  0.00     0.185 A 
HETATM   16  N6  UNL     1      19.295  40.060  37.756  1.00  0.00    -0.265 N 
HETATM   17  N7  UNL     1      18.597  40.776  36.902  1.00  0.00    -0.204 N 
ATOM     18  H6  UNL     1      20.104  40.381  38.287  1.00  0.00     0.190 HD
HETATM   19  N8  UNL     1      17.612  40.043  36.389  1.00  0.00    -0.003 N 
ATOM     20  H7  UNL     1      18.784  41.751  36.667  1.00  0.00     0.211 HD
HETATM   21  N14 UNL     1      17.728  38.855  36.958  1.00  0.00    -0.243 N 
ATOM     22  H14 UNL     1      17.111  38.065  36.768  1.00  0.00     0.191 HD
BRANCH  19  23
HETATM   23  C6  UNL     1      16.688  40.530  35.443  1.00  0.00     0.749 A 
HETATM   24  N9  UNL     1      16.988  40.739  34.146  1.00  0.00    -0.018 N 
HETATM   25  C7  UNL     1      16.116  41.200  33.243  1.00  0.00     0.705 A 
ATOM     26  H9  UNL     1      17.938  40.533  33.835  1.00  0.00     0.203 HD
HETATM   27  N11 UNL     1      14.866  41.477  33.633  1.00  0.00    -0.022 N 
HETATM   28  C8  UNL     1      14.524  41.282  34.921  1.00  0.00     0.705 A 
ATOM     29  H11 UNL     1      14.181  41.831  32.964  1.00  0.00     0.203 HD
HETATM   30  N13 UNL     1      15.412  40.817  35.820  1.00  0.00    -0.018 N 
ATOM     31  H13 UNL     1      15.127  40.678  36.789  1.00  0.00     0.203 HD
BRANCH  25  32
HETATM   32  N10 UNL     1      16.480  41.379  31.998  1.00  0.00    -0.234 N 
ATOM     33 2H10 UNL     1      17.155  40.754  31.560  1.00  0.00     0.174 HD
ATOM     34 1H10 UNL     1      16.091  42.146  31.450  1.00  0.00     0.174 HD
ENDBRANCH  25  32
BRANCH  28  35
HETATM   35  N12 UNL     1      13.324  41.554  35.263  1.00  0.00    -0.234 N 
ATOM     36 2H12 UNL     1      12.564  41.513  34.585  1.00  0.00     0.174 HD
ATOM     37 1H12 UNL     1      13.157  41.812  36.235  1.00  0.00     0.174 HD
ENDBRANCH  28  35
ENDBRANCH  19  23
ENDBRANCH  10  15
ENDBRANCH   1  10
BRANCH   4  38
HETATM   38  O2  UNL     1      21.772  36.024  37.934  1.00  0.00    -0.276 OA
ATOM     39  H2  UNL     1      21.718  35.243  37.396  1.00  0.00     0.245 HD
ENDBRANCH   4  38
TORSDOF 7
ENDMDL
MODEL 2
REMARK VINA RESULT: -8.758950165      0.075      1.616
REMARK  7 active torsions:
REMARK  status: ('A' for Active; 'I' for Inactive)
REMARK    1  A    between atoms: O1_2  and  N1_3 
REMARK    2  A    between atoms: C2_5  and  N2_6 
REMARK    3  A    between atoms: C2_5  and  C5_17 
REMARK       I    between atoms: C3_8  and  N3_9 
REMARK       I    between atoms: C3_8  and  N4_13 
REMARK    4  A    between atoms: N3_9  and  O2_11 
REMARK    5  A    between atoms: N8_22  and  C6_23 
REMARK    6  A    between atoms: C7_26  and  N10_27 
REMARK    7  A    between atoms: C8_32  and  N12_33 
ROOT
HETATM    1  N2  UNL     1      20.251  38.032  39.634  1.00  0.00    -0.169 N 
ATOM      2  H2  UNL     1      20.198  38.890  40.183  1.00  0.00     0.186 HD
HETATM    3  C3  UNL     1      21.218  37.215  39.839  1.00  0.00     0.712 C 
HETATM    4  N3  UNL     1      21.371  36.005  39.126  1.00  0.00    -0.098 N 
ATOM      5  H3  UNL     1      21.173  35.112  39.579  1.00  0.00     0.213 HD
HETATM    6  N4  UNL     1      22.181  37.538  40.827  1.00  0.00    -0.124 N 
ATOM      7  H4  UNL     1      23.180  37.412  40.659  1.00  0.00     0.197 HD
HETATM    8  C4  UNL     1      21.700  38.039  42.046  1.00  0.00     0.196 C 
HETATM    9  N5  UNL     1      21.309  38.458  43.064  1.00  0.00    -0.171 NA
ENDROOT
BRANCH   1  10
HETATM   10  C2  UNL     1      19.247  37.770  38.653  1.00  0.00     0.188 C 
HETATM   11  N1  UNL     1      18.850  36.548  38.550  1.00  0.00    -0.247 N 
ATOM     12  H1  UNL     1      19.279  35.863  39.171  1.00  0.00     0.196 HD
BRANCH  11  13
HETATM   13  O1  UNL     1      17.911  36.101  37.685  1.00  0.00    -0.284 OA
HETATM   14  C1  UNL     1      18.280  35.221  36.616  1.00  0.00     0.237 C 
ENDBRANCH  11  13
BRANCH  10  15
HETATM   15  C5  UNL     1      18.713  38.827  37.827  1.00  0.00     0.185 A 
HETATM   16  N6  UNL     1      19.204  40.090  37.816  1.00  0.00    -0.265 N 
HETATM   17  N7  UNL     1      18.496  40.795  36.961  1.00  0.00    -0.204 N 
ATOM     18  H6  UNL     1      19.986  40.434  38.374  1.00  0.00     0.190 HD
HETATM   19  N8  UNL     1      17.556  40.032  36.409  1.00  0.00    -0.003 N 
ATOM     20  H7  UNL     1      18.647  41.782  36.751  1.00  0.00     0.211 HD
HETATM   21  N14 UNL     1      17.710  38.837  36.955  1.00  0.00    -0.243 N 
ATOM     22  H14 UNL     1      17.132  38.026  36.734  1.00  0.00     0.191 HD
BRANCH  19  23
HETATM   23  C6  UNL     1      16.635  40.500  35.450  1.00  0.00     0.749 A 
HETATM   24  N9  UNL     1      15.347  40.779  35.726  1.00  0.00    -0.018 N 
HETATM   25  C7  UNL     1      14.468  41.224  34.820  1.00  0.00     0.705 A 
ATOM     26  H9  UNL     1      15.021  40.644  36.684  1.00  0.00     0.203 HD
HETATM   27  N11 UNL     1      14.876  41.406  33.559  1.00  0.00    -0.022 N 
HETATM   28  C8  UNL     1      16.156  41.138  33.240  1.00  0.00     0.705 A 
ATOM     29  H11 UNL     1      14.225  41.743  32.848  1.00  0.00     0.203 HD
HETATM   30  N13 UNL     1      17.030  40.692  34.162  1.00  0.00    -0.018 N 
ATOM     31  H13 UNL     1      17.994  40.498  33.893  1.00  0.00     0.203 HD
BRANCH  25  32
HETATM   32  N10 UNL     1      13.229  41.475  35.163  1.00  0.00    -0.234 N 
ATOM     33 2H10 UNL     1      12.940  41.423  36.139  1.00  0.00     0.174 HD
ATOM     34 1H10 UNL     1      12.538  41.727  34.457  1.00  0.00     0.174 HD
ENDBRANCH  25  32
BRANCH  28  35
HETATM   35  N12 UNL     1      16.516  41.324  32.029  1.00  0.00    -0.234 N 
ATOM     36 2H12 UNL     1      16.298  40.638  31.307  1.00  0.00     0.174 HD
ATOM     37 1H12 UNL     1      17.029  42.178  31.813  1.00  0.00     0.174 HD
ENDBRANCH  28  35
ENDBRANCH  19  23
ENDBRANCH  10  15
ENDBRANCH   1  10
BRANCH   4  38
HETATM   38  O2  UNL     1      21.753  36.035  37.927  1.00  0.00    -0.276 OA
ATOM     39  H2  UNL     1      21.519  35.325  37.341  1.00  0.00     0.245 HD
ENDBRANCH   4  38
TORSDOF 7
ENDMDL
MODEL 3
REMARK VINA RESULT: -8.676983741      1.163      1.994
REMARK  7 active torsions:
REMARK  status: ('A' for Active; 'I' for Inactive)
REMARK    1  A    between atoms: O1_2  and  N1_3 
REMARK    2  A    between atoms: C2_5  and  N2_6 
REMARK    3  A    between atoms: C2_5  and  C5_17 
REMARK       I    between atoms: C3_8  and  N3_9 
REMARK       I    between atoms: C3_8  and  N4_13 
REMARK    4  A    between atoms: N3_9  and  O2_11 
REMARK    5  A    between atoms: N8_22  and  C6_23 
REMARK    6  A    between atoms: C7_26  and  N10_27 
REMARK    7  A    between atoms: C8_32  and  N12_33 
ROOT
HETATM    1  N2  UNL     1      20.660  37.462  38.576  1.00  0.00    -0.169 N 
ATOM      2  H2  UNL     1      21.351  38.211  38.599  1.00  0.00     0.186 HD
HETATM    3  C3  UNL     1      20.619  36.618  39.542  1.00  0.00     0.712 C 
HETATM    4  N3  UNL     1      19.695  35.549  39.594  1.00  0.00    -0.098 N 
ATOM      5  H3  UNL     1      18.908  35.582  40.243  1.00  0.00     0.213 HD
HETATM    6  N4  UNL     1      21.542  36.759  40.606  1.00  0.00    -0.124 N 
ATOM      7  H4  UNL     1      22.035  35.955  40.995  1.00  0.00     0.197 HD
HETATM    8  C4  UNL     1      21.749  38.055  41.102  1.00  0.00     0.196 C 
HETATM    9  N5  UNL     1      21.930  39.131  41.520  1.00  0.00    -0.171 NA
ENDROOT
BRANCH   1  10
HETATM   10  C2  UNL     1      19.759  37.378  37.472  1.00  0.00     0.188 C 
HETATM   11  N1  UNL     1      19.791  36.287  36.786  1.00  0.00    -0.247 N 
ATOM     12  H1  UNL     1      20.452  35.569  37.080  1.00  0.00     0.196 HD
BRANCH  11  13
HETATM   13  O1  UNL     1      19.020  36.017  35.708  1.00  0.00    -0.284 OA
HETATM   14  C1  UNL     1      18.072  34.944  35.752  1.00  0.00     0.237 C 
ENDBRANCH  11  13
BRANCH  10  15
HETATM   15  C5  UNL     1      18.866  38.465  37.150  1.00  0.00     0.185 A 
HETATM   16  N6  UNL     1      18.656  39.529  37.963  1.00  0.00    -0.265 N 
HETATM   17  N7  UNL     1      17.793  40.328  37.375  1.00  0.00    -0.204 N 
ATOM     18  H6  UNL     1      19.092  39.683  38.872  1.00  0.00     0.190 HD
HETATM   19  N8  UNL     1      17.430  39.821  36.199  1.00  0.00    -0.003 N 
ATOM     20  H7  UNL     1      17.453  41.207  37.763  1.00  0.00     0.211 HD
HETATM   21  N14 UNL     1      18.098  38.685  36.087  1.00  0.00    -0.243 N 
ATOM     22  H14 UNL     1      18.033  38.057  35.285  1.00  0.00     0.191 HD
BRANCH  19  23
HETATM   23  C6  UNL     1      16.514  40.446  35.330  1.00  0.00     0.749 A 
HETATM   24  N9  UNL     1      15.236  40.716  35.659  1.00  0.00    -0.018 N 
HETATM   25  C7  UNL     1      14.363  41.309  34.838  1.00  0.00     0.705 A 
ATOM     26  H9  UNL     1      14.916  40.452  36.591  1.00  0.00     0.203 HD
HETATM   27  N11 UNL     1      14.765  41.661  33.611  1.00  0.00    -0.022 N 
HETATM   28  C8  UNL     1      16.034  41.410  33.241  1.00  0.00     0.705 A 
ATOM     29  H11 UNL     1      14.117  42.114  32.965  1.00  0.00     0.203 HD
HETATM   30  N13 UNL     1      16.904  40.812  34.078  1.00  0.00    -0.018 N 
ATOM     31  H13 UNL     1      17.860  40.634  33.772  1.00  0.00     0.203 HD
BRANCH  25  32
HETATM   32  N10 UNL     1      13.134  41.540  35.228  1.00  0.00    -0.234 N 
ATOM     33 2H10 UNL     1      12.819  41.245  36.152  1.00  0.00     0.174 HD
ATOM     34 1H10 UNL     1      12.477  42.019  34.614  1.00  0.00     0.174 HD
ENDBRANCH  25  32
BRANCH  28  35
HETATM   35  N12 UNL     1      16.389  41.759  32.065  1.00  0.00    -0.234 N 
ATOM     36 2H12 UNL     1      16.711  42.707  31.875  1.00  0.00     0.174 HD
ATOM     37 1H12 UNL     1      16.337  41.057  31.327  1.00  0.00     0.174 HD
ENDBRANCH  28  35
ENDBRANCH  19  23
ENDBRANCH  10  15
ENDBRANCH   1  10
BRANCH   4  38
HETATM   38  O2  UNL     1      19.849  34.557  38.835  1.00  0.00    -0.276 OA
ATOM     39  H2  UNL     1      19.558  34.608  37.932  1.00  0.00     0.245 HD
ENDBRANCH   4  38
TORSDOF 7
ENDMDL
MODEL 4
REMARK VINA RESULT: -8.595290105      1.516      3.229
REMARK  7 active torsions:
REMARK  status: ('A' for Active; 'I' for Inactive)
REMARK    1  A    between atoms: O1_2  and  N1_3 
REMARK    2  A    between atoms: C2_5  and  N2_6 
REMARK    3  A    between atoms: C2_5  and  C5_17 
REMARK       I    between atoms: C3_8  and  N3_9 
REMARK       I    between atoms: C3_8  and  N4_13 
REMARK    4  A    between atoms: N3_9  and  O2_11 
REMARK    5  A    between atoms: N8_22  and  C6_23 
REMARK    6  A    between atoms: C7_26  and  N10_27 
REMARK    7  A    between atoms: C8_32  and  N12_33 
ROOT
HETATM    1  N2  UNL     1      18.952  36.155  39.004  1.00  0.00    -0.169 N 
ATOM      2  H2  UNL     1      17.995  35.951  39.290  1.00  0.00     0.186 HD
HETATM    3  C3  UNL     1      19.685  35.207  38.545  1.00  0.00     0.712 C 
HETATM    4  N3  UNL     1      21.021  35.398  38.124  1.00  0.00    -0.098 N 
ATOM      5  H3  UNL     1      21.252  35.392  37.131  1.00  0.00     0.213 HD
HETATM    6  N4  UNL     1      19.133  33.905  38.456  1.00  0.00    -0.124 N 
ATOM      7  H4  UNL     1      19.660  33.082  38.747  1.00  0.00     0.197 HD
HETATM    8  C4  UNL     1      17.828  33.800  37.951  1.00  0.00     0.196 C 
HETATM    9  N5  UNL     1      16.742  33.703  37.533  1.00  0.00    -0.171 NA
ENDROOT
BRANCH   1  10
HETATM   10  C2  UNL     1      19.445  37.490  39.122  1.00  0.00     0.188 C 
HETATM   11  N1  UNL     1      20.305  37.705  40.057  1.00  0.00    -0.247 N 
ATOM     12  H1  UNL     1      20.569  36.912  40.641  1.00  0.00     0.196 HD
BRANCH  11  13
HETATM   13  O1  UNL     1      20.886  38.896  40.328  1.00  0.00    -0.284 OA
HETATM   14  C1  UNL     1      22.032  38.959  41.185  1.00  0.00     0.237 C 
ENDBRANCH  11  13
BRANCH  10  15
HETATM   15  C5  UNL     1      18.996  38.535  38.233  1.00  0.00     0.185 A 
HETATM   16  N6  UNL     1      19.670  39.696  38.040  1.00  0.00    -0.265 N 
HETATM   17  N7  UNL     1      18.994  40.421  37.176  1.00  0.00    -0.204 N 
ATOM     18  H6  UNL     1      20.547  39.961  38.488  1.00  0.00     0.190 HD
HETATM   19  N8  UNL     1      17.897  39.770  36.794  1.00  0.00    -0.003 N 
ATOM     20  H7  UNL     1      19.270  41.346  36.846  1.00  0.00     0.211 HD
HETATM   21  N14 UNL     1      17.923  38.624  37.453  1.00  0.00    -0.243 N 
ATOM     22  H14 UNL     1      17.209  37.899  37.374  1.00  0.00     0.191 HD
BRANCH  19  23
HETATM   23  C6  UNL     1      16.965  40.286  35.872  1.00  0.00     0.749 A 
HETATM   24  N9  UNL     1      17.220  40.439  34.558  1.00  0.00    -0.018 N 
HETATM   25  C7  UNL     1      16.339  40.928  33.678  1.00  0.00     0.705 A 
ATOM     26  H9  UNL     1      18.141  40.165  34.214  1.00  0.00     0.203 HD
HETATM   27  N11 UNL     1      15.127  41.294  34.112  1.00  0.00    -0.022 N 
HETATM   28  C8  UNL     1      14.831  41.158  35.418  1.00  0.00     0.705 A 
ATOM     29  H11 UNL     1      14.437  41.672  33.461  1.00  0.00     0.203 HD
HETATM   30  N13 UNL     1      15.727  40.664  36.293  1.00  0.00    -0.018 N 
ATOM     31  H13 UNL     1      15.476  40.571  37.277  1.00  0.00     0.203 HD
BRANCH  25  32
HETATM   32  N10 UNL     1      16.659  41.049  32.414  1.00  0.00    -0.234 N 
ATOM     33 2H10 UNL     1      17.591  41.359  32.142  1.00  0.00     0.174 HD
ATOM     34 1H10 UNL     1      15.979  40.831  31.685  1.00  0.00     0.174 HD
ENDBRANCH  25  32
BRANCH  28  35
HETATM   35  N12 UNL     1      13.666  41.514  35.801  1.00  0.00    -0.234 N 
ATOM     36 2H12 UNL     1      12.960  41.809  35.128  1.00  0.00     0.174 HD
ATOM     37 1H12 UNL     1      13.470  41.493  36.802  1.00  0.00     0.174 HD
ENDBRANCH  28  35
ENDBRANCH  19  23
ENDBRANCH  10  15
ENDBRANCH   1  10
BRANCH   4  38
HETATM   38  O2  UNL     1      21.923  35.576  38.984  1.00  0.00    -0.276 OA
ATOM     39  H2  UNL     1      22.383  36.406  39.016  1.00  0.00     0.245 HD
ENDBRANCH   4  38
TORSDOF 7
ENDMDL
MODEL 5
REMARK VINA RESULT: -8.582138685      1.524      3.606
REMARK  7 active torsions:
REMARK  status: ('A' for Active; 'I' for Inactive)
REMARK    1  A    between atoms: O1_2  and  N1_3 
REMARK    2  A    between atoms: C2_5  and  N2_6 
REMARK    3  A    between atoms: C2_5  and  C5_17 
REMARK       I    between atoms: C3_8  and  N3_9 
REMARK       I    between atoms: C3_8  and  N4_13 
REMARK    4  A    between atoms: N3_9  and  O2_11 
REMARK    5  A    between atoms: N8_22  and  C6_23 
REMARK    6  A    between atoms: C7_26  and  N10_27 
REMARK    7  A    between atoms: C8_32  and  N12_33 
ROOT
HETATM    1  N2  UNL     1      18.957  36.156  39.035  1.00  0.00    -0.169 N 
ATOM      2  H2  UNL     1      18.004  35.957  39.336  1.00  0.00     0.186 HD
HETATM    3  C3  UNL     1      19.680  35.203  38.572  1.00  0.00     0.712 C 
HETATM    4  N3  UNL     1      21.011  35.387  38.131  1.00  0.00    -0.098 N 
ATOM      5  H3  UNL     1      21.228  35.375  37.134  1.00  0.00     0.213 HD
HETATM    6  N4  UNL     1      19.123  33.903  38.497  1.00  0.00    -0.124 N 
ATOM      7  H4  UNL     1      19.651  33.079  38.785  1.00  0.00     0.197 HD
HETATM    8  C4  UNL     1      17.811  33.799  38.011  1.00  0.00     0.196 C 
HETATM    9  N5  UNL     1      16.718  33.703  37.608  1.00  0.00    -0.171 NA
ENDROOT
BRANCH   1  10
HETATM   10  C2  UNL     1      19.456  37.490  39.139  1.00  0.00     0.188 C 
HETATM   11  N1  UNL     1      20.324  37.709  40.066  1.00  0.00    -0.247 N 
ATOM     12  H1  UNL     1      20.589  36.919  40.654  1.00  0.00     0.196 HD
BRANCH  11  13
HETATM   13  O1  UNL     1      20.911  38.900  40.324  1.00  0.00    -0.284 OA
HETATM   14  C1  UNL     1      22.053  38.967  41.186  1.00  0.00     0.237 C 
ENDBRANCH  11  13
BRANCH  10  15
HETATM   15  C5  UNL     1      19.004  38.530  38.245  1.00  0.00     0.185 A 
HETATM   16  N6  UNL     1      19.691  39.677  38.023  1.00  0.00    -0.265 N 
HETATM   17  N7  UNL     1      19.008  40.401  37.163  1.00  0.00    -0.204 N 
ATOM     18  H6  UNL     1      20.582  39.935  38.448  1.00  0.00     0.190 HD
HETATM   19  N8  UNL     1      17.894  39.762  36.813  1.00  0.00    -0.003 N 
ATOM     20  H7  UNL     1      19.291  41.317  36.815  1.00  0.00     0.211 HD
HETATM   21  N14 UNL     1      17.917  38.624  37.487  1.00  0.00    -0.243 N 
ATOM     22  H14 UNL     1      17.191  37.910  37.432  1.00  0.00     0.191 HD
BRANCH  19  23
HETATM   23  C6  UNL     1      16.951  40.280  35.903  1.00  0.00     0.749 A 
HETATM   24  N9  UNL     1      15.711  40.673  36.255  1.00  0.00    -0.018 N 
HETATM   25  C7  UNL     1      14.812  41.166  35.396  1.00  0.00     0.705 A 
ATOM     26  H9  UNL     1      15.443  40.589  37.236  1.00  0.00     0.203 HD
HETATM   27  N11 UNL     1      15.146  41.282  34.105  1.00  0.00    -0.022 N 
HETATM   28  C8  UNL     1      16.375  40.900  33.711  1.00  0.00     0.705 A 
ATOM     29  H11 UNL     1      14.478  41.653  33.429  1.00  0.00     0.203 HD
HETATM   30  N13 UNL     1      17.271  40.406  34.586  1.00  0.00    -0.018 N 
ATOM     31  H13 UNL     1      18.196  40.126  34.260  1.00  0.00     0.203 HD
BRANCH  25  32
HETATM   32  N10 UNL     1      13.624  41.527  35.812  1.00  0.00    -0.234 N 
ATOM     33 2H10 UNL     1      13.450  41.698  36.802  1.00  0.00     0.174 HD
ATOM     34 1H10 UNL     1      12.857  41.644  35.150  1.00  0.00     0.174 HD
ENDBRANCH  25  32
BRANCH  28  35
HETATM   35  N12 UNL     1      16.666  41.025  32.473  1.00  0.00    -0.234 N 
ATOM     36 2H12 UNL     1      16.506  40.260  31.818  1.00  0.00     0.174 HD
ATOM     37 1H12 UNL     1      17.063  41.912  32.167  1.00  0.00     0.174 HD
ENDBRANCH  28  35
ENDBRANCH  19  23
ENDBRANCH  10  15
ENDBRANCH   1  10
BRANCH   4  38
HETATM   38  O2  UNL     1      21.925  35.567  38.977  1.00  0.00    -0.276 OA
ATOM     39  H2  UNL     1      21.852  36.277  39.603  1.00  0.00     0.245 HD
ENDBRANCH   4  38
TORSDOF 7
ENDMDL
