MODEL 1
REMARK VINA RESULT: -9.172187902      0.000      0.000
REMARK  6 active torsions:
REMARK  status: ('A' for Active; 'I' for Inactive)
REMARK    1  A    between atoms: C4_5  and  C5_6 
REMARK    2  A    between atoms: C5_6  and  N1_7 
REMARK    3  A    between atoms: N1_7  and  C6_10 
REMARK    4  A    between atoms: C6_10  and  N2_11 
REMARK    5  A    between atoms: C6_10  and  C11_18 
REMARK    6  A    between atoms: N2_11  and  C7_13 
ROOT
HETATM    1  C6  UNL     1      68.802  26.127  22.803  1.00  0.00     0.320 C 
ENDROOT
BRANCH   1   2
HETATM    2  N1  UNL     1      69.108  26.077  24.216  1.00  0.00    -0.046 N 
ATOM      3  H12 UNL     1      69.952  25.542  24.419  1.00  0.00     0.280 HD
ATOM      4  H11 UNL     1      68.452  25.500  24.743  1.00  0.00     0.280 HD
BRANCH   2   5
HETATM    5  C5  UNL     1      69.175  27.437  24.703  1.00  0.00     0.273 C 
BRANCH   5   6
HETATM    6  C4  UNL     1      67.827  28.009  24.947  1.00  0.00    -0.033 A 
HETATM    7  C3  UNL     1      67.739  29.361  25.191  1.00  0.00     0.012 A 
HETATM    8  C2  UNL     1      66.529  29.977  25.427  1.00  0.00     0.043 A 
HETATM    9  C1  UNL     1      65.384  29.185  25.412  1.00  0.00     0.116 A 
HETATM   10  F1  UNL     1      64.166  29.751  25.641  1.00  0.00    -0.206 F 
HETATM   11  C17 UNL     1      65.445  27.843  25.173  1.00  0.00     0.043 A 
HETATM   12  C16 UNL     1      66.672  27.255  24.940  1.00  0.00     0.012 A 
ENDBRANCH   5   6
ENDBRANCH   2   5
ENDBRANCH   1   2
BRANCH   1  13
HETATM   13  N2  UNL     1      69.930  25.856  21.947  1.00  0.00    -0.353 N 
ATOM     14  H2  UNL     1      70.568  25.107  22.215  1.00  0.00     0.162 HD
BRANCH  13  15
HETATM   15  C7  UNL     1      70.203  26.573  20.752  1.00  0.00     0.071 A 
HETATM   16  C8  UNL     1      70.656  27.856  20.600  1.00  0.00     0.037 A 
HETATM   17  C9  UNL     1      70.841  28.296  19.351  1.00  0.00     0.010 A 
HETATM   18  C10 UNL     1      70.566  27.439  18.324  1.00  0.00     0.052 A 
HETATM   19  S1  UNL     1      70.052  26.030  19.145  1.00  0.00    -0.085 SA
ENDBRANCH  13  15
ENDBRANCH   1  13
BRANCH   1  20
HETATM   20  C11 UNL     1      67.636  25.278  22.437  1.00  0.00     0.007 A 
HETATM   21  C12 UNL     1      66.929  25.517  21.277  1.00  0.00     0.013 A 
HETATM   22  C13 UNL     1      65.869  24.733  20.942  1.00  0.00     0.018 A 
HETATM   23  C14 UNL     1      65.468  23.689  21.738  1.00  0.00     0.087 A 
HETATM   24  N3  UNL     1      66.161  23.460  22.868  1.00  0.00    -0.375 N 
HETATM   25  C15 UNL     1      67.211  24.217  23.221  1.00  0.00     0.098 A 
ATOM     26  H3  UNL     1      65.880  22.689  23.473  1.00  0.00     0.164 HD
ENDBRANCH   1  20
TORSDOF 6
ENDMDL
MODEL 2
REMARK VINA RESULT: -9.065402499      2.873      5.704
REMARK  6 active torsions:
REMARK  status: ('A' for Active; 'I' for Inactive)
REMARK    1  A    between atoms: C4_5  and  C5_6 
REMARK    2  A    between atoms: C5_6  and  N1_7 
REMARK    3  A    between atoms: N1_7  and  C6_10 
REMARK    4  A    between atoms: C6_10  and  N2_11 
REMARK    5  A    between atoms: C6_10  and  C11_18 
REMARK    6  A    between atoms: N2_11  and  C7_13 
ROOT
HETATM    1  C6  UNL     1      68.738  26.397  23.629  1.00  0.00     0.320 C 
ENDROOT
BRANCH   1   2
HETATM    2  N1  UNL     1      70.135  26.317  23.993  1.00  0.00    -0.046 N 
ATOM      3  H12 UNL     1      70.547  25.408  23.785  1.00  0.00     0.280 HD
ATOM      4  H11 UNL     1      70.281  26.304  25.002  1.00  0.00     0.280 HD
BRANCH   2   5
HETATM    5  C5  UNL     1      70.825  27.408  23.341  1.00  0.00     0.273 C 
BRANCH   5   6
HETATM    6  C4  UNL     1      70.809  27.275  21.862  1.00  0.00    -0.033 A 
HETATM    7  C3  UNL     1      70.688  28.425  21.116  1.00  0.00     0.012 A 
HETATM    8  C2  UNL     1      70.664  28.395  19.739  1.00  0.00     0.043 A 
HETATM    9  C1  UNL     1      70.769  27.155  19.114  1.00  0.00     0.116 A 
HETATM   10  F1  UNL     1      70.750  27.077  17.754  1.00  0.00    -0.206 F 
HETATM   11  C17 UNL     1      70.890  26.001  19.831  1.00  0.00     0.043 A 
HETATM   12  C16 UNL     1      70.910  26.063  21.211  1.00  0.00     0.012 A 
ENDBRANCH   5   6
ENDBRANCH   2   5
ENDBRANCH   1   2
BRANCH   1  13
HETATM   13  N2  UNL     1      68.077  25.117  23.550  1.00  0.00    -0.353 N 
ATOM     14  H2  UNL     1      68.263  24.434  24.283  1.00  0.00     0.162 HD
BRANCH  13  15
HETATM   15  C7  UNL     1      67.182  24.755  22.508  1.00  0.00     0.071 A 
HETATM   16  C8  UNL     1      67.138  25.201  21.214  1.00  0.00     0.037 A 
HETATM   17  C9  UNL     1      66.190  24.689  20.422  1.00  0.00     0.010 A 
HETATM   18  C10 UNL     1      65.339  23.765  20.959  1.00  0.00     0.052 A 
HETATM   19  S1  UNL     1      65.899  23.637  22.570  1.00  0.00    -0.085 SA
ENDBRANCH  13  15
ENDBRANCH   1  13
BRANCH   1  20
HETATM   20  C11 UNL     1      67.972  27.342  24.486  1.00  0.00     0.007 A 
HETATM   21  C12 UNL     1      66.603  27.231  24.607  1.00  0.00     0.013 A 
HETATM   22  C13 UNL     1      65.908  28.092  25.397  1.00  0.00     0.018 A 
HETATM   23  C14 UNL     1      66.537  29.093  26.094  1.00  0.00     0.087 A 
HETATM   24  N3  UNL     1      67.873  29.198  25.973  1.00  0.00    -0.375 N 
HETATM   25  C15 UNL     1      68.582  28.361  25.200  1.00  0.00     0.098 A 
ATOM     26  H3  UNL     1      68.360  29.935  26.483  1.00  0.00     0.164 HD
ENDBRANCH   1  20
TORSDOF 6
ENDMDL
MODEL 3
REMARK VINA RESULT: -9.065009226      1.731      2.831
REMARK  6 active torsions:
REMARK  status: ('A' for Active; 'I' for Inactive)
REMARK    1  A    between atoms: C4_5  and  C5_6 
REMARK    2  A    between atoms: C5_6  and  N1_7 
REMARK    3  A    between atoms: N1_7  and  C6_10 
REMARK    4  A    between atoms: C6_10  and  N2_11 
REMARK    5  A    between atoms: C6_10  and  C11_18 
REMARK    6  A    between atoms: N2_11  and  C7_13 
ROOT
HETATM    1  C6  UNL     1      66.660  24.792  23.394  1.00  0.00     0.320 C 
ENDROOT
BRANCH   1   2
HETATM    2  N1  UNL     1      66.197  24.957  24.754  1.00  0.00    -0.046 N 
ATOM      3  H12 UNL     1      66.955  25.146  25.409  1.00  0.00     0.280 HD
ATOM      4  H11 UNL     1      65.872  24.085  25.170  1.00  0.00     0.280 HD
BRANCH   2   5
HETATM    5  C5  UNL     1      65.185  25.990  24.755  1.00  0.00     0.273 C 
BRANCH   5   6
HETATM    6  C4  UNL     1      65.760  27.334  25.018  1.00  0.00    -0.033 A 
HETATM    7  C3  UNL     1      64.915  28.418  24.940  1.00  0.00     0.012 A 
HETATM    8  C2  UNL     1      65.363  29.701  25.170  1.00  0.00     0.043 A 
HETATM    9  C1  UNL     1      66.707  29.874  25.487  1.00  0.00     0.116 A 
HETATM   10  F1  UNL     1      67.194  31.125  25.722  1.00  0.00    -0.206 F 
HETATM   11  C17 UNL     1      67.564  28.815  25.570  1.00  0.00     0.043 A 
HETATM   12  C16 UNL     1      67.086  27.541  25.334  1.00  0.00     0.012 A 
ENDBRANCH   5   6
ENDBRANCH   2   5
ENDBRANCH   1   2
BRANCH   1  13
HETATM   13  N2  UNL     1      68.085  24.602  23.277  1.00  0.00    -0.353 N 
ATOM     14  H2  UNL     1      68.470  23.687  23.510  1.00  0.00     0.162 HD
BRANCH  13  15
HETATM   15  C7  UNL     1      68.983  25.619  22.855  1.00  0.00     0.071 A 
HETATM   16  C8  UNL     1      69.834  26.384  23.607  1.00  0.00     0.037 A 
HETATM   17  C9  UNL     1      70.589  27.277  22.957  1.00  0.00     0.010 A 
HETATM   18  C10 UNL     1      70.456  27.360  21.600  1.00  0.00     0.052 A 
HETATM   19  S1  UNL     1      69.269  26.174  21.271  1.00  0.00    -0.085 SA
ENDBRANCH  13  15
ENDBRANCH   1  13
BRANCH   1  20
HETATM   20  C11 UNL     1      65.918  23.733  22.658  1.00  0.00     0.007 A 
HETATM   21  C12 UNL     1      65.485  22.596  23.309  1.00  0.00     0.013 A 
HETATM   22  C13 UNL     1      64.800  21.634  22.634  1.00  0.00     0.018 A 
HETATM   23  C14 UNL     1      64.519  21.757  21.295  1.00  0.00     0.087 A 
HETATM   24  N3  UNL     1      64.944  22.867  20.666  1.00  0.00    -0.375 N 
HETATM   25  C15 UNL     1      65.620  23.832  21.308  1.00  0.00     0.098 A 
ATOM     26  H3  UNL     1      64.745  22.979  19.671  1.00  0.00     0.164 HD
ENDBRANCH   1  20
TORSDOF 6
ENDMDL
MODEL 4
REMARK VINA RESULT: -9.003277435      2.867      5.628
REMARK  6 active torsions:
REMARK  status: ('A' for Active; 'I' for Inactive)
REMARK    1  A    between atoms: C4_5  and  C5_6 
REMARK    2  A    between atoms: C5_6  and  N1_7 
REMARK    3  A    between atoms: N1_7  and  C6_10 
REMARK    4  A    between atoms: C6_10  and  N2_11 
REMARK    5  A    between atoms: C6_10  and  C11_18 
REMARK    6  A    between atoms: N2_11  and  C7_13 
ROOT
HETATM    1  C6  UNL     1      68.752  25.525  23.517  1.00  0.00     0.320 C 
ENDROOT
BRANCH   1   2
HETATM    2  N1  UNL     1      70.043  25.133  22.998  1.00  0.00    -0.046 N 
ATOM      3  H12 UNL     1      69.973  24.544  22.169  1.00  0.00     0.280 HD
ATOM      4  H11 UNL     1      70.525  24.465  23.599  1.00  0.00     0.280 HD
BRANCH   2   5
HETATM    5  C5  UNL     1      70.812  26.336  22.768  1.00  0.00     0.273 C 
BRANCH   5   6
HETATM    6  C4  UNL     1      70.778  26.756  21.344  1.00  0.00    -0.033 A 
HETATM    7  C3  UNL     1      70.788  25.769  20.384  1.00  0.00     0.012 A 
HETATM    8  C2  UNL     1      70.758  26.068  19.039  1.00  0.00     0.043 A 
HETATM    9  C1  UNL     1      70.715  27.410  18.673  1.00  0.00     0.116 A 
HETATM   10  F1  UNL     1      70.684  27.752  17.354  1.00  0.00    -0.206 F 
HETATM   11  C17 UNL     1      70.704  28.406  19.605  1.00  0.00     0.043 A 
HETATM   12  C16 UNL     1      70.735  28.075  20.945  1.00  0.00     0.012 A 
ENDBRANCH   5   6
ENDBRANCH   2   5
ENDBRANCH   1   2
BRANCH   1  13
HETATM   13  N2  UNL     1      68.623  26.940  23.766  1.00  0.00    -0.353 N 
ATOM     14  H2  UNL     1      69.310  27.567  23.348  1.00  0.00     0.162 HD
BRANCH  13  15
HETATM   15  C7  UNL     1      67.593  27.510  24.562  1.00  0.00     0.071 A 
HETATM   16  C8  UNL     1      67.653  28.580  25.413  1.00  0.00     0.037 A 
HETATM   17  C9  UNL     1      66.525  28.923  26.045  1.00  0.00     0.010 A 
HETATM   18  C10 UNL     1      65.403  28.184  25.797  1.00  0.00     0.052 A 
HETATM   19  S1  UNL     1      65.965  27.022  24.676  1.00  0.00    -0.085 SA
ENDBRANCH  13  15
ENDBRANCH   1  13
BRANCH   1  20
HETATM   20  C11 UNL     1      67.622  25.023  22.689  1.00  0.00     0.007 A 
HETATM   21  C12 UNL     1      67.350  25.582  21.457  1.00  0.00     0.013 A 
HETATM   22  C13 UNL     1      66.321  25.114  20.701  1.00  0.00     0.018 A 
HETATM   23  C14 UNL     1      65.523  24.083  21.131  1.00  0.00     0.087 A 
HETATM   24  N3  UNL     1      65.793  23.542  22.333  1.00  0.00    -0.375 N 
HETATM   25  C15 UNL     1      66.802  23.984  23.099  1.00  0.00     0.098 A 
ATOM     26  H3  UNL     1      65.213  22.774  22.671  1.00  0.00     0.164 HD
ENDBRANCH   1  20
TORSDOF 6
ENDMDL
MODEL 5
REMARK VINA RESULT: -8.980515625      2.811      5.908
REMARK  6 active torsions:
REMARK  status: ('A' for Active; 'I' for Inactive)
REMARK    1  A    between atoms: C4_5  and  C5_6 
REMARK    2  A    between atoms: C5_6  and  N1_7 
REMARK    3  A    between atoms: N1_7  and  C6_10 
REMARK    4  A    between atoms: C6_10  and  N2_11 
REMARK    5  A    between atoms: C6_10  and  C11_18 
REMARK    6  A    between atoms: N2_11  and  C7_13 
ROOT
HETATM    1  C6  UNL     1      68.469  26.289  23.664  1.00  0.00     0.320 C 
ENDROOT
BRANCH   1   2
HETATM    2  N1  UNL     1      69.905  26.269  23.831  1.00  0.00    -0.046 N 
ATOM      3  H12 UNL     1      70.193  25.902  24.738  1.00  0.00     0.280 HD
ATOM      4  H11 UNL     1      70.305  27.202  23.929  1.00  0.00     0.280 HD
BRANCH   2   5
HETATM    5  C5  UNL     1      70.470  25.532  22.723  1.00  0.00     0.273 C 
BRANCH   5   6
HETATM    6  C4  UNL     1      70.415  26.301  21.454  1.00  0.00    -0.033 A 
HETATM    7  C3  UNL     1      69.931  25.660  20.336  1.00  0.00     0.012 A 
HETATM    8  C2  UNL     1      69.844  26.298  19.118  1.00  0.00     0.043 A 
HETATM    9  C1  UNL     1      70.262  27.624  19.047  1.00  0.00     0.116 A 
HETATM   10  F1  UNL     1      70.194  28.295  17.863  1.00  0.00    -0.206 F 
HETATM   11  C17 UNL     1      70.745  28.281  20.141  1.00  0.00     0.043 A 
HETATM   12  C16 UNL     1      70.820  27.615  21.349  1.00  0.00     0.012 A 
ENDBRANCH   5   6
ENDBRANCH   2   5
ENDBRANCH   1   2
BRANCH   1  13
HETATM   13  N2  UNL     1      67.838  25.006  23.849  1.00  0.00    -0.353 N 
ATOM     14  H2  UNL     1      68.064  24.475  24.690  1.00  0.00     0.162 HD
BRANCH  13  15
HETATM   15  C7  UNL     1      66.918  24.439  22.927  1.00  0.00     0.071 A 
HETATM   16  C8  UNL     1      66.667  24.796  21.629  1.00  0.00     0.037 A 
HETATM   17  C9  UNL     1      65.746  24.087  20.967  1.00  0.00     0.010 A 
HETATM   18  C10 UNL     1      65.127  23.066  21.630  1.00  0.00     0.052 A 
HETATM   19  S1  UNL     1      65.859  23.128  23.173  1.00  0.00    -0.085 SA
ENDBRANCH  13  15
ENDBRANCH   1  13
BRANCH   1  20
HETATM   20  C11 UNL     1      67.808  27.334  24.492  1.00  0.00     0.007 A 
HETATM   21  C12 UNL     1      66.445  27.306  24.705  1.00  0.00     0.013 A 
HETATM   22  C13 UNL     1      65.847  28.258  25.468  1.00  0.00     0.018 A 
HETATM   23  C14 UNL     1      66.568  29.274  26.046  1.00  0.00     0.087 A 
HETATM   24  N3  UNL     1      67.896  29.297  25.836  1.00  0.00    -0.375 N 
HETATM   25  C15 UNL     1      68.512  28.369  25.087  1.00  0.00     0.098 A 
ATOM     26  H3  UNL     1      68.451  30.043  26.257  1.00  0.00     0.164 HD
ENDBRANCH   1  20
TORSDOF 6
ENDMDL
