MODEL 1
REMARK VINA RESULT: -9.497788360      0.000      0.000
REMARK  6 active torsions:
REMARK  status: ('A' for Active; 'I' for Inactive)
REMARK    1  A    between atoms: O1_2  and  C2_3 
REMARK    2  A    between atoms: C5_6  and  N1_7 
REMARK    3  A    between atoms: N1_7  and  C6_9 
REMARK    4  A    between atoms: C6_9  and  C7_10 
REMARK    5  A    between atoms: C13_16  and  N2_17 
REMARK    6  A    between atoms: N2_17  and  C14_19 
ROOT
HETATM    1  C2  UNL     1      70.779  26.961  20.511  1.00  0.00     0.070 A 
HETATM    2  C3  UNL     1      71.121  28.043  21.270  1.00  0.00     0.039 A 
HETATM    3  C4  UNL     1      70.743  28.111  22.611  1.00  0.00     0.034 A 
HETATM    4  C5  UNL     1      70.010  27.086  23.210  1.00  0.00     0.055 A 
HETATM    5  C13 UNL     1      69.665  26.004  22.458  1.00  0.00     0.057 A 
HETATM    6  C20 UNL     1      70.056  25.953  21.109  1.00  0.00     0.068 A 
ENDROOT
BRANCH   4   7
HETATM    7  N1  UNL     1      69.663  27.178  24.566  1.00  0.00    -0.384 N 
ATOM      8  H1  UNL     1      69.698  26.331  25.134  1.00  0.00     0.160 HD
BRANCH   7   9
HETATM    9  C6  UNL     1      69.254  28.419  25.202  1.00  0.00     0.158 C 
BRANCH   9  10
HETATM   10  C7  UNL     1      67.769  28.575  25.231  1.00  0.00    -0.041 A 
HETATM   11  C8  UNL     1      66.919  27.483  25.162  1.00  0.00     0.009 A 
HETATM   12  C9  UNL     1      65.532  27.635  25.188  1.00  0.00     0.001 A 
HETATM   13  C10 UNL     1      64.961  28.886  25.281  1.00  0.00     0.000 A 
HETATM   14  C11 UNL     1      65.808  29.970  25.349  1.00  0.00     0.001 A 
HETATM   15  C12 UNL     1      67.179  29.818  25.325  1.00  0.00     0.009 A 
ENDBRANCH   9  10
ENDBRANCH   7   9
ENDBRANCH   4   7
BRANCH   5  16
HETATM   16  N2  UNL     1      68.909  24.934  22.956  1.00  0.00    -0.381 N 
ATOM     17  H2  UNL     1      69.400  24.079  23.218  1.00  0.00     0.160 HD
BRANCH  16  18
HETATM   18  C14 UNL     1      67.454  24.973  23.122  1.00  0.00     0.115 C 
HETATM   19  C15 UNL     1      66.986  23.565  23.376  1.00  0.00     0.028 C 
HETATM   20  C16 UNL     1      65.592  23.291  22.907  1.00  0.00     0.002 C 
HETATM   21  C17 UNL     1      65.352  23.644  21.470  1.00  0.00     0.003 C 
HETATM   22  C18 UNL     1      66.455  24.486  20.879  1.00  0.00     0.039 C 
HETATM   23  C19 UNL     1      66.815  25.558  21.886  1.00  0.00     0.192 C 
HETATM   24  F1  UNL     1      65.653  26.225  22.213  1.00  0.00    -0.247 F 
ENDBRANCH  16  18
ENDBRANCH   5  16
BRANCH   1  25
HETATM   25  O1  UNL     1      71.142  26.856  19.154  1.00  0.00    -0.356 OA
HETATM   26  C1  UNL     1      70.316  27.400  18.161  1.00  0.00     0.210 C 
ENDBRANCH   1  25
TORSDOF 6
ENDMDL
MODEL 2
REMARK VINA RESULT: -9.271539949      2.219      5.177
REMARK  6 active torsions:
REMARK  status: ('A' for Active; 'I' for Inactive)
REMARK    1  A    between atoms: O1_2  and  C2_3 
REMARK    2  A    between atoms: C5_6  and  N1_7 
REMARK    3  A    between atoms: N1_7  and  C6_9 
REMARK    4  A    between atoms: C6_9  and  C7_10 
REMARK    5  A    between atoms: C13_16  and  N2_17 
REMARK    6  A    between atoms: N2_17  and  C14_19 
ROOT
HETATM    1  C2  UNL     1      66.831  28.224  25.291  1.00  0.00     0.070 A 
HETATM    2  C3  UNL     1      68.005  28.911  25.184  1.00  0.00     0.039 A 
HETATM    3  C4  UNL     1      69.152  28.275  24.707  1.00  0.00     0.034 A 
HETATM    4  C5  UNL     1      69.132  26.932  24.328  1.00  0.00     0.055 A 
HETATM    5  C13 UNL     1      67.962  26.241  24.434  1.00  0.00     0.057 A 
HETATM    6  C20 UNL     1      66.818  26.899  24.916  1.00  0.00     0.068 A 
ENDROOT
BRANCH   4   7
HETATM    7  N1  UNL     1      70.298  26.330  23.835  1.00  0.00    -0.384 N 
ATOM      8  H1  UNL     1      70.422  25.327  23.974  1.00  0.00     0.160 HD
BRANCH   7   9
HETATM    9  C6  UNL     1      71.339  27.063  23.135  1.00  0.00     0.158 C 
BRANCH   9  10
HETATM   10  C7  UNL     1      71.114  27.092  21.659  1.00  0.00    -0.041 A 
HETATM   11  C8  UNL     1      70.782  28.260  20.994  1.00  0.00     0.009 A 
HETATM   12  C9  UNL     1      70.570  28.281  19.614  1.00  0.00     0.001 A 
HETATM   13  C10 UNL     1      70.685  27.130  18.866  1.00  0.00     0.000 A 
HETATM   14  C11 UNL     1      71.015  25.968  19.529  1.00  0.00     0.001 A 
HETATM   15  C12 UNL     1      71.225  25.950  20.892  1.00  0.00     0.009 A 
ENDBRANCH   9  10
ENDBRANCH   7   9
ENDBRANCH   4   7
BRANCH   5  16
HETATM   16  N2  UNL     1      67.842  24.884  24.105  1.00  0.00    -0.381 N 
ATOM     17  H2  UNL     1      67.968  24.197  24.849  1.00  0.00     0.160 HD
BRANCH  16  18
HETATM   18  C14 UNL     1      67.547  24.396  22.756  1.00  0.00     0.115 C 
HETATM   19  C15 UNL     1      67.893  25.494  21.787  1.00  0.00     0.028 C 
HETATM   20  C16 UNL     1      67.077  25.480  20.533  1.00  0.00     0.002 C 
HETATM   21  C17 UNL     1      65.597  25.471  20.768  1.00  0.00     0.003 C 
HETATM   22  C18 UNL     1      65.230  25.162  22.198  1.00  0.00     0.039 C 
HETATM   23  C19 UNL     1      66.091  24.007  22.662  1.00  0.00     0.192 C 
HETATM   24  F1  UNL     1      65.924  22.978  21.760  1.00  0.00    -0.247 F 
ENDBRANCH  16  18
ENDBRANCH   5  16
BRANCH   1  25
HETATM   25  O1  UNL     1      65.652  28.830  25.769  1.00  0.00    -0.356 OA
HETATM   26  C1  UNL     1      64.663  29.250  24.870  1.00  0.00     0.210 C 
ENDBRANCH   1  25
TORSDOF 6
ENDMDL
MODEL 3
REMARK VINA RESULT: -9.178407051      2.039      4.988
REMARK  6 active torsions:
REMARK  status: ('A' for Active; 'I' for Inactive)
REMARK    1  A    between atoms: O1_2  and  C2_3 
REMARK    2  A    between atoms: C5_6  and  N1_7 
REMARK    3  A    between atoms: N1_7  and  C6_9 
REMARK    4  A    between atoms: C6_9  and  C7_10 
REMARK    5  A    between atoms: C13_16  and  N2_17 
REMARK    6  A    between atoms: N2_17  and  C14_19 
ROOT
HETATM    1  C2  UNL     1      67.528  28.308  25.283  1.00  0.00     0.070 A 
HETATM    2  C3  UNL     1      68.815  28.741  25.156  1.00  0.00     0.039 A 
HETATM    3  C4  UNL     1      69.774  27.933  24.545  1.00  0.00     0.034 A 
HETATM    4  C5  UNL     1      69.448  26.670  24.051  1.00  0.00     0.055 A 
HETATM    5  C13 UNL     1      68.164  26.231  24.175  1.00  0.00     0.057 A 
HETATM    6  C20 UNL     1      67.212  27.060  24.792  1.00  0.00     0.068 A 
ENDROOT
BRANCH   4   7
HETATM    7  N1  UNL     1      70.432  25.891  23.425  1.00  0.00    -0.384 N 
ATOM      8  H1  UNL     1      70.371  24.876  23.504  1.00  0.00     0.160 HD
BRANCH   7   9
HETATM    9  C6  UNL     1      71.536  26.458  22.669  1.00  0.00     0.158 C 
BRANCH   9  10
HETATM   10  C7  UNL     1      71.137  26.824  21.278  1.00  0.00    -0.041 A 
HETATM   11  C8  UNL     1      70.867  28.134  20.917  1.00  0.00     0.009 A 
HETATM   12  C9  UNL     1      70.492  28.471  19.615  1.00  0.00     0.001 A 
HETATM   13  C10 UNL     1      70.378  27.503  18.641  1.00  0.00     0.000 A 
HETATM   14  C11 UNL     1      70.647  26.200  19.002  1.00  0.00     0.001 A 
HETATM   15  C12 UNL     1      71.018  25.870  20.289  1.00  0.00     0.009 A 
ENDBRANCH   9  10
ENDBRANCH   7   9
ENDBRANCH   4   7
BRANCH   5  16
HETATM   16  N2  UNL     1      67.740  24.970  23.736  1.00  0.00    -0.381 N 
ATOM     17  H2  UNL     1      68.435  24.225  23.669  1.00  0.00     0.160 HD
BRANCH  16  18
HETATM   18  C14 UNL     1      66.357  24.658  23.367  1.00  0.00     0.115 C 
HETATM   19  C15 UNL     1      66.219  23.159  23.340  1.00  0.00     0.028 C 
HETATM   20  C16 UNL     1      65.184  22.659  22.382  1.00  0.00     0.002 C 
HETATM   21  C17 UNL     1      65.353  23.169  20.983  1.00  0.00     0.003 C 
HETATM   22  C18 UNL     1      66.327  24.317  20.888  1.00  0.00     0.039 C 
HETATM   23  C19 UNL     1      66.036  25.272  22.026  1.00  0.00     0.192 C 
HETATM   24  F1  UNL     1      64.700  25.605  21.955  1.00  0.00    -0.247 F 
ENDBRANCH  16  18
ENDBRANCH   5  16
BRANCH   1  25
HETATM   25  O1  UNL     1      66.531  29.094  25.894  1.00  0.00    -0.356 OA
HETATM   26  C1  UNL     1      65.281  29.247  25.280  1.00  0.00     0.210 C 
ENDBRANCH   1  25
TORSDOF 6
ENDMDL
MODEL 4
REMARK VINA RESULT: -9.009555629      2.002      5.041
REMARK  6 active torsions:
REMARK  status: ('A' for Active; 'I' for Inactive)
REMARK    1  A    between atoms: O1_2  and  C2_3 
REMARK    2  A    between atoms: C5_6  and  N1_7 
REMARK    3  A    between atoms: N1_7  and  C6_9 
REMARK    4  A    between atoms: C6_9  and  C7_10 
REMARK    5  A    between atoms: C13_16  and  N2_17 
REMARK    6  A    between atoms: N2_17  and  C14_19 
ROOT
HETATM    1  C2  UNL     1      69.207  28.097  24.751  1.00  0.00     0.070 A 
HETATM    2  C3  UNL     1      70.307  28.465  24.033  1.00  0.00     0.039 A 
HETATM    3  C4  UNL     1      70.801  27.635  23.026  1.00  0.00     0.034 A 
HETATM    4  C5  UNL     1      70.191  26.416  22.728  1.00  0.00     0.055 A 
HETATM    5  C13 UNL     1      69.093  26.042  23.442  1.00  0.00     0.057 A 
HETATM    6  C20 UNL     1      68.610  26.892  24.452  1.00  0.00     0.068 A 
ENDROOT
BRANCH   4   7
HETATM    7  N1  UNL     1      70.703  25.615  21.697  1.00  0.00    -0.384 N 
ATOM      8  H1  UNL     1      70.566  24.606  21.753  1.00  0.00     0.160 HD
BRANCH   7   9
HETATM    9  C6  UNL     1      71.419  26.151  20.551  1.00  0.00     0.158 C 
BRANCH   9  10
HETATM   10  C7  UNL     1      70.515  26.405  19.390  1.00  0.00    -0.041 A 
HETATM   11  C8  UNL     1      69.486  25.537  19.063  1.00  0.00     0.009 A 
HETATM   12  C9  UNL     1      68.645  25.778  17.975  1.00  0.00     0.001 A 
HETATM   13  C10 UNL     1      68.815  26.896  17.187  1.00  0.00     0.000 A 
HETATM   14  C11 UNL     1      69.839  27.758  17.514  1.00  0.00     0.001 A 
HETATM   15  C12 UNL     1      70.668  27.517  18.590  1.00  0.00     0.009 A 
ENDBRANCH   9  10
ENDBRANCH   7   9
ENDBRANCH   4   7
BRANCH   5  16
HETATM   16  N2  UNL     1      68.424  24.828  23.239  1.00  0.00    -0.381 N 
ATOM     17  H2  UNL     1      68.983  24.002  23.025  1.00  0.00     0.160 HD
BRANCH  16  18
HETATM   18  C14 UNL     1      66.969  24.677  23.318  1.00  0.00     0.115 C 
HETATM   19  C15 UNL     1      66.671  23.209  23.464  1.00  0.00     0.028 C 
HETATM   20  C16 UNL     1      65.349  22.795  22.896  1.00  0.00     0.002 C 
HETATM   21  C17 UNL     1      65.145  23.205  21.469  1.00  0.00     0.003 C 
HETATM   22  C18 UNL     1      66.163  24.212  20.994  1.00  0.00     0.039 C 
HETATM   23  C19 UNL     1      66.329  25.255  22.079  1.00  0.00     0.192 C 
HETATM   24  F1  UNL     1      65.077  25.752  22.370  1.00  0.00    -0.247 F 
ENDBRANCH  16  18
ENDBRANCH   5  16
BRANCH   1  25
HETATM   25  O1  UNL     1      68.678  28.907  25.775  1.00  0.00    -0.356 OA
HETATM   26  C1  UNL     1      67.330  28.791  26.138  1.00  0.00     0.210 C 
ENDBRANCH   1  25
TORSDOF 6
ENDMDL
MODEL 5
REMARK VINA RESULT: -8.908236662      2.667      6.308
REMARK  6 active torsions:
REMARK  status: ('A' for Active; 'I' for Inactive)
REMARK    1  A    between atoms: O1_2  and  C2_3 
REMARK    2  A    between atoms: C5_6  and  N1_7 
REMARK    3  A    between atoms: N1_7  and  C6_9 
REMARK    4  A    between atoms: C6_9  and  C7_10 
REMARK    5  A    between atoms: C13_16  and  N2_17 
REMARK    6  A    between atoms: N2_17  and  C14_19 
ROOT
HETATM    1  C2  UNL     1      66.621  28.301  25.519  1.00  0.00     0.070 A 
HETATM    2  C3  UNL     1      65.518  27.503  25.426  1.00  0.00     0.039 A 
HETATM    3  C4  UNL     1      65.581  26.291  24.737  1.00  0.00     0.034 A 
HETATM    4  C5  UNL     1      66.761  25.864  24.128  1.00  0.00     0.055 A 
HETATM    5  C13 UNL     1      67.866  26.656  24.217  1.00  0.00     0.057 A 
HETATM    6  C20 UNL     1      67.784  27.873  24.916  1.00  0.00     0.068 A 
ENDROOT
BRANCH   4   7
HETATM    7  N1  UNL     1      66.794  24.631  23.460  1.00  0.00    -0.384 N 
ATOM      8  H1  UNL     1      67.355  23.878  23.859  1.00  0.00     0.160 HD
BRANCH   7   9
HETATM    9  C6  UNL     1      66.070  24.373  22.227  1.00  0.00     0.158 C 
BRANCH   9  10
HETATM   10  C7  UNL     1      65.443  23.018  22.215  1.00  0.00    -0.041 A 
HETATM   11  C8  UNL     1      64.927  22.463  21.056  1.00  0.00     0.009 A 
HETATM   12  C9  UNL     1      64.340  21.196  21.051  1.00  0.00     0.001 A 
HETATM   13  C10 UNL     1      64.253  20.455  22.209  1.00  0.00     0.000 A 
HETATM   14  C11 UNL     1      64.766  21.009  23.361  1.00  0.00     0.001 A 
HETATM   15  C12 UNL     1      65.347  22.260  23.363  1.00  0.00     0.009 A 
ENDBRANCH   9  10
ENDBRANCH   7   9
ENDBRANCH   4   7
BRANCH   5  16
HETATM   16  N2  UNL     1      69.092  26.331  23.621  1.00  0.00    -0.381 N 
ATOM     17  H2  UNL     1      69.661  25.605  24.056  1.00  0.00     0.160 HD
BRANCH  16  18
HETATM   18  C14 UNL     1      69.603  26.974  22.408  1.00  0.00     0.115 C 
HETATM   19  C15 UNL     1      69.101  26.186  21.227  1.00  0.00     0.028 C 
HETATM   20  C16 UNL     1      70.002  26.236  20.034  1.00  0.00     0.002 C 
HETATM   21  C17 UNL     1      71.420  25.848  20.324  1.00  0.00     0.003 C 
HETATM   22  C18 UNL     1      71.724  25.793  21.800  1.00  0.00     0.039 C 
HETATM   23  C19 UNL     1      71.111  27.016  22.450  1.00  0.00     0.192 C 
HETATM   24  F1  UNL     1      71.582  28.122  21.776  1.00  0.00    -0.247 F 
ENDBRANCH  16  18
ENDBRANCH   5  16
BRANCH   1  25
HETATM   25  O1  UNL     1      66.598  29.530  26.205  1.00  0.00    -0.356 OA
HETATM   26  C1  UNL     1      67.035  30.699  25.568  1.00  0.00     0.210 C 
ENDBRANCH   1  25
TORSDOF 6
ENDMDL
