MODEL 1
REMARK VINA RESULT: -9.442102708      0.000      0.000
REMARK  7 active torsions:
REMARK  status: ('A' for Active; 'I' for Inactive)
REMARK    1  A    between atoms: C5_6  and  O1_7 
REMARK    2  A    between atoms: O1_7  and  C6_8 
REMARK    3  A    between atoms: C9_11  and  N1_12 
REMARK    4  A    between atoms: N1_12  and  C10_14 
REMARK    5  A    between atoms: C10_14  and  C11_15 
REMARK    6  A    between atoms: C11_15  and  N2_16 
REMARK    7  A    between atoms: N2_16  and  C12_18 
ROOT
HETATM    1  C6  UNL     1      70.858  27.108  19.238  1.00  0.00     0.076 A 
HETATM    2  C7  UNL     1      71.153  25.929  19.891  1.00  0.00     0.039 A 
HETATM    3  C8  UNL     1      71.199  25.857  21.276  1.00  0.00     0.032 A 
HETATM    4  C9  UNL     1      70.948  26.968  22.051  1.00  0.00     0.028 A 
HETATM    5  C18 UNL     1      70.654  28.143  21.392  1.00  0.00     0.032 A 
HETATM    6  C19 UNL     1      70.607  28.223  20.010  1.00  0.00     0.039 A 
ENDROOT
BRANCH   4   7
HETATM    7  N1  UNL     1      70.993  26.903  23.484  1.00  0.00    -0.388 N 
ATOM      8  H1  UNL     1      71.622  26.243  23.942  1.00  0.00     0.159 HD
BRANCH   7   9
HETATM    9  C10 UNL     1      70.155  27.765  24.278  1.00  0.00     0.139 C 
BRANCH   9  10
HETATM   10  C11 UNL     1      68.782  27.143  24.381  1.00  0.00     0.139 C 
BRANCH  10  11
HETATM   11  N2  UNL     1      68.751  25.760  24.020  1.00  0.00    -0.388 N 
ATOM     12  H2  UNL     1      69.495  25.151  24.362  1.00  0.00     0.159 HD
BRANCH  11  13
HETATM   13  C12 UNL     1      67.742  25.200  23.215  1.00  0.00     0.028 A 
HETATM   14  C13 UNL     1      67.546  25.708  21.925  1.00  0.00     0.029 A 
HETATM   15  C14 UNL     1      66.576  25.169  21.118  1.00  0.00     0.002 A 
HETATM   16  C15 UNL     1      65.779  24.124  21.554  1.00  0.00     0.000 A 
HETATM   17  C16 UNL     1      65.949  23.602  22.820  1.00  0.00     0.002 A 
HETATM   18  C17 UNL     1      66.939  24.167  23.615  1.00  0.00     0.029 A 
ENDBRANCH  11  13
ENDBRANCH  10  11
ENDBRANCH   9  10
ENDBRANCH   7   9
ENDBRANCH   4   7
BRANCH   1  19
HETATM   19  O1  UNL     1      70.814  27.173  17.844  1.00  0.00    -0.311 OA
BRANCH  19  20
HETATM   20  C5  UNL     1      69.580  27.105  17.231  1.00  0.00     0.079 A 
HETATM   21  C4  UNL     1      68.658  26.190  17.676  1.00  0.00     0.037 A 
HETATM   22  C3  UNL     1      67.415  26.082  17.100  1.00  0.00     0.006 A 
HETATM   23  C2  UNL     1      67.067  26.890  16.062  1.00  0.00     0.042 A 
HETATM   24  C1  UNL     1      67.988  27.816  15.605  1.00  0.00     0.119 A 
HETATM   25  F1  UNL     1      67.643  28.634  14.561  1.00  0.00    -0.206 F 
HETATM   26  C20 UNL     1      69.230  27.933  16.172  1.00  0.00     0.079 A 
ENDBRANCH  19  20
ENDBRANCH   1  19
TORSDOF 7
ENDMDL
MODEL 2
REMARK VINA RESULT: -9.410605901      0.985      1.670
REMARK  7 active torsions:
REMARK  status: ('A' for Active; 'I' for Inactive)
REMARK    1  A    between atoms: C5_6  and  O1_7 
REMARK    2  A    between atoms: O1_7  and  C6_8 
REMARK    3  A    between atoms: C9_11  and  N1_12 
REMARK    4  A    between atoms: N1_12  and  C10_14 
REMARK    5  A    between atoms: C10_14  and  C11_15 
REMARK    6  A    between atoms: C11_15  and  N2_16 
REMARK    7  A    between atoms: N2_16  and  C12_18 
ROOT
HETATM    1  C6  UNL     1      70.881  27.208  19.316  1.00  0.00     0.076 A 
HETATM    2  C7  UNL     1      71.191  26.018  19.941  1.00  0.00     0.039 A 
HETATM    3  C8  UNL     1      71.227  25.912  21.324  1.00  0.00     0.032 A 
HETATM    4  C9  UNL     1      70.951  26.998  22.125  1.00  0.00     0.028 A 
HETATM    5  C18 UNL     1      70.641  28.184  21.493  1.00  0.00     0.032 A 
HETATM    6  C19 UNL     1      70.604  28.299  20.114  1.00  0.00     0.039 A 
ENDROOT
BRANCH   4   7
HETATM    7  N1  UNL     1      70.986  26.897  23.556  1.00  0.00    -0.388 N 
ATOM      8  H1  UNL     1      71.612  26.227  24.002  1.00  0.00     0.159 HD
BRANCH   7   9
HETATM    9  C10 UNL     1      70.141  27.738  24.366  1.00  0.00     0.139 C 
BRANCH   9  10
HETATM   10  C11 UNL     1      68.759  27.128  24.416  1.00  0.00     0.139 C 
BRANCH  10  11
HETATM   11  N2  UNL     1      68.725  25.753  24.027  1.00  0.00    -0.388 N 
ATOM     12  H2  UNL     1      69.429  25.122  24.411  1.00  0.00     0.159 HD
BRANCH  11  13
HETATM   13  C12 UNL     1      67.766  25.230  23.141  1.00  0.00     0.028 A 
HETATM   14  C13 UNL     1      66.942  24.185  23.575  1.00  0.00     0.029 A 
HETATM   15  C14 UNL     1      65.991  23.667  22.732  1.00  0.00     0.002 A 
HETATM   16  C15 UNL     1      65.825  24.161  21.450  1.00  0.00     0.000 A 
HETATM   17  C16 UNL     1      66.620  25.192  20.993  1.00  0.00     0.002 A 
HETATM   18  C17 UNL     1      67.576  25.696  21.869  1.00  0.00     0.029 A 
ENDBRANCH  11  13
ENDBRANCH  10  11
ENDBRANCH   9  10
ENDBRANCH   7   9
ENDBRANCH   4   7
BRANCH   1  19
HETATM   19  O1  UNL     1      70.846  27.308  17.923  1.00  0.00    -0.311 OA
BRANCH  19  20
HETATM   20  C5  UNL     1      69.641  27.090  17.288  1.00  0.00     0.079 A 
HETATM   21  C4  UNL     1      69.109  28.081  16.500  1.00  0.00     0.037 A 
HETATM   22  C3  UNL     1      67.912  27.915  15.845  1.00  0.00     0.006 A 
HETATM   23  C2  UNL     1      67.219  26.750  15.966  1.00  0.00     0.042 A 
HETATM   24  C1  UNL     1      67.746  25.745  16.756  1.00  0.00     0.119 A 
HETATM   25  F1  UNL     1      67.054  24.569  16.882  1.00  0.00    -0.206 F 
HETATM   26  C20 UNL     1      68.938  25.899  17.414  1.00  0.00     0.079 A 
ENDBRANCH  19  20
ENDBRANCH   1  19
TORSDOF 7
ENDMDL
MODEL 3
REMARK VINA RESULT: -9.108015170      3.655      7.068
REMARK  7 active torsions:
REMARK  status: ('A' for Active; 'I' for Inactive)
REMARK    1  A    between atoms: C5_6  and  O1_7 
REMARK    2  A    between atoms: O1_7  and  C6_8 
REMARK    3  A    between atoms: C9_11  and  N1_12 
REMARK    4  A    between atoms: N1_12  and  C10_14 
REMARK    5  A    between atoms: C10_14  and  C11_15 
REMARK    6  A    between atoms: C11_15  and  N2_16 
REMARK    7  A    between atoms: N2_16  and  C12_18 
ROOT
HETATM    1  C6  UNL     1      66.613  25.505  22.726  1.00  0.00     0.076 A 
HETATM    2  C7  UNL     1      65.594  25.231  21.837  1.00  0.00     0.039 A 
HETATM    3  C8  UNL     1      65.833  25.094  20.477  1.00  0.00     0.032 A 
HETATM    4  C9  UNL     1      67.105  25.227  19.965  1.00  0.00     0.028 A 
HETATM    5  C18 UNL     1      68.118  25.501  20.859  1.00  0.00     0.032 A 
HETATM    6  C19 UNL     1      67.888  25.639  22.218  1.00  0.00     0.039 A 
ENDROOT
BRANCH   4   7
HETATM    7  N1  UNL     1      67.362  25.087  18.561  1.00  0.00    -0.388 N 
ATOM      8  H1  UNL     1      66.582  25.017  17.907  1.00  0.00     0.159 HD
BRANCH   7   9
HETATM    9  C10 UNL     1      68.716  25.044  18.068  1.00  0.00     0.139 C 
BRANCH   9  10
HETATM   10  C11 UNL     1      69.125  26.441  17.660  1.00  0.00     0.139 C 
BRANCH  10  11
HETATM   11  N2  UNL     1      70.431  26.809  18.110  1.00  0.00    -0.388 N 
ATOM     12  H2  UNL     1      71.114  27.119  17.419  1.00  0.00     0.159 HD
BRANCH  11  13
HETATM   13  C12 UNL     1      70.817  26.764  19.462  1.00  0.00     0.028 A 
HETATM   14  C13 UNL     1      70.545  27.867  20.281  1.00  0.00     0.029 A 
HETATM   15  C14 UNL     1      70.901  27.840  21.605  1.00  0.00     0.002 A 
HETATM   16  C15 UNL     1      71.529  26.737  22.157  1.00  0.00     0.000 A 
HETATM   17  C16 UNL     1      71.810  25.634  21.376  1.00  0.00     0.002 A 
HETATM   18  C17 UNL     1      71.438  25.689  20.038  1.00  0.00     0.029 A 
ENDBRANCH  11  13
ENDBRANCH  10  11
ENDBRANCH   9  10
ENDBRANCH   7   9
ENDBRANCH   4   7
BRANCH   1  19
HETATM   19  O1  UNL     1      66.364  25.642  24.093  1.00  0.00    -0.311 OA
BRANCH  19  20
HETATM   20  C5  UNL     1      66.375  26.912  24.631  1.00  0.00     0.079 A 
HETATM   21  C4  UNL     1      67.569  27.464  25.025  1.00  0.00     0.037 A 
HETATM   22  C3  UNL     1      67.635  28.725  25.566  1.00  0.00     0.006 A 
HETATM   23  C2  UNL     1      66.503  29.464  25.726  1.00  0.00     0.042 A 
HETATM   24  C1  UNL     1      65.295  28.918  25.332  1.00  0.00     0.119 A 
HETATM   25  F1  UNL     1      64.151  29.657  25.489  1.00  0.00    -0.206 F 
HETATM   26  C20 UNL     1      65.217  27.661  24.791  1.00  0.00     0.079 A 
ENDBRANCH  19  20
ENDBRANCH   1  19
TORSDOF 7
ENDMDL
MODEL 4
REMARK VINA RESULT: -9.071599729      3.683      7.103
REMARK  7 active torsions:
REMARK  status: ('A' for Active; 'I' for Inactive)
REMARK    1  A    between atoms: C5_6  and  O1_7 
REMARK    2  A    between atoms: O1_7  and  C6_8 
REMARK    3  A    between atoms: C9_11  and  N1_12 
REMARK    4  A    between atoms: N1_12  and  C10_14 
REMARK    5  A    between atoms: C10_14  and  C11_15 
REMARK    6  A    between atoms: C11_15  and  N2_16 
REMARK    7  A    between atoms: N2_16  and  C12_18 
ROOT
HETATM    1  C6  UNL     1      66.345  25.282  22.691  1.00  0.00     0.076 A 
HETATM    2  C7  UNL     1      65.542  24.534  21.854  1.00  0.00     0.039 A 
HETATM    3  C8  UNL     1      65.866  24.341  20.519  1.00  0.00     0.032 A 
HETATM    4  C9  UNL     1      67.009  24.890  19.981  1.00  0.00     0.028 A 
HETATM    5  C18 UNL     1      67.807  25.635  20.823  1.00  0.00     0.032 A 
HETATM    6  C19 UNL     1      67.490  25.834  22.157  1.00  0.00     0.039 A 
ENDROOT
BRANCH   4   7
HETATM    7  N1  UNL     1      67.352  24.695  18.602  1.00  0.00    -0.388 N 
ATOM      8  H1  UNL     1      67.328  23.757  18.201  1.00  0.00     0.159 HD
BRANCH   7   9
HETATM    9  C10 UNL     1      67.731  25.816  17.779  1.00  0.00     0.139 C 
BRANCH   9  10
HETATM   10  C11 UNL     1      69.156  25.615  17.316  1.00  0.00     0.139 C 
BRANCH  10  11
HETATM   11  N2  UNL     1      70.048  26.647  17.744  1.00  0.00    -0.388 N 
ATOM     12  H2  UNL     1      70.365  27.332  17.058  1.00  0.00     0.159 HD
BRANCH  11  13
HETATM   13  C12 UNL     1      70.509  26.760  19.068  1.00  0.00     0.028 A 
HETATM   14  C13 UNL     1      70.388  27.992  19.724  1.00  0.00     0.029 A 
HETATM   15  C14 UNL     1      70.820  28.123  21.019  1.00  0.00     0.002 A 
HETATM   16  C15 UNL     1      71.377  27.055  21.701  1.00  0.00     0.000 A 
HETATM   17  C16 UNL     1      71.509  25.828  21.082  1.00  0.00     0.002 A 
HETATM   18  C17 UNL     1      71.064  25.725  19.770  1.00  0.00     0.029 A 
ENDBRANCH  11  13
ENDBRANCH  10  11
ENDBRANCH   9  10
ENDBRANCH   7   9
ENDBRANCH   4   7
BRANCH   1  19
HETATM   19  O1  UNL     1      66.013  25.472  24.034  1.00  0.00    -0.311 OA
BRANCH  19  20
HETATM   20  C5  UNL     1      66.098  26.749  24.548  1.00  0.00     0.079 A 
HETATM   21  C4  UNL     1      64.947  27.472  24.745  1.00  0.00     0.037 A 
HETATM   22  C3  UNL     1      64.977  28.748  25.254  1.00  0.00     0.006 A 
HETATM   23  C2  UNL     1      66.163  29.331  25.578  1.00  0.00     0.042 A 
HETATM   24  C1  UNL     1      67.329  28.611  25.385  1.00  0.00     0.119 A 
HETATM   25  F1  UNL     1      68.527  29.191  25.710  1.00  0.00    -0.206 F 
HETATM   26  C20 UNL     1      67.312  27.338  24.878  1.00  0.00     0.079 A 
ENDBRANCH  19  20
ENDBRANCH   1  19
TORSDOF 7
ENDMDL
MODEL 5
REMARK VINA RESULT: -8.620103713      2.151      2.847
REMARK  7 active torsions:
REMARK  status: ('A' for Active; 'I' for Inactive)
REMARK    1  A    between atoms: C5_6  and  O1_7 
REMARK    2  A    between atoms: O1_7  and  C6_8 
REMARK    3  A    between atoms: C9_11  and  N1_12 
REMARK    4  A    between atoms: N1_12  and  C10_14 
REMARK    5  A    between atoms: C10_14  and  C11_15 
REMARK    6  A    between atoms: C11_15  and  N2_16 
REMARK    7  A    between atoms: N2_16  and  C12_18 
ROOT
HETATM    1  C6  UNL     1      70.694  27.321  18.656  1.00  0.00     0.076 A 
HETATM    2  C7  UNL     1      70.642  28.409  19.503  1.00  0.00     0.039 A 
HETATM    3  C8  UNL     1      70.802  28.271  20.874  1.00  0.00     0.032 A 
HETATM    4  C9  UNL     1      71.021  27.034  21.439  1.00  0.00     0.028 A 
HETATM    5  C18 UNL     1      71.071  25.951  20.588  1.00  0.00     0.032 A 
HETATM    6  C19 UNL     1      70.912  26.081  19.218  1.00  0.00     0.039 A 
ENDROOT
BRANCH   4   7
HETATM    7  N1  UNL     1      71.187  26.881  22.856  1.00  0.00    -0.388 N 
ATOM      8  H1  UNL     1      72.125  26.809  23.252  1.00  0.00     0.159 HD
BRANCH   7   9
HETATM    9  C10 UNL     1      70.038  26.829  23.724  1.00  0.00     0.139 C 
BRANCH   9  10
HETATM   10  C11 UNL     1      69.928  28.144  24.460  1.00  0.00     0.139 C 
BRANCH  10  11
HETATM   11  N2  UNL     1      69.015  28.110  25.559  1.00  0.00    -0.388 N 
ATOM     12  H2  UNL     1      69.379  27.902  26.489  1.00  0.00     0.159 HD
BRANCH  11  13
HETATM   13  C12 UNL     1      67.636  28.351  25.418  1.00  0.00     0.028 A 
HETATM   14  C13 UNL     1      67.162  29.663  25.537  1.00  0.00     0.029 A 
HETATM   15  C14 UNL     1      65.823  29.924  25.391  1.00  0.00     0.002 A 
HETATM   16  C15 UNL     1      64.920  28.909  25.123  1.00  0.00     0.000 A 
HETATM   17  C16 UNL     1      65.357  27.606  24.999  1.00  0.00     0.002 A 
HETATM   18  C17 UNL     1      66.718  27.371  25.153  1.00  0.00     0.029 A 
ENDBRANCH  11  13
ENDBRANCH  10  11
ENDBRANCH   9  10
ENDBRANCH   7   9
ENDBRANCH   4   7
BRANCH   1  19
HETATM   19  O1  UNL     1      70.532  27.468  17.276  1.00  0.00    -0.311 OA
BRANCH  19  20
HETATM   20  C5  UNL     1      69.277  27.258  16.745  1.00  0.00     0.079 A 
HETATM   21  C4  UNL     1      68.427  26.372  17.359  1.00  0.00     0.037 A 
HETATM   22  C3  UNL     1      67.167  26.127  16.870  1.00  0.00     0.006 A 
HETATM   23  C2  UNL     1      66.728  26.765  15.751  1.00  0.00     0.042 A 
HETATM   24  C1  UNL     1      67.576  27.660  15.124  1.00  0.00     0.119 A 
HETATM   25  F1  UNL     1      67.140  28.307  13.996  1.00  0.00    -0.206 F 
HETATM   26  C20 UNL     1      68.835  27.913  15.602  1.00  0.00     0.079 A 
ENDBRANCH  19  20
ENDBRANCH   1  19
TORSDOF 7
ENDMDL
