MODEL 1
REMARK VINA RESULT: -6.766348852      0.000      0.000
REMARK  2 active torsions:
REMARK  status: ('A' for Active; 'I' for Inactive)
REMARK    1  A    between atoms: C4_8  and  N4_9 
REMARK    2  A    between atoms: N6_15  and  O1_17 
ROOT
HETATM    1  N1  UNL     1      24.349   5.557  31.080  1.00  0.00    -0.191 NA
HETATM    2  C1  UNL     1      24.464   4.599  30.442  1.00  0.00     0.107 C 
HETATM    3  C2  UNL     1      24.594   3.385  29.665  1.00  0.00     0.132 A 
HETATM    4  C3  UNL     1      24.099   2.184  30.172  1.00  0.00     0.156 A 
HETATM    5  N2  UNL     1      23.484   2.233  31.450  1.00  0.00    -0.080 NA
HETATM    6  N3  UNL     1      24.210   1.047  29.464  1.00  0.00    -0.177 N 
ATOM      7  H3  UNL     1      23.840   0.181  29.855  1.00  0.00     0.185 HD
HETATM    8  C4  UNL     1      24.797   1.019  28.253  1.00  0.00     0.678 A 
HETATM    9  N5  UNL     1      25.282   2.158  27.743  1.00  0.00    -0.174 N 
ATOM     10  H5  UNL     1      25.727   2.144  26.826  1.00  0.00     0.186 HD
HETATM   11  C5  UNL     1      25.192   3.344  28.425  1.00  0.00     0.164 A 
HETATM   12  N6  UNL     1      25.663   4.411  27.911  1.00  0.00    -0.251 N 
ATOM     13  H6  UNL     1      26.093   4.309  26.992  1.00  0.00     0.196 HD
ENDROOT
BRANCH  12  14
HETATM   14  O1  UNL     1      25.668   5.659  28.426  1.00  0.00    -0.288 OA
ATOM     15  H1  UNL     1      26.210   6.007  29.125  1.00  0.00     0.244 HD
ENDBRANCH  12  14
BRANCH   8  16
HETATM   16  N4  UNL     1      24.888  -0.107  27.592  1.00  0.00    -0.234 N 
ATOM     17  H42 UNL     1      25.798  -0.507  27.359  1.00  0.00     0.174 HD
ATOM     18  H41 UNL     1      24.044  -0.601  27.302  1.00  0.00     0.174 HD
ENDBRANCH   8  16
TORSDOF 2
ENDMDL
MODEL 2
REMARK VINA RESULT: -6.483417175      1.394      2.567
REMARK  2 active torsions:
REMARK  status: ('A' for Active; 'I' for Inactive)
REMARK    1  A    between atoms: C4_8  and  N4_9 
REMARK    2  A    between atoms: N6_15  and  O1_17 
ROOT
HETATM    1  N1  UNL     1      25.713   5.477  28.528  1.00  0.00    -0.191 NA
HETATM    2  C1  UNL     1      25.239   4.536  29.006  1.00  0.00     0.107 C 
HETATM    3  C2  UNL     1      24.637   3.376  29.627  1.00  0.00     0.132 A 
HETATM    4  C3  UNL     1      24.056   3.492  30.889  1.00  0.00     0.156 A 
HETATM    5  N2  UNL     1      24.094   4.774  31.497  1.00  0.00    -0.080 NA
HETATM    6  N3  UNL     1      23.492   2.425  31.482  1.00  0.00    -0.177 N 
ATOM      7  H3  UNL     1      23.073   2.535  32.405  1.00  0.00     0.185 HD
HETATM    8  C4  UNL     1      23.466   1.216  30.891  1.00  0.00     0.678 A 
HETATM    9  N5  UNL     1      24.018   1.078  29.678  1.00  0.00    -0.174 N 
ATOM     10  H5  UNL     1      24.001   0.164  29.225  1.00  0.00     0.186 HD
HETATM   11  C5  UNL     1      24.604   2.135  29.032  1.00  0.00     0.164 A 
HETATM   12  N6  UNL     1      25.120   1.969  27.879  1.00  0.00    -0.251 N 
ATOM     13  H6  UNL     1      25.061   1.025  27.498  1.00  0.00     0.196 HD
ENDROOT
BRANCH  12  14
HETATM   14  O1  UNL     1      25.735   2.881  27.096  1.00  0.00    -0.288 OA
ATOM     15  H1  UNL     1      26.241   2.734  26.305  1.00  0.00     0.244 HD
ENDBRANCH  12  14
BRANCH   8  16
HETATM   16  N4  UNL     1      22.909   0.200  31.497  1.00  0.00    -0.234 N 
ATOM     17  H42 UNL     1      23.064   0.032  32.492  1.00  0.00     0.174 HD
ATOM     18  H41 UNL     1      22.308  -0.441  30.978  1.00  0.00     0.174 HD
ENDBRANCH   8  16
TORSDOF 2
ENDMDL
MODEL 3
REMARK VINA RESULT: -6.303608234      1.501      2.780
REMARK  2 active torsions:
REMARK  status: ('A' for Active; 'I' for Inactive)
REMARK    1  A    between atoms: C4_8  and  N4_9 
REMARK    2  A    between atoms: N6_15  and  O1_17 
ROOT
HETATM    1  N1  UNL     1      24.961   6.024  31.169  1.00  0.00    -0.191 NA
HETATM    2  C1  UNL     1      24.901   5.011  30.613  1.00  0.00     0.107 C 
HETATM    3  C2  UNL     1      24.842   3.755  29.896  1.00  0.00     0.132 A 
HETATM    4  C3  UNL     1      25.447   3.646  28.644  1.00  0.00     0.156 A 
HETATM    5  N2  UNL     1      26.097   4.804  28.143  1.00  0.00    -0.080 NA
HETATM    6  N3  UNL     1      25.403   2.488  27.963  1.00  0.00    -0.177 N 
ATOM      7  H3  UNL     1      25.853   2.432  27.050  1.00  0.00     0.185 HD
HETATM    8  C4  UNL     1      24.781   1.399  28.454  1.00  0.00     0.678 A 
HETATM    9  N5  UNL     1      24.192   1.477  29.654  1.00  0.00    -0.174 N 
ATOM     10  H5  UNL     1      23.720   0.656  30.031  1.00  0.00     0.186 HD
HETATM   11  C5  UNL     1      24.210   2.635  30.387  1.00  0.00     0.164 A 
HETATM   12  N6  UNL     1      23.640   2.676  31.526  1.00  0.00    -0.251 N 
ATOM     13  H6  UNL     1      23.190   1.812  31.829  1.00  0.00     0.196 HD
ENDROOT
BRANCH  12  14
HETATM   14  O1  UNL     1      23.553   3.715  32.384  1.00  0.00    -0.288 OA
ATOM     15  H1  UNL     1      24.029   4.536  32.366  1.00  0.00     0.244 HD
ENDBRANCH  12  14
BRANCH   8  16
HETATM   16  N4  UNL     1      24.758   0.288  27.763  1.00  0.00    -0.234 N 
ATOM     17  H42 UNL     1      25.384   0.150  26.969  1.00  0.00     0.174 HD
ATOM     18  H41 UNL     1      24.109  -0.458  28.014  1.00  0.00     0.174 HD
ENDBRANCH   8  16
TORSDOF 2
ENDMDL
MODEL 4
REMARK VINA RESULT: -6.192127917      1.364      3.733
REMARK  2 active torsions:
REMARK  status: ('A' for Active; 'I' for Inactive)
REMARK    1  A    between atoms: C4_8  and  N4_9 
REMARK    2  A    between atoms: N6_15  and  O1_17 
ROOT
HETATM    1  N1  UNL     1      24.269   0.671  28.361  1.00  0.00    -0.191 NA
HETATM    2  C1  UNL     1      24.430   1.689  28.886  1.00  0.00     0.107 C 
HETATM    3  C2  UNL     1      24.619   2.952  29.568  1.00  0.00     0.132 A 
HETATM    4  C3  UNL     1      24.162   3.105  30.876  1.00  0.00     0.156 A 
HETATM    5  N2  UNL     1      23.525   1.983  31.468  1.00  0.00    -0.080 NA
HETATM    6  N3  UNL     1      24.329   4.270  31.525  1.00  0.00    -0.177 N 
ATOM      7  H3  UNL     1      23.987   4.358  32.482  1.00  0.00     0.185 HD
HETATM    8  C4  UNL     1      24.934   5.324  30.948  1.00  0.00     0.678 A 
HETATM    9  N5  UNL     1      25.382   5.203  29.692  1.00  0.00    -0.174 N 
ATOM     10  H5  UNL     1      25.842   5.999  29.248  1.00  0.00     0.186 HD
HETATM   11  C5  UNL     1      25.237   4.037  28.988  1.00  0.00     0.164 A 
HETATM   12  N6  UNL     1      25.675   3.955  27.794  1.00  0.00    -0.251 N 
ATOM     13  H6  UNL     1      26.121   4.795  27.426  1.00  0.00     0.196 HD
ENDROOT
BRANCH  12  14
HETATM   14  O1  UNL     1      25.625   2.900  26.952  1.00  0.00    -0.288 OA
ATOM     15  H1  UNL     1      26.179   2.716  26.203  1.00  0.00     0.244 HD
ENDBRANCH  12  14
BRANCH   8  16
HETATM   16  N4  UNL     1      25.079   6.443  31.610  1.00  0.00    -0.234 N 
ATOM     17  H42 UNL     1      24.785   7.334  31.207  1.00  0.00     0.174 HD
ATOM     18  H41 UNL     1      25.490   6.438  32.543  1.00  0.00     0.174 HD
ENDBRANCH   8  16
TORSDOF 2
ENDMDL
MODEL 5
REMARK VINA RESULT: -6.148891984      1.410      2.933
REMARK  2 active torsions:
REMARK  status: ('A' for Active; 'I' for Inactive)
REMARK    1  A    between atoms: C4_8  and  N4_9 
REMARK    2  A    between atoms: N6_15  and  O1_17 
ROOT
HETATM    1  N1  UNL     1      26.187   5.345  28.654  1.00  0.00    -0.191 NA
HETATM    2  C1  UNL     1      25.602   4.466  29.125  1.00  0.00     0.107 C 
HETATM    3  C2  UNL     1      24.880   3.347  29.694  1.00  0.00     0.132 A 
HETATM    4  C3  UNL     1      24.957   2.095  29.086  1.00  0.00     0.156 A 
HETATM    5  N2  UNL     1      25.758   1.998  27.918  1.00  0.00    -0.080 NA
HETATM    6  N3  UNL     1      24.294   1.045  29.600  1.00  0.00    -0.177 N 
ATOM      7  H3  UNL     1      24.366   0.139  29.138  1.00  0.00     0.185 HD
HETATM    8  C4  UNL     1      23.538   1.156  30.708  1.00  0.00     0.678 A 
HETATM    9  N5  UNL     1      23.448   2.347  31.312  1.00  0.00    -0.174 N 
ATOM     10  H5  UNL     1      22.877   2.438  32.152  1.00  0.00     0.186 HD
HETATM   11  C5  UNL     1      24.105   3.448  30.828  1.00  0.00     0.164 A 
HETATM   12  N6  UNL     1      23.997   4.568  31.426  1.00  0.00    -0.251 N 
ATOM     13  H6  UNL     1      23.407   4.572  32.258  1.00  0.00     0.196 HD
ENDROOT
BRANCH  12  14
HETATM   14  O1  UNL     1      24.564   5.750  31.102  1.00  0.00    -0.288 OA
ATOM     15  H1  UNL     1      25.009   6.367  31.671  1.00  0.00     0.244 HD
ENDBRANCH  12  14
BRANCH   8  16
HETATM   16  N4  UNL     1      22.907   0.112  31.180  1.00  0.00    -0.234 N 
ATOM     17  H42 UNL     1      22.643  -0.662  30.571  1.00  0.00     0.174 HD
ATOM     18  H41 UNL     1      22.670   0.060  32.171  1.00  0.00     0.174 HD
ENDBRANCH   8  16
TORSDOF 2
ENDMDL
