MODEL 1
REMARK VINA RESULT: -7.632840960      0.000      0.000
REMARK  5 active torsions:
REMARK  status: ('A' for Active; 'I' for Inactive)
REMARK    1  A    between atoms: C3_3  and  C4_4 
REMARK    2  A    between atoms: C4_4  and  C5_5 
REMARK    3  A    between atoms: C8_8  and  C9_9 
REMARK    4  A    between atoms: C9_9  and  O2_11 
REMARK    5  A    between atoms: O2_11  and  C10_12 
ROOT
HETATM    1  C5  UNL     1      -9.789  12.109 -18.499  1.00  0.00    -0.011 C 
HETATM    2  C6  UNL     1      -9.468  10.695 -18.752  1.00  0.00     0.006 C 
HETATM    3  C7  UNL     1     -10.366   9.970 -19.698  1.00  0.00     0.015 C 
HETATM    4  C8  UNL     1     -11.319  10.887 -20.436  1.00  0.00     0.085 C 
HETATM    5  C13 UNL     1     -12.107  11.580 -19.345  1.00  0.00     0.015 C 
HETATM    6  C14 UNL     1     -11.218  12.509 -18.615  1.00  0.00     0.006 C 
ENDROOT
BRANCH   4   7
HETATM    7  C9  UNL     1     -12.178  10.041 -21.290  1.00  0.00     0.263 C 
HETATM    8  O1  UNL     1     -12.024   8.802 -21.269  1.00  0.00    -0.265 OA
BRANCH   7   9
HETATM    9  O2  UNL     1     -13.125  10.628 -22.084  1.00  0.00    -0.317 OA
BRANCH   9  10
HETATM   10  C10 UNL     1     -14.311   9.977 -22.509  1.00  0.00     0.123 C 
HETATM   11  C11 UNL     1     -14.159   9.688 -23.987  1.00  0.00     0.040 C 
HETATM   12  C12 UNL     1     -15.461  10.928 -22.239  1.00  0.00     0.040 C 
ENDBRANCH   9  10
ENDBRANCH   7   9
ENDBRANCH   4   7
BRANCH   1  13
HETATM   13  C4  UNL     1      -9.291  12.603 -17.142  1.00  0.00     0.031 C 
BRANCH  13  14
HETATM   14  C3  UNL     1      -7.984  13.277 -17.214  1.00  0.00    -0.031 C 
HETATM   15  C2  UNL     1      -6.888  12.813 -16.607  1.00  0.00    -0.035 C 
HETATM   16  C1  UNL     1      -5.605  13.544 -16.722  1.00  0.00     0.036 C 
ENDBRANCH  13  14
ENDBRANCH   1  13
TORSDOF 5
ENDMDL
MODEL 2
REMARK VINA RESULT: -7.626234488      1.232      2.061
REMARK  5 active torsions:
REMARK  status: ('A' for Active; 'I' for Inactive)
REMARK    1  A    between atoms: C3_3  and  C4_4 
REMARK    2  A    between atoms: C4_4  and  C5_5 
REMARK    3  A    between atoms: C8_8  and  C9_9 
REMARK    4  A    between atoms: C9_9  and  O2_11 
REMARK    5  A    between atoms: O2_11  and  C10_12 
ROOT
HETATM    1  C5  UNL     1     -10.605  11.152 -19.449  1.00  0.00    -0.011 C 
HETATM    2  C6  UNL     1     -10.947   9.807 -19.938  1.00  0.00     0.006 C 
HETATM    3  C7  UNL     1     -12.232   9.681 -20.688  1.00  0.00     0.015 C 
HETATM    4  C8  UNL     1     -12.851  11.019 -21.038  1.00  0.00     0.085 C 
HETATM    5  C13 UNL     1     -13.053  11.708 -19.706  1.00  0.00     0.015 C 
HETATM    6  C14 UNL     1     -11.736  12.067 -19.136  1.00  0.00     0.006 C 
ENDROOT
BRANCH   4   7
HETATM    7  C9  UNL     1     -14.132  10.749 -21.724  1.00  0.00     0.263 C 
HETATM    8  O1  UNL     1     -15.052  11.589 -21.644  1.00  0.00    -0.265 OA
BRANCH   7   9
HETATM    9  O2  UNL     1     -14.284   9.589 -22.432  1.00  0.00    -0.317 OA
BRANCH   9  10
HETATM   10  C10 UNL     1     -13.906   9.441 -23.791  1.00  0.00     0.123 C 
HETATM   11  C11 UNL     1     -14.687  10.464 -24.588  1.00  0.00     0.040 C 
HETATM   12  C12 UNL     1     -14.260   8.024 -24.198  1.00  0.00     0.040 C 
ENDBRANCH   9  10
ENDBRANCH   7   9
ENDBRANCH   4   7
BRANCH   1  13
HETATM   13  C4  UNL     1      -9.690  11.130 -18.227  1.00  0.00     0.031 C 
BRANCH  13  14
HETATM   14  C3  UNL     1      -9.080  12.438 -17.935  1.00  0.00    -0.031 C 
HETATM   15  C2  UNL     1      -7.908  12.575 -17.308  1.00  0.00    -0.035 C 
HETATM   16  C1  UNL     1      -7.354  13.923 -17.047  1.00  0.00     0.036 C 
ENDBRANCH  13  14
ENDBRANCH   1  13
TORSDOF 5
ENDMDL
MODEL 3
REMARK VINA RESULT: -7.620538252      0.797      1.128
REMARK  5 active torsions:
REMARK  status: ('A' for Active; 'I' for Inactive)
REMARK    1  A    between atoms: C3_3  and  C4_4 
REMARK    2  A    between atoms: C4_4  and  C5_5 
REMARK    3  A    between atoms: C8_8  and  C9_9 
REMARK    4  A    between atoms: C9_9  and  O2_11 
REMARK    5  A    between atoms: O2_11  and  C10_12 
ROOT
HETATM    1  C5  UNL     1     -10.311  12.099 -19.026  1.00  0.00    -0.011 C 
HETATM    2  C6  UNL     1      -9.936  10.678 -19.107  1.00  0.00     0.006 C 
HETATM    3  C7  UNL     1     -10.812   9.807 -19.945  1.00  0.00     0.015 C 
HETATM    4  C8  UNL     1     -11.806  10.590 -20.780  1.00  0.00     0.085 C 
HETATM    5  C13 UNL     1     -12.612  11.381 -19.773  1.00  0.00     0.015 C 
HETATM    6  C14 UNL     1     -11.755  12.427 -19.174  1.00  0.00     0.006 C 
ENDROOT
BRANCH   4   7
HETATM    7  C9  UNL     1     -12.637   9.612 -21.512  1.00  0.00     0.263 C 
HETATM    8  O1  UNL     1     -12.246   8.430 -21.604  1.00  0.00    -0.265 OA
BRANCH   7   9
HETATM    9  O2  UNL     1     -13.817  10.019 -22.073  1.00  0.00    -0.317 OA
BRANCH   9  10
HETATM   10  C10 UNL     1     -14.010  10.185 -23.469  1.00  0.00     0.123 C 
HETATM   11  C11 UNL     1     -15.101  11.218 -23.650  1.00  0.00     0.040 C 
HETATM   12  C12 UNL     1     -14.418   8.834 -24.023  1.00  0.00     0.040 C 
ENDBRANCH   9  10
ENDBRANCH   7   9
ENDBRANCH   4   7
BRANCH   1  13
HETATM   13  C4  UNL     1      -9.823  12.775 -17.747  1.00  0.00     0.031 C 
BRANCH  13  14
HETATM   14  C3  UNL     1      -8.403  12.514 -17.458  1.00  0.00    -0.031 C 
HETATM   15  C2  UNL     1      -7.554  13.460 -17.046  1.00  0.00    -0.035 C 
HETATM   16  C1  UNL     1      -6.138  13.126 -16.775  1.00  0.00     0.036 C 
ENDBRANCH  13  14
ENDBRANCH   1  13
TORSDOF 5
ENDMDL
MODEL 4
REMARK VINA RESULT: -7.570324935      2.138      6.934
REMARK  5 active torsions:
REMARK  status: ('A' for Active; 'I' for Inactive)
REMARK    1  A    between atoms: C3_3  and  C4_4 
REMARK    2  A    between atoms: C4_4  and  C5_5 
REMARK    3  A    between atoms: C8_8  and  C9_9 
REMARK    4  A    between atoms: C9_9  and  O2_11 
REMARK    5  A    between atoms: O2_11  and  C10_12 
ROOT
HETATM    1  C5  UNL     1     -14.030  11.251 -20.870  1.00  0.00    -0.011 C 
HETATM    2  C6  UNL     1     -13.330  10.031 -20.438  1.00  0.00     0.006 C 
HETATM    3  C7  UNL     1     -12.108  10.228 -19.603  1.00  0.00     0.015 C 
HETATM    4  C8  UNL     1     -11.934  11.657 -19.130  1.00  0.00     0.085 C 
HETATM    5  C13 UNL     1     -11.875  12.477 -20.401  1.00  0.00     0.015 C 
HETATM    6  C14 UNL     1     -13.206  12.479 -21.044  1.00  0.00     0.006 C 
ENDROOT
BRANCH   4   7
HETATM    7  C9  UNL     1     -10.669  11.721 -18.368  1.00  0.00     0.263 C 
HETATM    8  O1  UNL     1     -10.688  11.497 -17.140  1.00  0.00    -0.265 OA
BRANCH   7   9
HETATM    9  O2  UNL     1      -9.505  12.022 -19.021  1.00  0.00    -0.317 OA
BRANCH   9  10
HETATM   10  C10 UNL     1      -8.219  11.895 -18.436  1.00  0.00     0.123 C 
HETATM   11  C11 UNL     1      -8.075  10.460 -17.979  1.00  0.00     0.040 C 
HETATM   12  C12 UNL     1      -8.164  12.864 -17.271  1.00  0.00     0.040 C 
ENDBRANCH   9  10
ENDBRANCH   7   9
ENDBRANCH   4   7
BRANCH   1  13
HETATM   13  C4  UNL     1     -14.830  11.058 -22.157  1.00  0.00     0.031 C 
BRANCH  13  14
HETATM   14  C3  UNL     1     -14.808   9.671 -22.651  1.00  0.00    -0.031 C 
HETATM   15  C2  UNL     1     -14.322   9.329 -23.848  1.00  0.00    -0.035 C 
HETATM   16  C1  UNL     1     -14.333   7.913 -24.281  1.00  0.00     0.036 C 
ENDBRANCH  13  14
ENDBRANCH   1  13
TORSDOF 5
ENDMDL
MODEL 5
REMARK VINA RESULT: -7.545590235      1.217      2.152
REMARK  5 active torsions:
REMARK  status: ('A' for Active; 'I' for Inactive)
REMARK    1  A    between atoms: C3_3  and  C4_4 
REMARK    2  A    between atoms: C4_4  and  C5_5 
REMARK    3  A    between atoms: C8_8  and  C9_9 
REMARK    4  A    between atoms: C9_9  and  O2_11 
REMARK    5  A    between atoms: O2_11  and  C10_12 
ROOT
HETATM    1  C5  UNL     1     -10.387  11.118 -18.639  1.00  0.00    -0.011 C 
HETATM    2  C6  UNL     1     -10.808  12.469 -19.045  1.00  0.00     0.006 C 
HETATM    3  C7  UNL     1     -11.990  12.550 -19.953  1.00  0.00     0.015 C 
HETATM    4  C8  UNL     1     -12.715  11.228 -20.107  1.00  0.00     0.085 C 
HETATM    5  C13 UNL     1     -11.668  10.277 -20.644  1.00  0.00     0.015 C 
HETATM    6  C14 UNL     1     -10.666  10.008 -19.591  1.00  0.00     0.006 C 
ENDROOT
BRANCH   4   7
HETATM    7  C9  UNL     1     -13.820  11.437 -21.065  1.00  0.00     0.263 C 
HETATM    8  O1  UNL     1     -14.370  12.557 -21.125  1.00  0.00    -0.265 OA
BRANCH   7   9
HETATM    9  O2  UNL     1     -14.219  10.403 -21.868  1.00  0.00    -0.317 OA
BRANCH   9  10
HETATM   10  C10 UNL     1     -13.982  10.355 -23.266  1.00  0.00     0.123 C 
HETATM   11  C11 UNL     1     -15.064  11.179 -23.931  1.00  0.00     0.040 C 
HETATM   12  C12 UNL     1     -14.055   8.897 -23.678  1.00  0.00     0.040 C 
ENDBRANCH   9  10
ENDBRANCH   7   9
ENDBRANCH   4   7
BRANCH   1  13
HETATM   13  C4  UNL     1      -8.907  11.038 -18.273  1.00  0.00     0.031 C 
BRANCH  13  14
HETATM   14  C3  UNL     1      -8.428  12.217 -17.531  1.00  0.00    -0.031 C 
HETATM   15  C2  UNL     1      -7.204  12.301 -17.003  1.00  0.00    -0.035 C 
HETATM   16  C1  UNL     1      -6.789  13.518 -16.269  1.00  0.00     0.036 C 
ENDBRANCH  13  14
ENDBRANCH   1  13
TORSDOF 5
ENDMDL
