MODEL 1
REMARK VINA RESULT: -7.023627498      0.000      0.000
REMARK  7 active torsions:
REMARK  status: ('A' for Active; 'I' for Inactive)
REMARK    1  A    between atoms: C2_2  and  C3_3 
REMARK    2  A    between atoms: C3_3  and  C4_4 
REMARK    3  A    between atoms: C4_4  and  C5_5 
REMARK    4  A    between atoms: C5_5  and  O1_6 
REMARK    5  A    between atoms: C5_5  and  C6_8 
REMARK    6  A    between atoms: C6_8  and  O2_9 
REMARK    7  A    between atoms: O2_9  and  C7_10 
ROOT
HETATM    1  O2  UNL     1     -12.753  10.381 -20.517  1.00  0.00    -0.349 OA
ENDROOT
BRANCH   1   2
HETATM    2  C6  UNL     1     -11.401  10.256 -20.298  1.00  0.00     0.207 C 
BRANCH   2   3
HETATM    3  C5  UNL     1     -10.792  11.537 -19.815  1.00  0.00     0.142 C 
BRANCH   3   4
HETATM    4  C4  UNL     1     -11.346  12.076 -18.537  1.00  0.00     0.037 C 
BRANCH   4   5
HETATM    5  C3  UNL     1     -10.475  11.778 -17.364  1.00  0.00     0.029 C 
BRANCH   5   6
HETATM    6  C2  UNL     1      -9.037  11.974 -17.780  1.00  0.00    -0.037 C 
HETATM    7  C1  UNL     1      -8.340  12.940 -17.255  1.00  0.00     0.007 C 
ENDBRANCH   5   6
ENDBRANCH   4   5
ENDBRANCH   3   4
BRANCH   3   8
HETATM    8  O1  UNL     1     -11.034  12.502 -20.850  1.00  0.00    -0.393 OA
ATOM      9  H1  UNL     1     -10.468  12.296 -21.584  1.00  0.00     0.210 HD
ENDBRANCH   3   8
ENDBRANCH   2   3
ENDBRANCH   1   2
BRANCH   1  10
HETATM   10  C7  UNL     1     -13.405  10.285 -21.725  1.00  0.00     0.069 A 
HETATM   11  C8  UNL     1     -13.292   9.099 -22.417  1.00  0.00     0.043 A 
HETATM   12  C9  UNL     1     -13.900   8.886 -23.637  1.00  0.00    -0.059 A 
HETATM   13  C10 UNL     1     -13.744   7.574 -24.347  1.00  0.00     0.048 C 
HETATM   14  C11 UNL     1     -14.650   9.917 -24.168  1.00  0.00     0.013 A 
HETATM   15  C12 UNL     1     -14.797  11.125 -23.519  1.00  0.00    -0.059 A 
HETATM   16  C13 UNL     1     -15.616  12.201 -24.137  1.00  0.00     0.048 C 
HETATM   17  C14 UNL     1     -14.162  11.286 -22.293  1.00  0.00     0.043 A 
ENDBRANCH   1  10
TORSDOF 7
ENDMDL
MODEL 2
REMARK VINA RESULT: -6.984740245      0.083      2.133
REMARK  7 active torsions:
REMARK  status: ('A' for Active; 'I' for Inactive)
REMARK    1  A    between atoms: C2_2  and  C3_3 
REMARK    2  A    between atoms: C3_3  and  C4_4 
REMARK    3  A    between atoms: C4_4  and  C5_5 
REMARK    4  A    between atoms: C5_5  and  O1_6 
REMARK    5  A    between atoms: C5_5  and  C6_8 
REMARK    6  A    between atoms: C6_8  and  O2_9 
REMARK    7  A    between atoms: O2_9  and  C7_10 
ROOT
HETATM    1  O2  UNL     1     -12.744  10.476 -20.568  1.00  0.00    -0.349 OA
ENDROOT
BRANCH   1   2
HETATM    2  C6  UNL     1     -11.417  10.300 -20.252  1.00  0.00     0.207 C 
BRANCH   2   3
HETATM    3  C5  UNL     1     -10.777  11.574 -19.791  1.00  0.00     0.142 C 
BRANCH   3   4
HETATM    4  C4  UNL     1     -11.285  12.123 -18.498  1.00  0.00     0.037 C 
BRANCH   4   5
HETATM    5  C3  UNL     1     -10.413  11.762 -17.343  1.00  0.00     0.029 C 
BRANCH   5   6
HETATM    6  C2  UNL     1      -8.975  11.978 -17.749  1.00  0.00    -0.037 C 
HETATM    7  C1  UNL     1      -8.302  12.968 -17.238  1.00  0.00     0.007 C 
ENDBRANCH   5   6
ENDBRANCH   4   5
ENDBRANCH   3   4
BRANCH   3   8
HETATM    8  O1  UNL     1     -11.041  12.540 -20.821  1.00  0.00    -0.393 OA
ATOM      9  H1  UNL     1     -11.949  12.450 -21.084  1.00  0.00     0.210 HD
ENDBRANCH   3   8
ENDBRANCH   2   3
ENDBRANCH   1   2
BRANCH   1  10
HETATM   10  C7  UNL     1     -13.348  10.205 -21.774  1.00  0.00     0.069 A 
HETATM   11  C8  UNL     1     -14.119  11.198 -22.338  1.00  0.00     0.043 A 
HETATM   12  C9  UNL     1     -14.773  11.042 -23.542  1.00  0.00    -0.059 A 
HETATM   13  C10 UNL     1     -15.600  12.157 -24.110  1.00  0.00     0.048 C 
HETATM   14  C11 UNL     1     -14.634   9.832 -24.194  1.00  0.00     0.013 A 
HETATM   15  C12 UNL     1     -13.875   8.804 -23.676  1.00  0.00    -0.059 A 
HETATM   16  C13 UNL     1     -13.760   7.523 -24.421  1.00  0.00     0.048 C 
HETATM   17  C14 UNL     1     -13.239   9.015 -22.459  1.00  0.00     0.043 A 
ENDBRANCH   1  10
TORSDOF 7
ENDMDL
MODEL 3
REMARK VINA RESULT: -6.533135449      1.149      2.445
REMARK  7 active torsions:
REMARK  status: ('A' for Active; 'I' for Inactive)
REMARK    1  A    between atoms: C2_2  and  C3_3 
REMARK    2  A    between atoms: C3_3  and  C4_4 
REMARK    3  A    between atoms: C4_4  and  C5_5 
REMARK    4  A    between atoms: C5_5  and  O1_6 
REMARK    5  A    between atoms: C5_5  and  C6_8 
REMARK    6  A    between atoms: C6_8  and  O2_9 
REMARK    7  A    between atoms: O2_9  and  C7_10 
ROOT
HETATM    1  O2  UNL     1     -11.622  10.030 -20.400  1.00  0.00    -0.349 OA
ENDROOT
BRANCH   1   2
HETATM    2  C6  UNL     1     -11.610  10.881 -19.320  1.00  0.00     0.207 C 
BRANCH   2   3
HETATM    3  C5  UNL     1     -10.446  11.823 -19.361  1.00  0.00     0.142 C 
BRANCH   3   4
HETATM    4  C4  UNL     1      -9.315  11.495 -18.443  1.00  0.00     0.037 C 
BRANCH   4   5
HETATM    5  C3  UNL     1      -9.290  12.366 -17.233  1.00  0.00     0.029 C 
BRANCH   5   6
HETATM    6  C2  UNL     1      -7.875  12.846 -17.023  1.00  0.00    -0.037 C 
HETATM    7  C1  UNL     1      -6.877  12.089 -17.378  1.00  0.00     0.007 C 
ENDBRANCH   5   6
ENDBRANCH   4   5
ENDBRANCH   3   4
BRANCH   3   8
HETATM    8  O1  UNL     1     -10.967  13.108 -18.988  1.00  0.00    -0.393 OA
ATOM      9  H1  UNL     1     -11.340  13.512 -19.763  1.00  0.00     0.210 HD
ENDBRANCH   3   8
ENDBRANCH   2   3
ENDBRANCH   1   2
BRANCH   1  10
HETATM   10  C7  UNL     1     -12.628   9.888 -21.328  1.00  0.00     0.069 A 
HETATM   11  C8  UNL     1     -13.686  10.768 -21.260  1.00  0.00     0.043 A 
HETATM   12  C9  UNL     1     -14.752  10.723 -22.135  1.00  0.00    -0.059 A 
HETATM   13  C10 UNL     1     -15.879  11.706 -22.014  1.00  0.00     0.048 C 
HETATM   14  C11 UNL     1     -14.735   9.750 -23.114  1.00  0.00     0.013 A 
HETATM   15  C12 UNL     1     -13.702   8.845 -23.230  1.00  0.00    -0.059 A 
HETATM   16  C13 UNL     1     -13.736   7.818 -24.305  1.00  0.00     0.048 C 
HETATM   17  C14 UNL     1     -12.654   8.935 -22.322  1.00  0.00     0.043 A 
ENDBRANCH   1  10
TORSDOF 7
ENDMDL
MODEL 4
REMARK VINA RESULT: -6.463236335      1.141      1.366
REMARK  7 active torsions:
REMARK  status: ('A' for Active; 'I' for Inactive)
REMARK    1  A    between atoms: C2_2  and  C3_3 
REMARK    2  A    between atoms: C3_3  and  C4_4 
REMARK    3  A    between atoms: C4_4  and  C5_5 
REMARK    4  A    between atoms: C5_5  and  O1_6 
REMARK    5  A    between atoms: C5_5  and  C6_8 
REMARK    6  A    between atoms: C6_8  and  O2_9 
REMARK    7  A    between atoms: O2_9  and  C7_10 
ROOT
HETATM    1  O2  UNL     1     -11.506  10.037 -20.572  1.00  0.00    -0.349 OA
ENDROOT
BRANCH   1   2
HETATM    2  C6  UNL     1     -11.372  10.729 -19.391  1.00  0.00     0.207 C 
BRANCH   2   3
HETATM    3  C5  UNL     1     -10.344  11.814 -19.492  1.00  0.00     0.142 C 
BRANCH   3   4
HETATM    4  C4  UNL     1      -9.144  11.653 -18.617  1.00  0.00     0.037 C 
BRANCH   4   5
HETATM    5  C3  UNL     1      -9.248  12.441 -17.355  1.00  0.00     0.029 C 
BRANCH   5   6
HETATM    6  C2  UNL     1      -7.887  13.014 -17.041  1.00  0.00    -0.037 C 
HETATM    7  C1  UNL     1      -6.818  12.325 -17.314  1.00  0.00     0.007 C 
ENDBRANCH   5   6
ENDBRANCH   4   5
ENDBRANCH   3   4
BRANCH   3   8
HETATM    8  O1  UNL     1     -11.014  13.026 -19.113  1.00  0.00    -0.393 OA
ATOM      9  H1  UNL     1     -11.766  12.794 -18.581  1.00  0.00     0.210 HD
ENDBRANCH   3   8
ENDBRANCH   2   3
ENDBRANCH   1   2
BRANCH   1  10
HETATM   10  C7  UNL     1     -12.614  10.001 -21.387  1.00  0.00     0.069 A 
HETATM   11  C8  UNL     1     -12.651   9.038 -22.371  1.00  0.00     0.043 A 
HETATM   12  C9  UNL     1     -13.709   8.906 -23.247  1.00  0.00    -0.059 A 
HETATM   13  C10 UNL     1     -13.696   7.838 -24.301  1.00  0.00     0.048 C 
HETATM   14  C11 UNL     1     -14.765   9.785 -23.112  1.00  0.00     0.013 A 
HETATM   15  C12 UNL     1     -14.782  10.767 -22.145  1.00  0.00    -0.059 A 
HETATM   16  C13 UNL     1     -15.946  11.686 -22.045  1.00  0.00     0.048 C 
HETATM   17  C14 UNL     1     -13.690  10.856 -21.290  1.00  0.00     0.043 A 
ENDBRANCH   1  10
TORSDOF 7
ENDMDL
MODEL 5
REMARK VINA RESULT: -6.428911103      1.273      7.014
REMARK  7 active torsions:
REMARK  status: ('A' for Active; 'I' for Inactive)
REMARK    1  A    between atoms: C2_2  and  C3_3 
REMARK    2  A    between atoms: C3_3  and  C4_4 
REMARK    3  A    between atoms: C4_4  and  C5_5 
REMARK    4  A    between atoms: C5_5  and  O1_6 
REMARK    5  A    between atoms: C5_5  and  C6_8 
REMARK    6  A    between atoms: C6_8  and  O2_9 
REMARK    7  A    between atoms: O2_9  and  C7_10 
ROOT
HETATM    1  O2  UNL     1     -11.613  11.940 -20.176  1.00  0.00    -0.349 OA
ENDROOT
BRANCH   1   2
HETATM    2  C6  UNL     1     -12.692  11.095 -20.297  1.00  0.00     0.207 C 
BRANCH   2   3
HETATM    3  C5  UNL     1     -12.574  10.206 -21.497  1.00  0.00     0.142 C 
BRANCH   3   4
HETATM    4  C4  UNL     1     -13.861   9.670 -22.034  1.00  0.00     0.037 C 
BRANCH   4   5
HETATM    5  C3  UNL     1     -14.924  10.712 -22.119  1.00  0.00     0.029 C 
BRANCH   5   6
HETATM    6  C2  UNL     1     -15.102  11.090 -23.569  1.00  0.00    -0.037 C 
HETATM    7  C1  UNL     1     -14.649  10.303 -24.502  1.00  0.00     0.007 C 
ENDBRANCH   5   6
ENDBRANCH   4   5
ENDBRANCH   3   4
BRANCH   3   8
HETATM    8  O1  UNL     1     -11.764   9.094 -21.085  1.00  0.00    -0.393 OA
ATOM      9  H1  UNL     1     -11.004   9.056 -21.653  1.00  0.00     0.210 HD
ENDBRANCH   3   8
ENDBRANCH   2   3
ENDBRANCH   1   2
BRANCH   1  10
HETATM   10  C7  UNL     1     -10.634  11.894 -19.210  1.00  0.00     0.069 A 
HETATM   11  C8  UNL     1     -11.032  11.987 -17.894  1.00  0.00     0.043 A 
HETATM   12  C9  UNL     1     -10.142  11.954 -16.841  1.00  0.00    -0.059 A 
HETATM   13  C10 UNL     1     -10.631  12.060 -15.427  1.00  0.00     0.048 C 
HETATM   14  C11 UNL     1      -8.800  11.820 -17.140  1.00  0.00     0.013 A 
HETATM   15  C12 UNL     1      -8.346  11.722 -18.438  1.00  0.00    -0.059 A 
HETATM   16  C13 UNL     1      -6.890  11.579 -18.703  1.00  0.00     0.048 C 
HETATM   17  C14 UNL     1      -9.286  11.762 -19.461  1.00  0.00     0.043 A 
ENDBRANCH   1  10
TORSDOF 7
ENDMDL
