MODEL 1
REMARK VINA RESULT: -6.776170352      0.000      0.000
REMARK  5 active torsions:
REMARK  status: ('A' for Active; 'I' for Inactive)
REMARK    1  A    between atoms: C2_2  and  O1_4 
REMARK    2  A    between atoms: O1_4  and  C4_5 
REMARK    3  A    between atoms: C4_5  and  C5_7 
REMARK    4  A    between atoms: C5_7  and  O3_8 
REMARK    5  A    between atoms: O3_8  and  C6_9 
ROOT
HETATM    1  C5  UNL     1     -11.260  11.611 -20.056  1.00  0.00     0.286 C 
ENDROOT
BRANCH   1   2
HETATM    2  C4  UNL     1     -11.831  10.534 -20.935  1.00  0.00     0.283 C 
HETATM    3  O2  UNL     1     -11.492   9.331 -20.794  1.00  0.00    -0.263 OA
BRANCH   2   4
HETATM    4  O1  UNL     1     -12.750  10.820 -21.933  1.00  0.00    -0.315 OA
BRANCH   4   5
HETATM    5  C2  UNL     1     -13.852   9.952 -22.123  1.00  0.00     0.123 C 
HETATM    6  C1  UNL     1     -15.097  10.849 -22.107  1.00  0.00     0.040 C 
HETATM    7  C3  UNL     1     -13.799   9.185 -23.397  1.00  0.00     0.040 C 
ENDBRANCH   4   5
ENDBRANCH   2   4
ENDBRANCH   1   2
BRANCH   1   8
HETATM    8  O3  UNL     1     -10.826  10.995 -18.860  1.00  0.00    -0.342 OA
BRANCH   8   9
HETATM    9  C6  UNL     1      -9.629  11.413 -18.317  1.00  0.00     0.069 A 
HETATM   10  C7  UNL     1      -9.561  12.631 -17.826  1.00  0.00     0.036 A 
HETATM   11  C8  UNL     1      -8.307  13.115 -17.240  1.00  0.00     0.204 A 
HETATM   12  O4  UNL     1      -7.243  12.236 -17.240  1.00  0.00    -0.359 OA
HETATM   13  C9  UNL     1      -7.344  10.964 -17.763  1.00  0.00     0.137 A 
HETATM   14  C10 UNL     1      -8.466  10.543 -18.283  1.00  0.00     0.060 A 
ENDBRANCH   8   9
ENDBRANCH   1   8
TORSDOF 5
ENDMDL
MODEL 2
REMARK VINA RESULT: -6.763523321      1.488      1.767
REMARK  5 active torsions:
REMARK  status: ('A' for Active; 'I' for Inactive)
REMARK    1  A    between atoms: C2_2  and  O1_4 
REMARK    2  A    between atoms: O1_4  and  C4_5 
REMARK    3  A    between atoms: C4_5  and  C5_7 
REMARK    4  A    between atoms: C5_7  and  O3_8 
REMARK    5  A    between atoms: O3_8  and  C6_9 
ROOT
HETATM    1  C5  UNL     1     -11.503  11.924 -18.589  1.00  0.00     0.286 C 
ENDROOT
BRANCH   1   2
HETATM    2  C4  UNL     1     -11.911  12.084 -20.026  1.00  0.00     0.283 C 
HETATM    3  O2  UNL     1     -11.068  12.373 -20.914  1.00  0.00    -0.263 OA
BRANCH   2   4
HETATM    4  O1  UNL     1     -13.226  11.918 -20.432  1.00  0.00    -0.315 OA
BRANCH   4   5
HETATM    5  C2  UNL     1     -13.508  11.063 -21.524  1.00  0.00     0.123 C 
HETATM    6  C1  UNL     1     -13.245   9.640 -21.018  1.00  0.00     0.040 C 
HETATM    7  C3  UNL     1     -14.904  11.171 -22.027  1.00  0.00     0.040 C 
ENDBRANCH   4   5
ENDBRANCH   2   4
ENDBRANCH   1   2
BRANCH   1   8
HETATM    8  O3  UNL     1     -10.472  12.859 -18.335  1.00  0.00    -0.342 OA
BRANCH   8   9
HETATM    9  C6  UNL     1      -9.241  12.372 -17.949  1.00  0.00     0.069 A 
HETATM   10  C7  UNL     1      -8.446  13.165 -17.265  1.00  0.00     0.036 A 
HETATM   11  C8  UNL     1      -7.128  12.686 -16.835  1.00  0.00     0.204 A 
HETATM   12  O4  UNL     1      -6.794  11.393 -17.185  1.00  0.00    -0.359 OA
HETATM   13  C9  UNL     1      -7.649  10.585 -17.903  1.00  0.00     0.137 A 
HETATM   14  C10 UNL     1      -8.821  11.022 -18.281  1.00  0.00     0.060 A 
ENDBRANCH   8   9
ENDBRANCH   1   8
TORSDOF 5
ENDMDL
MODEL 3
REMARK VINA RESULT: -6.747038052      1.490      2.104
REMARK  5 active torsions:
REMARK  status: ('A' for Active; 'I' for Inactive)
REMARK    1  A    between atoms: C2_2  and  O1_4 
REMARK    2  A    between atoms: O1_4  and  C4_5 
REMARK    3  A    between atoms: C4_5  and  C5_7 
REMARK    4  A    between atoms: C5_7  and  O3_8 
REMARK    5  A    between atoms: O3_8  and  C6_9 
ROOT
HETATM    1  C5  UNL     1     -11.492  11.912 -18.599  1.00  0.00     0.286 C 
ENDROOT
BRANCH   1   2
HETATM    2  C4  UNL     1     -11.915  12.085 -20.030  1.00  0.00     0.283 C 
HETATM    3  O2  UNL     1     -11.083  12.388 -20.924  1.00  0.00    -0.263 OA
BRANCH   2   4
HETATM    4  O1  UNL     1     -13.234  11.917 -20.424  1.00  0.00    -0.315 OA
BRANCH   4   5
HETATM    5  C2  UNL     1     -13.524  11.055 -21.508  1.00  0.00     0.123 C 
HETATM    6  C1  UNL     1     -13.248   9.635 -20.998  1.00  0.00     0.040 C 
HETATM    7  C3  UNL     1     -14.927  11.153 -21.995  1.00  0.00     0.040 C 
ENDBRANCH   4   5
ENDBRANCH   2   4
ENDBRANCH   1   2
BRANCH   1   8
HETATM    8  O3  UNL     1     -10.470  12.856 -18.343  1.00  0.00    -0.342 OA
BRANCH   8   9
HETATM    9  C6  UNL     1      -9.237  12.380 -17.948  1.00  0.00     0.069 A 
HETATM   10  C7  UNL     1      -8.916  11.146 -18.271  1.00  0.00     0.036 A 
HETATM   11  C8  UNL     1      -7.615  10.600 -17.871  1.00  0.00     0.204 A 
HETATM   12  O4  UNL     1      -6.783  11.441 -17.159  1.00  0.00    -0.359 OA
HETATM   13  C9  UNL     1      -7.147  12.730 -16.835  1.00  0.00     0.137 A 
HETATM   14  C10 UNL     1      -8.309  13.207 -17.197  1.00  0.00     0.060 A 
ENDBRANCH   8   9
ENDBRANCH   1   8
TORSDOF 5
ENDMDL
MODEL 4
REMARK VINA RESULT: -6.746069262      1.640      6.545
REMARK  5 active torsions:
REMARK  status: ('A' for Active; 'I' for Inactive)
REMARK    1  A    between atoms: C2_2  and  O1_4 
REMARK    2  A    between atoms: O1_4  and  C4_5 
REMARK    3  A    between atoms: C4_5  and  C5_7 
REMARK    4  A    between atoms: C5_7  and  O3_8 
REMARK    5  A    between atoms: O3_8  and  C6_9 
ROOT
HETATM    1  C5  UNL     1     -12.954  11.479 -19.882  1.00  0.00     0.286 C 
ENDROOT
BRANCH   1   2
HETATM    2  C4  UNL     1     -11.468  11.559 -20.091  1.00  0.00     0.283 C 
HETATM    3  O2  UNL     1     -10.973  12.324 -20.958  1.00  0.00    -0.263 OA
BRANCH   2   4
HETATM    4  O1  UNL     1     -10.585  10.797 -19.341  1.00  0.00    -0.315 OA
BRANCH   4   5
HETATM    5  C2  UNL     1      -9.642  11.452 -18.513  1.00  0.00     0.123 C 
HETATM    6  C1  UNL     1     -10.398  11.821 -17.231  1.00  0.00     0.040 C 
HETATM    7  C3  UNL     1      -8.456  10.618 -18.178  1.00  0.00     0.040 C 
ENDBRANCH   4   5
ENDBRANCH   2   4
ENDBRANCH   1   2
BRANCH   1   8
HETATM    8  O3  UNL     1     -13.385  10.229 -20.384  1.00  0.00    -0.342 OA
BRANCH   8   9
HETATM    9  C6  UNL     1     -13.822  10.176 -21.691  1.00  0.00     0.069 A 
HETATM   10  C7  UNL     1     -13.351   9.224 -22.466  1.00  0.00     0.036 A 
HETATM   11  C8  UNL     1     -13.790   9.132 -23.862  1.00  0.00     0.204 A 
HETATM   12  O4  UNL     1     -14.698  10.079 -24.290  1.00  0.00    -0.359 OA
HETATM   13  C9  UNL     1     -15.175  11.066 -23.454  1.00  0.00     0.137 A 
HETATM   14  C10 UNL     1     -14.777  11.139 -22.211  1.00  0.00     0.060 A 
ENDBRANCH   8   9
ENDBRANCH   1   8
TORSDOF 5
ENDMDL
MODEL 5
REMARK VINA RESULT: -6.732023657      0.079      1.287
REMARK  5 active torsions:
REMARK  status: ('A' for Active; 'I' for Inactive)
REMARK    1  A    between atoms: C2_2  and  O1_4 
REMARK    2  A    between atoms: O1_4  and  C4_5 
REMARK    3  A    between atoms: C4_5  and  C5_7 
REMARK    4  A    between atoms: C5_7  and  O3_8 
REMARK    5  A    between atoms: O3_8  and  C6_9 
ROOT
HETATM    1  C5  UNL     1     -11.232  11.577 -20.121  1.00  0.00     0.286 C 
ENDROOT
BRANCH   1   2
HETATM    2  C4  UNL     1     -11.839  10.495 -20.969  1.00  0.00     0.283 C 
HETATM    3  O2  UNL     1     -11.531   9.287 -20.802  1.00  0.00    -0.263 OA
BRANCH   2   4
HETATM    4  O1  UNL     1     -12.761  10.782 -21.965  1.00  0.00    -0.315 OA
BRANCH   4   5
HETATM    5  C2  UNL     1     -13.871   9.923 -22.144  1.00  0.00     0.123 C 
HETATM    6  C1  UNL     1     -15.107  10.831 -22.137  1.00  0.00     0.040 C 
HETATM    7  C3  UNL     1     -13.826   9.140 -23.409  1.00  0.00     0.040 C 
ENDBRANCH   4   5
ENDBRANCH   2   4
ENDBRANCH   1   2
BRANCH   1   8
HETATM    8  O3  UNL     1     -10.826  10.982 -18.904  1.00  0.00    -0.342 OA
BRANCH   8   9
HETATM    9  C6  UNL     1      -9.627  11.388 -18.356  1.00  0.00     0.069 A 
HETATM   10  C7  UNL     1      -8.611  10.554 -18.397  1.00  0.00     0.036 A 
HETATM   11  C8  UNL     1      -7.318  10.946 -17.827  1.00  0.00     0.204 A 
HETATM   12  O4  UNL     1      -7.245  12.206 -17.266  1.00  0.00    -0.359 OA
HETATM   13  C9  UNL     1      -8.327  13.059 -17.238  1.00  0.00     0.137 A 
HETATM   14  C10 UNL     1      -9.475  12.699 -17.749  1.00  0.00     0.060 A 
ENDBRANCH   8   9
ENDBRANCH   1   8
TORSDOF 5
ENDMDL
