MODEL 1
REMARK VINA RESULT: -7.644909811      0.000      0.000
REMARK  8 active torsions:
REMARK  status: ('A' for Active; 'I' for Inactive)
REMARK    1  A    between atoms: C2_2  and  C3_3 
REMARK    2  A    between atoms: C2_2  and  C5_7 
REMARK    3  A    between atoms: C3_3  and  C4_4 
REMARK    4  A    between atoms: C4_4  and  O1_5 
REMARK    5  A    between atoms: C5_7  and  C6_8 
REMARK    6  A    between atoms: C6_8  and  C7_9 
REMARK    7  A    between atoms: C7_9  and  O2_10 
REMARK    8  A    between atoms: O2_10  and  C8_11 
ROOT
HETATM    1  C6  UNL     1     -11.539  12.123 -20.037  1.00  0.00     0.031 C 
ENDROOT
BRANCH   1   2
HETATM    2  C5  UNL     1     -10.637  11.067 -19.417  1.00  0.00     0.035 C 
BRANCH   2   3
HETATM    3  C2  UNL     1      -9.837  11.586 -18.284  1.00  0.00    -0.087 C 
HETATM    4  C1  UNL     1     -10.396  11.650 -17.076  1.00  0.00     0.014 C 
BRANCH   3   5
HETATM    5  C3  UNL     1      -8.437  12.020 -18.443  1.00  0.00     0.059 C 
BRANCH   5   6
HETATM    6  C4  UNL     1      -7.437  11.275 -17.622  1.00  0.00     0.168 C 
BRANCH   6   7
HETATM    7  O1  UNL     1      -6.929  10.206 -18.311  1.00  0.00    -0.401 OA
ATOM      8  H1  UNL     1      -6.162   9.851 -17.878  1.00  0.00     0.209 HD
ENDBRANCH   6   7
ENDBRANCH   5   6
ENDBRANCH   3   5
ENDBRANCH   2   3
ENDBRANCH   1   2
BRANCH   1   9
HETATM    9  C7  UNL     1     -12.967  11.804 -19.708  1.00  0.00     0.176 C 
BRANCH   9  10
HETATM   10  O2  UNL     1     -13.469  10.654 -20.282  1.00  0.00    -0.351 OA
BRANCH  10  11
HETATM   11  C8  UNL     1     -13.811  10.399 -21.585  1.00  0.00     0.068 A 
HETATM   12  C9  UNL     1     -13.334   9.363 -22.349  1.00  0.00     0.037 A 
HETATM   13  C10 UNL     1     -13.746   9.177 -23.674  1.00  0.00     0.003 A 
HETATM   14  C11 UNL     1     -14.647  10.022 -24.275  1.00  0.00     0.000 A 
HETATM   15  C12 UNL     1     -15.131  11.064 -23.520  1.00  0.00     0.003 A 
HETATM   16  C13 UNL     1     -14.736  11.253 -22.226  1.00  0.00     0.037 A 
ENDBRANCH  10  11
ENDBRANCH   9  10
ENDBRANCH   1   9
TORSDOF 8
ENDMDL
MODEL 2
REMARK VINA RESULT: -7.613305600      0.090      1.217
REMARK  8 active torsions:
REMARK  status: ('A' for Active; 'I' for Inactive)
REMARK    1  A    between atoms: C2_2  and  C3_3 
REMARK    2  A    between atoms: C2_2  and  C5_7 
REMARK    3  A    between atoms: C3_3  and  C4_4 
REMARK    4  A    between atoms: C4_4  and  O1_5 
REMARK    5  A    between atoms: C5_7  and  C6_8 
REMARK    6  A    between atoms: C6_8  and  C7_9 
REMARK    7  A    between atoms: C7_9  and  O2_10 
REMARK    8  A    between atoms: O2_10  and  C8_11 
ROOT
HETATM    1  C6  UNL     1     -11.482  12.106 -19.961  1.00  0.00     0.031 C 
ENDROOT
BRANCH   1   2
HETATM    2  C5  UNL     1     -10.562  11.066 -19.341  1.00  0.00     0.035 C 
BRANCH   2   3
HETATM    3  C2  UNL     1      -9.779  11.595 -18.201  1.00  0.00    -0.087 C 
HETATM    4  C1  UNL     1     -10.347  11.644 -16.996  1.00  0.00     0.014 C 
BRANCH   3   5
HETATM    5  C3  UNL     1      -8.387  12.057 -18.350  1.00  0.00     0.059 C 
BRANCH   5   6
HETATM    6  C4  UNL     1      -7.367  11.272 -17.594  1.00  0.00     0.168 C 
BRANCH   6   7
HETATM    7  O1  UNL     1      -6.931  10.196 -18.320  1.00  0.00    -0.401 OA
ATOM      8  H1  UNL     1      -7.139  10.296 -19.241  1.00  0.00     0.209 HD
ENDBRANCH   6   7
ENDBRANCH   5   6
ENDBRANCH   3   5
ENDBRANCH   2   3
ENDBRANCH   1   2
BRANCH   1   9
HETATM    9  C7  UNL     1     -12.903  11.774 -19.613  1.00  0.00     0.176 C 
BRANCH   9  10
HETATM   10  O2  UNL     1     -13.424  10.657 -20.234  1.00  0.00    -0.351 OA
BRANCH  10  11
HETATM   11  C8  UNL     1     -13.849  10.486 -21.525  1.00  0.00     0.068 A 
HETATM   12  C9  UNL     1     -14.751  11.286 -22.183  1.00  0.00     0.037 A 
HETATM   13  C10 UNL     1     -15.124  11.036 -23.509  1.00  0.00     0.003 A 
HETATM   14  C11 UNL     1     -14.607   9.978 -24.217  1.00  0.00     0.000 A 
HETATM   15  C12 UNL     1     -13.704   9.169 -23.568  1.00  0.00     0.003 A 
HETATM   16  C13 UNL     1     -13.333   9.406 -22.275  1.00  0.00     0.037 A 
ENDBRANCH  10  11
ENDBRANCH   9  10
ENDBRANCH   1   9
TORSDOF 8
ENDMDL
MODEL 3
REMARK VINA RESULT: -7.364322581      0.925      1.141
REMARK  8 active torsions:
REMARK  status: ('A' for Active; 'I' for Inactive)
REMARK    1  A    between atoms: C2_2  and  C3_3 
REMARK    2  A    between atoms: C2_2  and  C5_7 
REMARK    3  A    between atoms: C3_3  and  C4_4 
REMARK    4  A    between atoms: C4_4  and  O1_5 
REMARK    5  A    between atoms: C5_7  and  C6_8 
REMARK    6  A    between atoms: C6_8  and  C7_9 
REMARK    7  A    between atoms: C7_9  and  O2_10 
REMARK    8  A    between atoms: O2_10  and  C8_11 
ROOT
HETATM    1  C6  UNL     1     -11.221  11.451 -20.502  1.00  0.00     0.031 C 
ENDROOT
BRANCH   1   2
HETATM    2  C5  UNL     1     -11.223  12.353 -19.277  1.00  0.00     0.035 C 
BRANCH   2   3
HETATM    3  C2  UNL     1     -10.197  11.974 -18.280  1.00  0.00    -0.087 C 
HETATM    4  C1  UNL     1     -10.552  11.861 -17.000  1.00  0.00     0.014 C 
BRANCH   3   5
HETATM    5  C3  UNL     1      -8.797  11.701 -18.656  1.00  0.00     0.059 C 
BRANCH   5   6
HETATM    6  C4  UNL     1      -8.156  10.554 -17.949  1.00  0.00     0.168 C 
BRANCH   6   7
HETATM    7  O1  UNL     1      -6.872  10.359 -18.383  1.00  0.00    -0.401 OA
ATOM      8  H1  UNL     1      -6.277  10.236 -17.653  1.00  0.00     0.209 HD
ENDBRANCH   6   7
ENDBRANCH   5   6
ENDBRANCH   3   5
ENDBRANCH   2   3
ENDBRANCH   1   2
BRANCH   1   9
HETATM    9  C7  UNL     1     -11.599  10.060 -20.088  1.00  0.00     0.176 C 
BRANCH   9  10
HETATM   10  O2  UNL     1     -12.423   9.381 -20.961  1.00  0.00    -0.351 OA
BRANCH  10  11
HETATM   11  C8  UNL     1     -13.301   9.863 -21.898  1.00  0.00     0.068 A 
HETATM   12  C9  UNL     1     -13.282   9.568 -23.238  1.00  0.00     0.037 A 
HETATM   13  C10 UNL     1     -14.225  10.105 -24.122  1.00  0.00     0.003 A 
HETATM   14  C11 UNL     1     -15.215  10.956 -23.692  1.00  0.00     0.000 A 
HETATM   15  C12 UNL     1     -15.243  11.261 -22.352  1.00  0.00     0.003 A 
HETATM   16  C13 UNL     1     -14.327  10.740 -21.482  1.00  0.00     0.037 A 
ENDBRANCH  10  11
ENDBRANCH   9  10
ENDBRANCH   1   9
TORSDOF 8
ENDMDL
MODEL 4
REMARK VINA RESULT: -7.319087679      1.858      7.151
REMARK  8 active torsions:
REMARK  status: ('A' for Active; 'I' for Inactive)
REMARK    1  A    between atoms: C2_2  and  C3_3 
REMARK    2  A    between atoms: C2_2  and  C5_7 
REMARK    3  A    between atoms: C3_3  and  C4_4 
REMARK    4  A    between atoms: C4_4  and  O1_5 
REMARK    5  A    between atoms: C5_7  and  C6_8 
REMARK    6  A    between atoms: C6_8  and  C7_9 
REMARK    7  A    between atoms: C7_9  and  O2_10 
REMARK    8  A    between atoms: O2_10  and  C8_11 
ROOT
HETATM    1  C6  UNL     1     -12.705  11.543 -19.669  1.00  0.00     0.031 C 
ENDROOT
BRANCH   1   2
HETATM    2  C5  UNL     1     -13.694  11.838 -20.787  1.00  0.00     0.035 C 
BRANCH   2   3
HETATM    3  C2  UNL     1     -13.936  10.671 -21.665  1.00  0.00    -0.087 C 
HETATM    4  C1  UNL     1     -13.056   9.670 -21.664  1.00  0.00     0.014 C 
BRANCH   3   5
HETATM    5  C3  UNL     1     -15.126  10.570 -22.530  1.00  0.00     0.059 C 
BRANCH   5   6
HETATM    6  C4  UNL     1     -14.940  11.048 -23.932  1.00  0.00     0.168 C 
BRANCH   6   7
HETATM    7  O1  UNL     1     -14.614  10.013 -24.769  1.00  0.00    -0.401 OA
ATOM      8  H1  UNL     1     -15.124   9.237 -24.571  1.00  0.00     0.209 HD
ENDBRANCH   6   7
ENDBRANCH   5   6
ENDBRANCH   3   5
ENDBRANCH   2   3
ENDBRANCH   1   2
BRANCH   1   9
HETATM    9  C7  UNL     1     -11.581  12.534 -19.733  1.00  0.00     0.176 C 
BRANCH   9  10
HETATM   10  O2  UNL     1     -10.912  12.753 -18.547  1.00  0.00    -0.351 OA
BRANCH  10  11
HETATM   11  C8  UNL     1      -9.666  12.341 -18.150  1.00  0.00     0.068 A 
HETATM   12  C9  UNL     1      -8.765  13.091 -17.435  1.00  0.00     0.037 A 
HETATM   13  C10 UNL     1      -7.514  12.583 -17.070  1.00  0.00     0.003 A 
HETATM   14  C11 UNL     1      -7.124  11.309 -17.408  1.00  0.00     0.000 A 
HETATM   15  C12 UNL     1      -8.017  10.549 -18.126  1.00  0.00     0.003 A 
HETATM   16  C13 UNL     1      -9.241  11.037 -18.487  1.00  0.00     0.037 A 
ENDBRANCH  10  11
ENDBRANCH   9  10
ENDBRANCH   1   9
TORSDOF 8
ENDMDL
MODEL 5
REMARK VINA RESULT: -7.299318711      1.855      7.089
REMARK  8 active torsions:
REMARK  status: ('A' for Active; 'I' for Inactive)
REMARK    1  A    between atoms: C2_2  and  C3_3 
REMARK    2  A    between atoms: C2_2  and  C5_7 
REMARK    3  A    between atoms: C3_3  and  C4_4 
REMARK    4  A    between atoms: C4_4  and  O1_5 
REMARK    5  A    between atoms: C5_7  and  C6_8 
REMARK    6  A    between atoms: C6_8  and  C7_9 
REMARK    7  A    between atoms: C7_9  and  O2_10 
REMARK    8  A    between atoms: O2_10  and  C8_11 
ROOT
HETATM    1  C6  UNL     1     -12.900  11.727 -19.599  1.00  0.00     0.031 C 
ENDROOT
BRANCH   1   2
HETATM    2  C5  UNL     1     -13.732  11.970 -20.849  1.00  0.00     0.035 C 
BRANCH   2   3
HETATM    3  C2  UNL     1     -13.962  10.738 -21.637  1.00  0.00    -0.087 C 
HETATM    4  C1  UNL     1     -13.088   9.737 -21.538  1.00  0.00     0.014 C 
BRANCH   3   5
HETATM    5  C3  UNL     1     -15.135  10.574 -22.515  1.00  0.00     0.059 C 
BRANCH   5   6
HETATM    6  C4  UNL     1     -14.949  11.032 -23.924  1.00  0.00     0.168 C 
BRANCH   6   7
HETATM    7  O1  UNL     1     -14.607   9.989 -24.743  1.00  0.00    -0.401 OA
ATOM      8  H1  UNL     1     -14.094  10.288 -25.484  1.00  0.00     0.209 HD
ENDBRANCH   6   7
ENDBRANCH   5   6
ENDBRANCH   3   5
ENDBRANCH   2   3
ENDBRANCH   1   2
BRANCH   1   9
HETATM    9  C7  UNL     1     -11.648  12.548 -19.674  1.00  0.00     0.176 C 
BRANCH   9  10
HETATM   10  O2  UNL     1     -10.946  12.674 -18.493  1.00  0.00    -0.351 OA
BRANCH  10  11
HETATM   11  C8  UNL     1      -9.699  12.212 -18.157  1.00  0.00     0.068 A 
HETATM   12  C9  UNL     1      -9.194  10.974 -18.468  1.00  0.00     0.037 A 
HETATM   13  C10 UNL     1      -7.904  10.590 -18.086  1.00  0.00     0.003 A 
HETATM   14  C11 UNL     1      -7.079  11.433 -17.381  1.00  0.00     0.000 A 
HETATM   15  C12 UNL     1      -7.574  12.675 -17.063  1.00  0.00     0.003 A 
HETATM   16  C13 UNL     1      -8.832  13.059 -17.432  1.00  0.00     0.037 A 
ENDBRANCH  10  11
ENDBRANCH   9  10
ENDBRANCH   1   9
TORSDOF 8
ENDMDL
