MODEL 1
REMARK VINA RESULT: -8.297494576      0.000      0.000
REMARK  4 active torsions:
REMARK  status: ('A' for Active; 'I' for Inactive)
REMARK    1  A    between atoms: C4_5  and  N2_6 
REMARK    2  A    between atoms: N2_6  and  C5_8 
REMARK    3  A    between atoms: C5_8  and  C6_9 
REMARK    4  A    between atoms: C6_9  and  C7_10 
ROOT
HETATM    1  N1  UNL     1      36.174 -43.690  -4.570  1.00  0.00    -0.083 NA
HETATM    2  C1  UNL     1      36.925 -44.520  -5.461  1.00  0.00     0.118 A 
HETATM    3  C2  UNL     1      37.002 -45.910  -5.441  1.00  0.00     0.062 A 
HETATM    4  C3  UNL     1      37.822 -46.341  -6.455  1.00  0.00     0.038 A 
HETATM    5  C4  UNL     1      38.151 -47.668  -6.761  1.00  0.00     0.042 C 
HETATM    6  C13 UNL     1      39.101 -48.157  -7.628  1.00  0.00     0.031 C 
HETATM    7  C14 UNL     1      39.740 -47.465  -8.630  1.00  0.00     0.019 C 
HETATM    8  C15 UNL     1      39.630 -46.121  -8.916  1.00  0.00     0.090 C 
HETATM    9  N3  UNL     1      39.085 -45.128  -8.174  1.00  0.00    -0.352 N 
ATOM     10  H3  UNL     1      39.337 -44.183  -8.464  1.00  0.00     0.166 HD
HETATM   11  C16 UNL     1      38.248 -45.201  -7.096  1.00  0.00     0.119 A 
HETATM   12  N4  UNL     1      37.702 -44.136  -6.488  1.00  0.00    -0.330 N 
ATOM     13  H4  UNL     1      37.856 -43.167  -6.767  1.00  0.00     0.168 HD
ENDROOT
BRANCH   5  14
HETATM   14  N2  UNL     1      37.407 -48.479  -6.092  1.00  0.00    -0.389 N 
ATOM     15  H2  UNL     1      37.293 -48.374  -5.083  1.00  0.00     0.159 HD
BRANCH  14  16
HETATM   16  C5  UNL     1      36.741 -49.541  -6.807  1.00  0.00     0.124 C 
BRANCH  16  17
HETATM   17  C6  UNL     1      35.328 -49.148  -7.202  1.00  0.00     0.058 C 
BRANCH  17  18
HETATM   18  C7  UNL     1      35.151 -49.266  -8.672  1.00  0.00    -0.057 A 
HETATM   19  C8  UNL     1      36.212 -49.511  -9.528  1.00  0.00     0.007 A 
HETATM   20  C9  UNL     1      36.039 -49.618 -10.887  1.00  0.00     0.001 A 
HETATM   21  C10 UNL     1      34.790 -49.483 -11.446  1.00  0.00     0.000 A 
HETATM   22  C11 UNL     1      33.721 -49.240 -10.624  1.00  0.00     0.001 A 
HETATM   23  C12 UNL     1      33.921 -49.139  -9.275  1.00  0.00     0.007 A 
ENDBRANCH  17  18
ENDBRANCH  16  17
ENDBRANCH  14  16
ENDBRANCH   5  14
TORSDOF 4
ENDMDL
MODEL 2
REMARK VINA RESULT: -8.294319244      0.033      1.051
REMARK  4 active torsions:
REMARK  status: ('A' for Active; 'I' for Inactive)
REMARK    1  A    between atoms: C4_5  and  N2_6 
REMARK    2  A    between atoms: N2_6  and  C5_8 
REMARK    3  A    between atoms: C5_8  and  C6_9 
REMARK    4  A    between atoms: C6_9  and  C7_10 
ROOT
HETATM    1  N1  UNL     1      36.161 -43.689  -4.580  1.00  0.00    -0.083 NA
HETATM    2  C1  UNL     1      36.911 -44.525  -5.465  1.00  0.00     0.118 A 
HETATM    3  C2  UNL     1      36.981 -45.915  -5.440  1.00  0.00     0.062 A 
HETATM    4  C3  UNL     1      37.803 -46.353  -6.449  1.00  0.00     0.038 A 
HETATM    5  C4  UNL     1      38.127 -47.683  -6.750  1.00  0.00     0.042 C 
HETATM    6  C13 UNL     1      39.078 -48.179  -7.612  1.00  0.00     0.031 C 
HETATM    7  C14 UNL     1      39.724 -47.494  -8.614  1.00  0.00     0.019 C 
HETATM    8  C15 UNL     1      39.622 -46.150  -8.904  1.00  0.00     0.090 C 
HETATM    9  N3  UNL     1      39.078 -45.152  -8.168  1.00  0.00    -0.352 N 
ATOM     10  H3  UNL     1      39.336 -44.209  -8.460  1.00  0.00     0.166 HD
HETATM   11  C16 UNL     1      38.237 -45.217  -7.093  1.00  0.00     0.119 A 
HETATM   12  N4  UNL     1      37.694 -44.148  -6.491  1.00  0.00    -0.330 N 
ATOM     13  H4  UNL     1      37.853 -43.181  -6.772  1.00  0.00     0.168 HD
ENDROOT
BRANCH   5  14
HETATM   14  N2  UNL     1      37.377 -48.488  -6.081  1.00  0.00    -0.389 N 
ATOM     15  H2  UNL     1      37.260 -48.380  -5.073  1.00  0.00     0.159 HD
BRANCH  14  16
HETATM   16  C5  UNL     1      36.707 -49.549  -6.795  1.00  0.00     0.124 C 
BRANCH  16  17
HETATM   17  C6  UNL     1      35.301 -49.146  -7.204  1.00  0.00     0.058 C 
BRANCH  17  18
HETATM   18  C7  UNL     1      35.135 -49.269  -8.675  1.00  0.00    -0.057 A 
HETATM   19  C8  UNL     1      33.904 -49.135  -9.294  1.00  0.00     0.007 A 
HETATM   20  C9  UNL     1      33.760 -49.251 -10.656  1.00  0.00     0.001 A 
HETATM   21  C10 UNL     1      34.849 -49.507 -11.456  1.00  0.00     0.000 A 
HETATM   22  C11 UNL     1      36.080 -49.645 -10.870  1.00  0.00     0.001 A 
HETATM   23  C12 UNL     1      36.196 -49.524  -9.513  1.00  0.00     0.007 A 
ENDBRANCH  17  18
ENDBRANCH  16  17
ENDBRANCH  14  16
ENDBRANCH   5  14
TORSDOF 4
ENDMDL
MODEL 3
REMARK VINA RESULT: -8.278015018      3.706      6.243
REMARK  4 active torsions:
REMARK  status: ('A' for Active; 'I' for Inactive)
REMARK    1  A    between atoms: C4_5  and  N2_6 
REMARK    2  A    between atoms: N2_6  and  C5_8 
REMARK    3  A    between atoms: C5_8  and  C6_9 
REMARK    4  A    between atoms: C6_9  and  C7_10 
ROOT
HETATM    1  N1  UNL     1      40.074 -48.199  -8.645  1.00  0.00    -0.083 NA
HETATM    2  C1  UNL     1      39.651 -47.179  -7.736  1.00  0.00     0.118 A 
HETATM    3  C2  UNL     1      40.127 -45.873  -7.667  1.00  0.00     0.062 A 
HETATM    4  C3  UNL     1      39.475 -45.196  -6.665  1.00  0.00     0.038 A 
HETATM    5  C4  UNL     1      39.675 -43.863  -6.285  1.00  0.00     0.042 C 
HETATM    6  C13 UNL     1      39.202 -43.186  -5.184  1.00  0.00     0.031 C 
HETATM    7  C14 UNL     1      38.169 -43.566  -4.360  1.00  0.00     0.019 C 
HETATM    8  C15 UNL     1      37.454 -44.744  -4.410  1.00  0.00     0.090 C 
HETATM    9  N3  UNL     1      37.725 -45.884  -5.088  1.00  0.00    -0.352 N 
ATOM     10  H3  UNL     1      37.201 -46.704  -4.783  1.00  0.00     0.166 HD
HETATM   11  C16 UNL     1      38.594 -46.102  -6.120  1.00  0.00     0.119 A 
HETATM   12  N4  UNL     1      38.718 -47.268  -6.772  1.00  0.00    -0.330 N 
ATOM     13  H4  UNL     1      38.178 -48.108  -6.566  1.00  0.00     0.168 HD
ENDROOT
BRANCH   5  14
HETATM   14  N2  UNL     1      40.418 -43.259  -7.146  1.00  0.00    -0.389 N 
ATOM     15  H2  UNL     1      41.092 -43.776  -7.712  1.00  0.00     0.159 HD
BRANCH  14  16
HETATM   16  C5  UNL     1      40.273 -41.829  -7.289  1.00  0.00     0.124 C 
BRANCH  16  17
HETATM   17  C6  UNL     1      39.651 -41.463  -8.625  1.00  0.00     0.058 C 
BRANCH  17  18
HETATM   18  C7  UNL     1      38.208 -41.814  -8.636  1.00  0.00    -0.057 A 
HETATM   19  C8  UNL     1      37.689 -42.782  -9.480  1.00  0.00     0.007 A 
HETATM   20  C9  UNL     1      36.352 -43.101  -9.485  1.00  0.00     0.001 A 
HETATM   21  C10 UNL     1      35.477 -42.460  -8.640  1.00  0.00     0.000 A 
HETATM   22  C11 UNL     1      35.962 -41.497  -7.793  1.00  0.00     0.001 A 
HETATM   23  C12 UNL     1      37.297 -41.199  -7.809  1.00  0.00     0.007 A 
ENDBRANCH  17  18
ENDBRANCH  16  17
ENDBRANCH  14  16
ENDBRANCH   5  14
TORSDOF 4
ENDMDL
MODEL 4
REMARK VINA RESULT: -8.273641352      3.714      6.274
REMARK  4 active torsions:
REMARK  status: ('A' for Active; 'I' for Inactive)
REMARK    1  A    between atoms: C4_5  and  N2_6 
REMARK    2  A    between atoms: N2_6  and  C5_8 
REMARK    3  A    between atoms: C5_8  and  C6_9 
REMARK    4  A    between atoms: C6_9  and  C7_10 
ROOT
HETATM    1  N1  UNL     1      40.072 -48.199  -8.652  1.00  0.00    -0.083 NA
HETATM    2  C1  UNL     1      39.662 -47.177  -7.739  1.00  0.00     0.118 A 
HETATM    3  C2  UNL     1      40.141 -45.872  -7.677  1.00  0.00     0.062 A 
HETATM    4  C3  UNL     1      39.502 -45.193  -6.668  1.00  0.00     0.038 A 
HETATM    5  C4  UNL     1      39.709 -43.860  -6.292  1.00  0.00     0.042 C 
HETATM    6  C13 UNL     1      39.251 -43.180  -5.186  1.00  0.00     0.031 C 
HETATM    7  C14 UNL     1      38.227 -43.558  -4.350  1.00  0.00     0.019 C 
HETATM    8  C15 UNL     1      37.510 -44.735  -4.389  1.00  0.00     0.090 C 
HETATM    9  N3  UNL     1      37.771 -45.876  -5.069  1.00  0.00    -0.352 N 
ATOM     10  H3  UNL     1      37.249 -46.695  -4.756  1.00  0.00     0.166 HD
HETATM   11  C16 UNL     1      38.627 -46.096  -6.111  1.00  0.00     0.119 A 
HETATM   12  N4  UNL     1      38.741 -47.264  -6.763  1.00  0.00    -0.330 N 
ATOM     13  H4  UNL     1      38.202 -48.103  -6.549  1.00  0.00     0.168 HD
ENDROOT
BRANCH   5  14
HETATM   14  N2  UNL     1      40.442 -43.258  -7.164  1.00  0.00    -0.389 N 
ATOM     15  H2  UNL     1      41.114 -43.775  -7.731  1.00  0.00     0.159 HD
BRANCH  14  16
HETATM   16  C5  UNL     1      40.289 -41.830  -7.314  1.00  0.00     0.124 C 
BRANCH  16  17
HETATM   17  C6  UNL     1      39.652 -41.475  -8.647  1.00  0.00     0.058 C 
BRANCH  17  18
HETATM   18  C7  UNL     1      38.207 -41.816  -8.636  1.00  0.00    -0.057 A 
HETATM   19  C8  UNL     1      37.307 -41.198  -7.785  1.00  0.00     0.007 A 
HETATM   20  C9  UNL     1      35.971 -41.520  -7.781  1.00  0.00     0.001 A 
HETATM   21  C10 UNL     1      35.481 -42.480  -8.634  1.00  0.00     0.000 A 
HETATM   22  C11 UNL     1      36.348 -43.110  -9.488  1.00  0.00     0.001 A 
HETATM   23  C12 UNL     1      37.673 -42.770  -9.471  1.00  0.00     0.007 A 
ENDBRANCH  17  18
ENDBRANCH  16  17
ENDBRANCH  14  16
ENDBRANCH   5  14
TORSDOF 4
ENDMDL
MODEL 5
REMARK VINA RESULT: -7.960798744      2.498      4.277
REMARK  4 active torsions:
REMARK  status: ('A' for Active; 'I' for Inactive)
REMARK    1  A    between atoms: C4_5  and  N2_6 
REMARK    2  A    between atoms: N2_6  and  C5_8 
REMARK    3  A    between atoms: C5_8  and  C6_9 
REMARK    4  A    between atoms: C6_9  and  C7_10 
ROOT
HETATM    1  N1  UNL     1      42.333 -42.599  -4.898  1.00  0.00    -0.083 NA
HETATM    2  C1  UNL     1      41.118 -42.712  -5.645  1.00  0.00     0.118 A 
HETATM    3  C2  UNL     1      39.915 -43.256  -5.204  1.00  0.00     0.062 A 
HETATM    4  C3  UNL     1      38.981 -43.185  -6.209  1.00  0.00     0.038 A 
HETATM    5  C4  UNL     1      37.654 -43.628  -6.153  1.00  0.00     0.042 C 
HETATM    6  C13 UNL     1      36.731 -43.761  -7.166  1.00  0.00     0.031 C 
HETATM    7  C14 UNL     1      36.792 -43.196  -8.418  1.00  0.00     0.019 C 
HETATM    8  C15 UNL     1      37.828 -42.458  -8.950  1.00  0.00     0.090 C 
HETATM    9  N3  UNL     1      39.095 -42.309  -8.498  1.00  0.00    -0.352 N 
ATOM     10  H3  UNL     1      39.755 -41.927  -9.176  1.00  0.00     0.166 HD
HETATM   11  C16 UNL     1      39.624 -42.591  -7.270  1.00  0.00     0.119 A 
HETATM   12  N4  UNL     1      40.889 -42.321  -6.910  1.00  0.00    -0.330 N 
ATOM     13  H4  UNL     1      41.581 -41.879  -7.514  1.00  0.00     0.168 HD
ENDROOT
BRANCH   5  14
HETATM   14  N2  UNL     1      37.334 -43.934  -4.943  1.00  0.00    -0.389 N 
ATOM     15  H2  UNL     1      37.561 -43.311  -4.168  1.00  0.00     0.159 HD
BRANCH  14  16
HETATM   16  C5  UNL     1      36.646 -45.183  -4.714  1.00  0.00     0.124 C 
BRANCH  16  17
HETATM   17  C6  UNL     1      37.609 -46.357  -4.713  1.00  0.00     0.058 C 
BRANCH  17  18
HETATM   18  C7  UNL     1      37.330 -47.254  -5.863  1.00  0.00    -0.057 A 
HETATM   19  C8  UNL     1      38.138 -47.288  -6.988  1.00  0.00     0.007 A 
HETATM   20  C9  UNL     1      37.872 -48.121  -8.048  1.00  0.00     0.001 A 
HETATM   21  C10 UNL     1      36.781 -48.957  -8.025  1.00  0.00     0.000 A 
HETATM   22  C11 UNL     1      35.963 -48.945  -6.926  1.00  0.00     0.001 A 
HETATM   23  C12 UNL     1      36.250 -48.107  -5.884  1.00  0.00     0.007 A 
ENDBRANCH  17  18
ENDBRANCH  16  17
ENDBRANCH  14  16
ENDBRANCH   5  14
TORSDOF 4
ENDMDL
