MODEL 1
REMARK VINA RESULT: -7.329231258      0.000      0.000
REMARK  5 active torsions:
REMARK  status: ('A' for Active; 'I' for Inactive)
REMARK    1  A    between atoms: N1_1  and  C1_5 
REMARK    2  A    between atoms: C1_5  and  N2_6 
REMARK    3  A    between atoms: C1_5  and  C2_10 
REMARK    4  A    between atoms: C2_10  and  C3_11 
REMARK    5  A    between atoms: N3_19  and  C11_20 
ROOT
HETATM    1  C3  UNL     1      37.352 -45.994  -5.365  1.00  0.00    -0.001 C 
HETATM    2  C4  UNL     1      37.422 -47.426  -4.982  1.00  0.00     0.005 C 
HETATM    3  C5  UNL     1      37.156 -48.398  -6.113  1.00  0.00     0.000 C 
HETATM    4  C6  UNL     1      36.526 -47.709  -7.299  1.00  0.00     0.001 C 
HETATM    5  C7  UNL     1      37.568 -46.702  -7.779  1.00  0.00     0.011 C 
HETATM    6  C8  UNL     1      37.824 -45.652  -6.746  1.00  0.00    -0.009 C 
HETATM    7  C9  UNL     1      39.239 -45.206  -6.861  1.00  0.00     0.042 C 
HETATM    8  C10 UNL     1      39.250 -44.283  -8.089  1.00  0.00     0.273 C 
HETATM    9  N3  UNL     1      37.862 -44.068  -8.423  1.00  0.00     0.093 N 
HETATM   10  C16 UNL     1      37.087 -44.385  -7.217  1.00  0.00     0.282 C 
ENDROOT
BRANCH   1  11
HETATM   11  C2  UNL     1      38.077 -45.148  -4.367  1.00  0.00     0.067 C 
BRANCH  11  12
HETATM   12  C1  UNL     1      37.404 -43.882  -3.955  1.00  0.00     0.378 C 
BRANCH  12  13
HETATM   13  N1  UNL     1      37.675 -43.751  -2.504  1.00  0.00    -0.051 N 
ATOM     14  H13 UNL     1      36.869 -43.927  -1.903  1.00  0.00     0.276 HD
ATOM     15  H12 UNL     1      38.260 -44.489  -2.112  1.00  0.00     0.276 HD
ATOM     16  H11 UNL     1      38.065 -42.812  -2.427  1.00  0.00     0.276 HD
ENDBRANCH  12  13
BRANCH  12  17
HETATM   17  N2  UNL     1      35.942 -44.012  -4.008  1.00  0.00    -0.051 N 
ATOM     18  H23 UNL     1      35.578 -44.364  -4.894  1.00  0.00     0.276 HD
ATOM     19  H22 UNL     1      35.561 -44.765  -3.434  1.00  0.00     0.276 HD
ATOM     20  H21 UNL     1      35.619 -43.078  -3.755  1.00  0.00     0.276 HD
ENDBRANCH  12  17
ENDBRANCH  11  12
ENDBRANCH   1  11
BRANCH   9  21
HETATM   21  C11 UNL     1      37.715 -42.643  -8.743  1.00  0.00     0.223 C 
HETATM   22  C12 UNL     1      39.007 -41.890  -8.576  1.00  0.00     0.036 C 
HETATM   23  C13 UNL     1      38.690 -40.689  -7.711  1.00  0.00     0.002 C 
HETATM   24  C14 UNL     1      37.169 -40.572  -7.808  1.00  0.00     0.002 C 
HETATM   25  C15 UNL     1      36.780 -42.050  -7.714  1.00  0.00     0.036 C 
ENDBRANCH   9  21
TORSDOF 5
ENDMDL
MODEL 2
REMARK VINA RESULT: -7.312137227      2.155      5.205
REMARK  5 active torsions:
REMARK  status: ('A' for Active; 'I' for Inactive)
REMARK    1  A    between atoms: N1_1  and  C1_5 
REMARK    2  A    between atoms: C1_5  and  N2_6 
REMARK    3  A    between atoms: C1_5  and  C2_10 
REMARK    4  A    between atoms: C2_10  and  C3_11 
REMARK    5  A    between atoms: N3_19  and  C11_20 
ROOT
HETATM    1  C3  UNL     1      38.436 -43.915  -6.245  1.00  0.00    -0.001 C 
HETATM    2  C4  UNL     1      39.297 -42.721  -6.059  1.00  0.00     0.005 C 
HETATM    3  C5  UNL     1      40.738 -43.029  -5.709  1.00  0.00     0.000 C 
HETATM    4  C6  UNL     1      40.909 -44.463  -5.273  1.00  0.00     0.001 C 
HETATM    5  C7  UNL     1      40.531 -45.302  -6.490  1.00  0.00     0.011 C 
HETATM    6  C8  UNL     1      39.091 -45.119  -6.849  1.00  0.00    -0.009 C 
HETATM    7  C9  UNL     1      38.944 -45.273  -8.322  1.00  0.00     0.042 C 
HETATM    8  C10 UNL     1      39.017 -46.790  -8.557  1.00  0.00     0.273 C 
HETATM    9  N3  UNL     1      38.944 -47.388  -7.244  1.00  0.00     0.093 N 
HETATM   10  C16 UNL     1      38.355 -46.378  -6.356  1.00  0.00     0.282 C 
ENDROOT
BRANCH   1  11
HETATM   11  C2  UNL     1      37.215 -43.563  -7.034  1.00  0.00     0.067 C 
BRANCH  11  12
HETATM   12  C1  UNL     1      37.130 -42.162  -7.541  1.00  0.00     0.378 C 
BRANCH  12  13
HETATM   13  N1  UNL     1      35.751 -41.719  -7.232  1.00  0.00    -0.051 N 
ATOM     14  H13 UNL     1      35.688 -40.981  -6.530  1.00  0.00     0.276 HD
ATOM     15  H12 UNL     1      35.296 -41.191  -7.978  1.00  0.00     0.276 HD
ATOM     16  H11 UNL     1      35.281 -42.588  -6.979  1.00  0.00     0.276 HD
ENDBRANCH  12  13
BRANCH  12  17
HETATM   17  N2  UNL     1      37.171 -42.121  -9.007  1.00  0.00    -0.051 N 
ATOM     18  H23 UNL     1      36.440 -42.664  -9.469  1.00  0.00     0.276 HD
ATOM     19  H22 UNL     1      36.906 -41.224  -9.416  1.00  0.00     0.276 HD
ATOM     20  H21 UNL     1      38.123 -42.421  -9.220  1.00  0.00     0.276 HD
ENDBRANCH  12  17
ENDBRANCH  11  12
ENDBRANCH   1  11
BRANCH   9  21
HETATM   21  C11 UNL     1      38.041 -48.540  -7.348  1.00  0.00     0.223 C 
HETATM   22  C12 UNL     1      37.392 -48.629  -8.703  1.00  0.00     0.036 C 
HETATM   23  C13 UNL     1      35.905 -48.773  -8.454  1.00  0.00     0.002 C 
HETATM   24  C14 UNL     1      35.832 -49.212  -6.991  1.00  0.00     0.002 C 
HETATM   25  C15 UNL     1      36.902 -48.303  -6.383  1.00  0.00     0.036 C 
ENDBRANCH   9  21
TORSDOF 5
ENDMDL
MODEL 3
REMARK VINA RESULT: -7.288920051      2.237      4.211
REMARK  5 active torsions:
REMARK  status: ('A' for Active; 'I' for Inactive)
REMARK    1  A    between atoms: N1_1  and  C1_5 
REMARK    2  A    between atoms: C1_5  and  N2_6 
REMARK    3  A    between atoms: C1_5  and  C2_10 
REMARK    4  A    between atoms: C2_10  and  C3_11 
REMARK    5  A    between atoms: N3_19  and  C11_20 
ROOT
HETATM    1  C3  UNL     1      37.852 -47.313  -7.763  1.00  0.00    -0.001 C 
HETATM    2  C4  UNL     1      36.822 -48.318  -8.124  1.00  0.00     0.005 C 
HETATM    3  C5  UNL     1      36.001 -48.831  -6.960  1.00  0.00     0.000 C 
HETATM    4  C6  UNL     1      36.639 -48.484  -5.637  1.00  0.00     0.001 C 
HETATM    5  C7  UNL     1      36.639 -46.959  -5.577  1.00  0.00     0.011 C 
HETATM    6  C8  UNL     1      37.502 -46.374  -6.648  1.00  0.00    -0.009 C 
HETATM    7  C9  UNL     1      36.932 -45.062  -7.056  1.00  0.00     0.042 C 
HETATM    8  C10 UNL     1      37.339 -44.102  -5.927  1.00  0.00     0.273 C 
HETATM    9  N3  UNL     1      38.286 -44.835  -5.120  1.00  0.00     0.093 N 
HETATM   10  C16 UNL     1      38.803 -45.920  -5.962  1.00  0.00     0.282 C 
ENDROOT
BRANCH   1  11
HETATM   11  C2  UNL     1      38.264 -46.527  -8.967  1.00  0.00     0.067 C 
BRANCH  11  12
HETATM   12  C1  UNL     1      39.693 -46.644  -9.380  1.00  0.00     0.378 C 
BRANCH  12  13
HETATM   13  N1  UNL     1      40.211 -47.832  -8.661  1.00  0.00    -0.051 N 
ATOM     14  H13 UNL     1      40.519 -48.594  -9.265  1.00  0.00     0.276 HD
ATOM     15  H12 UNL     1      41.112 -47.692  -8.202  1.00  0.00     0.276 HD
ATOM     16  H11 UNL     1      39.445 -48.071  -8.031  1.00  0.00     0.276 HD
ENDBRANCH  12  13
BRANCH  12  17
HETATM   17  N2  UNL     1      40.500 -45.547  -8.831  1.00  0.00    -0.051 N 
ATOM     18  H23 UNL     1      40.030 -44.641  -8.813  1.00  0.00     0.276 HD
ATOM     19  H22 UNL     1      40.661 -45.600  -7.825  1.00  0.00     0.276 HD
ATOM     20  H21 UNL     1      41.346 -45.578  -9.400  1.00  0.00     0.276 HD
ENDBRANCH  12  17
ENDBRANCH  11  12
ENDBRANCH   1  11
BRANCH   9  21
HETATM   21  C11 UNL     1      39.373 -43.906  -4.788  1.00  0.00     0.223 C 
HETATM   22  C12 UNL     1      39.340 -42.668  -5.644  1.00  0.00     0.036 C 
HETATM   23  C13 UNL     1      40.735 -42.505  -6.209  1.00  0.00     0.002 C 
HETATM   24  C14 UNL     1      41.593 -43.382  -5.298  1.00  0.00     0.002 C 
HETATM   25  C15 UNL     1      40.671 -44.595  -5.146  1.00  0.00     0.036 C 
ENDBRANCH   9  21
TORSDOF 5
ENDMDL
MODEL 4
REMARK VINA RESULT: -7.285434094      3.588      5.804
REMARK  5 active torsions:
REMARK  status: ('A' for Active; 'I' for Inactive)
REMARK    1  A    between atoms: N1_1  and  C1_5 
REMARK    2  A    between atoms: C1_5  and  N2_6 
REMARK    3  A    between atoms: C1_5  and  C2_10 
REMARK    4  A    between atoms: C2_10  and  C3_11 
REMARK    5  A    between atoms: N3_19  and  C11_20 
ROOT
HETATM    1  C3  UNL     1      38.626 -46.603  -6.732  1.00  0.00    -0.001 C 
HETATM    2  C4  UNL     1      39.206 -45.902  -5.560  1.00  0.00     0.005 C 
HETATM    3  C5  UNL     1      38.204 -45.526  -4.488  1.00  0.00     0.000 C 
HETATM    4  C6  UNL     1      36.787 -45.621  -4.997  1.00  0.00     0.001 C 
HETATM    5  C7  UNL     1      36.579 -47.094  -5.339  1.00  0.00     0.011 C 
HETATM    6  C8  UNL     1      37.476 -47.523  -6.454  1.00  0.00    -0.009 C 
HETATM    7  C9  UNL     1      37.819 -48.958  -6.264  1.00  0.00     0.042 C 
HETATM    8  C10 UNL     1      36.562 -49.715  -6.718  1.00  0.00     0.273 C 
HETATM    9  N3  UNL     1      35.721 -48.724  -7.349  1.00  0.00     0.093 N 
HETATM   10  C16 UNL     1      36.597 -47.605  -7.715  1.00  0.00     0.282 C 
ENDROOT
BRANCH   1  11
HETATM   11  C2  UNL     1      39.689 -47.346  -7.479  1.00  0.00     0.067 C 
BRANCH  11  12
HETATM   12  C1  UNL     1      40.116 -46.762  -8.784  1.00  0.00     0.378 C 
BRANCH  12  13
HETATM   13  N1  UNL     1      40.427 -45.343  -8.493  1.00  0.00    -0.051 N 
ATOM     14  H13 UNL     1      40.442 -45.106  -7.501  1.00  0.00     0.276 HD
ATOM     15  H12 UNL     1      41.392 -45.072  -8.680  1.00  0.00     0.276 HD
ATOM     16  H11 UNL     1      39.729 -44.838  -9.041  1.00  0.00     0.276 HD
ENDBRANCH  12  13
BRANCH  12  17
HETATM   17  N2  UNL     1      38.990 -46.669  -9.721  1.00  0.00    -0.051 N 
ATOM     18  H23 UNL     1      38.081 -46.900  -9.318  1.00  0.00     0.276 HD
ATOM     19  H22 UNL     1      38.743 -45.719  -9.996  1.00  0.00     0.276 HD
ATOM     20  H21 UNL     1      39.280 -47.273 -10.490  1.00  0.00     0.276 HD
ENDBRANCH  12  17
ENDBRANCH  11  12
ENDBRANCH   1  11
BRANCH   9  21
HETATM   21  C11 UNL     1      35.173 -49.340  -8.563  1.00  0.00     0.223 C 
HETATM   22  C12 UNL     1      35.570 -48.591  -9.806  1.00  0.00     0.036 C 
HETATM   23  C13 UNL     1      34.292 -48.337 -10.577  1.00  0.00     0.002 C 
HETATM   24  C14 UNL     1      33.307 -49.337  -9.971  1.00  0.00     0.002 C 
HETATM   25  C15 UNL     1      33.668 -49.206  -8.490  1.00  0.00     0.036 C 
ENDBRANCH   9  21
TORSDOF 5
ENDMDL
MODEL 5
REMARK VINA RESULT: -7.218045317      2.131      5.280
REMARK  5 active torsions:
REMARK  status: ('A' for Active; 'I' for Inactive)
REMARK    1  A    between atoms: N1_1  and  C1_5 
REMARK    2  A    between atoms: C1_5  and  N2_6 
REMARK    3  A    between atoms: C1_5  and  C2_10 
REMARK    4  A    between atoms: C2_10  and  C3_11 
REMARK    5  A    between atoms: N3_19  and  C11_20 
ROOT
HETATM    1  C3  UNL     1      37.288 -44.093  -6.146  1.00  0.00    -0.001 C 
HETATM    2  C4  UNL     1      37.901 -42.939  -5.443  1.00  0.00     0.005 C 
HETATM    3  C5  UNL     1      38.652 -43.296  -4.177  1.00  0.00     0.000 C 
HETATM    4  C6  UNL     1      38.317 -44.690  -3.708  1.00  0.00     0.001 C 
HETATM    5  C7  UNL     1      38.803 -45.616  -4.820  1.00  0.00     0.011 C 
HETATM    6  C8  UNL     1      38.046 -45.385  -6.088  1.00  0.00    -0.009 C 
HETATM    7  C9  UNL     1      38.945 -45.667  -7.239  1.00  0.00     0.042 C 
HETATM    8  C10 UNL     1      38.998 -47.201  -7.316  1.00  0.00     0.273 C 
HETATM    9  N3  UNL     1      37.972 -47.668  -6.412  1.00  0.00     0.093 N 
HETATM   10  C16 UNL     1      37.044 -46.547  -6.217  1.00  0.00     0.282 C 
ENDROOT
BRANCH   1  11
HETATM   11  C2  UNL     1      37.003 -43.747  -7.574  1.00  0.00     0.067 C 
BRANCH  11  12
HETATM   12  C1  UNL     1      37.234 -42.328  -7.972  1.00  0.00     0.378 C 
BRANCH  12  13
HETATM   13  N1  UNL     1      36.014 -41.927  -8.711  1.00  0.00    -0.051 N 
ATOM     14  H13 UNL     1      35.253 -41.587  -8.122  1.00  0.00     0.276 HD
ATOM     15  H12 UNL     1      36.109 -41.072  -9.259  1.00  0.00     0.276 HD
ATOM     16  H11 UNL     1      35.791 -42.760  -9.256  1.00  0.00     0.276 HD
ENDBRANCH  12  13
BRANCH  12  17
HETATM   17  N2  UNL     1      38.286 -42.224  -8.991  1.00  0.00    -0.051 N 
ATOM     18  H23 UNL     1      37.970 -42.387  -9.948  1.00  0.00     0.276 HD
ATOM     19  H22 UNL     1      38.627 -41.277  -9.156  1.00  0.00     0.276 HD
ATOM     20  H21 UNL     1      38.993 -42.880  -8.659  1.00  0.00     0.276 HD
ENDBRANCH  12  17
ENDBRANCH  11  12
ENDBRANCH   1  11
BRANCH   9  21
HETATM   21  C11 UNL     1      37.278 -48.771  -7.088  1.00  0.00     0.223 C 
HETATM   22  C12 UNL     1      37.268 -48.601  -8.583  1.00  0.00     0.036 C 
HETATM   23  C13 UNL     1      35.828 -48.771  -9.021  1.00  0.00     0.002 C 
HETATM   24  C14 UNL     1      35.175 -49.471  -7.829  1.00  0.00     0.002 C 
HETATM   25  C15 UNL     1      35.825 -48.701  -6.677  1.00  0.00     0.036 C 
ENDBRANCH   9  21
TORSDOF 5
ENDMDL
