MODEL 1
REMARK VINA RESULT: -9.372456066      0.000      0.000
REMARK  20 active torsions:
REMARK  status: ('A' for Active; 'I' for Inactive)
REMARK    1  A    between atoms: O1_2  and  C2_3 
REMARK    2  A    between atoms: C6_7  and  O2_8 
REMARK    3  A    between atoms: C7_10  and  O3_11 
REMARK    4  A    between atoms: C8_13  and  O4_14 
REMARK    5  A    between atoms: N1_16  and  O5_17 
REMARK    6  A    between atoms: C9_19  and  O6_20 
REMARK    7  A    between atoms: C10_22  and  N2_23 
REMARK    8  A    between atoms: N2_23  and  C11_26 
REMARK    9  A    between atoms: C11_26  and  C12_27 
REMARK   10  A    between atoms: C12_27  and  S1_28 
REMARK   11  A    between atoms: S1_28  and  C13_29 
REMARK   12  A    between atoms: N6_35  and  C14_36 
REMARK   13  A    between atoms: C16_38  and  O7_39 
REMARK   14  A    between atoms: C18_42  and  N7_43 
REMARK   15  A    between atoms: C21_56  and  C22_57 
REMARK   16  A    between atoms: C22_57  and  O8_58 
REMARK   17  A    between atoms: C22_57  and  O9_60 
REMARK   18  A    between atoms: O9_60  and  C23_61 
REMARK   19  A    between atoms: C23_61  and  C24_62 
REMARK   20  A    between atoms: C24_62  and  O10_63 
ROOT
HETATM    1  C2  UNL     1      10.718  24.198  21.278  1.00  0.00     0.104 A 
HETATM    2  C3  UNL     1      10.571  23.920  19.945  1.00  0.00     0.052 A 
HETATM    3  C4  UNL     1       9.430  24.259  19.192  1.00  0.00    -0.014 A 
HETATM    4  C5  UNL     1       8.402  24.907  19.831  1.00  0.00     0.063 A 
HETATM    5  C6  UNL     1       8.589  25.184  21.223  1.00  0.00     0.117 A 
HETATM    6  C7  UNL     1       9.705  24.845  21.931  1.00  0.00     0.133 A 
HETATM    7  C8  UNL     1       7.120  25.334  19.280  1.00  0.00     0.179 C 
HETATM    8  N1  UNL     1       6.306  24.931  18.247  1.00  0.00    -0.204 N 
HETATM    9  C9  UNL     1       6.376  24.999  16.802  1.00  0.00     0.299 C 
HETATM   10  C10 UNL     1       6.595  23.592  16.272  1.00  0.00     0.335 C 
HETATM   11  N11 UNL     1       7.947  23.390  16.107  1.00  0.00    -0.358 N 
ATOM     12  H11 UNL     1       8.392  23.637  15.222  1.00  0.00     0.161 HD
HETATM   13  C21 UNL     1       8.742  22.829  17.181  1.00  0.00     0.062 C 
HETATM   14  C25 UNL     1       9.550  23.883  17.776  1.00  0.00     0.042 C 
ENDROOT
BRANCH  10  15
HETATM   15  N2  UNL     1       5.823  23.347  15.045  1.00  0.00    -0.049 N 
ATOM     16  H22 UNL     1       6.419  23.452  14.223  1.00  0.00     0.279 HD
ATOM     17  H21 UNL     1       5.587  22.357  14.964  1.00  0.00     0.279 HD
BRANCH  15  18
HETATM   18  C11 UNL     1       4.654  24.147  14.916  1.00  0.00     0.245 C 
BRANCH  18  19
HETATM   19  C12 UNL     1       4.674  24.699  13.483  1.00  0.00     0.110 C 
BRANCH  19  20
HETATM   20  S1  UNL     1       3.480  23.749  12.519  1.00  0.00    -0.089 SA
BRANCH  20  21
HETATM   21  C13 UNL     1       1.966  24.635  12.279  1.00  0.00     0.181 A 
HETATM   22  N3  UNL     1       1.831  25.949  12.096  1.00  0.00    -0.261 N 
HETATM   23  N4  UNL     1       0.522  26.177  11.964  1.00  0.00    -0.004 NA
ATOM     24  H3  UNL     1       2.579  26.642  12.064  1.00  0.00     0.186 HD
HETATM   25  N5  UNL     1      -0.139  25.033  12.061  1.00  0.00    -0.216 N 
HETATM   26  N6  UNL     1       0.747  24.085  12.255  1.00  0.00    -0.203 N 
ATOM     27  H5  UNL     1      -1.149  24.912  11.996  1.00  0.00     0.206 HD
BRANCH  26  28
HETATM   28  C14 UNL     1       0.361  22.708  12.409  1.00  0.00     0.135 A 
HETATM   29  C15 UNL     1      -0.035  22.289  13.633  1.00  0.00     0.088 A 
HETATM   30  C16 UNL     1      -0.417  20.944  13.821  1.00  0.00     0.087 A 
HETATM   31  C17 UNL     1      -0.374  20.081  12.729  1.00  0.00     0.085 A 
HETATM   32  C18 UNL     1      -0.724  18.753  12.806  1.00  0.00     0.116 A 
HETATM   33  C20 UNL     1       0.043  20.593  11.516  1.00  0.00     0.124 A 
HETATM   34  N8  UNL     1      -0.651  17.984  11.687  1.00  0.00    -0.338 N 
HETATM   35  C19 UNL     1      -0.251  18.458  10.507  1.00  0.00     0.183 A 
ATOM     36  H8  UNL     1      -0.913  17.001  11.754  1.00  0.00     0.168 HD
HETATM   37  N9  UNL     1       0.084  19.752  10.456  1.00  0.00    -0.338 N 
ATOM     38  H9  UNL     1       0.392  20.129   9.559  1.00  0.00     0.168 HD
HETATM   39  N10 UNL     1       0.398  21.878  11.377  1.00  0.00    -0.326 N 
ATOM     40  H10 UNL     1       0.700  22.221  10.465  1.00  0.00     0.169 HD
BRANCH  30  41
HETATM   41  O7  UNL     1      -0.802  20.555  15.029  1.00  0.00    -0.359 OA
ATOM     42  H7  UNL     1      -0.182  20.088  15.577  1.00  0.00     0.217 HD
ENDBRANCH  30  41
BRANCH  32  43
HETATM   43  N7  UNL     1      -1.117  18.248  13.920  1.00  0.00    -0.385 N 
ATOM     44  H72 UNL     1      -0.441  17.866  14.582  1.00  0.00     0.157 HD
ATOM     45  H71 UNL     1      -2.109  18.224  14.155  1.00  0.00     0.157 HD
ENDBRANCH  32  43
ENDBRANCH  26  28
ENDBRANCH  20  21
ENDBRANCH  19  20
ENDBRANCH  18  19
ENDBRANCH  15  18
ENDBRANCH  10  15
BRANCH   9  46
HETATM   46  O6  UNL     1       7.139  25.968  16.242  1.00  0.00    -0.370 OA
ATOM     47  H6  UNL     1       7.469  25.829  15.363  1.00  0.00     0.212 HD
ENDBRANCH   9  46
BRANCH   8  48
HETATM   48  O5  UNL     1       5.067  24.317  18.584  1.00  0.00    -0.283 OA
ATOM     49  H5  UNL     1       4.970  23.391  18.397  1.00  0.00     0.245 HD
ENDBRANCH   8  48
BRANCH  13  50
HETATM   50  C22 UNL     1       8.028  21.807  17.947  1.00  0.00     0.307 C 
BRANCH  50  51
HETATM   51  O8  UNL     1       8.444  20.565  17.237  1.00  0.00    -0.366 OA
ATOM     52  H8  UNL     1       8.137  19.895  17.837  1.00  0.00     0.213 HD
ENDBRANCH  50  51
BRANCH  50  53
HETATM   53  O9  UNL     1       8.580  21.488  19.184  1.00  0.00    -0.354 OA
BRANCH  53  54
HETATM   54  C23 UNL     1       7.750  21.029  20.141  1.00  0.00     0.197 C 
BRANCH  54  55
HETATM   55  C24 UNL     1       7.042  22.001  21.019  1.00  0.00     0.190 C 
BRANCH  55  56
HETATM   56  O10 UNL     1       5.704  22.173  20.612  1.00  0.00    -0.399 OA
ATOM     57  H10 UNL     1       5.336  22.972  20.970  1.00  0.00     0.209 HD
ENDBRANCH  55  56
ENDBRANCH  54  55
ENDBRANCH  53  54
ENDBRANCH  50  53
ENDBRANCH  13  50
BRANCH   7  58
HETATM   58  O4  UNL     1       6.587  26.360  19.919  1.00  0.00    -0.344 OA
ATOM     59  H4  UNL     1       5.763  26.155  20.345  1.00  0.00     0.219 HD
ENDBRANCH   7  58
BRANCH   5  60
HETATM   60  O2  UNL     1       7.591  25.842  21.944  1.00  0.00    -0.357 OA
ATOM     61  H2  UNL     1       6.803  25.376  22.199  1.00  0.00     0.217 HD
ENDBRANCH   5  60
BRANCH   6  62
HETATM   62  O3  UNL     1       9.831  25.142  23.290  1.00  0.00    -0.356 OA
ATOM     63  H3  UNL     1      10.022  26.032  23.564  1.00  0.00     0.218 HD
ENDBRANCH   6  62
BRANCH   1  64
HETATM   64  O1  UNL     1      11.893  23.822  21.951  1.00  0.00    -0.353 OA
HETATM   65  C1  UNL     1      12.201  22.465  22.171  1.00  0.00     0.210 C 
ENDBRANCH   1  64
TORSDOF 20
ENDMDL
MODEL 2
REMARK VINA RESULT: -9.146813241      1.471      3.056
REMARK  20 active torsions:
REMARK  status: ('A' for Active; 'I' for Inactive)
REMARK    1  A    between atoms: O1_2  and  C2_3 
REMARK    2  A    between atoms: C6_7  and  O2_8 
REMARK    3  A    between atoms: C7_10  and  O3_11 
REMARK    4  A    between atoms: C8_13  and  O4_14 
REMARK    5  A    between atoms: N1_16  and  O5_17 
REMARK    6  A    between atoms: C9_19  and  O6_20 
REMARK    7  A    between atoms: C10_22  and  N2_23 
REMARK    8  A    between atoms: N2_23  and  C11_26 
REMARK    9  A    between atoms: C11_26  and  C12_27 
REMARK   10  A    between atoms: C12_27  and  S1_28 
REMARK   11  A    between atoms: S1_28  and  C13_29 
REMARK   12  A    between atoms: N6_35  and  C14_36 
REMARK   13  A    between atoms: C16_38  and  O7_39 
REMARK   14  A    between atoms: C18_42  and  N7_43 
REMARK   15  A    between atoms: C21_56  and  C22_57 
REMARK   16  A    between atoms: C22_57  and  O8_58 
REMARK   17  A    between atoms: C22_57  and  O9_60 
REMARK   18  A    between atoms: O9_60  and  C23_61 
REMARK   19  A    between atoms: C23_61  and  C24_62 
REMARK   20  A    between atoms: C24_62  and  O10_63 
ROOT
HETATM    1  C2  UNL     1       8.521  22.668  22.253  1.00  0.00     0.104 A 
HETATM    2  C3  UNL     1       7.531  22.700  21.307  1.00  0.00     0.052 A 
HETATM    3  C4  UNL     1       7.769  22.688  19.918  1.00  0.00    -0.014 A 
HETATM    4  C5  UNL     1       9.072  22.644  19.486  1.00  0.00     0.063 A 
HETATM    5  C6  UNL     1      10.081  22.610  20.500  1.00  0.00     0.117 A 
HETATM    6  C7  UNL     1       9.825  22.621  21.840  1.00  0.00     0.133 A 
HETATM    7  C8  UNL     1       9.569  22.651  18.114  1.00  0.00     0.179 C 
HETATM    8  N1  UNL     1       9.117  23.118  16.902  1.00  0.00    -0.204 N 
HETATM    9  C9  UNL     1       8.067  22.731  15.983  1.00  0.00     0.299 C 
HETATM   10  C10 UNL     1       6.985  23.796  16.024  1.00  0.00     0.335 C 
HETATM   11  N11 UNL     1       6.025  23.411  16.934  1.00  0.00    -0.358 N 
ATOM     12  H11 UNL     1       5.242  22.832  16.630  1.00  0.00     0.161 HD
HETATM   13  C21 UNL     1       6.120  23.824  18.321  1.00  0.00     0.062 C 
HETATM   14  C25 UNL     1       6.529  22.685  19.129  1.00  0.00     0.042 C 
ENDROOT
BRANCH  10  15
HETATM   15  N2  UNL     1       6.434  24.065  14.688  1.00  0.00    -0.049 N 
ATOM     16  H22 UNL     1       6.999  24.763  14.204  1.00  0.00     0.279 HD
ATOM     17  H21 UNL     1       6.583  23.264  14.073  1.00  0.00     0.279 HD
BRANCH  15  18
HETATM   18  C11 UNL     1       5.063  24.446  14.683  1.00  0.00     0.245 C 
BRANCH  18  19
HETATM   19  C12 UNL     1       4.745  24.861  13.239  1.00  0.00     0.110 C 
BRANCH  19  20
HETATM   20  S1  UNL     1       3.448  23.762  12.632  1.00  0.00    -0.089 SA
BRANCH  20  21
HETATM   21  C13 UNL     1       1.935  24.629  12.321  1.00  0.00     0.181 A 
HETATM   22  N3  UNL     1       1.794  25.939  12.117  1.00  0.00    -0.261 N 
HETATM   23  N4  UNL     1       0.490  26.151  11.930  1.00  0.00    -0.004 NA
ATOM     24  H3  UNL     1       2.535  26.640  12.106  1.00  0.00     0.186 HD
HETATM   25  N5  UNL     1      -0.163  25.002  12.015  1.00  0.00    -0.216 N 
HETATM   26  N6  UNL     1       0.724  24.066  12.256  1.00  0.00    -0.203 N 
ATOM     27  H5  UNL     1      -1.168  24.869  11.911  1.00  0.00     0.206 HD
BRANCH  26  28
HETATM   28  C14 UNL     1       0.347  22.686  12.411  1.00  0.00     0.135 A 
HETATM   29  C15 UNL     1      -0.044  22.265  13.636  1.00  0.00     0.088 A 
HETATM   30  C16 UNL     1      -0.417  20.918  13.826  1.00  0.00     0.087 A 
HETATM   31  C17 UNL     1      -0.371  20.054  12.733  1.00  0.00     0.085 A 
HETATM   32  C18 UNL     1      -0.714  18.725  12.812  1.00  0.00     0.116 A 
HETATM   33  C20 UNL     1       0.039  20.569  11.520  1.00  0.00     0.124 A 
HETATM   34  N8  UNL     1      -0.639  17.956  11.693  1.00  0.00    -0.338 N 
HETATM   35  C19 UNL     1      -0.245  18.432  10.512  1.00  0.00     0.183 A 
ATOM     36  H8  UNL     1      -0.895  16.971  11.760  1.00  0.00     0.168 HD
HETATM   37  N9  UNL     1       0.083  19.728  10.459  1.00  0.00    -0.338 N 
ATOM     38  H9  UNL     1       0.386  20.107   9.562  1.00  0.00     0.168 HD
HETATM   39  N10 UNL     1       0.386  21.856  11.379  1.00  0.00    -0.326 N 
ATOM     40  H10 UNL     1       0.684  22.200  10.467  1.00  0.00     0.169 HD
BRANCH  30  41
HETATM   41  O7  UNL     1      -0.796  20.527  15.034  1.00  0.00    -0.359 OA
ATOM     42  H7  UNL     1      -0.764  19.601  15.245  1.00  0.00     0.217 HD
ENDBRANCH  30  41
BRANCH  32  43
HETATM   43  N7  UNL     1      -1.100  18.218  13.927  1.00  0.00    -0.385 N 
ATOM     44  H72 UNL     1      -2.067  17.916  14.051  1.00  0.00     0.157 HD
ATOM     45  H71 UNL     1      -0.444  18.112  14.701  1.00  0.00     0.157 HD
ENDBRANCH  32  43
ENDBRANCH  26  28
ENDBRANCH  20  21
ENDBRANCH  19  20
ENDBRANCH  18  19
ENDBRANCH  15  18
ENDBRANCH  10  15
BRANCH   9  46
HETATM   46  O6  UNL     1       7.637  21.447  16.006  1.00  0.00    -0.370 OA
ATOM     47  H6  UNL     1       6.823  21.238  15.563  1.00  0.00     0.212 HD
ENDBRANCH   9  46
BRANCH   8  48
HETATM   48  O5  UNL     1       9.800  24.225  16.325  1.00  0.00    -0.283 OA
ATOM     49  H5  UNL     1       9.689  24.375  15.394  1.00  0.00     0.245 HD
ENDBRANCH   8  48
BRANCH  13  50
HETATM   50  C22 UNL     1       6.650  25.179  18.479  1.00  0.00     0.307 C 
BRANCH  50  51
HETATM   51  O8  UNL     1       5.434  26.000  18.220  1.00  0.00    -0.366 OA
ATOM     52  H8  UNL     1       5.600  26.305  17.335  1.00  0.00     0.213 HD
ENDBRANCH  50  51
BRANCH  50  53
HETATM   53  O9  UNL     1       6.859  25.592  19.791  1.00  0.00    -0.354 OA
BRANCH  53  54
HETATM   54  C23 UNL     1       5.846  26.223  20.416  1.00  0.00     0.197 C 
BRANCH  54  55
HETATM   55  C24 UNL     1       6.098  26.883  21.727  1.00  0.00     0.190 C 
BRANCH  55  56
HETATM   56  O10 UNL     1       7.373  27.484  21.757  1.00  0.00    -0.399 OA
ATOM     57  H10 UNL     1       7.821  27.298  22.573  1.00  0.00     0.209 HD
ENDBRANCH  55  56
ENDBRANCH  54  55
ENDBRANCH  53  54
ENDBRANCH  50  53
ENDBRANCH  13  50
BRANCH   7  58
HETATM   58  O4  UNL     1      10.750  22.073  17.979  1.00  0.00    -0.344 OA
ATOM     59  H4  UNL     1      11.045  22.021  17.078  1.00  0.00     0.219 HD
ENDBRANCH   7  58
BRANCH   5  60
HETATM   60  O2  UNL     1      11.429  22.562  20.142  1.00  0.00    -0.357 OA
ATOM     61  H2  UNL     1      12.101  22.617  20.811  1.00  0.00     0.217 HD
ENDBRANCH   5  60
BRANCH   6  62
HETATM   62  O3  UNL     1      10.853  22.587  22.785  1.00  0.00    -0.356 OA
ATOM     63  H3  UNL     1      11.366  21.795  22.897  1.00  0.00     0.218 HD
ENDBRANCH   6  62
BRANCH   1  64
HETATM   64  O1  UNL     1       8.192  22.683  23.619  1.00  0.00    -0.353 OA
HETATM   65  C1  UNL     1       7.909  23.891  24.285  1.00  0.00     0.210 C 
ENDBRANCH   1  64
TORSDOF 20
ENDMDL
MODEL 3
REMARK VINA RESULT: -8.936116369      6.310     13.326
REMARK  20 active torsions:
REMARK  status: ('A' for Active; 'I' for Inactive)
REMARK    1  A    between atoms: O1_2  and  C2_3 
REMARK    2  A    between atoms: C6_7  and  O2_8 
REMARK    3  A    between atoms: C7_10  and  O3_11 
REMARK    4  A    between atoms: C8_13  and  O4_14 
REMARK    5  A    between atoms: N1_16  and  O5_17 
REMARK    6  A    between atoms: C9_19  and  O6_20 
REMARK    7  A    between atoms: C10_22  and  N2_23 
REMARK    8  A    between atoms: N2_23  and  C11_26 
REMARK    9  A    between atoms: C11_26  and  C12_27 
REMARK   10  A    between atoms: C12_27  and  S1_28 
REMARK   11  A    between atoms: S1_28  and  C13_29 
REMARK   12  A    between atoms: N6_35  and  C14_36 
REMARK   13  A    between atoms: C16_38  and  O7_39 
REMARK   14  A    between atoms: C18_42  and  N7_43 
REMARK   15  A    between atoms: C21_56  and  C22_57 
REMARK   16  A    between atoms: C22_57  and  O8_58 
REMARK   17  A    between atoms: C22_57  and  O9_60 
REMARK   18  A    between atoms: O9_60  and  C23_61 
REMARK   19  A    between atoms: C23_61  and  C24_62 
REMARK   20  A    between atoms: C24_62  and  O10_63 
ROOT
HETATM    1  C2  UNL     1       5.972  23.964  15.637  1.00  0.00     0.104 A 
HETATM    2  C3  UNL     1       5.771  23.719  16.970  1.00  0.00     0.052 A 
HETATM    3  C4  UNL     1       6.703  24.038  17.977  1.00  0.00    -0.014 A 
HETATM    4  C5  UNL     1       7.885  24.628  17.602  1.00  0.00     0.063 A 
HETATM    5  C6  UNL     1       8.062  24.871  16.203  1.00  0.00     0.117 A 
HETATM    6  C7  UNL     1       7.143  24.554  15.245  1.00  0.00     0.133 A 
HETATM    7  C8  UNL     1       9.007  25.022  18.448  1.00  0.00     0.179 C 
HETATM    8  N1  UNL     1       9.520  24.620  19.659  1.00  0.00    -0.204 N 
HETATM    9  C9  UNL     1       9.095  24.732  21.038  1.00  0.00     0.299 C 
HETATM   10  C10 UNL     1       8.691  23.351  21.524  1.00  0.00     0.335 C 
HETATM   11  N11 UNL     1       7.333  23.204  21.351  1.00  0.00    -0.358 N 
ATOM     12  H11 UNL     1       6.694  23.493  22.091  1.00  0.00     0.161 HD
HETATM   13  C21 UNL     1       6.806  22.642  20.122  1.00  0.00     0.062 C 
HETATM   14  C25 UNL     1       6.218  23.708  19.325  1.00  0.00     0.042 C 
ENDROOT
BRANCH  10  15
HETATM   15  N2  UNL     1       9.122  23.113  22.910  1.00  0.00    -0.049 N 
ATOM     16  H22 UNL     1       8.621  23.730  23.549  1.00  0.00     0.279 HD
ATOM     17  H21 UNL     1       8.782  22.208  23.238  1.00  0.00     0.279 HD
BRANCH  15  18
HETATM   18  C11 UNL     1      10.526  23.219  23.115  1.00  0.00     0.245 C 
BRANCH  18  19
HETATM   19  C12 UNL     1      11.172  22.211  22.154  1.00  0.00     0.110 C 
BRANCH  19  20
HETATM   20  S1  UNL     1      12.933  22.142  22.543  1.00  0.00    -0.089 SA
BRANCH  20  21
HETATM   21  C13 UNL     1      13.704  20.696  21.872  1.00  0.00     0.181 A 
HETATM   22  N3  UNL     1      13.562  20.216  20.636  1.00  0.00    -0.261 N 
HETATM   23  N4  UNL     1      14.317  19.117  20.571  1.00  0.00    -0.004 NA
ATOM     24  H3  UNL     1      12.989  20.609  19.889  1.00  0.00     0.186 HD
HETATM   25  N5  UNL     1      14.915  18.921  21.736  1.00  0.00    -0.216 N 
HETATM   26  N6  UNL     1      14.539  19.889  22.537  1.00  0.00    -0.203 N 
ATOM     27  H5  UNL     1      15.550  18.158  21.968  1.00  0.00     0.206 HD
BRANCH  26  28
HETATM   28  C14 UNL     1      15.006  19.974  23.895  1.00  0.00     0.135 A 
HETATM   29  C15 UNL     1      15.292  18.823  24.545  1.00  0.00     0.088 A 
HETATM   30  C16 UNL     1      15.749  18.869  25.879  1.00  0.00     0.087 A 
HETATM   31  C17 UNL     1      15.893  20.112  26.491  1.00  0.00     0.085 A 
HETATM   32  C18 UNL     1      16.330  20.266  27.785  1.00  0.00     0.116 A 
HETATM   33  C20 UNL     1      15.579  21.236  25.753  1.00  0.00     0.124 A 
HETATM   34  N8  UNL     1      16.440  21.519  28.302  1.00  0.00    -0.338 N 
HETATM   35  C19 UNL     1      16.142  22.617  27.608  1.00  0.00     0.183 A 
ATOM     36  H8  UNL     1      16.765  21.624  29.263  1.00  0.00     0.168 HD
HETATM   37  N9  UNL     1      15.719  22.443  26.351  1.00  0.00    -0.338 N 
ATOM     38  H9  UNL     1      15.486  23.274  25.807  1.00  0.00     0.168 HD
HETATM   39  N10 UNL     1      15.147  21.152  24.487  1.00  0.00    -0.326 N 
ATOM     40  H10 UNL     1      14.924  22.004  23.973  1.00  0.00     0.169 HD
BRANCH  30  41
HETATM   41  O7  UNL     1      16.023  17.729  26.497  1.00  0.00    -0.359 OA
ATOM     42  H7  UNL     1      15.333  17.083  26.592  1.00  0.00     0.217 HD
ENDBRANCH  30  41
BRANCH  32  43
HETATM   43  N7  UNL     1      16.631  19.239  28.497  1.00  0.00    -0.385 N 
ATOM     44  H72 UNL     1      16.395  18.300  28.176  1.00  0.00     0.157 HD
ATOM     45  H71 UNL     1      17.110  19.352  29.390  1.00  0.00     0.157 HD
ENDBRANCH  32  43
ENDBRANCH  26  28
ENDBRANCH  20  21
ENDBRANCH  19  20
ENDBRANCH  18  19
ENDBRANCH  15  18
ENDBRANCH  10  15
BRANCH   9  46
HETATM   46  O6  UNL     1       8.261  25.745  21.372  1.00  0.00    -0.370 OA
ATOM     47  H6  UNL     1       8.267  26.056  22.270  1.00  0.00     0.212 HD
ENDBRANCH   9  46
BRANCH   8  48
HETATM   48  O5  UNL     1      10.775  23.950  19.653  1.00  0.00    -0.283 OA
ATOM     49  H5  UNL     1      10.981  23.394  20.395  1.00  0.00     0.245 HD
ENDBRANCH   8  48
BRANCH  13  50
HETATM   50  C22 UNL     1       7.643  21.572  19.578  1.00  0.00     0.307 C 
BRANCH  50  51
HETATM   51  O8  UNL     1       6.618  20.549  19.226  1.00  0.00    -0.366 OA
ATOM     52  H8  UNL     1       6.847  19.844  19.820  1.00  0.00     0.213 HD
ENDBRANCH  50  51
BRANCH  50  53
HETATM   53  O9  UNL     1       8.124  21.783  18.290  1.00  0.00    -0.354 OA
BRANCH  53  54
HETATM   54  C23 UNL     1       9.073  20.944  17.831  1.00  0.00     0.197 C 
BRANCH  54  55
HETATM   55  C24 UNL     1      10.428  21.477  17.522  1.00  0.00     0.190 C 
BRANCH  55  56
HETATM   56  O10 UNL     1      11.318  21.258  18.592  1.00  0.00    -0.399 OA
ATOM     57  H10 UNL     1      10.911  21.467  19.425  1.00  0.00     0.209 HD
ENDBRANCH  55  56
ENDBRANCH  54  55
ENDBRANCH  53  54
ENDBRANCH  50  53
ENDBRANCH  13  50
BRANCH   7  58
HETATM   58  O4  UNL     1       9.725  26.009  17.942  1.00  0.00    -0.344 OA
ATOM     59  H4  UNL     1      10.657  25.825  17.919  1.00  0.00     0.219 HD
ENDBRANCH   7  58
BRANCH   5  60
HETATM   60  O2  UNL     1       9.235  25.470  15.741  1.00  0.00    -0.357 OA
ATOM     61  H2  UNL     1       9.225  26.375  15.453  1.00  0.00     0.217 HD
ENDBRANCH   5  60
BRANCH   6  62
HETATM   62  O3  UNL     1       7.371  24.815  13.892  1.00  0.00    -0.356 OA
ATOM     63  H3  UNL     1       7.344  25.710  13.572  1.00  0.00     0.218 HD
ENDBRANCH   6  62
BRANCH   1  64
HETATM   64  O1  UNL     1       4.986  23.612  14.699  1.00  0.00    -0.353 OA
HETATM   65  C1  UNL     1       3.975  24.521  14.332  1.00  0.00     0.210 C 
ENDBRANCH   1  64
TORSDOF 20
ENDMDL
MODEL 4
REMARK VINA RESULT: -8.787714436      6.953     12.869
REMARK  20 active torsions:
REMARK  status: ('A' for Active; 'I' for Inactive)
REMARK    1  A    between atoms: O1_2  and  C2_3 
REMARK    2  A    between atoms: C6_7  and  O2_8 
REMARK    3  A    between atoms: C7_10  and  O3_11 
REMARK    4  A    between atoms: C8_13  and  O4_14 
REMARK    5  A    between atoms: N1_16  and  O5_17 
REMARK    6  A    between atoms: C9_19  and  O6_20 
REMARK    7  A    between atoms: C10_22  and  N2_23 
REMARK    8  A    between atoms: N2_23  and  C11_26 
REMARK    9  A    between atoms: C11_26  and  C12_27 
REMARK   10  A    between atoms: C12_27  and  S1_28 
REMARK   11  A    between atoms: S1_28  and  C13_29 
REMARK   12  A    between atoms: N6_35  and  C14_36 
REMARK   13  A    between atoms: C16_38  and  O7_39 
REMARK   14  A    between atoms: C18_42  and  N7_43 
REMARK   15  A    between atoms: C21_56  and  C22_57 
REMARK   16  A    between atoms: C22_57  and  O8_58 
REMARK   17  A    between atoms: C22_57  and  O9_60 
REMARK   18  A    between atoms: O9_60  and  C23_61 
REMARK   19  A    between atoms: C23_61  and  C24_62 
REMARK   20  A    between atoms: C24_62  and  O10_63 
ROOT
HETATM    1  C2  UNL     1       6.158  24.245  16.737  1.00  0.00     0.104 A 
HETATM    2  C3  UNL     1       6.045  24.083  18.093  1.00  0.00     0.052 A 
HETATM    3  C4  UNL     1       7.115  24.237  18.996  1.00  0.00    -0.014 A 
HETATM    4  C5  UNL     1       8.347  24.568  18.488  1.00  0.00     0.063 A 
HETATM    5  C6  UNL     1       8.431  24.730  17.069  1.00  0.00     0.117 A 
HETATM    6  C7  UNL     1       7.378  24.576  16.214  1.00  0.00     0.133 A 
HETATM    7  C8  UNL     1       9.602  24.753  19.210  1.00  0.00     0.179 C 
HETATM    8  N1  UNL     1      10.142  24.291  20.387  1.00  0.00    -0.204 N 
HETATM    9  C9  UNL     1       9.885  24.525  21.793  1.00  0.00     0.299 C 
HETATM   10  C10 UNL     1       9.266  23.267  22.378  1.00  0.00     0.335 C 
HETATM   11  N11 UNL     1       7.895  23.391  22.335  1.00  0.00    -0.358 N 
ATOM     12  H11 UNL     1       7.401  23.823  23.115  1.00  0.00     0.161 HD
HETATM   13  C21 UNL     1       7.150  22.911  21.187  1.00  0.00     0.062 C 
HETATM   14  C25 UNL     1       6.708  24.050  20.396  1.00  0.00     0.042 C 
ENDROOT
BRANCH  10  15
HETATM   15  N2  UNL     1       9.775  22.987  23.729  1.00  0.00    -0.049 N 
ATOM     16  H22 UNL     1      10.781  22.820  23.702  1.00  0.00     0.279 HD
ATOM     17  H21 UNL     1       9.753  23.833  24.300  1.00  0.00     0.279 HD
BRANCH  15  18
HETATM   18  C11 UNL     1       9.112  21.920  24.397  1.00  0.00     0.245 C 
BRANCH  18  19
HETATM   19  C12 UNL     1       9.401  22.114  25.892  1.00  0.00     0.110 C 
BRANCH  19  20
HETATM   20  S1  UNL     1      10.009  20.542  26.536  1.00  0.00    -0.089 SA
BRANCH  20  21
HETATM   21  C13 UNL     1      11.270  20.768  27.760  1.00  0.00     0.181 A 
HETATM   22  N3  UNL     1      11.086  21.019  29.056  1.00  0.00    -0.261 N 
HETATM   23  N4  UNL     1      12.304  21.119  29.594  1.00  0.00    -0.004 NA
ATOM     24  H3  UNL     1      10.194  21.116  29.541  1.00  0.00     0.186 HD
HETATM   25  N5  UNL     1      13.220  20.934  28.656  1.00  0.00    -0.216 N 
HETATM   26  N6  UNL     1      12.586  20.719  27.528  1.00  0.00    -0.203 N 
ATOM     27  H5  UNL     1      14.231  20.954  28.786  1.00  0.00     0.206 HD
BRANCH  26  28
HETATM   28  C14 UNL     1      13.290  20.482  26.296  1.00  0.00     0.135 A 
HETATM   29  C15 UNL     1      14.319  19.605  26.308  1.00  0.00     0.088 A 
HETATM   30  C16 UNL     1      15.035  19.351  25.119  1.00  0.00     0.087 A 
HETATM   31  C17 UNL     1      14.654  20.020  23.957  1.00  0.00     0.085 A 
HETATM   32  C18 UNL     1      15.284  19.844  22.748  1.00  0.00     0.116 A 
HETATM   33  C20 UNL     1      13.591  20.897  24.036  1.00  0.00     0.124 A 
HETATM   34  N8  UNL     1      14.844  20.540  21.665  1.00  0.00    -0.338 N 
HETATM   35  C19 UNL     1      13.822  21.392  21.719  1.00  0.00     0.183 A 
ATOM     36  H8  UNL     1      15.318  20.403  20.773  1.00  0.00     0.168 HD
HETATM   37  N9  UNL     1      13.223  21.547  22.905  1.00  0.00    -0.338 N 
ATOM     38  H9  UNL     1      12.438  22.196  22.962  1.00  0.00     0.168 HD
HETATM   39  N10 UNL     1      12.936  21.112  25.185  1.00  0.00    -0.326 N 
ATOM     40  H10 UNL     1      12.156  21.768  25.205  1.00  0.00     0.169 HD
BRANCH  30  41
HETATM   41  O7  UNL     1      16.040  18.487  25.152  1.00  0.00    -0.359 OA
ATOM     42  H7  UNL     1      16.258  18.011  24.360  1.00  0.00     0.217 HD
ENDBRANCH  30  41
BRANCH  32  43
HETATM   43  N7  UNL     1      16.276  19.033  22.643  1.00  0.00    -0.385 N 
ATOM     44  H72 UNL     1      17.186  19.274  23.035  1.00  0.00     0.157 HD
ATOM     45  H71 UNL     1      16.163  18.138  22.166  1.00  0.00     0.157 HD
ENDBRANCH  32  43
ENDBRANCH  26  28
ENDBRANCH  20  21
ENDBRANCH  19  20
ENDBRANCH  18  19
ENDBRANCH  15  18
ENDBRANCH  10  15
BRANCH   9  46
HETATM   46  O6  UNL     1       9.302  25.694  22.152  1.00  0.00    -0.370 OA
ATOM     47  H6  UNL     1       8.675  25.684  22.865  1.00  0.00     0.212 HD
ENDBRANCH   9  46
BRANCH   8  48
HETATM   48  O5  UNL     1      11.234  23.383  20.300  1.00  0.00    -0.283 OA
ATOM     49  H5  UNL     1      11.900  23.557  19.645  1.00  0.00     0.245 HD
ENDBRANCH   8  48
BRANCH  13  50
HETATM   50  C22 UNL     1       7.703  21.680  20.621  1.00  0.00     0.307 C 
BRANCH  50  51
HETATM   51  O8  UNL     1       6.556  21.193  19.804  1.00  0.00    -0.366 OA
ATOM     52  H8  UNL     1       6.991  20.586  19.216  1.00  0.00     0.213 HD
ENDBRANCH  50  51
BRANCH  50  53
HETATM   53  O9  UNL     1       8.599  21.852  19.571  1.00  0.00    -0.354 OA
BRANCH  53  54
HETATM   54  C23 UNL     1       8.541  20.976  18.549  1.00  0.00     0.197 C 
BRANCH  54  55
HETATM   55  C24 UNL     1       9.379  21.210  17.340  1.00  0.00     0.190 C 
BRANCH  55  56
HETATM   56  O10 UNL     1      10.672  21.644  17.695  1.00  0.00    -0.399 OA
ATOM     57  H10 UNL     1      10.912  21.338  18.561  1.00  0.00     0.209 HD
ENDBRANCH  55  56
ENDBRANCH  54  55
ENDBRANCH  53  54
ENDBRANCH  50  53
ENDBRANCH  13  50
BRANCH   7  58
HETATM   58  O4  UNL     1      10.448  25.561  18.595  1.00  0.00    -0.344 OA
ATOM     59  H4  UNL     1      10.242  26.481  18.709  1.00  0.00     0.219 HD
ENDBRANCH   7  58
BRANCH   5  60
HETATM   60  O2  UNL     1       9.648  25.068  16.475  1.00  0.00    -0.357 OA
ATOM     61  H2  UNL     1      10.235  24.385  16.173  1.00  0.00     0.217 HD
ENDBRANCH   5  60
BRANCH   6  62
HETATM   62  O3  UNL     1       7.520  24.748  14.835  1.00  0.00    -0.356 OA
ATOM     63  H3  UNL     1       7.589  25.624  14.472  1.00  0.00     0.218 HD
ENDBRANCH   6  62
BRANCH   1  64
HETATM   64  O1  UNL     1       5.036  24.071  15.910  1.00  0.00    -0.353 OA
HETATM   65  C1  UNL     1       4.224  25.164  15.547  1.00  0.00     0.210 C 
ENDBRANCH   1  64
TORSDOF 20
ENDMDL
MODEL 5
REMARK VINA RESULT: -8.677941141      7.582     12.610
REMARK  20 active torsions:
REMARK  status: ('A' for Active; 'I' for Inactive)
REMARK    1  A    between atoms: O1_2  and  C2_3 
REMARK    2  A    between atoms: C6_7  and  O2_8 
REMARK    3  A    between atoms: C7_10  and  O3_11 
REMARK    4  A    between atoms: C8_13  and  O4_14 
REMARK    5  A    between atoms: N1_16  and  O5_17 
REMARK    6  A    between atoms: C9_19  and  O6_20 
REMARK    7  A    between atoms: C10_22  and  N2_23 
REMARK    8  A    between atoms: N2_23  and  C11_26 
REMARK    9  A    between atoms: C11_26  and  C12_27 
REMARK   10  A    between atoms: C12_27  and  S1_28 
REMARK   11  A    between atoms: S1_28  and  C13_29 
REMARK   12  A    between atoms: N6_35  and  C14_36 
REMARK   13  A    between atoms: C16_38  and  O7_39 
REMARK   14  A    between atoms: C18_42  and  N7_43 
REMARK   15  A    between atoms: C21_56  and  C22_57 
REMARK   16  A    between atoms: C22_57  and  O8_58 
REMARK   17  A    between atoms: C22_57  and  O9_60 
REMARK   18  A    between atoms: O9_60  and  C23_61 
REMARK   19  A    between atoms: C23_61  and  C24_62 
REMARK   20  A    between atoms: C24_62  and  O10_63 
ROOT
HETATM    1  C2  UNL     1       9.340  23.372  17.213  1.00  0.00     0.104 A 
HETATM    2  C3  UNL     1       8.844  24.240  18.150  1.00  0.00     0.052 A 
HETATM    3  C4  UNL     1       9.145  24.170  19.525  1.00  0.00    -0.014 A 
HETATM    4  C5  UNL     1       9.984  23.170  19.953  1.00  0.00     0.063 A 
HETATM    5  C6  UNL     1      10.485  22.282  18.949  1.00  0.00     0.117 A 
HETATM    6  C7  UNL     1      10.180  22.372  17.621  1.00  0.00     0.133 A 
HETATM    7  C8  UNL     1      10.418  22.876  21.315  1.00  0.00     0.179 C 
HETATM    8  N1  UNL     1       9.913  23.078  22.578  1.00  0.00    -0.204 N 
HETATM    9  C9  UNL     1       9.717  24.233  23.429  1.00  0.00     0.299 C 
HETATM   10  C10 UNL     1       8.225  24.500  23.531  1.00  0.00     0.335 C 
HETATM   11  N11 UNL     1       7.879  25.426  22.573  1.00  0.00    -0.358 N 
ATOM     12  H11 UNL     1       7.925  26.421  22.790  1.00  0.00     0.161 HD
HETATM   13  C21 UNL     1       7.448  24.994  21.257  1.00  0.00     0.062 C 
HETATM   14  C25 UNL     1       8.515  25.247  20.300  1.00  0.00     0.042 C 
ENDROOT
BRANCH  10  15
HETATM   15  N2  UNL     1       7.836  24.906  24.890  1.00  0.00    -0.049 N 
ATOM     16  H22 UNL     1       8.655  25.201  25.421  1.00  0.00     0.279 HD
ATOM     17  H21 UNL     1       7.318  25.785  24.864  1.00  0.00     0.279 HD
BRANCH  15  18
HETATM   18  C11 UNL     1       7.105  23.921  25.611  1.00  0.00     0.245 C 
BRANCH  18  19
HETATM   19  C12 UNL     1       7.691  23.915  27.030  1.00  0.00     0.110 C 
BRANCH  19  20
HETATM   20  S1  UNL     1       9.216  22.950  26.983  1.00  0.00    -0.089 SA
BRANCH  20  21
HETATM   21  C13 UNL     1       8.899  21.208  26.972  1.00  0.00     0.181 A 
HETATM   22  N3  UNL     1       7.736  20.607  27.224  1.00  0.00    -0.261 N 
HETATM   23  N4  UNL     1       7.958  19.296  27.108  1.00  0.00    -0.004 NA
ATOM     24  H3  UNL     1       6.852  21.059  27.459  1.00  0.00     0.186 HD
HETATM   25  N5  UNL     1       9.227  19.088  26.791  1.00  0.00    -0.216 N 
HETATM   26  N6  UNL     1       9.807  20.261  26.708  1.00  0.00    -0.203 N 
ATOM     27  H5  UNL     1       9.671  18.183  26.639  1.00  0.00     0.206 HD
BRANCH  26  28
HETATM   28  C14 UNL     1      11.201  20.396  26.381  1.00  0.00     0.135 A 
HETATM   29  C15 UNL     1      12.112  20.124  27.344  1.00  0.00     0.088 A 
HETATM   30  C16 UNL     1      13.488  20.249  27.060  1.00  0.00     0.087 A 
HETATM   31  C17 UNL     1      13.870  20.654  25.783  1.00  0.00     0.085 A 
HETATM   32  C18 UNL     1      15.183  20.807  25.405  1.00  0.00     0.116 A 
HETATM   33  C20 UNL     1      12.874  20.910  24.861  1.00  0.00     0.124 A 
HETATM   34  N8  UNL     1      15.463  21.206  24.135  1.00  0.00    -0.338 N 
HETATM   35  C19 UNL     1      14.518  21.460  23.231  1.00  0.00     0.183 A 
ATOM     36  H8  UNL     1      16.440  21.317  23.864  1.00  0.00     0.168 HD
HETATM   37  N9  UNL     1      13.248  21.304  23.621  1.00  0.00    -0.338 N 
ATOM     38  H9  UNL     1      12.513  21.495  22.939  1.00  0.00     0.168 HD
HETATM   39  N10 UNL     1      11.576  20.780  25.169  1.00  0.00    -0.326 N 
ATOM     40  H10 UNL     1      10.868  20.979  24.462  1.00  0.00     0.169 HD
BRANCH  30  41
HETATM   41  O7  UNL     1      14.362  19.977  28.018  1.00  0.00    -0.359 OA
ATOM     42  H7  UNL     1      15.097  19.410  27.817  1.00  0.00     0.217 HD
ENDBRANCH  30  41
BRANCH  32  43
HETATM   43  N7  UNL     1      16.131  20.574  26.240  1.00  0.00    -0.385 N 
ATOM     44  H72 UNL     1      15.922  20.253  27.185  1.00  0.00     0.157 HD
ATOM     45  H71 UNL     1      17.105  20.709  25.966  1.00  0.00     0.157 HD
ENDBRANCH  32  43
ENDBRANCH  26  28
ENDBRANCH  20  21
ENDBRANCH  19  20
ENDBRANCH  18  19
ENDBRANCH  15  18
ENDBRANCH  10  15
BRANCH   9  46
HETATM   46  O6  UNL     1      10.501  25.319  23.227  1.00  0.00    -0.370 OA
ATOM     47  H6  UNL     1      11.111  25.567  23.912  1.00  0.00     0.212 HD
ENDBRANCH   9  46
BRANCH   8  48
HETATM   48  O5  UNL     1       9.480  21.935  23.306  1.00  0.00    -0.283 OA
ATOM     49  H5  UNL     1       8.988  21.273  22.834  1.00  0.00     0.245 HD
ENDBRANCH   8  48
BRANCH  13  50
HETATM   50  C22 UNL     1       6.645  23.771  21.291  1.00  0.00     0.307 C 
BRANCH  50  51
HETATM   51  O8  UNL     1       5.565  24.157  22.243  1.00  0.00    -0.366 OA
ATOM     52  H8  UNL     1       6.070  24.538  22.952  1.00  0.00     0.213 HD
ENDBRANCH  50  51
BRANCH  50  53
HETATM   53  O9  UNL     1       5.828  23.559  20.184  1.00  0.00    -0.354 OA
BRANCH  53  54
HETATM   54  C23 UNL     1       6.107  22.503  19.395  1.00  0.00     0.197 C 
BRANCH  54  55
HETATM   55  C24 UNL     1       6.975  21.412  19.917  1.00  0.00     0.190 C 
BRANCH  55  56
HETATM   56  O10 UNL     1       6.999  20.315  19.033  1.00  0.00    -0.399 OA
ATOM     57  H10 UNL     1       6.434  19.615  19.339  1.00  0.00     0.209 HD
ENDBRANCH  55  56
ENDBRANCH  54  55
ENDBRANCH  53  54
ENDBRANCH  50  53
ENDBRANCH  13  50
BRANCH   7  58
HETATM   58  O4  UNL     1      11.585  22.258  21.373  1.00  0.00    -0.344 OA
ATOM     59  H4  UNL     1      11.786  21.912  22.235  1.00  0.00     0.219 HD
ENDBRANCH   7  58
BRANCH   5  60
HETATM   60  O2  UNL     1      11.346  21.242  19.303  1.00  0.00    -0.357 OA
ATOM     61  H2  UNL     1      11.034  20.345  19.299  1.00  0.00     0.217 HD
ENDBRANCH   5  60
BRANCH   6  62
HETATM   62  O3  UNL     1      10.700  21.475  16.686  1.00  0.00    -0.356 OA
ATOM     63  H3  UNL     1      10.870  21.764  15.797  1.00  0.00     0.218 HD
ENDBRANCH   6  62
BRANCH   1  64
HETATM   64  O1  UNL     1       8.986  23.517  15.861  1.00  0.00    -0.353 OA
HETATM   65  C1  UNL     1       7.654  23.345  15.436  1.00  0.00     0.210 C 
ENDBRANCH   1  64
TORSDOF 20
ENDMDL
