MODEL 1
REMARK VINA RESULT: -9.462091349      0.000      0.000
REMARK  17 active torsions:
REMARK  status: ('A' for Active; 'I' for Inactive)
REMARK    1  A    between atoms: O1_2  and  C2_3 
REMARK    2  A    between atoms: C2_3  and  C3_5 
REMARK    3  A    between atoms: C3_5  and  C4_6 
REMARK    4  A    between atoms: C4_6  and  C5_7 
REMARK    5  A    between atoms: C5_7  and  C17_47 
REMARK    6  A    between atoms: N1_8  and  O3_10 
REMARK    7  A    between atoms: O3_10  and  C6_11 
REMARK    8  A    between atoms: C7_13  and  C8_14 
REMARK    9  A    between atoms: C8_14  and  O5_15 
REMARK   10  A    between atoms: O5_15  and  S1_16 
REMARK   11  A    between atoms: S1_16  and  N2_19 
REMARK       I    between atoms: N2_19  and  C9_21 
REMARK   12  A    between atoms: C9_21  and  C10_23 
REMARK   13  A    between atoms: C12_27  and  C13_28 
REMARK   14  A    between atoms: C14_34  and  O11_35 
REMARK   15  A    between atoms: C16_44  and  O12_45 
REMARK   16  A    between atoms: C20_51  and  O14_52 
REMARK   17  A    between atoms: C21_54  and  O15_55 
ROOT
HETATM    1  C6  UNL     1       7.436  24.157  17.124  1.00  0.00     0.361 C 
HETATM    2  O4  UNL     1       7.157  24.001  18.480  1.00  0.00    -0.328 OA
HETATM    3  C7  UNL     1       7.597  22.802  18.999  1.00  0.00     0.248 C 
HETATM    4  N4  UNL     1       8.961  22.510  18.696  1.00  0.00    -0.347 N 
ATOM      5  H4  UNL     1       9.710  22.626  19.379  1.00  0.00     0.160 HD
HETATM    6  C14 UNL     1       9.201  22.038  17.355  1.00  0.00     0.427 C 
HETATM    7  N5  UNL     1       9.504  23.124  16.442  1.00  0.00     0.013 N 
ATOM      8  H51 UNL     1       9.218  22.901  15.488  1.00  0.00     0.285 HD
ATOM      9  H52 UNL     1      10.508  23.215  16.288  1.00  0.00     0.285 HD
HETATM   10  C15 UNL     1       8.919  24.372  16.895  1.00  0.00     0.394 A 
HETATM   11  N6  UNL     1       9.631  25.235  17.784  1.00  0.00    -0.000 N 
ATOM     12  H61 UNL     1      10.427  25.119  18.411  1.00  0.00     0.283 HD
ATOM     13  H62 UNL     1       9.418  25.677  18.678  1.00  0.00     0.283 HD
HETATM   14  C16 UNL     1       9.476  25.613  16.406  1.00  0.00     0.393 A 
ENDROOT
BRANCH   1  15
HETATM   15  O3  UNL     1       6.696  25.293  16.702  1.00  0.00    -0.243 OA
BRANCH  15  16
HETATM   16  N1  UNL     1       5.554  25.142  16.010  1.00  0.00    -0.265 N 
HETATM   17  C5  UNL     1       5.465  25.284  14.746  1.00  0.00     0.066 C 
ATOM     18  H1  UNL     1       4.708  24.898  16.526  1.00  0.00     0.194 HD
BRANCH  17  19
HETATM   19  C4  UNL     1       6.584  25.631  13.862  1.00  0.00     0.072 C 
BRANCH  19  20
HETATM   20  C3  UNL     1       7.182  26.973  14.027  1.00  0.00     0.117 C 
BRANCH  20  21
HETATM   21  C2  UNL     1       6.058  27.979  14.061  1.00  0.00     0.258 C 
HETATM   22  O2  UNL     1       5.487  28.405  13.039  1.00  0.00    -0.265 OA
BRANCH  21  23
HETATM   23  O1  UNL     1       5.656  28.440  15.300  1.00  0.00    -0.326 OA
HETATM   24  C1  UNL     1       4.341  28.766  15.632  1.00  0.00     0.213 C 
ENDBRANCH  21  23
ENDBRANCH  20  21
ENDBRANCH  19  20
ENDBRANCH  17  19
BRANCH  17  25
HETATM   25  C17 UNL     1       4.124  25.087  14.110  1.00  0.00     0.106 A 
HETATM   26  C18 UNL     1       2.967  25.376  14.797  1.00  0.00     0.097 A 
HETATM   27  C19 UNL     1       1.725  25.192  14.204  1.00  0.00     0.212 A 
HETATM   28  O13 UNL     1       0.667  25.452  14.826  1.00  0.00    -0.285 OA
HETATM   29  C20 UNL     1       1.655  24.715  12.913  1.00  0.00     0.175 A 
HETATM   30  C21 UNL     1       2.871  24.449  12.286  1.00  0.00     0.222 A 
HETATM   31  O16 UNL     1       4.023  24.639  12.888  1.00  0.00    -0.284 OA
BRANCH  29  32
HETATM   32  O14 UNL     1       0.452  24.506  12.253  1.00  0.00    -0.353 OA
ATOM     33  H14 UNL     1       0.106  25.113  11.609  1.00  0.00     0.218 HD
ENDBRANCH  29  32
BRANCH  30  34
HETATM   34  O15 UNL     1       2.791  23.964  10.970  1.00  0.00    -0.339 OA
ATOM     35  H15 UNL     1       3.470  24.260  10.375  1.00  0.00     0.220 HD
ENDBRANCH  30  34
ENDBRANCH  17  25
ENDBRANCH  15  16
ENDBRANCH   1  15
BRANCH   3  36
HETATM   36  C8  UNL     1       7.475  22.909  20.522  1.00  0.00     0.245 C 
BRANCH  36  37
HETATM   37  O5  UNL     1       7.854  24.200  20.914  1.00  0.00    -0.255 OA
BRANCH  37  38
HETATM   38  S1  UNL     1       8.723  24.152  22.348  1.00  0.00     0.364 S 
HETATM   39  O6  UNL     1       9.229  25.538  22.618  1.00  0.00    -0.175 OA
HETATM   40  O7  UNL     1       7.806  23.795  23.511  1.00  0.00    -0.175 OA
BRANCH  38  41
HETATM   41  N2  UNL     1      10.006  22.999  22.274  1.00  0.00    -0.227 N 
HETATM   42  C9  UNL     1      11.000  23.056  21.283  1.00  0.00     0.275 C 
HETATM   43  O8  UNL     1      11.032  23.931  20.391  1.00  0.00    -0.266 OA
ATOM     44  H2  UNL     1      10.044  22.256  22.971  1.00  0.00     0.184 HD
BRANCH  42  45
HETATM   45  C10 UNL     1      12.075  22.040  21.271  1.00  0.00     0.091 A 
HETATM   46  C11 UNL     1      12.317  21.092  20.304  1.00  0.00     0.113 A 
HETATM   47  N3  UNL     1      13.320  20.293  20.490  1.00  0.00    -0.353 N 
HETATM   48  C12 UNL     1      14.061  20.413  21.581  1.00  0.00     0.152 A 
ATOM     49  H3  UNL     1      13.537  19.575  19.800  1.00  0.00     0.166 HD
HETATM   50  S2  UNL     1      13.319  21.715  22.393  1.00  0.00    -0.059 SA
BRANCH  48  51
HETATM   51  C13 UNL     1      15.235  19.597  21.960  1.00  0.00     0.234 C 
HETATM   52  O9  UNL     1      16.375  20.053  21.815  1.00  0.00    -0.642 OA
HETATM   53  O10 UNL     1      15.017  18.337  22.471  1.00  0.00    -0.642 OA
ENDBRANCH  48  51
ENDBRANCH  42  45
ENDBRANCH  38  41
ENDBRANCH  37  38
ENDBRANCH  36  37
ENDBRANCH   3  36
BRANCH  14  54
HETATM   54  O12 UNL     1      10.652  25.612  15.670  1.00  0.00    -0.366 OA
ATOM     55  H12 UNL     1      11.483  25.431  16.093  1.00  0.00     0.212 HD
ENDBRANCH  14  54
BRANCH   6  56
HETATM   56  O11 UNL     1      10.262  21.128  17.401  1.00  0.00    -0.355 OA
ATOM     57  H11 UNL     1      10.902  21.390  16.749  1.00  0.00     0.213 HD
ENDBRANCH   6  56
TORSDOF 17
ENDMDL
MODEL 2
REMARK VINA RESULT: -9.415963810      3.019     12.282
REMARK  17 active torsions:
REMARK  status: ('A' for Active; 'I' for Inactive)
REMARK    1  A    between atoms: O1_2  and  C2_3 
REMARK    2  A    between atoms: C2_3  and  C3_5 
REMARK    3  A    between atoms: C3_5  and  C4_6 
REMARK    4  A    between atoms: C4_6  and  C5_7 
REMARK    5  A    between atoms: C5_7  and  C17_47 
REMARK    6  A    between atoms: N1_8  and  O3_10 
REMARK    7  A    between atoms: O3_10  and  C6_11 
REMARK    8  A    between atoms: C7_13  and  C8_14 
REMARK    9  A    between atoms: C8_14  and  O5_15 
REMARK   10  A    between atoms: O5_15  and  S1_16 
REMARK   11  A    between atoms: S1_16  and  N2_19 
REMARK       I    between atoms: N2_19  and  C9_21 
REMARK   12  A    between atoms: C9_21  and  C10_23 
REMARK   13  A    between atoms: C12_27  and  C13_28 
REMARK   14  A    between atoms: C14_34  and  O11_35 
REMARK   15  A    between atoms: C16_44  and  O12_45 
REMARK   16  A    between atoms: C20_51  and  O14_52 
REMARK   17  A    between atoms: C21_54  and  O15_55 
ROOT
HETATM    1  C6  UNL     1      10.499  22.487  21.135  1.00  0.00     0.361 C 
HETATM    2  O4  UNL     1      10.471  22.436  19.743  1.00  0.00    -0.328 OA
HETATM    3  C7  UNL     1       9.262  22.018  19.231  1.00  0.00     0.248 C 
HETATM    4  N4  UNL     1       8.138  22.717  19.762  1.00  0.00    -0.347 N 
ATOM      5  H4  UNL     1       7.654  23.450  19.243  1.00  0.00     0.160 HD
HETATM    6  C14 UNL     1       7.737  22.312  21.087  1.00  0.00     0.427 C 
HETATM    7  N5  UNL     1       8.385  23.101  22.117  1.00  0.00     0.013 N 
ATOM      8  H51 UNL     1       8.495  22.571  22.981  1.00  0.00     0.285 HD
ATOM      9  H52 UNL     1       7.773  23.841  22.464  1.00  0.00     0.285 HD
HETATM   10  C15 UNL     1       9.653  23.633  21.654  1.00  0.00     0.394 A 
HETATM   11  N6  UNL     1       9.718  24.891  20.980  1.00  0.00    -0.000 N 
ATOM     12  H61 UNL     1       9.038  25.488  20.507  1.00  0.00     0.283 HD
ATOM     13  H62 UNL     1      10.114  25.212  20.096  1.00  0.00     0.283 HD
HETATM   14  C16 UNL     1      10.205  24.786  22.328  1.00  0.00     0.393 A 
ENDROOT
BRANCH   1  15
HETATM   15  O3  UNL     1      11.861  22.670  21.492  1.00  0.00    -0.243 OA
BRANCH  15  16
HETATM   16  N1  UNL     1      12.307  22.276  22.697  1.00  0.00    -0.265 N 
HETATM   17  C5  UNL     1      13.267  21.455  22.865  1.00  0.00     0.066 C 
ATOM     18  H1  UNL     1      11.849  22.657  23.525  1.00  0.00     0.194 HD
BRANCH  17  19
HETATM   19  C4  UNL     1      14.025  20.820  21.781  1.00  0.00     0.072 C 
BRANCH  19  20
HETATM   20  C3  UNL     1      14.314  19.376  21.914  1.00  0.00     0.117 C 
BRANCH  20  21
HETATM   21  C2  UNL     1      15.757  19.230  22.330  1.00  0.00     0.258 C 
HETATM   22  O2  UNL     1      16.679  19.925  21.861  1.00  0.00    -0.265 OA
BRANCH  21  23
HETATM   23  O1  UNL     1      16.050  18.271  23.279  1.00  0.00    -0.326 OA
HETATM   24  C1  UNL     1      15.125  17.748  24.184  1.00  0.00     0.213 C 
ENDBRANCH  21  23
ENDBRANCH  20  21
ENDBRANCH  19  20
ENDBRANCH  17  19
BRANCH  17  25
HETATM   25  C17 UNL     1      13.653  21.104  24.268  1.00  0.00     0.106 A 
HETATM   26  C18 UNL     1      12.726  20.597  25.151  1.00  0.00     0.097 A 
HETATM   27  C19 UNL     1      13.087  20.273  26.451  1.00  0.00     0.212 A 
HETATM   28  O13 UNL     1      12.246  19.812  27.260  1.00  0.00    -0.285 OA
HETATM   29  C20 UNL     1      14.390  20.463  26.859  1.00  0.00     0.175 A 
HETATM   30  C21 UNL     1      15.267  20.978  25.907  1.00  0.00     0.222 A 
HETATM   31  O16 UNL     1      14.879  21.270  24.686  1.00  0.00    -0.284 OA
BRANCH  29  32
HETATM   32  O14 UNL     1      14.827  20.162  28.142  1.00  0.00    -0.353 OA
ATOM     33  H14 UNL     1      15.581  20.581  28.541  1.00  0.00     0.218 HD
ENDBRANCH  29  32
BRANCH  30  34
HETATM   34  O15 UNL     1      16.593  21.168  26.331  1.00  0.00    -0.339 OA
ATOM     35  H15 UNL     1      16.721  21.268  27.267  1.00  0.00     0.220 HD
ENDBRANCH  30  34
ENDBRANCH  17  25
ENDBRANCH  15  16
ENDBRANCH   1  15
BRANCH   3  36
HETATM   36  C8  UNL     1       9.304  22.288  17.724  1.00  0.00     0.245 C 
BRANCH  36  37
HETATM   37  O5  UNL     1      10.271  23.270  17.470  1.00  0.00    -0.255 OA
BRANCH  37  38
HETATM   38  S1  UNL     1       9.560  24.655  16.849  1.00  0.00     0.364 S 
HETATM   39  O6  UNL     1       9.372  25.617  17.985  1.00  0.00    -0.175 OA
HETATM   40  O7  UNL     1      10.498  25.336  15.861  1.00  0.00    -0.175 OA
BRANCH  38  41
HETATM   41  N2  UNL     1       8.070  24.301  16.051  1.00  0.00    -0.227 N 
HETATM   42  C9  UNL     1       7.389  25.263  15.286  1.00  0.00     0.275 C 
HETATM   43  O8  UNL     1       7.803  26.432  15.126  1.00  0.00    -0.266 OA
ATOM     44  H2  UNL     1       7.673  23.366  16.137  1.00  0.00     0.184 HD
BRANCH  42  45
HETATM   45  C10 UNL     1       6.117  24.901  14.625  1.00  0.00     0.091 A 
HETATM   46  C11 UNL     1       5.298  23.835  14.918  1.00  0.00     0.113 A 
HETATM   47  N3  UNL     1       4.220  23.699  14.211  1.00  0.00    -0.353 N 
HETATM   48  C12 UNL     1       3.950  24.571  13.253  1.00  0.00     0.152 A 
ATOM     49  H3  UNL     1       3.583  22.924  14.393  1.00  0.00     0.166 HD
HETATM   50  S2  UNL     1       5.273  25.642  13.341  1.00  0.00    -0.059 SA
BRANCH  48  51
HETATM   51  C13 UNL     1       2.777  24.577  12.351  1.00  0.00     0.234 C 
HETATM   52  O9  UNL     1       2.871  24.095  11.216  1.00  0.00    -0.642 OA
HETATM   53  O10 UNL     1       1.602  25.125  12.811  1.00  0.00    -0.642 OA
ENDBRANCH  48  51
ENDBRANCH  42  45
ENDBRANCH  38  41
ENDBRANCH  37  38
ENDBRANCH  36  37
ENDBRANCH   3  36
BRANCH  14  54
HETATM   54  O12 UNL     1       9.454  25.475  23.271  1.00  0.00    -0.366 OA
ATOM     55  H12 UNL     1       8.746  26.046  22.996  1.00  0.00     0.212 HD
ENDBRANCH  14  54
BRANCH   6  56
HETATM   56  O11 UNL     1       6.348  22.440  21.175  1.00  0.00    -0.355 OA
ATOM     57  H11 UNL     1       6.012  21.683  21.642  1.00  0.00     0.213 HD
ENDBRANCH   6  56
TORSDOF 17
ENDMDL
MODEL 3
REMARK VINA RESULT: -9.265244657      0.870      1.560
REMARK  17 active torsions:
REMARK  status: ('A' for Active; 'I' for Inactive)
REMARK    1  A    between atoms: O1_2  and  C2_3 
REMARK    2  A    between atoms: C2_3  and  C3_5 
REMARK    3  A    between atoms: C3_5  and  C4_6 
REMARK    4  A    between atoms: C4_6  and  C5_7 
REMARK    5  A    between atoms: C5_7  and  C17_47 
REMARK    6  A    between atoms: N1_8  and  O3_10 
REMARK    7  A    between atoms: O3_10  and  C6_11 
REMARK    8  A    between atoms: C7_13  and  C8_14 
REMARK    9  A    between atoms: C8_14  and  O5_15 
REMARK   10  A    between atoms: O5_15  and  S1_16 
REMARK   11  A    between atoms: S1_16  and  N2_19 
REMARK       I    between atoms: N2_19  and  C9_21 
REMARK   12  A    between atoms: C9_21  and  C10_23 
REMARK   13  A    between atoms: C12_27  and  C13_28 
REMARK   14  A    between atoms: C14_34  and  O11_35 
REMARK   15  A    between atoms: C16_44  and  O12_45 
REMARK   16  A    between atoms: C20_51  and  O14_52 
REMARK   17  A    between atoms: C21_54  and  O15_55 
ROOT
HETATM    1  C6  UNL     1       7.370  23.929  17.295  1.00  0.00     0.361 C 
HETATM    2  O4  UNL     1       7.159  23.714  18.655  1.00  0.00    -0.328 OA
HETATM    3  C7  UNL     1       7.774  22.579  19.136  1.00  0.00     0.248 C 
HETATM    4  N4  UNL     1       9.154  22.480  18.788  1.00  0.00    -0.347 N 
ATOM      5  H4  UNL     1       9.902  22.686  19.450  1.00  0.00     0.160 HD
HETATM    6  C14 UNL     1       9.414  22.068  17.431  1.00  0.00     0.427 C 
HETATM    7  N5  UNL     1       9.537  23.199  16.531  1.00  0.00     0.013 N 
ATOM      8  H51 UNL     1       9.254  22.955  15.582  1.00  0.00     0.285 HD
ATOM      9  H52 UNL     1      10.514  23.429  16.350  1.00  0.00     0.285 HD
HETATM   10  C15 UNL     1       8.803  24.348  17.027  1.00  0.00     0.394 A 
HETATM   11  N6  UNL     1       9.419  25.285  17.912  1.00  0.00    -0.000 N 
ATOM     12  H61 UNL     1      10.243  25.270  18.513  1.00  0.00     0.283 HD
ATOM     13  H62 UNL     1       9.176  25.680  18.821  1.00  0.00     0.283 HD
HETATM   14  C16 UNL     1       9.170  25.661  16.547  1.00  0.00     0.393 A 
ENDROOT
BRANCH   1  15
HETATM   15  O3  UNL     1       6.470  24.960  16.919  1.00  0.00    -0.243 OA
BRANCH  15  16
HETATM   16  N1  UNL     1       5.469  24.707  16.058  1.00  0.00    -0.265 N 
HETATM   17  C5  UNL     1       4.866  25.607  15.384  1.00  0.00     0.066 C 
ATOM     18  H1  UNL     1       5.174  23.738  15.937  1.00  0.00     0.194 HD
BRANCH  17  19
HETATM   19  C4  UNL     1       5.170  27.041  15.445  1.00  0.00     0.072 C 
BRANCH  19  20
HETATM   20  C3  UNL     1       5.622  27.689  14.195  1.00  0.00     0.117 C 
BRANCH  20  21
HETATM   21  C2  UNL     1       7.017  27.196  13.898  1.00  0.00     0.258 C 
HETATM   22  O2  UNL     1       7.258  26.252  13.122  1.00  0.00    -0.265 OA
BRANCH  21  23
HETATM   23  O1  UNL     1       8.065  27.838  14.528  1.00  0.00    -0.326 OA
HETATM   24  C1  UNL     1       8.189  29.224  14.640  1.00  0.00     0.213 C 
ENDBRANCH  21  23
ENDBRANCH  20  21
ENDBRANCH  19  20
ENDBRANCH  17  19
BRANCH  17  25
HETATM   25  C17 UNL     1       3.765  25.177  14.466  1.00  0.00     0.106 A 
HETATM   26  C18 UNL     1       4.045  24.644  13.228  1.00  0.00     0.097 A 
HETATM   27  C19 UNL     1       3.022  24.247  12.379  1.00  0.00     0.212 A 
HETATM   28  O13 UNL     1       3.271  23.762  11.249  1.00  0.00    -0.285 OA
HETATM   29  C20 UNL     1       1.712  24.389  12.783  1.00  0.00     0.175 A 
HETATM   30  C21 UNL     1       1.512  24.935  14.050  1.00  0.00     0.222 A 
HETATM   31  O16 UNL     1       2.515  25.297  14.820  1.00  0.00    -0.284 OA
BRANCH  29  32
HETATM   32  O14 UNL     1       0.635  24.015  11.991  1.00  0.00    -0.353 OA
ATOM     33  H14 UNL     1      -0.150  23.614  12.345  1.00  0.00     0.218 HD
ENDBRANCH  29  32
BRANCH  30  34
HETATM   34  O15 UNL     1       0.175  25.076  14.455  1.00  0.00    -0.339 OA
ATOM     35  H15 UNL     1       0.040  25.387  15.343  1.00  0.00     0.220 HD
ENDBRANCH  30  34
ENDBRANCH  17  25
ENDBRANCH  15  16
ENDBRANCH   1  15
BRANCH   3  36
HETATM   36  C8  UNL     1       7.688  22.643  20.664  1.00  0.00     0.245 C 
BRANCH  36  37
HETATM   37  O5  UNL     1       7.864  23.974  21.069  1.00  0.00    -0.255 OA
BRANCH  37  38
HETATM   38  S1  UNL     1       8.827  24.052  22.440  1.00  0.00     0.364 S 
HETATM   39  O6  UNL     1       9.326  25.462  22.563  1.00  0.00    -0.175 OA
HETATM   40  O7  UNL     1       7.996  23.781  23.688  1.00  0.00    -0.175 OA
BRANCH  38  41
HETATM   41  N2  UNL     1      10.122  22.914  22.372  1.00  0.00    -0.227 N 
HETATM   42  C9  UNL     1      11.105  22.963  21.368  1.00  0.00     0.275 C 
HETATM   43  O8  UNL     1      11.116  23.823  20.461  1.00  0.00    -0.266 OA
ATOM     44  H2  UNL     1      10.176  22.183  23.082  1.00  0.00     0.184 HD
BRANCH  42  45
HETATM   45  C10 UNL     1      12.191  21.960  21.362  1.00  0.00     0.091 A 
HETATM   46  C11 UNL     1      12.454  21.021  20.392  1.00  0.00     0.113 A 
HETATM   47  N3  UNL     1      13.464  20.232  20.585  1.00  0.00    -0.353 N 
HETATM   48  C12 UNL     1      14.192  20.353  21.684  1.00  0.00     0.152 A 
ATOM     49  H3  UNL     1      13.697  19.520  19.892  1.00  0.00     0.166 HD
HETATM   50  S2  UNL     1      13.426  21.641  22.496  1.00  0.00    -0.059 SA
BRANCH  48  51
HETATM   51  C13 UNL     1      15.371  19.548  22.071  1.00  0.00     0.234 C 
HETATM   52  O9  UNL     1      16.509  19.983  21.863  1.00  0.00    -0.642 OA
HETATM   53  O10 UNL     1      15.159  18.322  22.661  1.00  0.00    -0.642 OA
ENDBRANCH  48  51
ENDBRANCH  42  45
ENDBRANCH  38  41
ENDBRANCH  37  38
ENDBRANCH  36  37
ENDBRANCH   3  36
BRANCH  14  54
HETATM   54  O12 UNL     1      10.311  25.832  15.776  1.00  0.00    -0.366 OA
ATOM     55  H12 UNL     1      11.132  26.083  16.184  1.00  0.00     0.212 HD
ENDBRANCH  14  54
BRANCH   6  56
HETATM   56  O11 UNL     1      10.589  21.310  17.427  1.00  0.00    -0.355 OA
ATOM     57  H11 UNL     1      11.026  21.451  16.596  1.00  0.00     0.213 HD
ENDBRANCH   6  56
TORSDOF 17
ENDMDL
MODEL 4
REMARK VINA RESULT: -9.154370749      2.770     11.264
REMARK  17 active torsions:
REMARK  status: ('A' for Active; 'I' for Inactive)
REMARK    1  A    between atoms: O1_2  and  C2_3 
REMARK    2  A    between atoms: C2_3  and  C3_5 
REMARK    3  A    between atoms: C3_5  and  C4_6 
REMARK    4  A    between atoms: C4_6  and  C5_7 
REMARK    5  A    between atoms: C5_7  and  C17_47 
REMARK    6  A    between atoms: N1_8  and  O3_10 
REMARK    7  A    between atoms: O3_10  and  C6_11 
REMARK    8  A    between atoms: C7_13  and  C8_14 
REMARK    9  A    between atoms: C8_14  and  O5_15 
REMARK   10  A    between atoms: O5_15  and  S1_16 
REMARK   11  A    between atoms: S1_16  and  N2_19 
REMARK       I    between atoms: N2_19  and  C9_21 
REMARK   12  A    between atoms: C9_21  and  C10_23 
REMARK   13  A    between atoms: C12_27  and  C13_28 
REMARK   14  A    between atoms: C14_34  and  O11_35 
REMARK   15  A    between atoms: C16_44  and  O12_45 
REMARK   16  A    between atoms: C20_51  and  O14_52 
REMARK   17  A    between atoms: C21_54  and  O15_55 
ROOT
HETATM    1  C6  UNL     1       9.806  22.943  18.599  1.00  0.00     0.361 C 
HETATM    2  O4  UNL     1       9.862  24.185  17.968  1.00  0.00    -0.328 OA
HETATM    3  C7  UNL     1       9.559  24.135  16.625  1.00  0.00     0.248 C 
HETATM    4  N4  UNL     1       8.347  23.442  16.333  1.00  0.00    -0.347 N 
ATOM      5  H4  UNL     1       7.479  23.928  16.105  1.00  0.00     0.160 HD
HETATM    6  C14 UNL     1       8.438  22.004  16.383  1.00  0.00     0.427 C 
HETATM    7  N5  UNL     1       8.113  21.483  17.698  1.00  0.00     0.013 N 
ATOM      8  H51 UNL     1       8.600  20.606  17.883  1.00  0.00     0.285 HD
ATOM      9  H52 UNL     1       7.153  21.141  17.739  1.00  0.00     0.285 HD
HETATM   10  C15 UNL     1       8.374  22.466  18.733  1.00  0.00     0.394 A 
HETATM   11  N6  UNL     1       7.371  23.409  19.117  1.00  0.00    -0.000 N 
ATOM     12  H61 UNL     1       6.510  23.753  18.693  1.00  0.00     0.283 HD
ATOM     13  H62 UNL     1       7.338  24.424  19.207  1.00  0.00     0.283 HD
HETATM   14  C16 UNL     1       7.699  22.325  20.003  1.00  0.00     0.393 A 
ENDROOT
BRANCH   1  15
HETATM   15  O3  UNL     1      10.393  23.129  19.878  1.00  0.00    -0.243 OA
BRANCH  15  16
HETATM   16  N1  UNL     1      11.378  22.316  20.298  1.00  0.00    -0.265 N 
HETATM   17  C5  UNL     1      11.925  22.397  21.447  1.00  0.00     0.066 C 
ATOM     18  H1  UNL     1      11.706  21.591  19.660  1.00  0.00     0.194 HD
BRANCH  17  19
HETATM   19  C4  UNL     1      11.568  23.381  22.476  1.00  0.00     0.072 C 
BRANCH  19  20
HETATM   20  C3  UNL     1      10.322  23.142  23.235  1.00  0.00     0.117 C 
BRANCH  20  21
HETATM   21  C2  UNL     1       9.445  24.361  23.080  1.00  0.00     0.258 C 
HETATM   22  O2  UNL     1       9.895  25.517  22.956  1.00  0.00    -0.265 OA
BRANCH  21  23
HETATM   23  O1  UNL     1       8.079  24.164  23.079  1.00  0.00    -0.326 OA
HETATM   24  C1  UNL     1       7.152  25.063  22.549  1.00  0.00     0.213 C 
ENDBRANCH  21  23
ENDBRANCH  20  21
ENDBRANCH  19  20
ENDBRANCH  17  19
BRANCH  17  25
HETATM   25  C17 UNL     1      13.014  21.425  21.776  1.00  0.00     0.106 A 
HETATM   26  C18 UNL     1      13.799  21.596  22.894  1.00  0.00     0.097 A 
HETATM   27  C19 UNL     1      14.809  20.692  23.196  1.00  0.00     0.212 A 
HETATM   28  O13 UNL     1      15.528  20.843  24.213  1.00  0.00    -0.285 OA
HETATM   29  C20 UNL     1      15.025  19.615  22.365  1.00  0.00     0.175 A 
HETATM   30  C21 UNL     1      14.188  19.513  21.255  1.00  0.00     0.222 A 
HETATM   31  O16 UNL     1      13.244  20.394  21.010  1.00  0.00    -0.284 OA
BRANCH  29  32
HETATM   32  O14 UNL     1      16.014  18.670  22.600  1.00  0.00    -0.353 OA
ATOM     33  H14 UNL     1      15.910  17.750  22.384  1.00  0.00     0.218 HD
ENDBRANCH  29  32
BRANCH  30  34
HETATM   34  O15 UNL     1      14.414  18.412  20.413  1.00  0.00    -0.339 OA
ATOM     35  H15 UNL     1      13.744  18.242  19.760  1.00  0.00     0.220 HD
ENDBRANCH  30  34
ENDBRANCH  17  25
ENDBRANCH  15  16
ENDBRANCH   1  15
BRANCH   3  36
HETATM   36  C8  UNL     1       9.386  25.584  16.157  1.00  0.00     0.245 C 
BRANCH  36  37
HETATM   37  O5  UNL     1       8.022  25.905  16.183  1.00  0.00    -0.255 OA
BRANCH  37  38
HETATM   38  S1  UNL     1       7.553  26.612  14.737  1.00  0.00     0.364 S 
HETATM   39  O6  UNL     1       7.843  28.081  14.835  1.00  0.00    -0.175 OA
HETATM   40  O7  UNL     1       8.402  26.083  13.588  1.00  0.00    -0.175 OA
BRANCH  38  41
HETATM   41  N2  UNL     1       5.890  26.306  14.390  1.00  0.00    -0.227 N 
HETATM   42  C9  UNL     1       5.359  25.004  14.381  1.00  0.00     0.275 C 
HETATM   43  O8  UNL     1       6.041  23.983  14.619  1.00  0.00    -0.266 OA
ATOM     44  H2  UNL     1       5.274  27.092  14.186  1.00  0.00     0.184 HD
BRANCH  42  45
HETATM   45  C10 UNL     1       3.926  24.804  14.076  1.00  0.00     0.091 A 
HETATM   46  C11 UNL     1       2.851  25.412  14.682  1.00  0.00     0.113 A 
HETATM   47  N3  UNL     1       1.669  25.092  14.260  1.00  0.00    -0.353 N 
HETATM   48  C12 UNL     1       1.538  24.208  13.282  1.00  0.00     0.152 A 
ATOM     49  H3  UNL     1       0.843  25.518  14.679  1.00  0.00     0.166 HD
HETATM   50  S2  UNL     1       3.156  23.801  12.931  1.00  0.00    -0.059 SA
BRANCH  48  51
HETATM   51  C13 UNL     1       0.279  23.723  12.676  1.00  0.00     0.234 C 
HETATM   52  O9  UNL     1      -0.686  24.487  12.567  1.00  0.00    -0.642 OA
HETATM   53  O10 UNL     1       0.223  22.416  12.246  1.00  0.00    -0.642 OA
ENDBRANCH  48  51
ENDBRANCH  42  45
ENDBRANCH  38  41
ENDBRANCH  37  38
ENDBRANCH  36  37
ENDBRANCH   3  36
BRANCH  14  54
HETATM   54  O12 UNL     1       6.693  21.383  20.163  1.00  0.00    -0.366 OA
ATOM     55  H12 UNL     1       6.908  20.483  20.379  1.00  0.00     0.212 HD
ENDBRANCH  14  54
BRANCH   6  56
HETATM   56  O11 UNL     1       7.568  21.482  15.422  1.00  0.00    -0.355 OA
ATOM     57  H11 UNL     1       7.008  20.844  15.849  1.00  0.00     0.213 HD
ENDBRANCH   6  56
TORSDOF 17
ENDMDL
MODEL 5
REMARK VINA RESULT: -8.999810814      2.894     11.379
REMARK  17 active torsions:
REMARK  status: ('A' for Active; 'I' for Inactive)
REMARK    1  A    between atoms: O1_2  and  C2_3 
REMARK    2  A    between atoms: C2_3  and  C3_5 
REMARK    3  A    between atoms: C3_5  and  C4_6 
REMARK    4  A    between atoms: C4_6  and  C5_7 
REMARK    5  A    between atoms: C5_7  and  C17_47 
REMARK    6  A    between atoms: N1_8  and  O3_10 
REMARK    7  A    between atoms: O3_10  and  C6_11 
REMARK    8  A    between atoms: C7_13  and  C8_14 
REMARK    9  A    between atoms: C8_14  and  O5_15 
REMARK   10  A    between atoms: O5_15  and  S1_16 
REMARK   11  A    between atoms: S1_16  and  N2_19 
REMARK       I    between atoms: N2_19  and  C9_21 
REMARK   12  A    between atoms: C9_21  and  C10_23 
REMARK   13  A    between atoms: C12_27  and  C13_28 
REMARK   14  A    between atoms: C14_34  and  O11_35 
REMARK   15  A    between atoms: C16_44  and  O12_45 
REMARK   16  A    between atoms: C20_51  and  O14_52 
REMARK   17  A    between atoms: C21_54  and  O15_55 
ROOT
HETATM    1  C6  UNL     1       9.709  23.086  18.583  1.00  0.00     0.361 C 
HETATM    2  O4  UNL     1       9.778  24.303  17.909  1.00  0.00    -0.328 OA
HETATM    3  C7  UNL     1       9.511  24.203  16.561  1.00  0.00     0.248 C 
HETATM    4  N4  UNL     1       8.309  23.494  16.262  1.00  0.00    -0.347 N 
ATOM      5  H4  UNL     1       7.447  23.969  15.993  1.00  0.00     0.160 HD
HETATM    6  C14 UNL     1       8.404  22.060  16.369  1.00  0.00     0.427 C 
HETATM    7  N5  UNL     1       8.045  21.586  17.692  1.00  0.00     0.013 N 
ATOM      8  H51 UNL     1       8.529  20.719  17.923  1.00  0.00     0.285 HD
ATOM      9  H52 UNL     1       7.084  21.243  17.720  1.00  0.00     0.285 HD
HETATM   10  C15 UNL     1       8.274  22.608  18.697  1.00  0.00     0.394 A 
HETATM   11  N6  UNL     1       7.259  23.561  19.019  1.00  0.00    -0.000 N 
ATOM     12  H61 UNL     1       6.408  23.885  18.559  1.00  0.00     0.283 HD
ATOM     13  H62 UNL     1       7.221  24.579  19.070  1.00  0.00     0.283 HD
HETATM   14  C16 UNL     1       7.567  22.512  19.953  1.00  0.00     0.393 A 
ENDROOT
BRANCH   1  15
HETATM   15  O3  UNL     1      10.260  23.321  19.870  1.00  0.00    -0.243 OA
BRANCH  15  16
HETATM   16  N1  UNL     1      11.249  22.540  20.338  1.00  0.00    -0.265 N 
HETATM   17  C5  UNL     1      11.795  22.692  21.480  1.00  0.00     0.066 C 
ATOM     18  H1  UNL     1      11.582  21.780  19.744  1.00  0.00     0.194 HD
BRANCH  17  19
HETATM   19  C4  UNL     1      11.432  23.733  22.449  1.00  0.00     0.072 C 
BRANCH  19  20
HETATM   20  C3  UNL     1      10.245  23.484  23.294  1.00  0.00     0.117 C 
BRANCH  20  21
HETATM   21  C2  UNL     1       9.511  24.793  23.458  1.00  0.00     0.258 C 
HETATM   22  O2  UNL     1       9.205  25.531  22.501  1.00  0.00    -0.265 OA
BRANCH  21  23
HETATM   23  O1  UNL     1       9.172  25.175  24.741  1.00  0.00    -0.326 OA
HETATM   24  C1  UNL     1       8.860  24.287  25.772  1.00  0.00     0.213 C 
ENDBRANCH  21  23
ENDBRANCH  20  21
ENDBRANCH  19  20
ENDBRANCH  17  19
BRANCH  17  25
HETATM   25  C17 UNL     1      12.890  21.748  21.867  1.00  0.00     0.106 A 
HETATM   26  C18 UNL     1      13.247  20.705  21.043  1.00  0.00     0.097 A 
HETATM   27  C19 UNL     1      14.263  19.830  21.405  1.00  0.00     0.212 A 
HETATM   28  O13 UNL     1      14.592  18.877  20.659  1.00  0.00    -0.285 OA
HETATM   29  C20 UNL     1      14.918  20.012  22.604  1.00  0.00     0.175 A 
HETATM   30  C21 UNL     1      14.498  21.091  23.381  1.00  0.00     0.222 A 
HETATM   31  O16 UNL     1      13.530  21.893  22.995  1.00  0.00    -0.284 OA
BRANCH  29  32
HETATM   32  O14 UNL     1      15.942  19.181  23.035  1.00  0.00    -0.353 OA
ATOM     33  H14 UNL     1      15.871  18.633  23.808  1.00  0.00     0.218 HD
ENDBRANCH  29  32
BRANCH  30  34
HETATM   34  O15 UNL     1      15.170  21.270  24.600  1.00  0.00    -0.339 OA
ATOM     35  H15 UNL     1      15.864  21.919  24.602  1.00  0.00     0.220 HD
ENDBRANCH  30  34
ENDBRANCH  17  25
ENDBRANCH  15  16
ENDBRANCH   1  15
BRANCH   3  36
HETATM   36  C8  UNL     1       9.347  25.632  16.035  1.00  0.00     0.245 C 
BRANCH  36  37
HETATM   37  O5  UNL     1       7.993  25.986  16.111  1.00  0.00    -0.255 OA
BRANCH  37  38
HETATM   38  S1  UNL     1       7.493  26.720  14.689  1.00  0.00     0.364 S 
HETATM   39  O6  UNL     1       7.741  28.194  14.827  1.00  0.00    -0.175 OA
HETATM   40  O7  UNL     1       8.348  26.249  13.519  1.00  0.00    -0.175 OA
BRANCH  38  41
HETATM   41  N2  UNL     1       5.837  26.375  14.344  1.00  0.00    -0.227 N 
HETATM   42  C9  UNL     1       5.331  25.064  14.358  1.00  0.00     0.275 C 
HETATM   43  O8  UNL     1       6.032  24.061  14.617  1.00  0.00    -0.266 OA
ATOM     44  H2  UNL     1       5.207  27.146  14.124  1.00  0.00     0.184 HD
BRANCH  42  45
HETATM   45  C10 UNL     1       3.903  24.831  14.055  1.00  0.00     0.091 A 
HETATM   46  C11 UNL     1       2.816  25.439  14.637  1.00  0.00     0.113 A 
HETATM   47  N3  UNL     1       1.640  25.086  14.221  1.00  0.00    -0.353 N 
HETATM   48  C12 UNL     1       1.529  24.171  13.270  1.00  0.00     0.152 A 
ATOM     49  H3  UNL     1       0.806  25.511  14.623  1.00  0.00     0.166 HD
HETATM   50  S2  UNL     1       3.154  23.781  12.937  1.00  0.00    -0.059 SA
BRANCH  48  51
HETATM   51  C13 UNL     1       0.280  23.647  12.674  1.00  0.00     0.234 C 
HETATM   52  O9  UNL     1      -0.732  24.356  12.642  1.00  0.00    -0.642 OA
HETATM   53  O10 UNL     1       0.287  22.367  12.167  1.00  0.00    -0.642 OA
ENDBRANCH  48  51
ENDBRANCH  42  45
ENDBRANCH  38  41
ENDBRANCH  37  38
ENDBRANCH  36  37
ENDBRANCH   3  36
BRANCH  14  54
HETATM   54  O12 UNL     1       6.559  21.572  20.120  1.00  0.00    -0.366 OA
ATOM     55  H12 UNL     1       6.594  20.953  20.840  1.00  0.00     0.212 HD
ENDBRANCH  14  54
BRANCH   6  56
HETATM   56  O11 UNL     1       7.561  21.499  15.404  1.00  0.00    -0.355 OA
ATOM     57  H11 UNL     1       7.350  20.614  15.677  1.00  0.00     0.213 HD
ENDBRANCH   6  56
TORSDOF 17
ENDMDL
