MODEL 1
REMARK VINA RESULT: -9.346952415      0.000      0.000
REMARK  21 active torsions:
REMARK  status: ('A' for Active; 'I' for Inactive)
REMARK    1  A    between atoms: C2_2  and  O1_4 
REMARK    2  A    between atoms: C2_2  and  C4_6 
REMARK    3  A    between atoms: C4_6  and  O2_7 
REMARK    4  A    between atoms: C6_10  and  O3_11 
REMARK    5  A    between atoms: O3_11  and  C7_12 
REMARK    6  A    between atoms: C7_12  and  C8_14 
REMARK    7  A    between atoms: C8_14  and  C9_15 
REMARK    8  A    between atoms: C9_15  and  O5_16 
REMARK    9  A    between atoms: O5_16  and  C10_17 
REMARK   10  A    between atoms: C10_17  and  C11_19 
REMARK   11  A    between atoms: C14_22  and  N1_23 
REMARK   12  A    between atoms: N1_23  and  O7_25 
REMARK   13  A    between atoms: C15_29  and  N3_30 
REMARK   14  A    between atoms: C18_38  and  O9_39 
REMARK   15  A    between atoms: C19_41  and  O10_42 
REMARK   16  A    between atoms: O10_42  and  S1_43 
REMARK   17  A    between atoms: S1_43  and  O13_46 
REMARK   18  A    between atoms: O13_46  and  N5_47 
REMARK   19  A    between atoms: C20_50  and  O16_51 
REMARK   20  A    between atoms: C21_53  and  C22_54 
REMARK   21  A    between atoms: C22_54  and  O17_55 
ROOT
HETATM    1  C11 UNL     1      10.721  23.734  21.161  1.00  0.00     0.078 A 
HETATM    2  C12 UNL     1      10.644  23.087  19.923  1.00  0.00     0.037 A 
HETATM    3  C13 UNL     1       9.620  23.319  19.035  1.00  0.00     0.030 A 
HETATM    4  C14 UNL     1       9.722  22.584  17.864  1.00  0.00     0.151 A 
HETATM    5  N2  UNL     1       8.877  22.610  16.802  1.00  0.00    -0.174 N 
ATOM      6  H2  UNL     1       9.128  21.963  16.055  1.00  0.00     0.186 HD
HETATM    7  C15 UNL     1       7.770  23.331  16.554  1.00  0.00     0.680 A 
HETATM    8  N4  UNL     1       7.161  24.178  17.401  1.00  0.00    -0.156 N 
ATOM      9  H4  UNL     1       6.282  24.572  17.065  1.00  0.00     0.187 HD
HETATM   10  C16 UNL     1       7.545  24.585  18.643  1.00  0.00     0.273 A 
HETATM   11  O8  UNL     1       6.793  25.422  19.202  1.00  0.00    -0.267 OA
HETATM   12  C17 UNL     1       8.645  24.222  19.391  1.00  0.00     0.082 A 
HETATM   13  C18 UNL     1       8.724  24.867  20.629  1.00  0.00     0.118 A 
HETATM   14  C19 UNL     1       9.756  24.639  21.529  1.00  0.00     0.142 A 
ENDROOT
BRANCH   1  15
HETATM   15  C10 UNL     1      11.795  23.409  22.085  1.00  0.00     0.296 C 
HETATM   16  O6  UNL     1      12.424  24.316  22.654  1.00  0.00    -0.259 OA
BRANCH  15  17
HETATM   17  O5  UNL     1      12.166  22.109  22.374  1.00  0.00    -0.317 OA
BRANCH  17  18
HETATM   18  C9  UNL     1      13.298  21.438  21.942  1.00  0.00     0.189 C 
BRANCH  18  19
HETATM   19  C8  UNL     1      14.574  21.811  22.623  1.00  0.00     0.138 C 
BRANCH  19  20
HETATM   20  C7  UNL     1      15.497  20.634  22.717  1.00  0.00     0.265 C 
HETATM   21  O4  UNL     1      16.298  20.422  21.772  1.00  0.00    -0.265 OA
BRANCH  20  22
HETATM   22  O3  UNL     1      15.505  19.780  23.789  1.00  0.00    -0.281 OA
BRANCH  22  23
HETATM   23  C6  UNL     1      14.950  20.093  25.023  1.00  0.00     0.089 C 
HETATM   24  C5  UNL     1      13.715  19.857  25.354  1.00  0.00     0.079 C 
HETATM   25  C4  UNL     1      13.194  20.210  26.668  1.00  0.00     0.215 C 
HETATM   26  O18 UNL     1      14.082  20.292  27.681  1.00  0.00    -0.339 OA
HETATM   27  C21 UNL     1      15.409  20.223  27.393  1.00  0.00     0.184 C 
HETATM   28  C20 UNL     1      15.817  20.739  26.038  1.00  0.00     0.206 C 
BRANCH  25  29
HETATM   29  C2  UNL     1      12.129  19.166  27.034  1.00  0.00     0.111 C 
HETATM   30  C1  UNL     1      11.846  19.324  28.499  1.00  0.00     0.051 C 
HETATM   31  C3  UNL     1      12.654  17.783  26.743  1.00  0.00     0.051 C 
BRANCH  29  32
HETATM   32  O1  UNL     1      10.968  19.408  26.284  1.00  0.00    -0.385 OA
ATOM     33  H1  UNL     1      10.702  20.316  26.372  1.00  0.00     0.210 HD
ENDBRANCH  29  32
ENDBRANCH  25  29
BRANCH  25  34
HETATM   34  O2  UNL     1      12.499  21.442  26.608  1.00  0.00    -0.360 OA
ATOM     35  H2  UNL     1      12.469  21.668  25.686  1.00  0.00     0.213 HD
ENDBRANCH  25  34
BRANCH  27  36
HETATM   36  C22 UNL     1      16.152  21.071  28.420  1.00  0.00     0.199 C 
BRANCH  36  37
HETATM   37  O17 UNL     1      15.296  22.113  28.770  1.00  0.00    -0.398 OA
ATOM     38  H17 UNL     1      15.261  22.129  29.718  1.00  0.00     0.209 HD
ENDBRANCH  36  37
ENDBRANCH  27  36
BRANCH  28  39
HETATM   39  O16 UNL     1      15.829  22.108  25.939  1.00  0.00    -0.386 OA
ATOM     40  H16 UNL     1      16.444  22.517  26.536  1.00  0.00     0.210 HD
ENDBRANCH  28  39
ENDBRANCH  22  23
ENDBRANCH  20  22
ENDBRANCH  19  20
ENDBRANCH  18  19
ENDBRANCH  17  18
ENDBRANCH  15  17
ENDBRANCH   1  15
BRANCH  14  41
HETATM   41  O10 UNL     1       9.787  25.329  22.760  1.00  0.00    -0.206 OA
BRANCH  41  42
HETATM   42  S1  UNL     1       8.786  24.816  24.032  1.00  0.00     0.432 S 
HETATM   43  O11 UNL     1       9.322  25.255  25.382  1.00  0.00    -0.166 OA
HETATM   44  O12 UNL     1       7.379  25.356  23.894  1.00  0.00    -0.166 OA
BRANCH  42  45
HETATM   45  O13 UNL     1       8.620  23.106  24.031  1.00  0.00    -0.065 OA
BRANCH  45  46
HETATM   46  N5  UNL     1       9.109  22.322  25.043  1.00  0.00     0.022 N 
HETATM   47  O14 UNL     1      10.255  21.856  25.007  1.00  0.00    -0.510 OA
HETATM   48  O15 UNL     1       8.316  22.040  26.128  1.00  0.00    -0.510 OA
ENDBRANCH  45  46
ENDBRANCH  42  45
ENDBRANCH  41  42
ENDBRANCH  14  41
BRANCH  13  49
HETATM   49  O9  UNL     1       7.722  25.745  20.922  1.00  0.00    -0.357 OA
ATOM     50  H9  UNL     1       7.682  26.534  20.394  1.00  0.00     0.217 HD
ENDBRANCH  13  49
BRANCH   4  51
HETATM   51  N1  UNL     1      10.732  21.807  17.814  1.00  0.00    -0.252 N 
ATOM     52  H1  UNL     1      11.278  21.650  18.661  1.00  0.00     0.196 HD
BRANCH  51  53
HETATM   53  O7  UNL     1      11.105  21.178  16.657  1.00  0.00    -0.288 OA
ATOM     54  H7  UNL     1      10.965  20.248  16.523  1.00  0.00     0.244 HD
ENDBRANCH  51  53
ENDBRANCH   4  51
BRANCH   7  55
HETATM   55  N3  UNL     1       7.241  23.185  15.363  1.00  0.00    -0.234 N 
ATOM     56  H32 UNL     1       7.166  22.236  14.997  1.00  0.00     0.174 HD
ATOM     57  H31 UNL     1       6.944  24.042  14.896  1.00  0.00     0.174 HD
ENDBRANCH   7  55
TORSDOF 21
ENDMDL
MODEL 2
REMARK VINA RESULT: -9.223434087      0.812      2.243
REMARK  21 active torsions:
REMARK  status: ('A' for Active; 'I' for Inactive)
REMARK    1  A    between atoms: C2_2  and  O1_4 
REMARK    2  A    between atoms: C2_2  and  C4_6 
REMARK    3  A    between atoms: C4_6  and  O2_7 
REMARK    4  A    between atoms: C6_10  and  O3_11 
REMARK    5  A    between atoms: O3_11  and  C7_12 
REMARK    6  A    between atoms: C7_12  and  C8_14 
REMARK    7  A    between atoms: C8_14  and  C9_15 
REMARK    8  A    between atoms: C9_15  and  O5_16 
REMARK    9  A    between atoms: O5_16  and  C10_17 
REMARK   10  A    between atoms: C10_17  and  C11_19 
REMARK   11  A    between atoms: C14_22  and  N1_23 
REMARK   12  A    between atoms: N1_23  and  O7_25 
REMARK   13  A    between atoms: C15_29  and  N3_30 
REMARK   14  A    between atoms: C18_38  and  O9_39 
REMARK   15  A    between atoms: C19_41  and  O10_42 
REMARK   16  A    between atoms: O10_42  and  S1_43 
REMARK   17  A    between atoms: S1_43  and  O13_46 
REMARK   18  A    between atoms: O13_46  and  N5_47 
REMARK   19  A    between atoms: C20_50  and  O16_51 
REMARK   20  A    between atoms: C21_53  and  C22_54 
REMARK   21  A    between atoms: C22_54  and  O17_55 
ROOT
HETATM    1  C11 UNL     1      10.734  23.770  21.202  1.00  0.00     0.078 A 
HETATM    2  C12 UNL     1      10.666  23.140  19.955  1.00  0.00     0.037 A 
HETATM    3  C13 UNL     1       9.644  23.375  19.067  1.00  0.00     0.030 A 
HETATM    4  C14 UNL     1       9.756  22.658  17.886  1.00  0.00     0.151 A 
HETATM    5  N2  UNL     1       8.915  22.691  16.822  1.00  0.00    -0.174 N 
ATOM      6  H2  UNL     1       9.174  22.056  16.066  1.00  0.00     0.186 HD
HETATM    7  C15 UNL     1       7.802  23.406  16.580  1.00  0.00     0.680 A 
HETATM    8  N4  UNL     1       7.183  24.235  17.436  1.00  0.00    -0.156 N 
ATOM      9  H4  UNL     1       6.302  24.627  17.103  1.00  0.00     0.187 HD
HETATM   10  C16 UNL     1       7.559  24.629  18.685  1.00  0.00     0.273 A 
HETATM   11  O8  UNL     1       6.797  25.451  19.253  1.00  0.00    -0.267 OA
HETATM   12  C17 UNL     1       8.659  24.264  19.432  1.00  0.00     0.082 A 
HETATM   13  C18 UNL     1       8.728  24.893  20.679  1.00  0.00     0.118 A 
HETATM   14  C19 UNL     1       9.759  24.662  21.579  1.00  0.00     0.142 A 
ENDROOT
BRANCH   1  15
HETATM   15  C10 UNL     1      11.807  23.442  22.125  1.00  0.00     0.296 C 
HETATM   16  O6  UNL     1      12.478  24.347  22.648  1.00  0.00    -0.259 OA
BRANCH  15  17
HETATM   17  O5  UNL     1      12.132  22.141  22.464  1.00  0.00    -0.317 OA
BRANCH  17  18
HETATM   18  C9  UNL     1      13.254  21.425  22.084  1.00  0.00     0.189 C 
BRANCH  18  19
HETATM   19  C8  UNL     1      14.513  21.751  22.819  1.00  0.00     0.138 C 
BRANCH  19  20
HETATM   20  C7  UNL     1      15.497  20.624  22.725  1.00  0.00     0.265 C 
HETATM   21  O4  UNL     1      16.329  20.631  21.782  1.00  0.00    -0.265 OA
BRANCH  20  22
HETATM   22  O3  UNL     1      15.530  19.589  23.622  1.00  0.00    -0.281 OA
BRANCH  22  23
HETATM   23  C6  UNL     1      15.087  19.697  24.935  1.00  0.00     0.089 C 
HETATM   24  C5  UNL     1      15.688  20.387  25.858  1.00  0.00     0.079 C 
HETATM   25  C4  UNL     1      15.171  20.460  27.218  1.00  0.00     0.215 C 
HETATM   26  O18 UNL     1      13.847  20.259  27.384  1.00  0.00    -0.339 OA
HETATM   27  C21 UNL     1      13.113  19.828  26.324  1.00  0.00     0.184 C 
HETATM   28  C20 UNL     1      13.846  18.981  25.316  1.00  0.00     0.206 C 
BRANCH  25  29
HETATM   29  C2  UNL     1      15.528  21.848  27.769  1.00  0.00     0.111 C 
HETATM   30  C1  UNL     1      16.314  22.554  26.704  1.00  0.00     0.051 C 
HETATM   31  C3  UNL     1      16.352  21.700  29.023  1.00  0.00     0.051 C 
BRANCH  29  32
HETATM   32  O1  UNL     1      14.347  22.551  28.050  1.00  0.00    -0.385 OA
ATOM     33  H1  UNL     1      14.121  22.463  28.969  1.00  0.00     0.210 HD
ENDBRANCH  29  32
ENDBRANCH  25  29
BRANCH  25  34
HETATM   34  O2  UNL     1      15.851  19.542  28.054  1.00  0.00    -0.360 OA
ATOM     35  H2  UNL     1      16.762  19.592  27.790  1.00  0.00     0.213 HD
ENDBRANCH  25  34
BRANCH  27  36
HETATM   36  C22 UNL     1      11.975  18.969  26.865  1.00  0.00     0.199 C 
BRANCH  36  37
HETATM   37  O17 UNL     1      12.446  18.376  28.035  1.00  0.00    -0.398 OA
ATOM     38  H17 UNL     1      11.997  18.803  28.754  1.00  0.00     0.209 HD
ENDBRANCH  36  37
ENDBRANCH  27  36
BRANCH  28  39
HETATM   39  O16 UNL     1      14.077  17.692  25.729  1.00  0.00    -0.386 OA
ATOM     40  H16 UNL     1      13.490  17.064  25.325  1.00  0.00     0.210 HD
ENDBRANCH  28  39
ENDBRANCH  22  23
ENDBRANCH  20  22
ENDBRANCH  19  20
ENDBRANCH  18  19
ENDBRANCH  17  18
ENDBRANCH  15  17
ENDBRANCH   1  15
BRANCH  14  41
HETATM   41  O10 UNL     1       9.780  25.334  22.820  1.00  0.00    -0.206 OA
BRANCH  41  42
HETATM   42  S1  UNL     1       8.794  24.784  24.088  1.00  0.00     0.432 S 
HETATM   43  O11 UNL     1       9.301  25.248  25.439  1.00  0.00    -0.166 OA
HETATM   44  O12 UNL     1       7.365  25.264  23.939  1.00  0.00    -0.166 OA
BRANCH  42  45
HETATM   45  O13 UNL     1       8.699  23.068  24.090  1.00  0.00    -0.065 OA
BRANCH  45  46
HETATM   46  N5  UNL     1       9.036  22.317  25.186  1.00  0.00     0.022 N 
HETATM   47  O14 UNL     1       8.239  22.128  26.112  1.00  0.00    -0.510 OA
HETATM   48  O15 UNL     1      10.287  21.757  25.267  1.00  0.00    -0.510 OA
ENDBRANCH  45  46
ENDBRANCH  42  45
ENDBRANCH  41  42
ENDBRANCH  14  41
BRANCH  13  49
HETATM   49  O9  UNL     1       7.717  25.758  20.981  1.00  0.00    -0.357 OA
ATOM     50  H9  UNL     1       7.047  25.436  21.573  1.00  0.00     0.217 HD
ENDBRANCH  13  49
BRANCH   4  51
HETATM   51  N1  UNL     1      10.773  21.890  17.829  1.00  0.00    -0.252 N 
ATOM     52  H1  UNL     1      11.372  21.800  18.650  1.00  0.00     0.196 HD
BRANCH  51  53
HETATM   53  O7  UNL     1      11.085  21.185  16.698  1.00  0.00    -0.288 OA
ATOM     54  H7  UNL     1      10.810  20.284  16.576  1.00  0.00     0.244 HD
ENDBRANCH  51  53
ENDBRANCH   4  51
BRANCH   7  55
HETATM   55  N3  UNL     1       7.279  23.272  15.385  1.00  0.00    -0.234 N 
ATOM     56  H32 UNL     1       6.720  22.437  15.209  1.00  0.00     0.174 HD
ATOM     57  H31 UNL     1       7.475  24.021  14.722  1.00  0.00     0.174 HD
ENDBRANCH   7  55
TORSDOF 21
ENDMDL
MODEL 3
REMARK VINA RESULT: -9.128090075      0.913      1.553
REMARK  21 active torsions:
REMARK  status: ('A' for Active; 'I' for Inactive)
REMARK    1  A    between atoms: C2_2  and  O1_4 
REMARK    2  A    between atoms: C2_2  and  C4_6 
REMARK    3  A    between atoms: C4_6  and  O2_7 
REMARK    4  A    between atoms: C6_10  and  O3_11 
REMARK    5  A    between atoms: O3_11  and  C7_12 
REMARK    6  A    between atoms: C7_12  and  C8_14 
REMARK    7  A    between atoms: C8_14  and  C9_15 
REMARK    8  A    between atoms: C9_15  and  O5_16 
REMARK    9  A    between atoms: O5_16  and  C10_17 
REMARK   10  A    between atoms: C10_17  and  C11_19 
REMARK   11  A    between atoms: C14_22  and  N1_23 
REMARK   12  A    between atoms: N1_23  and  O7_25 
REMARK   13  A    between atoms: C15_29  and  N3_30 
REMARK   14  A    between atoms: C18_38  and  O9_39 
REMARK   15  A    between atoms: C19_41  and  O10_42 
REMARK   16  A    between atoms: O10_42  and  S1_43 
REMARK   17  A    between atoms: S1_43  and  O13_46 
REMARK   18  A    between atoms: O13_46  and  N5_47 
REMARK   19  A    between atoms: C20_50  and  O16_51 
REMARK   20  A    between atoms: C21_53  and  C22_54 
REMARK   21  A    between atoms: C22_54  and  O17_55 
ROOT
HETATM    1  C11 UNL     1      10.708  23.697  21.341  1.00  0.00     0.078 A 
HETATM    2  C12 UNL     1      10.616  23.049  20.105  1.00  0.00     0.037 A 
HETATM    3  C13 UNL     1       9.533  23.202  19.273  1.00  0.00     0.030 A 
HETATM    4  C14 UNL     1       9.630  22.480  18.093  1.00  0.00     0.151 A 
HETATM    5  N2  UNL     1       8.732  22.442  17.078  1.00  0.00    -0.174 N 
ATOM      6  H2  UNL     1       8.993  21.818  16.314  1.00  0.00     0.186 HD
HETATM    7  C15 UNL     1       7.561  23.075  16.892  1.00  0.00     0.680 A 
HETATM    8  N4  UNL     1       6.932  23.870  17.774  1.00  0.00    -0.156 N 
ATOM      9  H4  UNL     1       6.009  24.196  17.487  1.00  0.00     0.187 HD
HETATM   10  C16 UNL     1       7.348  24.304  18.997  1.00  0.00     0.273 A 
HETATM   11  O8  UNL     1       6.563  25.078  19.600  1.00  0.00    -0.267 OA
HETATM   12  C17 UNL     1       8.510  24.025  19.685  1.00  0.00     0.082 A 
HETATM   13  C18 UNL     1       8.603  24.673  20.921  1.00  0.00     0.118 A 
HETATM   14  C19 UNL     1       9.695  24.524  21.765  1.00  0.00     0.142 A 
ENDROOT
BRANCH   1  15
HETATM   15  C10 UNL     1      11.851  23.456  22.206  1.00  0.00     0.296 C 
HETATM   16  O6  UNL     1      12.514  24.410  22.645  1.00  0.00    -0.259 OA
BRANCH  15  17
HETATM   17  O5  UNL     1      12.252  22.186  22.579  1.00  0.00    -0.317 OA
BRANCH  17  18
HETATM   18  C9  UNL     1      13.322  21.459  22.083  1.00  0.00     0.189 C 
BRANCH  18  19
HETATM   19  C8  UNL     1      14.660  21.806  22.648  1.00  0.00     0.138 C 
BRANCH  19  20
HETATM   20  C7  UNL     1      15.545  20.598  22.713  1.00  0.00     0.265 C 
HETATM   21  O4  UNL     1      16.313  20.363  21.746  1.00  0.00    -0.265 OA
BRANCH  20  22
HETATM   22  O3  UNL     1      15.553  19.739  23.781  1.00  0.00    -0.281 OA
BRANCH  22  23
HETATM   23  C6  UNL     1      15.010  20.053  25.022  1.00  0.00     0.089 C 
HETATM   24  C5  UNL     1      13.800  19.754  25.390  1.00  0.00     0.079 C 
HETATM   25  C4  UNL     1      13.290  20.111  26.707  1.00  0.00     0.215 C 
HETATM   26  O18 UNL     1      14.196  20.272  27.694  1.00  0.00    -0.339 OA
HETATM   27  C21 UNL     1      15.517  20.273  27.374  1.00  0.00     0.184 C 
HETATM   28  C20 UNL     1      15.862  20.775  25.997  1.00  0.00     0.206 C 
BRANCH  25  29
HETATM   29  C2  UNL     1      12.299  19.016  27.127  1.00  0.00     0.111 C 
HETATM   30  C1  UNL     1      12.823  17.719  26.586  1.00  0.00     0.051 C 
HETATM   31  C3  UNL     1      10.937  19.316  26.553  1.00  0.00     0.051 C 
BRANCH  29  32
HETATM   32  O1  UNL     1      12.231  18.968  28.528  1.00  0.00    -0.385 OA
ATOM     33  H1  UNL     1      11.328  19.032  28.816  1.00  0.00     0.210 HD
ENDBRANCH  29  32
ENDBRANCH  25  29
BRANCH  25  34
HETATM   34  O2  UNL     1      12.522  21.298  26.634  1.00  0.00    -0.360 OA
ATOM     35  H2  UNL     1      12.826  21.836  27.355  1.00  0.00     0.213 HD
ENDBRANCH  25  34
BRANCH  27  36
HETATM   36  C22 UNL     1      16.234  21.190  28.360  1.00  0.00     0.199 C 
BRANCH  36  37
HETATM   37  O17 UNL     1      15.362  22.244  28.628  1.00  0.00    -0.398 OA
ATOM     38  H17 UNL     1      15.723  22.712  29.371  1.00  0.00     0.209 HD
ENDBRANCH  36  37
ENDBRANCH  27  36
BRANCH  28  39
HETATM   39  O16 UNL     1      15.789  22.139  25.862  1.00  0.00    -0.386 OA
ATOM     40  H16 UNL     1      15.977  22.601  26.671  1.00  0.00     0.210 HD
ENDBRANCH  28  39
ENDBRANCH  22  23
ENDBRANCH  20  22
ENDBRANCH  19  20
ENDBRANCH  18  19
ENDBRANCH  17  18
ENDBRANCH  15  17
ENDBRANCH   1  15
BRANCH  14  41
HETATM   41  O10 UNL     1       9.737  25.211  22.996  1.00  0.00    -0.206 OA
BRANCH  41  42
HETATM   42  S1  UNL     1       8.977  24.538  24.357  1.00  0.00     0.432 S 
HETATM   43  O11 UNL     1       9.524  23.162  24.685  1.00  0.00    -0.166 OA
HETATM   44  O12 UNL     1       9.147  25.408  25.585  1.00  0.00    -0.166 OA
BRANCH  42  45
HETATM   45  O13 UNL     1       7.281  24.418  24.115  1.00  0.00    -0.065 OA
BRANCH  45  46
HETATM   46  N5  UNL     1       6.425  25.449  24.400  1.00  0.00     0.022 N 
HETATM   47  O14 UNL     1       6.449  26.508  23.760  1.00  0.00    -0.510 OA
HETATM   48  O15 UNL     1       5.514  25.315  25.419  1.00  0.00    -0.510 OA
ENDBRANCH  45  46
ENDBRANCH  42  45
ENDBRANCH  41  42
ENDBRANCH  14  41
BRANCH  13  49
HETATM   49  O9  UNL     1       7.553  25.469  21.271  1.00  0.00    -0.357 OA
ATOM     50  H9  UNL     1       7.129  25.272  22.099  1.00  0.00     0.217 HD
ENDBRANCH  13  49
BRANCH   4  51
HETATM   51  N1  UNL     1      10.694  21.784  17.987  1.00  0.00    -0.252 N 
ATOM     52  H1  UNL     1      11.285  21.653  18.808  1.00  0.00     0.196 HD
BRANCH  51  53
HETATM   53  O7  UNL     1      11.066  21.208  16.802  1.00  0.00    -0.288 OA
ATOM     54  H7  UNL     1      11.797  21.535  16.292  1.00  0.00     0.244 HD
ENDBRANCH  51  53
ENDBRANCH   4  51
BRANCH   7  55
HETATM   55  N3  UNL     1       6.983  22.890  15.729  1.00  0.00    -0.234 N 
ATOM     56  H32 UNL     1       7.561  22.998  14.896  1.00  0.00     0.174 HD
ATOM     57  H31 UNL     1       5.991  22.652  15.754  1.00  0.00     0.174 HD
ENDBRANCH   7  55
TORSDOF 21
ENDMDL
MODEL 4
REMARK VINA RESULT: -9.083545055      1.524      2.216
REMARK  21 active torsions:
REMARK  status: ('A' for Active; 'I' for Inactive)
REMARK    1  A    between atoms: C2_2  and  O1_4 
REMARK    2  A    between atoms: C2_2  and  C4_6 
REMARK    3  A    between atoms: C4_6  and  O2_7 
REMARK    4  A    between atoms: C6_10  and  O3_11 
REMARK    5  A    between atoms: O3_11  and  C7_12 
REMARK    6  A    between atoms: C7_12  and  C8_14 
REMARK    7  A    between atoms: C8_14  and  C9_15 
REMARK    8  A    between atoms: C9_15  and  O5_16 
REMARK    9  A    between atoms: O5_16  and  C10_17 
REMARK   10  A    between atoms: C10_17  and  C11_19 
REMARK   11  A    between atoms: C14_22  and  N1_23 
REMARK   12  A    between atoms: N1_23  and  O7_25 
REMARK   13  A    between atoms: C15_29  and  N3_30 
REMARK   14  A    between atoms: C18_38  and  O9_39 
REMARK   15  A    between atoms: C19_41  and  O10_42 
REMARK   16  A    between atoms: O10_42  and  S1_43 
REMARK   17  A    between atoms: S1_43  and  O13_46 
REMARK   18  A    between atoms: O13_46  and  N5_47 
REMARK   19  A    between atoms: C20_50  and  O16_51 
REMARK   20  A    between atoms: C21_53  and  C22_54 
REMARK   21  A    between atoms: C22_54  and  O17_55 
ROOT
HETATM    1  C11 UNL     1      10.842  23.599  21.116  1.00  0.00     0.078 A 
HETATM    2  C12 UNL     1      10.722  22.977  19.868  1.00  0.00     0.037 A 
HETATM    3  C13 UNL     1       9.677  23.238  19.014  1.00  0.00     0.030 A 
HETATM    4  C14 UNL     1       9.737  22.524  17.827  1.00  0.00     0.151 A 
HETATM    5  N2  UNL     1       8.864  22.580  16.790  1.00  0.00    -0.174 N 
ATOM      6  H2  UNL     1       9.086  21.945  16.024  1.00  0.00     0.186 HD
HETATM    7  C15 UNL     1       7.760  23.320  16.586  1.00  0.00     0.680 A 
HETATM    8  N4  UNL     1       7.185  24.157  17.466  1.00  0.00    -0.156 N 
ATOM      9  H4  UNL     1       6.302  24.569  17.162  1.00  0.00     0.187 HD
HETATM   10  C16 UNL     1       7.608  24.537  18.704  1.00  0.00     0.273 A 
HETATM   11  O8  UNL     1       6.882  25.371  19.299  1.00  0.00    -0.267 OA
HETATM   12  C17 UNL     1       8.724  24.146  19.414  1.00  0.00     0.082 A 
HETATM   13  C18 UNL     1       8.845  24.766  20.661  1.00  0.00     0.118 A 
HETATM   14  C19 UNL     1       9.898  24.509  21.528  1.00  0.00     0.142 A 
ENDROOT
BRANCH   1  15
HETATM   15  C10 UNL     1      11.937  23.244  22.003  1.00  0.00     0.296 C 
HETATM   16  O6  UNL     1      12.573  24.131  22.594  1.00  0.00    -0.259 OA
BRANCH  15  17
HETATM   17  O5  UNL     1      12.320  21.935  22.233  1.00  0.00    -0.317 OA
BRANCH  17  18
HETATM   18  C9  UNL     1      13.600  21.458  22.461  1.00  0.00     0.189 C 
BRANCH  18  19
HETATM   19  C8  UNL     1      14.003  20.268  21.653  1.00  0.00     0.138 C 
BRANCH  19  20
HETATM   20  C7  UNL     1      15.335  19.743  22.098  1.00  0.00     0.265 C 
HETATM   21  O4  UNL     1      16.366  20.399  21.806  1.00  0.00    -0.265 OA
BRANCH  20  22
HETATM   22  O3  UNL     1      15.476  18.581  22.809  1.00  0.00    -0.281 OA
BRANCH  22  23
HETATM   23  C6  UNL     1      15.171  18.466  24.160  1.00  0.00     0.089 C 
HETATM   24  C5  UNL     1      14.263  17.671  24.643  1.00  0.00     0.079 C 
HETATM   25  C4  UNL     1      13.991  17.597  26.073  1.00  0.00     0.215 C 
HETATM   26  O18 UNL     1      14.995  17.941  26.908  1.00  0.00    -0.339 OA
HETATM   27  C21 UNL     1      16.118  18.500  26.384  1.00  0.00     0.184 C 
HETATM   28  C20 UNL     1      15.929  19.301  25.122  1.00  0.00     0.206 C 
BRANCH  25  29
HETATM   29  C2  UNL     1      13.568  16.155  26.384  1.00  0.00     0.111 C 
HETATM   30  C1  UNL     1      13.955  15.319  25.200  1.00  0.00     0.051 C 
HETATM   31  C3  UNL     1      12.078  16.099  26.607  1.00  0.00     0.051 C 
BRANCH  29  32
HETATM   32  O1  UNL     1      14.243  15.714  27.533  1.00  0.00    -0.385 OA
ATOM     33  H1  UNL     1      13.692  15.123  28.033  1.00  0.00     0.210 HD
ENDBRANCH  29  32
ENDBRANCH  25  29
BRANCH  25  34
HETATM   34  O2  UNL     1      12.869  18.393  26.404  1.00  0.00    -0.360 OA
ATOM     35  H2  UNL     1      12.502  18.666  25.571  1.00  0.00     0.213 HD
ENDBRANCH  25  34
BRANCH  27  36
HETATM   36  C22 UNL     1      16.688  19.459  27.424  1.00  0.00     0.199 C 
BRANCH  36  37
HETATM   37  O17 UNL     1      15.609  19.914  28.179  1.00  0.00    -0.398 OA
ATOM     38  H17 UNL     1      15.497  20.832  27.965  1.00  0.00     0.209 HD
ENDBRANCH  36  37
ENDBRANCH  27  36
BRANCH  28  39
HETATM   39  O16 UNL     1      15.362  20.535  25.322  1.00  0.00    -0.386 OA
ATOM     40  H16 UNL     1      14.888  20.597  26.143  1.00  0.00     0.210 HD
ENDBRANCH  28  39
ENDBRANCH  22  23
ENDBRANCH  20  22
ENDBRANCH  19  20
ENDBRANCH  18  19
ENDBRANCH  17  18
ENDBRANCH  15  17
ENDBRANCH   1  15
BRANCH  14  41
HETATM   41  O10 UNL     1       9.972  25.174  22.770  1.00  0.00    -0.206 OA
BRANCH  41  42
HETATM   42  S1  UNL     1       9.138  24.545  24.108  1.00  0.00     0.432 S 
HETATM   43  O11 UNL     1       9.688  23.197  24.531  1.00  0.00    -0.166 OA
HETATM   44  O12 UNL     1       9.211  25.471  25.303  1.00  0.00    -0.166 OA
BRANCH  42  45
HETATM   45  O13 UNL     1       7.463  24.378  23.763  1.00  0.00    -0.065 OA
BRANCH  45  46
HETATM   46  N5  UNL     1       6.549  25.349  24.080  1.00  0.00     0.022 N 
HETATM   47  O14 UNL     1       5.665  25.157  24.924  1.00  0.00    -0.510 OA
HETATM   48  O15 UNL     1       6.609  26.569  23.452  1.00  0.00    -0.510 OA
ENDBRANCH  45  46
ENDBRANCH  42  45
ENDBRANCH  41  42
ENDBRANCH  14  41
BRANCH  13  49
HETATM   49  O9  UNL     1       7.862  25.650  20.998  1.00  0.00    -0.357 OA
ATOM     50  H9  UNL     1       7.631  25.696  21.919  1.00  0.00     0.217 HD
ENDBRANCH  13  49
BRANCH   4  51
HETATM   51  N1  UNL     1      10.736  21.736  17.735  1.00  0.00    -0.252 N 
ATOM     52  H1  UNL     1      11.268  21.511  18.575  1.00  0.00     0.196 HD
BRANCH  51  53
HETATM   53  O7  UNL     1      11.114  21.184  16.540  1.00  0.00    -0.288 OA
ATOM     54  H7  UNL     1      11.260  20.251  16.443  1.00  0.00     0.244 HD
ENDBRANCH  51  53
ENDBRANCH   4  51
BRANCH   7  55
HETATM   55  N3  UNL     1       7.196  23.202  15.409  1.00  0.00    -0.234 N 
ATOM     56  H32 UNL     1       7.804  23.244  14.591  1.00  0.00     0.174 HD
ATOM     57  H31 UNL     1       6.183  23.078  15.406  1.00  0.00     0.174 HD
ENDBRANCH   7  55
TORSDOF 21
ENDMDL
MODEL 5
REMARK VINA RESULT: -9.081965995      3.958     10.993
REMARK  21 active torsions:
REMARK  status: ('A' for Active; 'I' for Inactive)
REMARK    1  A    between atoms: C2_2  and  O1_4 
REMARK    2  A    between atoms: C2_2  and  C4_6 
REMARK    3  A    between atoms: C4_6  and  O2_7 
REMARK    4  A    between atoms: C6_10  and  O3_11 
REMARK    5  A    between atoms: O3_11  and  C7_12 
REMARK    6  A    between atoms: C7_12  and  C8_14 
REMARK    7  A    between atoms: C8_14  and  C9_15 
REMARK    8  A    between atoms: C9_15  and  O5_16 
REMARK    9  A    between atoms: O5_16  and  C10_17 
REMARK   10  A    between atoms: C10_17  and  C11_19 
REMARK   11  A    between atoms: C14_22  and  N1_23 
REMARK   12  A    between atoms: N1_23  and  O7_25 
REMARK   13  A    between atoms: C15_29  and  N3_30 
REMARK   14  A    between atoms: C18_38  and  O9_39 
REMARK   15  A    between atoms: C19_41  and  O10_42 
REMARK   16  A    between atoms: O10_42  and  S1_43 
REMARK   17  A    between atoms: S1_43  and  O13_46 
REMARK   18  A    between atoms: O13_46  and  N5_47 
REMARK   19  A    between atoms: C20_50  and  O16_51 
REMARK   20  A    between atoms: C21_53  and  C22_54 
REMARK   21  A    between atoms: C22_54  and  O17_55 
ROOT
HETATM    1  C11 UNL     1       9.618  23.358  18.607  1.00  0.00     0.078 A 
HETATM    2  C12 UNL     1      10.592  22.446  19.026  1.00  0.00     0.037 A 
HETATM    3  C13 UNL     1      11.203  22.535  20.255  1.00  0.00     0.030 A 
HETATM    4  C14 UNL     1      12.139  21.539  20.485  1.00  0.00     0.151 A 
HETATM    5  N2  UNL     1      12.887  21.358  21.602  1.00  0.00    -0.174 N 
ATOM      6  H2  UNL     1      13.537  20.573  21.545  1.00  0.00     0.186 HD
HETATM    7  C15 UNL     1      12.929  22.020  22.771  1.00  0.00     0.680 A 
HETATM    8  N4  UNL     1      12.260  23.144  23.077  1.00  0.00    -0.156 N 
ATOM      9  H4  UNL     1      12.483  23.550  23.986  1.00  0.00     0.187 HD
HETATM   10  C16 UNL     1      11.326  23.821  22.351  1.00  0.00     0.273 A 
HETATM   11  O8  UNL     1      10.832  24.835  22.904  1.00  0.00    -0.267 OA
HETATM   12  C17 UNL     1      10.832  23.564  21.090  1.00  0.00     0.082 A 
HETATM   13  C18 UNL     1       9.857  24.474  20.669  1.00  0.00     0.118 A 
HETATM   14  C19 UNL     1       9.235  24.388  19.432  1.00  0.00     0.142 A 
ENDROOT
BRANCH   1  15
HETATM   15  C10 UNL     1       9.044  23.249  17.276  1.00  0.00     0.296 C 
HETATM   16  O6  UNL     1       8.230  22.347  17.019  1.00  0.00    -0.259 OA
BRANCH  15  17
HETATM   17  O5  UNL     1       9.365  24.119  16.250  1.00  0.00    -0.317 OA
BRANCH  17  18
HETATM   18  C9  UNL     1       8.543  25.063  15.657  1.00  0.00     0.189 C 
BRANCH  18  19
HETATM   19  C8  UNL     1       9.239  26.213  15.005  1.00  0.00     0.138 C 
BRANCH  19  20
HETATM   20  C7  UNL     1       8.254  27.151  14.377  1.00  0.00     0.265 C 
HETATM   21  O4  UNL     1       8.377  28.384  14.594  1.00  0.00    -0.265 OA
BRANCH  20  22
HETATM   22  O3  UNL     1       7.226  26.725  13.578  1.00  0.00    -0.281 OA
BRANCH  22  23
HETATM   23  C6  UNL     1       5.996  26.304  14.068  1.00  0.00     0.089 C 
HETATM   24  C5  UNL     1       5.403  26.820  15.103  1.00  0.00     0.079 C 
HETATM   25  C4  UNL     1       4.111  26.332  15.568  1.00  0.00     0.215 C 
HETATM   26  O18 UNL     1       3.316  25.733  14.656  1.00  0.00    -0.339 OA
HETATM   27  C21 UNL     1       3.825  25.458  13.426  1.00  0.00     0.184 C 
HETATM   28  C20 UNL     1       5.307  25.193  13.369  1.00  0.00     0.206 C 
BRANCH  25  29
HETATM   29  C2  UNL     1       3.357  27.530  16.163  1.00  0.00     0.111 C 
HETATM   30  C1  UNL     1       2.049  27.010  16.683  1.00  0.00     0.051 C 
HETATM   31  C3  UNL     1       3.125  28.567  15.094  1.00  0.00     0.051 C 
BRANCH  29  32
HETATM   32  O1  UNL     1       4.114  28.078  17.210  1.00  0.00    -0.385 OA
ATOM     33  H1  UNL     1       4.878  28.525  16.865  1.00  0.00     0.210 HD
ENDBRANCH  29  32
ENDBRANCH  25  29
BRANCH  25  34
HETATM   34  O2  UNL     1       4.282  25.429  16.644  1.00  0.00    -0.360 OA
ATOM     35  H2  UNL     1       3.528  25.564  17.205  1.00  0.00     0.213 HD
ENDBRANCH  25  34
BRANCH  27  36
HETATM   36  C22 UNL     1       3.139  24.197  12.910  1.00  0.00     0.199 C 
BRANCH  36  37
HETATM   37  O17 UNL     1       3.872  23.770  11.804  1.00  0.00    -0.398 OA
ATOM     38  H17 UNL     1       4.653  23.350  12.143  1.00  0.00     0.209 HD
ENDBRANCH  36  37
ENDBRANCH  27  36
BRANCH  28  39
HETATM   39  O16 UNL     1       5.673  23.956  13.839  1.00  0.00    -0.386 OA
ATOM     40  H16 UNL     1       5.694  23.293  13.158  1.00  0.00     0.210 HD
ENDBRANCH  28  39
ENDBRANCH  22  23
ENDBRANCH  20  22
ENDBRANCH  19  20
ENDBRANCH  18  19
ENDBRANCH  17  18
ENDBRANCH  15  17
ENDBRANCH   1  15
BRANCH  14  41
HETATM   41  O10 UNL     1       8.251  25.331  19.067  1.00  0.00    -0.206 OA
BRANCH  41  42
HETATM   42  S1  UNL     1       6.658  25.137  19.622  1.00  0.00     0.432 S 
HETATM   43  O11 UNL     1       6.542  25.406  21.109  1.00  0.00    -0.166 OA
HETATM   44  O12 UNL     1       5.696  26.062  18.907  1.00  0.00    -0.166 OA
BRANCH  42  45
HETATM   45  O13 UNL     1       6.087  23.548  19.299  1.00  0.00    -0.065 OA
BRANCH  45  46
HETATM   46  N5  UNL     1       6.092  22.561  20.250  1.00  0.00     0.022 N 
HETATM   47  O14 UNL     1       7.090  21.857  20.449  1.00  0.00    -0.510 OA
HETATM   48  O15 UNL     1       4.967  22.340  21.007  1.00  0.00    -0.510 OA
ENDBRANCH  45  46
ENDBRANCH  42  45
ENDBRANCH  41  42
ENDBRANCH  14  41
BRANCH  13  49
HETATM   49  O9  UNL     1       9.541  25.472  21.543  1.00  0.00    -0.357 OA
ATOM     50  H9  UNL     1       8.616  25.596  21.729  1.00  0.00     0.217 HD
ENDBRANCH  13  49
BRANCH   4  51
HETATM   51  N1  UNL     1      12.289  20.722  19.517  1.00  0.00    -0.252 N 
ATOM     52  H1  UNL     1      11.638  20.759  18.732  1.00  0.00     0.196 HD
BRANCH  51  53
HETATM   53  O7  UNL     1      13.298  19.796  19.501  1.00  0.00    -0.288 OA
ATOM     54  H7  UNL     1      13.162  18.911  19.185  1.00  0.00     0.244 HD
ENDBRANCH  51  53
ENDBRANCH   4  51
BRANCH   7  55
HETATM   55  N3  UNL     1      13.705  21.510  23.696  1.00  0.00    -0.234 N 
ATOM     56  H32 UNL     1      14.404  22.124  24.113  1.00  0.00     0.174 HD
ATOM     57  H31 UNL     1      13.545  20.528  23.925  1.00  0.00     0.174 HD
ENDBRANCH   7  55
TORSDOF 21
ENDMDL
