MODEL 1
REMARK VINA RESULT: -9.013885512      0.000      0.000
REMARK  17 active torsions:
REMARK  status: ('A' for Active; 'I' for Inactive)
REMARK    1  A    between atoms: N1_1  and  C1_4 
REMARK       I    between atoms: N5_14  and  C5_15 
REMARK    2  A    between atoms: C5_15  and  C6_17 
REMARK    3  A    between atoms: C6_17  and  O2_18 
REMARK    4  A    between atoms: C6_17  and  C7_21 
REMARK    5  A    between atoms: C7_21  and  C8_22 
REMARK    6  A    between atoms: C7_21  and  N9_41 
REMARK    7  A    between atoms: C8_22  and  N6_23 
REMARK    8  A    between atoms: C9_24  and  O3_25 
REMARK    9  A    between atoms: C10_27  and  C11_28 
REMARK   10  A    between atoms: C11_28  and  O4_29 
REMARK   11  A    between atoms: C11_28  and  O5_31 
REMARK   12  A    between atoms: N9_41  and  C16_43 
REMARK   13  A    between atoms: C16_43  and  C17_44 
REMARK   14  A    between atoms: C17_44  and  C18_45 
REMARK   15  A    between atoms: C18_45  and  N10_46 
REMARK   16  A    between atoms: N10_46  and  C19_48 
REMARK   17  A    between atoms: C20_54  and  C21_55 
ROOT
HETATM    1  C7  UNL     1       9.687  22.887  23.540  1.00  0.00     0.070 C 
ENDROOT
BRANCH   1   2
HETATM    2  C6  UNL     1       8.927  24.096  23.013  1.00  0.00     0.183 C 
HETATM    3  S1  UNL     1       7.678  24.767  24.033  1.00  0.00    -0.049 SA
BRANCH   2   4
HETATM    4  C5  UNL     1       8.378  23.696  21.669  1.00  0.00     0.308 C 
HETATM    5  N5  UNL     1       9.037  23.786  20.454  1.00  0.00    -0.207 N 
HETATM    6  N2  UNL     1       8.554  23.213  19.235  1.00  0.00    -0.057 N 
HETATM    7  C23 UNL     1      10.232  24.468  19.954  1.00  0.00     0.331 C 
HETATM    8  C3  UNL     1       8.855  24.103  18.242  1.00  0.00     0.187 A 
HETATM    9  C4  UNL     1       7.866  22.118  18.911  1.00  0.00     0.701 A 
HETATM   10  C2  UNL     1       8.460  23.891  16.949  1.00  0.00     0.107 A 
HETATM   11  O9  UNL     1       9.578  25.124  18.828  1.00  0.00    -0.312 OA
HETATM   12  C1  UNL     1       7.732  22.740  16.628  1.00  0.00     0.118 A 
HETATM   13  N4  UNL     1       7.461  21.893  17.614  1.00  0.00    -0.175 N 
ATOM     14  H4  UNL     1       6.933  21.045  17.403  1.00  0.00     0.186 HD
HETATM   15  N3  UNL     1       7.657  21.206  19.741  1.00  0.00    -0.233 N 
ATOM     16  H32 UNL     1       7.958  21.372  20.701  1.00  0.00     0.174 HD
ATOM     17  H31 UNL     1       7.131  20.368  19.493  1.00  0.00     0.174 HD
HETATM   18  O1  UNL     1       7.173  23.240  21.807  1.00  0.00    -0.262 OA
BRANCH  12  19
HETATM   19  N1  UNL     1       7.331  22.523  15.397  1.00  0.00    -0.385 N 
ATOM     20  H12 UNL     1       6.795  23.217  14.876  1.00  0.00     0.157 HD
ATOM     21  H11 UNL     1       7.555  21.649  14.924  1.00  0.00     0.157 HD
ENDBRANCH  12  19
ENDBRANCH   2   4
BRANCH   2  22
HETATM   22  O2  UNL     1       9.896  25.099  22.704  1.00  0.00    -0.348 OA
ATOM     23  H2  UNL     1      10.712  24.736  23.030  1.00  0.00     0.218 HD
ENDBRANCH   2  22
ENDBRANCH   1   2
BRANCH   1  24
HETATM   24  C8  UNL     1       9.915  23.017  24.988  1.00  0.00     0.196 C 
BRANCH  24  25
HETATM   25  N6  UNL     1       9.789  21.827  25.791  1.00  0.00    -0.273 N 
HETATM   26  C9  UNL     1      10.754  20.929  25.921  1.00  0.00     0.161 A 
HETATM   27  C10 UNL     1      10.622  19.763  26.667  1.00  0.00     0.092 A 
HETATM   28  C12 UNL     1       9.414  19.559  27.294  1.00  0.00     0.131 A 
HETATM   29  N7  UNL     1       9.002  18.542  28.071  1.00  0.00    -0.350 N 
HETATM   30  N8  UNL     1       8.437  20.474  27.161  1.00  0.00    -0.258 N 
HETATM   31  C13 UNL     1       7.734  18.795  28.452  1.00  0.00     0.107 A 
ATOM     32  H7  UNL     1       9.553  17.722  28.327  1.00  0.00     0.166 HD
HETATM   33  C14 UNL     1       7.380  20.002  27.885  1.00  0.00     0.120 A 
HETATM   34  C15 UNL     1       8.600  21.594  26.428  1.00  0.00     0.336 A 
HETATM   35  O6  UNL     1       7.638  22.399  26.354  1.00  0.00    -0.246 OA
BRANCH  26  36
HETATM   36  O3  UNL     1      11.985  21.096  25.314  1.00  0.00    -0.345 OA
ATOM     37  H3  UNL     1      12.421  21.940  25.297  1.00  0.00     0.219 HD
ENDBRANCH  26  36
BRANCH  27  38
HETATM   38  C11 UNL     1      11.735  18.780  26.787  1.00  0.00     0.296 C 
BRANCH  38  39
HETATM   39  O4  UNL     1      12.287  18.813  28.074  1.00  0.00    -0.367 OA
ATOM     40  H4  UNL     1      12.042  18.037  28.564  1.00  0.00     0.213 HD
ENDBRANCH  38  39
BRANCH  38  41
HETATM   41  O5  UNL     1      11.389  17.520  26.371  1.00  0.00    -0.367 OA
ATOM     42  H5  UNL     1      11.361  16.888  27.079  1.00  0.00     0.213 HD
ENDBRANCH  38  41
ENDBRANCH  27  38
ENDBRANCH  24  25
ENDBRANCH   1  24
BRANCH   1  43
HETATM   43  N9  UNL     1      10.650  22.372  22.682  1.00  0.00    -0.389 N 
ATOM     44  H9  UNL     1      10.391  21.576  22.098  1.00  0.00     0.159 HD
BRANCH  43  45
HETATM   45  C16 UNL     1      11.945  22.870  22.568  1.00  0.00     0.121 C 
BRANCH  45  46
HETATM   46  C17 UNL     1      12.832  21.738  22.016  1.00  0.00     0.039 C 
BRANCH  46  47
HETATM   47  C18 UNL     1      14.264  21.951  22.444  1.00  0.00     0.123 C 
BRANCH  47  48
HETATM   48  N10 UNL     1      14.585  21.432  23.734  1.00  0.00    -0.373 N 
ATOM     49  H10 UNL     1      14.378  22.001  24.555  1.00  0.00     0.161 HD
BRANCH  48  50
HETATM   50  C19 UNL     1      15.132  20.259  23.907  1.00  0.00     0.156 A 
HETATM   51  N11 UNL     1      15.571  19.376  23.009  1.00  0.00    -0.223 N 
HETATM   52  O7  UNL     1      16.040  18.340  23.641  1.00  0.00    -0.155 OA
ATOM     53  H11 UNL     1      15.544  19.494  21.997  1.00  0.00     0.198 HD
HETATM   54  N12 UNL     1      15.937  18.482  24.926  1.00  0.00    -0.234 N 
HETATM   55  C20 UNL     1      15.367  19.684  25.140  1.00  0.00     0.154 A 
ATOM     56  H12 UNL     1      16.231  17.813  25.638  1.00  0.00     0.197 HD
BRANCH  55  57
HETATM   57  C21 UNL     1      15.054  20.269  26.426  1.00  0.00     0.196 A 
HETATM   58  N13 UNL     1      15.237  19.679  27.624  1.00  0.00    -0.276 N 
HETATM   59  N14 UNL     1      14.839  20.514  28.560  1.00  0.00    -0.288 N 
ATOM     60  H13 UNL     1      15.619  18.746  27.779  1.00  0.00     0.189 HD
HETATM   61  C22 UNL     1      14.409  21.619  27.929  1.00  0.00     0.251 A 
ATOM     62  H14 UNL     1      14.853  20.353  29.567  1.00  0.00     0.188 HD
HETATM   63  O8  UNL     1      14.551  21.445  26.646  1.00  0.00    -0.284 OA
ENDBRANCH  55  57
ENDBRANCH  48  50
ENDBRANCH  47  48
ENDBRANCH  46  47
ENDBRANCH  45  46
ENDBRANCH  43  45
ENDBRANCH   1  43
TORSDOF 17
ENDMDL
MODEL 2
REMARK VINA RESULT: -8.651875683      3.854      8.499
REMARK  17 active torsions:
REMARK  status: ('A' for Active; 'I' for Inactive)
REMARK    1  A    between atoms: N1_1  and  C1_4 
REMARK       I    between atoms: N5_14  and  C5_15 
REMARK    2  A    between atoms: C5_15  and  C6_17 
REMARK    3  A    between atoms: C6_17  and  O2_18 
REMARK    4  A    between atoms: C6_17  and  C7_21 
REMARK    5  A    between atoms: C7_21  and  C8_22 
REMARK    6  A    between atoms: C7_21  and  N9_41 
REMARK    7  A    between atoms: C8_22  and  N6_23 
REMARK    8  A    between atoms: C9_24  and  O3_25 
REMARK    9  A    between atoms: C10_27  and  C11_28 
REMARK   10  A    between atoms: C11_28  and  O4_29 
REMARK   11  A    between atoms: C11_28  and  O5_31 
REMARK   12  A    between atoms: N9_41  and  C16_43 
REMARK   13  A    between atoms: C16_43  and  C17_44 
REMARK   14  A    between atoms: C17_44  and  C18_45 
REMARK   15  A    between atoms: C18_45  and  N10_46 
REMARK   16  A    between atoms: N10_46  and  C19_48 
REMARK   17  A    between atoms: C20_54  and  C21_55 
ROOT
HETATM    1  C7  UNL     1       9.559  23.042  21.057  1.00  0.00     0.070 C 
ENDROOT
BRANCH   1   2
HETATM    2  C6  UNL     1       9.108  24.176  21.969  1.00  0.00     0.183 C 
HETATM    3  S1  UNL     1       8.774  23.780  23.637  1.00  0.00    -0.049 SA
BRANCH   2   4
HETATM    4  C5  UNL     1       7.909  24.799  21.304  1.00  0.00     0.308 C 
HETATM    5  N5  UNL     1       6.581  24.574  21.628  1.00  0.00    -0.207 N 
HETATM    6  N2  UNL     1       5.487  25.334  21.105  1.00  0.00    -0.057 N 
HETATM    7  C23 UNL     1       5.844  23.582  22.414  1.00  0.00     0.331 C 
HETATM    8  C3  UNL     1       4.467  24.450  20.894  1.00  0.00     0.187 A 
HETATM    9  C4  UNL     1       5.303  26.604  20.746  1.00  0.00     0.701 A 
HETATM   10  C2  UNL     1       3.287  24.843  20.322  1.00  0.00     0.107 A 
HETATM   11  O9  UNL     1       4.898  23.224  21.364  1.00  0.00    -0.312 OA
HETATM   12  C1  UNL     1       3.114  26.179  19.944  1.00  0.00     0.118 A 
HETATM   13  N4  UNL     1       4.122  27.015  20.168  1.00  0.00    -0.175 N 
ATOM     14  H4  UNL     1       4.018  27.995  19.904  1.00  0.00     0.186 HD
HETATM   15  N3  UNL     1       6.144  27.490  21.016  1.00  0.00    -0.233 N 
ATOM     16  H32 UNL     1       7.019  27.187  21.444  1.00  0.00     0.174 HD
ATOM     17  H31 UNL     1       6.004  28.462  20.741  1.00  0.00     0.174 HD
HETATM   18  O1  UNL     1       8.298  25.599  20.362  1.00  0.00    -0.262 OA
BRANCH  12  19
HETATM   19  N1  UNL     1       1.997  26.576  19.382  1.00  0.00    -0.385 N 
ATOM     20  H12 UNL     1       1.797  26.398  18.398  1.00  0.00     0.157 HD
ATOM     21  H11 UNL     1       1.289  27.071  19.924  1.00  0.00     0.157 HD
ENDBRANCH  12  19
ENDBRANCH   2   4
BRANCH   2  22
HETATM   22  O2  UNL     1      10.108  25.194  21.898  1.00  0.00    -0.348 OA
ATOM     23  H2  UNL     1      10.902  24.754  22.179  1.00  0.00     0.218 HD
ENDBRANCH   2  22
ENDBRANCH   1   2
BRANCH   1  24
HETATM   24  C8  UNL     1      10.938  23.273  20.600  1.00  0.00     0.196 C 
BRANCH  24  25
HETATM   25  N6  UNL     1      11.938  22.311  20.991  1.00  0.00    -0.273 N 
HETATM   26  C9  UNL     1      12.273  21.264  20.252  1.00  0.00     0.161 A 
HETATM   27  C10 UNL     1      13.213  20.318  20.644  1.00  0.00     0.092 A 
HETATM   28  C12 UNL     1      13.812  20.505  21.869  1.00  0.00     0.131 A 
HETATM   29  N7  UNL     1      14.742  19.766  22.499  1.00  0.00    -0.350 N 
HETATM   30  N8  UNL     1      13.470  21.569  22.616  1.00  0.00    -0.258 N 
HETATM   31  C13 UNL     1      15.013  20.358  23.680  1.00  0.00     0.107 A 
ATOM     32  H7  UNL     1      15.167  18.909  22.147  1.00  0.00     0.166 HD
HETATM   33  C14 UNL     1      14.221  21.485  23.753  1.00  0.00     0.120 A 
HETATM   34  C15 UNL     1      12.553  22.469  22.204  1.00  0.00     0.336 A 
HETATM   35  O6  UNL     1      12.292  23.437  22.962  1.00  0.00    -0.246 OA
BRANCH  26  36
HETATM   36  O3  UNL     1      11.702  21.040  19.013  1.00  0.00    -0.345 OA
ATOM     37  H3  UNL     1      12.194  20.645  18.302  1.00  0.00     0.219 HD
ENDBRANCH  26  36
BRANCH  27  38
HETATM   38  C11 UNL     1      13.559  19.155  19.779  1.00  0.00     0.296 C 
BRANCH  38  39
HETATM   39  O4  UNL     1      14.491  19.527  18.800  1.00  0.00    -0.367 OA
ATOM     40  H4  UNL     1      14.751  18.775  18.282  1.00  0.00     0.213 HD
ENDBRANCH  38  39
BRANCH  38  41
HETATM   41  O5  UNL     1      13.929  18.043  20.492  1.00  0.00    -0.367 OA
ATOM     42  H5  UNL     1      13.191  17.577  20.866  1.00  0.00     0.213 HD
ENDBRANCH  38  41
ENDBRANCH  27  38
ENDBRANCH  24  25
ENDBRANCH   1  24
BRANCH   1  43
HETATM   43  N9  UNL     1       8.578  22.526  20.221  1.00  0.00    -0.389 N 
ATOM     44  H9  UNL     1       8.242  23.116  19.460  1.00  0.00     0.159 HD
BRANCH  43  45
HETATM   45  C16 UNL     1       8.024  21.256  20.355  1.00  0.00     0.121 C 
BRANCH  45  46
HETATM   46  C17 UNL     1       7.256  20.945  19.057  1.00  0.00     0.039 C 
BRANCH  46  47
HETATM   47  C18 UNL     1       6.947  22.227  18.321  1.00  0.00     0.123 C 
BRANCH  47  48
HETATM   48  N10 UNL     1       7.497  22.308  17.007  1.00  0.00    -0.373 N 
ATOM     49  H10 UNL     1       7.292  21.561  16.344  1.00  0.00     0.161 HD
BRANCH  48  50
HETATM   50  C19 UNL     1       8.253  23.300  16.617  1.00  0.00     0.156 A 
HETATM   51  N11 UNL     1       9.477  23.651  17.013  1.00  0.00    -0.223 N 
HETATM   52  O7  UNL     1       9.839  24.712  16.350  1.00  0.00    -0.155 OA
ATOM     53  H11 UNL     1      10.036  23.170  17.717  1.00  0.00     0.198 HD
HETATM   54  N12 UNL     1       8.913  25.092  15.525  1.00  0.00    -0.234 N 
HETATM   55  C20 UNL     1       7.891  24.226  15.661  1.00  0.00     0.154 A 
ATOM     56  H12 UNL     1       8.953  25.893  14.894  1.00  0.00     0.197 HD
BRANCH  55  57
HETATM   57  C21 UNL     1       6.636  24.258  14.939  1.00  0.00     0.196 A 
HETATM   58  N13 UNL     1       6.488  24.554  13.632  1.00  0.00    -0.276 N 
HETATM   59  N14 UNL     1       5.208  24.482  13.335  1.00  0.00    -0.288 N 
ATOM     60  H13 UNL     1       7.239  24.793  12.985  1.00  0.00     0.189 HD
HETATM   61  C22 UNL     1       4.572  24.141  14.469  1.00  0.00     0.251 A 
ATOM     62  H14 UNL     1       4.783  24.652  12.424  1.00  0.00     0.188 HD
HETATM   63  O8  UNL     1       5.455  24.013  15.417  1.00  0.00    -0.284 OA
ENDBRANCH  55  57
ENDBRANCH  48  50
ENDBRANCH  47  48
ENDBRANCH  46  47
ENDBRANCH  45  46
ENDBRANCH  43  45
ENDBRANCH   1  43
TORSDOF 17
ENDMDL
MODEL 3
REMARK VINA RESULT: -8.628023642      4.808      7.864
REMARK  17 active torsions:
REMARK  status: ('A' for Active; 'I' for Inactive)
REMARK    1  A    between atoms: N1_1  and  C1_4 
REMARK       I    between atoms: N5_14  and  C5_15 
REMARK    2  A    between atoms: C5_15  and  C6_17 
REMARK    3  A    between atoms: C6_17  and  O2_18 
REMARK    4  A    between atoms: C6_17  and  C7_21 
REMARK    5  A    between atoms: C7_21  and  C8_22 
REMARK    6  A    between atoms: C7_21  and  N9_41 
REMARK    7  A    between atoms: C8_22  and  N6_23 
REMARK    8  A    between atoms: C9_24  and  O3_25 
REMARK    9  A    between atoms: C10_27  and  C11_28 
REMARK   10  A    between atoms: C11_28  and  O4_29 
REMARK   11  A    between atoms: C11_28  and  O5_31 
REMARK   12  A    between atoms: N9_41  and  C16_43 
REMARK   13  A    between atoms: C16_43  and  C17_44 
REMARK   14  A    between atoms: C17_44  and  C18_45 
REMARK   15  A    between atoms: C18_45  and  N10_46 
REMARK   16  A    between atoms: N10_46  and  C19_48 
REMARK   17  A    between atoms: C20_54  and  C21_55 
ROOT
HETATM    1  C7  UNL     1       6.973  22.930  17.916  1.00  0.00     0.070 C 
ENDROOT
BRANCH   1   2
HETATM    2  C6  UNL     1       7.540  23.658  16.705  1.00  0.00     0.183 C 
HETATM    3  S1  UNL     1       8.823  24.810  16.988  1.00  0.00    -0.049 SA
BRANCH   2   4
HETATM    4  C5  UNL     1       6.368  24.304  16.014  1.00  0.00     0.308 C 
HETATM    5  N5  UNL     1       6.429  25.287  15.040  1.00  0.00    -0.207 N 
HETATM    6  N2  UNL     1       5.303  25.728  14.274  1.00  0.00    -0.057 N 
HETATM    7  C23 UNL     1       7.451  26.206  14.537  1.00  0.00     0.331 C 
HETATM    8  C3  UNL     1       5.445  27.079  14.121  1.00  0.00     0.187 A 
HETATM    9  C4  UNL     1       4.207  25.150  13.784  1.00  0.00     0.701 A 
HETATM   10  C2  UNL     1       4.488  27.830  13.493  1.00  0.00     0.107 A 
HETATM   11  O9  UNL     1       6.657  27.420  14.689  1.00  0.00    -0.312 OA
HETATM   12  C1  UNL     1       3.339  27.209  12.991  1.00  0.00     0.118 A 
HETATM   13  N4  UNL     1       3.235  25.894  13.151  1.00  0.00    -0.175 N 
ATOM     14  H4  UNL     1       2.407  25.418  12.791  1.00  0.00     0.186 HD
HETATM   15  N3  UNL     1       4.066  23.907  13.782  1.00  0.00    -0.233 N 
ATOM     16  H32 UNL     1       4.785  23.357  14.251  1.00  0.00     0.174 HD
ATOM     17  H31 UNL     1       3.226  23.466  13.408  1.00  0.00     0.174 HD
HETATM   18  O1  UNL     1       5.262  23.799  16.465  1.00  0.00    -0.262 OA
BRANCH  12  19
HETATM   19  N1  UNL     1       2.403  27.911  12.398  1.00  0.00    -0.385 N 
ATOM     20  H12 UNL     1       2.141  28.841  12.723  1.00  0.00     0.157 HD
ATOM     21  H11 UNL     1       1.915  27.542  11.582  1.00  0.00     0.157 HD
ENDBRANCH  12  19
ENDBRANCH   2   4
BRANCH   2  22
HETATM   22  O2  UNL     1       7.975  22.659  15.782  1.00  0.00    -0.348 OA
ATOM     23  H2  UNL     1       7.512  21.876  16.059  1.00  0.00     0.218 HD
ENDBRANCH   2  22
ENDBRANCH   1   2
BRANCH   1  24
HETATM   24  C8  UNL     1       7.031  23.794  19.105  1.00  0.00     0.196 C 
BRANCH  24  25
HETATM   25  N6  UNL     1       5.804  24.015  19.829  1.00  0.00    -0.273 N 
HETATM   26  C9  UNL     1       5.261  23.117  20.637  1.00  0.00     0.161 A 
HETATM   27  C10 UNL     1       4.060  23.316  21.308  1.00  0.00     0.092 A 
HETATM   28  C12 UNL     1       3.425  24.519  21.105  1.00  0.00     0.131 A 
HETATM   29  N7  UNL     1       2.269  24.985  21.611  1.00  0.00    -0.350 N 
HETATM   30  N8  UNL     1       3.979  25.429  20.284  1.00  0.00    -0.258 N 
HETATM   31  C13 UNL     1       2.065  26.221  21.113  1.00  0.00     0.107 A 
ATOM     32  H7  UNL     1       1.656  24.490  22.258  1.00  0.00     0.166 HD
HETATM   33  C14 UNL     1       3.132  26.500  20.285  1.00  0.00     0.120 A 
HETATM   34  C15 UNL     1       5.147  25.202  19.648  1.00  0.00     0.336 A 
HETATM   35  O6  UNL     1       5.598  26.105  18.899  1.00  0.00    -0.246 OA
BRANCH  26  36
HETATM   36  O3  UNL     1       5.868  21.898  20.877  1.00  0.00    -0.345 OA
ATOM     37  H3  UNL     1       6.669  21.832  21.385  1.00  0.00     0.219 HD
ENDBRANCH  26  36
BRANCH  27  38
HETATM   38  C11 UNL     1       3.487  22.277  22.210  1.00  0.00     0.296 C 
BRANCH  38  39
HETATM   39  O4  UNL     1       3.236  22.810  23.481  1.00  0.00    -0.367 OA
ATOM     40  H4  UNL     1       2.302  22.853  23.648  1.00  0.00     0.213 HD
ENDBRANCH  38  39
BRANCH  38  41
HETATM   41  O5  UNL     1       2.409  21.627  21.667  1.00  0.00    -0.367 OA
ATOM     42  H5  UNL     1       1.589  22.088  21.798  1.00  0.00     0.213 HD
ENDBRANCH  38  41
ENDBRANCH  27  38
ENDBRANCH  24  25
ENDBRANCH   1  24
BRANCH   1  43
HETATM   43  N9  UNL     1       7.248  21.570  17.974  1.00  0.00    -0.389 N 
ATOM     44  H9  UNL     1       6.760  20.957  17.320  1.00  0.00     0.159 HD
BRANCH  43  45
HETATM   45  C16 UNL     1       8.146  20.990  18.866  1.00  0.00     0.121 C 
BRANCH  45  46
HETATM   46  C17 UNL     1       9.535  21.003  18.201  1.00  0.00     0.039 C 
BRANCH  46  47
HETATM   47  C18 UNL     1      10.449  21.952  18.939  1.00  0.00     0.123 C 
BRANCH  47  48
HETATM   48  N10 UNL     1      10.040  22.260  20.271  1.00  0.00    -0.373 N 
ATOM     49  H10 UNL     1       9.051  22.183  20.509  1.00  0.00     0.161 HD
BRANCH  48  50
HETATM   50  C19 UNL     1      10.880  22.635  21.199  1.00  0.00     0.156 A 
HETATM   51  N11 UNL     1      12.110  22.197  21.469  1.00  0.00    -0.223 N 
HETATM   52  O7  UNL     1      12.572  22.862  22.488  1.00  0.00    -0.155 OA
ATOM     53  H11 UNL     1      12.606  21.464  20.962  1.00  0.00     0.198 HD
HETATM   54  N12 UNL     1      11.708  23.729  22.919  1.00  0.00    -0.234 N 
HETATM   55  C20 UNL     1      10.622  23.619  22.131  1.00  0.00     0.154 A 
ATOM     56  H12 UNL     1      11.830  24.370  23.703  1.00  0.00     0.197 HD
BRANCH  55  57
HETATM   57  C21 UNL     1       9.401  24.390  22.239  1.00  0.00     0.196 A 
HETATM   58  N13 UNL     1       9.180  25.595  21.677  1.00  0.00    -0.276 N 
HETATM   59  N14 UNL     1       7.962  25.981  21.994  1.00  0.00    -0.288 N 
ATOM     60  H13 UNL     1       9.841  26.118  21.104  1.00  0.00     0.189 HD
HETATM   61  C22 UNL     1       7.439  25.005  22.756  1.00  0.00     0.251 A 
ATOM     62  H14 UNL     1       7.506  26.850  21.717  1.00  0.00     0.188 HD
HETATM   63  O8  UNL     1       8.326  24.062  22.887  1.00  0.00    -0.284 OA
ENDBRANCH  55  57
ENDBRANCH  48  50
ENDBRANCH  47  48
ENDBRANCH  46  47
ENDBRANCH  45  46
ENDBRANCH  43  45
ENDBRANCH   1  43
TORSDOF 17
ENDMDL
MODEL 4
REMARK VINA RESULT: -8.607193856      4.214      7.514
REMARK  17 active torsions:
REMARK  status: ('A' for Active; 'I' for Inactive)
REMARK    1  A    between atoms: N1_1  and  C1_4 
REMARK       I    between atoms: N5_14  and  C5_15 
REMARK    2  A    between atoms: C5_15  and  C6_17 
REMARK    3  A    between atoms: C6_17  and  O2_18 
REMARK    4  A    between atoms: C6_17  and  C7_21 
REMARK    5  A    between atoms: C7_21  and  C8_22 
REMARK    6  A    between atoms: C7_21  and  N9_41 
REMARK    7  A    between atoms: C8_22  and  N6_23 
REMARK    8  A    between atoms: C9_24  and  O3_25 
REMARK    9  A    between atoms: C10_27  and  C11_28 
REMARK   10  A    between atoms: C11_28  and  O4_29 
REMARK   11  A    between atoms: C11_28  and  O5_31 
REMARK   12  A    between atoms: N9_41  and  C16_43 
REMARK   13  A    between atoms: C16_43  and  C17_44 
REMARK   14  A    between atoms: C17_44  and  C18_45 
REMARK   15  A    between atoms: C18_45  and  N10_46 
REMARK   16  A    between atoms: N10_46  and  C19_48 
REMARK   17  A    between atoms: C20_54  and  C21_55 
ROOT
HETATM    1  C7  UNL     1       7.011  22.989  17.951  1.00  0.00     0.070 C 
ENDROOT
BRANCH   1   2
HETATM    2  C6  UNL     1       7.563  23.749  16.753  1.00  0.00     0.183 C 
HETATM    3  S1  UNL     1       8.794  24.950  17.061  1.00  0.00    -0.049 SA
BRANCH   2   4
HETATM    4  C5  UNL     1       6.374  24.353  16.054  1.00  0.00     0.308 C 
HETATM    5  N5  UNL     1       6.408  25.323  15.065  1.00  0.00    -0.207 N 
HETATM    6  N2  UNL     1       5.271  25.722  14.293  1.00  0.00    -0.057 N 
HETATM    7  C23 UNL     1       7.405  26.263  14.549  1.00  0.00     0.331 C 
HETATM    8  C3  UNL     1       5.375  27.074  14.121  1.00  0.00     0.187 A 
HETATM    9  C4  UNL     1       4.190  25.108  13.812  1.00  0.00     0.701 A 
HETATM   10  C2  UNL     1       4.399  27.790  13.482  1.00  0.00     0.107 A 
HETATM   11  O9  UNL     1       6.578  27.456  14.684  1.00  0.00    -0.312 OA
HETATM   12  C1  UNL     1       3.267  27.130  12.990  1.00  0.00     0.118 A 
HETATM   13  N4  UNL     1       3.199  25.816  13.168  1.00  0.00    -0.175 N 
ATOM     14  H4  UNL     1       2.385  25.312  12.816  1.00  0.00     0.186 HD
HETATM   15  N3  UNL     1       4.084  23.862  13.828  1.00  0.00    -0.233 N 
ATOM     16  H32 UNL     1       4.817  23.338  14.304  1.00  0.00     0.174 HD
ATOM     17  H31 UNL     1       3.256  23.392  13.461  1.00  0.00     0.174 HD
HETATM   18  O1  UNL     1       5.283  23.825  16.511  1.00  0.00    -0.262 OA
BRANCH  12  19
HETATM   19  N1  UNL     1       2.312  27.798  12.387  1.00  0.00    -0.385 N 
ATOM     20  H12 UNL     1       2.450  28.751  12.053  1.00  0.00     0.157 HD
ATOM     21  H11 UNL     1       1.400  27.371  12.228  1.00  0.00     0.157 HD
ENDBRANCH  12  19
ENDBRANCH   2   4
BRANCH   2  22
HETATM   22  O2  UNL     1       8.049  22.777  15.827  1.00  0.00    -0.348 OA
ATOM     23  H2  UNL     1       8.568  22.189  16.365  1.00  0.00     0.218 HD
ENDBRANCH   2  22
ENDBRANCH   1   2
BRANCH   1  24
HETATM   24  C8  UNL     1       7.056  23.831  19.156  1.00  0.00     0.196 C 
BRANCH  24  25
HETATM   25  N6  UNL     1       5.820  24.039  19.868  1.00  0.00    -0.273 N 
HETATM   26  C9  UNL     1       5.272  23.132  20.663  1.00  0.00     0.161 A 
HETATM   27  C10 UNL     1       4.063  23.319  21.322  1.00  0.00     0.092 A 
HETATM   28  C12 UNL     1       3.424  24.521  21.122  1.00  0.00     0.131 A 
HETATM   29  N7  UNL     1       2.261  24.977  21.620  1.00  0.00    -0.350 N 
HETATM   30  N8  UNL     1       3.983  25.441  20.315  1.00  0.00    -0.258 N 
HETATM   31  C13 UNL     1       2.056  26.217  21.131  1.00  0.00     0.107 A 
ATOM     32  H7  UNL     1       1.643  24.474  22.256  1.00  0.00     0.166 HD
HETATM   33  C14 UNL     1       3.131  26.508  20.317  1.00  0.00     0.120 A 
HETATM   34  C15 UNL     1       5.159  25.225  19.691  1.00  0.00     0.336 A 
HETATM   35  O6  UNL     1       5.614  26.136  18.954  1.00  0.00    -0.246 OA
BRANCH  26  36
HETATM   36  O3  UNL     1       5.882  21.913  20.898  1.00  0.00    -0.345 OA
ATOM     37  H3  UNL     1       5.376  21.134  21.098  1.00  0.00     0.219 HD
ENDBRANCH  26  36
BRANCH  27  38
HETATM   38  C11 UNL     1       3.485  22.270  22.208  1.00  0.00     0.296 C 
BRANCH  38  39
HETATM   39  O4  UNL     1       3.220  22.790  23.482  1.00  0.00    -0.367 OA
ATOM     40  H4  UNL     1       2.399  23.266  23.486  1.00  0.00     0.213 HD
ENDBRANCH  38  39
BRANCH  38  41
HETATM   41  O5  UNL     1       2.413  21.622  21.649  1.00  0.00    -0.367 OA
ATOM     42  H5  UNL     1       1.980  22.129  20.973  1.00  0.00     0.213 HD
ENDBRANCH  38  41
ENDBRANCH  27  38
ENDBRANCH  24  25
ENDBRANCH   1  24
BRANCH   1  43
HETATM   43  N9  UNL     1       7.312  21.633  17.983  1.00  0.00    -0.389 N 
ATOM     44  H9  UNL     1       6.834  21.023  17.320  1.00  0.00     0.159 HD
BRANCH  43  45
HETATM   45  C16 UNL     1       8.224  21.054  18.862  1.00  0.00     0.121 C 
BRANCH  45  46
HETATM   46  C17 UNL     1       9.588  21.000  18.148  1.00  0.00     0.039 C 
BRANCH  46  47
HETATM   47  C18 UNL     1      10.490  22.088  18.679  1.00  0.00     0.123 C 
BRANCH  47  48
HETATM   48  N10 UNL     1      10.893  21.918  20.038  1.00  0.00    -0.373 N 
ATOM     49  H10 UNL     1      11.089  20.976  20.376  1.00  0.00     0.161 HD
BRANCH  48  50
HETATM   50  C19 UNL     1      11.022  22.919  20.866  1.00  0.00     0.156 A 
HETATM   51  N11 UNL     1      10.372  24.083  20.912  1.00  0.00    -0.223 N 
HETATM   52  O7  UNL     1      10.835  24.777  21.911  1.00  0.00    -0.155 OA
ATOM     53  H11 UNL     1       9.636  24.380  20.271  1.00  0.00     0.198 HD
HETATM   54  N12 UNL     1      11.768  24.134  22.542  1.00  0.00    -0.234 N 
HETATM   55  C20 UNL     1      11.919  22.953  21.915  1.00  0.00     0.154 A 
ATOM     56  H12 UNL     1      12.287  24.461  23.357  1.00  0.00     0.197 HD
BRANCH  55  57
HETATM   57  C21 UNL     1      12.853  21.905  22.269  1.00  0.00     0.196 A 
HETATM   58  N13 UNL     1      13.266  21.609  23.518  1.00  0.00    -0.276 N 
HETATM   59  N14 UNL     1      14.110  20.602  23.445  1.00  0.00    -0.288 N 
ATOM     60  H13 UNL     1      12.974  22.083  24.371  1.00  0.00     0.189 HD
HETATM   61  C22 UNL     1      14.213  20.283  22.144  1.00  0.00     0.251 A 
ATOM     62  H14 UNL     1      14.592  20.152  24.224  1.00  0.00     0.188 HD
HETATM   63  O8  UNL     1      13.447  21.083  21.460  1.00  0.00    -0.284 OA
ENDBRANCH  55  57
ENDBRANCH  48  50
ENDBRANCH  47  48
ENDBRANCH  46  47
ENDBRANCH  45  46
ENDBRANCH  43  45
ENDBRANCH   1  43
TORSDOF 17
ENDMDL
MODEL 5
REMARK VINA RESULT: -8.521457449      3.839      8.411
REMARK  17 active torsions:
REMARK  status: ('A' for Active; 'I' for Inactive)
REMARK    1  A    between atoms: N1_1  and  C1_4 
REMARK       I    between atoms: N5_14  and  C5_15 
REMARK    2  A    between atoms: C5_15  and  C6_17 
REMARK    3  A    between atoms: C6_17  and  O2_18 
REMARK    4  A    between atoms: C6_17  and  C7_21 
REMARK    5  A    between atoms: C7_21  and  C8_22 
REMARK    6  A    between atoms: C7_21  and  N9_41 
REMARK    7  A    between atoms: C8_22  and  N6_23 
REMARK    8  A    between atoms: C9_24  and  O3_25 
REMARK    9  A    between atoms: C10_27  and  C11_28 
REMARK   10  A    between atoms: C11_28  and  O4_29 
REMARK   11  A    between atoms: C11_28  and  O5_31 
REMARK   12  A    between atoms: N9_41  and  C16_43 
REMARK   13  A    between atoms: C16_43  and  C17_44 
REMARK   14  A    between atoms: C17_44  and  C18_45 
REMARK   15  A    between atoms: C18_45  and  N10_46 
REMARK   16  A    between atoms: N10_46  and  C19_48 
REMARK   17  A    between atoms: C20_54  and  C21_55 
ROOT
HETATM    1  C7  UNL     1       9.517  22.973  21.306  1.00  0.00     0.070 C 
ENDROOT
BRANCH   1   2
HETATM    2  C6  UNL     1       9.109  24.218  22.082  1.00  0.00     0.183 C 
HETATM    3  S1  UNL     1       8.849  24.044  23.801  1.00  0.00    -0.049 SA
BRANCH   2   4
HETATM    4  C5  UNL     1       7.883  24.760  21.396  1.00  0.00     0.308 C 
HETATM    5  N5  UNL     1       6.568  24.554  21.780  1.00  0.00    -0.207 N 
HETATM    6  N2  UNL     1       5.450  25.247  21.218  1.00  0.00    -0.057 N 
HETATM    7  C23 UNL     1       5.868  23.636  22.681  1.00  0.00     0.331 C 
HETATM    8  C3  UNL     1       4.436  24.335  21.125  1.00  0.00     0.187 A 
HETATM    9  C4  UNL     1       5.238  26.474  20.742  1.00  0.00     0.701 A 
HETATM   10  C2  UNL     1       3.235  24.657  20.553  1.00  0.00     0.107 A 
HETATM   11  O9  UNL     1       4.898  23.166  21.699  1.00  0.00    -0.312 OA
HETATM   12  C1  UNL     1       3.032  25.948  20.052  1.00  0.00     0.118 A 
HETATM   13  N4  UNL     1       4.035  26.812  20.163  1.00  0.00    -0.175 N 
ATOM     14  H4  UNL     1       3.910  27.760  19.807  1.00  0.00     0.186 HD
HETATM   15  N3  UNL     1       6.074  27.391  20.899  1.00  0.00    -0.233 N 
ATOM     16  H32 UNL     1       6.965  27.140  21.328  1.00  0.00     0.174 HD
ATOM     17  H31 UNL     1       5.912  28.329  20.535  1.00  0.00     0.174 HD
HETATM   18  O1  UNL     1       8.234  25.469  20.369  1.00  0.00    -0.262 OA
BRANCH  12  19
HETATM   19  N1  UNL     1       1.894  26.276  19.487  1.00  0.00    -0.385 N 
ATOM     20  H12 UNL     1       1.700  27.229  19.181  1.00  0.00     0.157 HD
ATOM     21  H11 UNL     1       1.171  25.574  19.330  1.00  0.00     0.157 HD
ENDBRANCH  12  19
ENDBRANCH   2   4
BRANCH   2  22
HETATM   22  O2  UNL     1      10.107  25.210  21.836  1.00  0.00    -0.348 OA
ATOM     23  H2  UNL     1       9.868  25.569  20.989  1.00  0.00     0.218 HD
ENDBRANCH   2  22
ENDBRANCH   1   2
BRANCH   1  24
HETATM   24  C8  UNL     1      10.835  23.168  20.683  1.00  0.00     0.196 C 
BRANCH  24  25
HETATM   25  N6  UNL     1      11.885  22.249  21.044  1.00  0.00    -0.273 N 
HETATM   26  C9  UNL     1      12.252  21.226  20.287  1.00  0.00     0.161 A 
HETATM   27  C10 UNL     1      13.240  20.318  20.650  1.00  0.00     0.092 A 
HETATM   28  C12 UNL     1      13.853  20.519  21.866  1.00  0.00     0.131 A 
HETATM   29  N7  UNL     1      14.827  19.816  22.471  1.00  0.00    -0.350 N 
HETATM   30  N8  UNL     1      13.479  21.559  22.632  1.00  0.00    -0.258 N 
HETATM   31  C13 UNL     1      15.094  20.407  23.653  1.00  0.00     0.107 A 
ATOM     32  H7  UNL     1      15.284  18.983  22.101  1.00  0.00     0.166 HD
HETATM   33  C14 UNL     1      14.254  21.496  23.754  1.00  0.00     0.120 A 
HETATM   34  C15 UNL     1      12.515  22.420  22.247  1.00  0.00     0.336 A 
HETATM   35  O6  UNL     1      12.224  23.368  23.021  1.00  0.00    -0.246 OA
BRANCH  26  36
HETATM   36  O3  UNL     1      11.668  20.990  19.056  1.00  0.00    -0.345 OA
ATOM     37  H3  UNL     1      11.472  20.108  18.759  1.00  0.00     0.219 HD
ENDBRANCH  26  36
BRANCH  27  38
HETATM   38  C11 UNL     1      13.622  19.182  19.766  1.00  0.00     0.296 C 
BRANCH  38  39
HETATM   39  O4  UNL     1      14.566  19.591  18.815  1.00  0.00    -0.367 OA
ATOM     40  H4  UNL     1      15.379  19.113  18.923  1.00  0.00     0.213 HD
ENDBRANCH  38  39
BRANCH  38  41
HETATM   41  O5  UNL     1      13.996  18.059  20.460  1.00  0.00    -0.367 OA
ATOM     42  H5  UNL     1      13.344  17.774  21.089  1.00  0.00     0.213 HD
ENDBRANCH  38  41
ENDBRANCH  27  38
ENDBRANCH  24  25
ENDBRANCH   1  24
BRANCH   1  43
HETATM   43  N9  UNL     1       8.482  22.312  20.658  1.00  0.00    -0.389 N 
ATOM     44  H9  UNL     1       7.693  21.994  21.221  1.00  0.00     0.159 HD
BRANCH  43  45
HETATM   45  C16 UNL     1       8.451  22.057  19.289  1.00  0.00     0.121 C 
BRANCH  45  46
HETATM   46  C17 UNL     1       6.982  21.815  18.895  1.00  0.00     0.039 C 
BRANCH  46  47
HETATM   47  C18 UNL     1       6.493  22.941  18.015  1.00  0.00     0.123 C 
BRANCH  47  48
HETATM   48  N10 UNL     1       6.772  22.775  16.625  1.00  0.00    -0.373 N 
ATOM     49  H10 UNL     1       7.314  21.963  16.328  1.00  0.00     0.161 HD
BRANCH  48  50
HETATM   50  C19 UNL     1       6.363  23.620  15.717  1.00  0.00     0.156 A 
HETATM   51  N11 UNL     1       5.270  23.595  14.953  1.00  0.00    -0.223 N 
HETATM   52  O7  UNL     1       5.274  24.648  14.187  1.00  0.00    -0.155 OA
ATOM     53  H11 UNL     1       4.550  22.872  14.967  1.00  0.00     0.198 HD
HETATM   54  N12 UNL     1       6.323  25.382  14.399  1.00  0.00    -0.234 N 
HETATM   55  C20 UNL     1       7.040  24.769  15.360  1.00  0.00     0.154 A 
ATOM     56  H12 UNL     1       6.558  26.256  13.929  1.00  0.00     0.197 HD
BRANCH  55  57
HETATM   57  C21 UNL     1       8.294  25.226  15.919  1.00  0.00     0.196 A 
HETATM   58  N13 UNL     1       9.286  25.830  15.236  1.00  0.00    -0.276 N 
HETATM   59  N14 UNL     1      10.263  26.098  16.076  1.00  0.00    -0.288 N 
ATOM     60  H13 UNL     1       9.281  26.043  14.239  1.00  0.00     0.189 HD
HETATM   61  C22 UNL     1       9.863  25.654  17.280  1.00  0.00     0.251 A 
ATOM     62  H14 UNL     1      11.148  26.554  15.857  1.00  0.00     0.188 HD
HETATM   63  O8  UNL     1       8.676  25.134  17.156  1.00  0.00    -0.284 OA
ENDBRANCH  55  57
ENDBRANCH  48  50
ENDBRANCH  47  48
ENDBRANCH  46  47
ENDBRANCH  45  46
ENDBRANCH  43  45
ENDBRANCH   1  43
TORSDOF 17
ENDMDL
