MODEL 1
REMARK VINA RESULT: -9.290795712      0.000      0.000
REMARK  24 active torsions:
REMARK  status: ('A' for Active; 'I' for Inactive)
REMARK    1  A    between atoms: C2_2  and  O2_4 
REMARK    2  A    between atoms: O2_4  and  C3_5 
REMARK    3  A    between atoms: C3_5  and  C4_7 
REMARK    4  A    between atoms: C4_7  and  C5_8 
REMARK    5  A    between atoms: C6_9  and  O4_10 
REMARK    6  A    between atoms: C7_12  and  C8_13 
REMARK    7  A    between atoms: C8_13  and  O5_14 
REMARK    8  A    between atoms: C8_13  and  N1_16 
REMARK    9  A    between atoms: N1_16  and  C9_18 
REMARK   10  A    between atoms: C9_18  and  C11_20 
REMARK   11  A    between atoms: C11_20  and  O6_21 
REMARK   12  A    between atoms: C11_20  and  N2_23 
REMARK   13  A    between atoms: N2_23  and  C12_26 
REMARK   14  A    between atoms: C13_27  and  O7_28 
REMARK   15  A    between atoms: C14_30  and  O8_31 
REMARK   16  A    between atoms: O8_31  and  C15_32 
REMARK   17  A    between atoms: C17_35  and  O10_36 
REMARK   18  A    between atoms: O10_36  and  C18_37 
REMARK   19  A    between atoms: C20_40  and  O12_41 
REMARK   20  A    between atoms: O12_41  and  C21_42 
REMARK   21  A    between atoms: C23_45  and  O14_46 
REMARK   22  A    between atoms: C24_48  and  O15_49 
REMARK   23  A    between atoms: C25_51  and  O16_52 
REMARK   24  A    between atoms: C27_56  and  O18_57 
ROOT
HETATM    1  C9  UNL     1      14.212  20.389  21.634  1.00  0.00     0.036 C 
HETATM    2  C10 UNL     1      14.835  19.486  20.622  1.00  0.00     0.067 C 
ENDROOT
BRANCH   1   3
HETATM    3  N1  UNL     1      13.011  21.007  21.335  1.00  0.00    -0.363 N 
ATOM      4  H1  UNL     1      12.403  20.538  20.663  1.00  0.00     0.162 HD
BRANCH   3   5
HETATM    5  C8  UNL     1      12.557  22.212  21.870  1.00  0.00     0.258 C 
BRANCH   5   6
HETATM    6  C7  UNL     1      11.298  22.771  21.331  1.00  0.00     0.059 C 
HETATM    7  C6  UNL     1      10.735  22.124  20.226  1.00  0.00     0.088 C 
HETATM    8  C5  UNL     1       9.444  22.231  19.748  1.00  0.00     0.022 C 
HETATM    9  C27 UNL     1       8.373  22.950  20.312  1.00  0.00     0.128 C 
HETATM   10  C26 UNL     1       8.466  24.041  21.144  1.00  0.00     0.241 C 
HETATM   11  C25 UNL     1       9.609  24.577  21.742  1.00  0.00     0.153 C 
HETATM   12  O17 UNL     1       7.359  24.629  21.389  1.00  0.00    -0.282 OA
HETATM   13  C24 UNL     1      10.776  23.848  22.012  1.00  0.00     0.116 C 
BRANCH   7  14
HETATM   14  O4  UNL     1      11.571  21.284  19.540  1.00  0.00    -0.359 OA
ATOM     15  H4  UNL     1      12.484  21.288  19.804  1.00  0.00     0.217 HD
ENDBRANCH   7  14
BRANCH   8  16
HETATM   16  C4  UNL     1       9.053  21.566  18.480  1.00  0.00     0.156 C 
BRANCH  16  17
HETATM   17  C3  UNL     1       9.553  22.401  17.366  1.00  0.00     0.270 C 
HETATM   18  O3  UNL     1      10.636  22.126  16.821  1.00  0.00    -0.264 OA
BRANCH  17  19
HETATM   19  O2  UNL     1       8.846  23.524  16.889  1.00  0.00    -0.245 OA
BRANCH  19  20
HETATM   20  C2  UNL     1       9.336  24.819  16.990  1.00  0.00     0.262 C 
HETATM   21  C1  UNL     1       9.925  25.512  15.783  1.00  0.00     0.126 C 
HETATM   22  O1  UNL     1       9.288  25.419  18.062  1.00  0.00    -0.265 OA
ENDBRANCH  19  20
ENDBRANCH  17  19
ENDBRANCH  16  17
ENDBRANCH   8  16
BRANCH   9  23
HETATM   23  O18 UNL     1       7.106  22.475  19.968  1.00  0.00    -0.356 OA
ATOM     24  H18 UNL     1       6.967  21.552  20.143  1.00  0.00     0.218 HD
ENDBRANCH   9  23
BRANCH  11  25
HETATM   25  O16 UNL     1       9.527  25.893  22.062  1.00  0.00    -0.355 OA
ATOM     26  H16 UNL     1       9.063  26.500  21.498  1.00  0.00     0.218 HD
ENDBRANCH  11  25
BRANCH  13  27
HETATM   27  O15 UNL     1      11.457  24.313  23.123  1.00  0.00    -0.357 OA
ATOM     28  H15 UNL     1      12.368  24.561  23.019  1.00  0.00     0.217 HD
ENDBRANCH  13  27
ENDBRANCH   5   6
BRANCH   5  29
HETATM   29  O5  UNL     1      12.231  21.911  23.237  1.00  0.00    -0.372 OA
ATOM     30  H5  UNL     1      11.701  21.125  23.168  1.00  0.00     0.212 HD
ENDBRANCH   5  29
ENDBRANCH   3   5
ENDBRANCH   1   3
BRANCH   1  31
HETATM   31  C11 UNL     1      15.285  21.196  22.331  1.00  0.00     0.365 C 
BRANCH  31  32
HETATM   32  O6  UNL     1      16.320  21.404  21.461  1.00  0.00    -0.365 OA
ATOM     33  H6  UNL     1      17.141  21.290  21.925  1.00  0.00     0.212 HD
ENDBRANCH  31  32
BRANCH  31  34
HETATM   34  N2  UNL     1      15.764  20.411  23.447  1.00  0.00    -0.034 N 
ATOM     35  H22 UNL     1      16.581  19.862  23.182  1.00  0.00     0.281 HD
ATOM     36  H21 UNL     1      16.187  21.008  24.157  1.00  0.00     0.281 HD
BRANCH  34  37
HETATM   37  C12 UNL     1      14.744  19.570  24.022  1.00  0.00     0.251 C 
HETATM   38  C13 UNL     1      14.304  20.083  25.379  1.00  0.00     0.183 C 
HETATM   39  C14 UNL     1      15.390  19.940  26.406  1.00  0.00     0.195 C 
HETATM   40  C17 UNL     1      15.918  18.548  26.524  1.00  0.00     0.196 C 
HETATM   41  C20 UNL     1      15.406  17.599  25.490  1.00  0.00     0.195 C 
HETATM   42  C23 UNL     1      15.111  18.144  24.150  1.00  0.00     0.183 C 
BRANCH  38  43
HETATM   43  O7  UNL     1      13.970  21.414  25.234  1.00  0.00    -0.391 OA
ATOM     44  H7  UNL     1      14.361  21.889  25.957  1.00  0.00     0.210 HD
ENDBRANCH  38  43
BRANCH  39  45
HETATM   45  O8  UNL     1      14.999  20.532  27.622  1.00  0.00    -0.311 OA
BRANCH  45  46
HETATM   46  C15 UNL     1      15.686  21.517  28.268  1.00  0.00     0.255 C 
HETATM   47  C16 UNL     1      15.484  22.937  27.918  1.00  0.00     0.126 C 
HETATM   48  O9  UNL     1      16.497  21.228  29.168  1.00  0.00    -0.266 OA
ENDBRANCH  45  46
ENDBRANCH  39  45
BRANCH  40  49
HETATM   49  O10 UNL     1      17.326  18.541  26.390  1.00  0.00    -0.311 OA
BRANCH  49  50
HETATM   50  C18 UNL     1      18.206  18.327  27.450  1.00  0.00     0.255 C 
HETATM   51  C19 UNL     1      19.646  18.142  27.167  1.00  0.00     0.126 C 
HETATM   52  O11 UNL     1      17.725  18.302  28.599  1.00  0.00    -0.266 OA
ENDBRANCH  49  50
ENDBRANCH  40  49
BRANCH  41  53
HETATM   53  O12 UNL     1      14.208  16.996  25.959  1.00  0.00    -0.311 OA
BRANCH  53  54
HETATM   54  C21 UNL     1      14.190  15.666  26.426  1.00  0.00     0.255 C 
HETATM   55  C22 UNL     1      13.920  14.606  25.422  1.00  0.00     0.126 C 
HETATM   56  O13 UNL     1      14.400  15.494  27.626  1.00  0.00    -0.266 OA
ENDBRANCH  53  54
ENDBRANCH  41  53
BRANCH  42  57
HETATM   57  O14 UNL     1      14.162  17.332  23.487  1.00  0.00    -0.391 OA
ATOM     58  H14 UNL     1      14.567  16.525  23.193  1.00  0.00     0.210 HD
ENDBRANCH  42  57
ENDBRANCH  34  37
ENDBRANCH  31  34
ENDBRANCH   1  31
TORSDOF 24
ENDMDL
MODEL 2
REMARK VINA RESULT: -8.868265747      1.273      2.535
REMARK  24 active torsions:
REMARK  status: ('A' for Active; 'I' for Inactive)
REMARK    1  A    between atoms: C2_2  and  O2_4 
REMARK    2  A    between atoms: O2_4  and  C3_5 
REMARK    3  A    between atoms: C3_5  and  C4_7 
REMARK    4  A    between atoms: C4_7  and  C5_8 
REMARK    5  A    between atoms: C6_9  and  O4_10 
REMARK    6  A    between atoms: C7_12  and  C8_13 
REMARK    7  A    between atoms: C8_13  and  O5_14 
REMARK    8  A    between atoms: C8_13  and  N1_16 
REMARK    9  A    between atoms: N1_16  and  C9_18 
REMARK   10  A    between atoms: C9_18  and  C11_20 
REMARK   11  A    between atoms: C11_20  and  O6_21 
REMARK   12  A    between atoms: C11_20  and  N2_23 
REMARK   13  A    between atoms: N2_23  and  C12_26 
REMARK   14  A    between atoms: C13_27  and  O7_28 
REMARK   15  A    between atoms: C14_30  and  O8_31 
REMARK   16  A    between atoms: O8_31  and  C15_32 
REMARK   17  A    between atoms: C17_35  and  O10_36 
REMARK   18  A    between atoms: O10_36  and  C18_37 
REMARK   19  A    between atoms: C20_40  and  O12_41 
REMARK   20  A    between atoms: O12_41  and  C21_42 
REMARK   21  A    between atoms: C23_45  and  O14_46 
REMARK   22  A    between atoms: C24_48  and  O15_49 
REMARK   23  A    between atoms: C25_51  and  O16_52 
REMARK   24  A    between atoms: C27_56  and  O18_57 
ROOT
HETATM    1  C9  UNL     1      14.120  20.438  21.749  1.00  0.00     0.036 C 
HETATM    2  C10 UNL     1      14.621  19.762  20.516  1.00  0.00     0.067 C 
ENDROOT
BRANCH   1   3
HETATM    3  N1  UNL     1      12.890  21.068  21.718  1.00  0.00    -0.363 N 
ATOM      4  H1  UNL     1      12.062  20.474  21.774  1.00  0.00     0.162 HD
BRANCH   3   5
HETATM    5  C8  UNL     1      12.678  22.443  21.616  1.00  0.00     0.258 C 
BRANCH   5   6
HETATM    6  C7  UNL     1      11.350  22.900  21.153  1.00  0.00     0.059 C 
HETATM    7  C6  UNL     1      10.778  22.212  20.077  1.00  0.00     0.088 C 
HETATM    8  C5  UNL     1       9.457  22.217  19.674  1.00  0.00     0.022 C 
HETATM    9  C27 UNL     1       8.367  22.848  20.301  1.00  0.00     0.128 C 
HETATM   10  C26 UNL     1       8.420  23.942  21.133  1.00  0.00     0.241 C 
HETATM   11  C25 UNL     1       9.549  24.566  21.668  1.00  0.00     0.153 C 
HETATM   12  O17 UNL     1       7.286  24.439  21.443  1.00  0.00    -0.282 OA
HETATM   13  C24 UNL     1      10.783  23.932  21.867  1.00  0.00     0.116 C 
BRANCH   7  14
HETATM   14  O4  UNL     1      11.637  21.441  19.341  1.00  0.00    -0.359 OA
ATOM     15  H4  UNL     1      11.505  20.501  19.382  1.00  0.00     0.217 HD
ENDBRANCH   7  14
BRANCH   8  16
HETATM   16  C4  UNL     1       9.049  21.523  18.427  1.00  0.00     0.156 C 
BRANCH  16  17
HETATM   17  C3  UNL     1       9.490  22.359  17.288  1.00  0.00     0.270 C 
HETATM   18  O3  UNL     1      10.541  22.081  16.686  1.00  0.00    -0.264 OA
BRANCH  17  19
HETATM   19  O2  UNL     1       8.762  23.484  16.850  1.00  0.00    -0.245 OA
BRANCH  19  20
HETATM   20  C2  UNL     1       9.242  24.781  16.964  1.00  0.00     0.262 C 
HETATM   21  C1  UNL     1       9.843  25.483  15.768  1.00  0.00     0.126 C 
HETATM   22  O1  UNL     1       9.177  25.375  18.038  1.00  0.00    -0.265 OA
ENDBRANCH  19  20
ENDBRANCH  17  19
ENDBRANCH  16  17
ENDBRANCH   8  16
BRANCH   9  23
HETATM   23  O18 UNL     1       7.124  22.274  20.027  1.00  0.00    -0.356 OA
ATOM     24  H18 UNL     1       6.382  22.737  20.398  1.00  0.00     0.218 HD
ENDBRANCH   9  23
BRANCH  11  25
HETATM   25  O16 UNL     1       9.381  25.871  22.000  1.00  0.00    -0.355 OA
ATOM     26  H16 UNL     1       9.423  26.548  21.335  1.00  0.00     0.218 HD
ENDBRANCH  11  25
BRANCH  13  27
HETATM   27  O15 UNL     1      11.487  24.448  22.940  1.00  0.00    -0.357 OA
ATOM     28  H15 UNL     1      12.391  24.708  22.802  1.00  0.00     0.217 HD
ENDBRANCH  13  27
ENDBRANCH   5   6
BRANCH   5  29
HETATM   29  O5  UNL     1      12.745  22.928  22.967  1.00  0.00    -0.372 OA
ATOM     30  H5  UNL     1      12.197  22.318  23.448  1.00  0.00     0.212 HD
ENDBRANCH   5  29
ENDBRANCH   3   5
ENDBRANCH   1   3
BRANCH   1  31
HETATM   31  C11 UNL     1      15.266  21.127  22.457  1.00  0.00     0.365 C 
BRANCH  31  32
HETATM   32  O6  UNL     1      16.371  21.093  21.652  1.00  0.00    -0.365 OA
ATOM     33  H6  UNL     1      17.138  21.303  22.172  1.00  0.00     0.212 HD
ENDBRANCH  31  32
BRANCH  31  34
HETATM   34  N2  UNL     1      15.544  20.378  23.663  1.00  0.00    -0.034 N 
ATOM     35  H22 UNL     1      15.424  19.378  23.507  1.00  0.00     0.281 HD
ATOM     36  H21 UNL     1      16.540  20.394  23.880  1.00  0.00     0.281 HD
BRANCH  34  37
HETATM   37  C12 UNL     1      14.764  20.820  24.792  1.00  0.00     0.251 C 
HETATM   38  C13 UNL     1      15.581  20.806  26.069  1.00  0.00     0.183 C 
HETATM   39  C14 UNL     1      15.916  19.407  26.498  1.00  0.00     0.195 C 
HETATM   40  C17 UNL     1      14.721  18.523  26.638  1.00  0.00     0.196 C 
HETATM   41  C20 UNL     1      13.442  19.129  26.159  1.00  0.00     0.195 C 
HETATM   42  C23 UNL     1      13.513  20.065  25.019  1.00  0.00     0.183 C 
BRANCH  38  43
HETATM   43  O7  UNL     1      16.740  21.514  25.830  1.00  0.00    -0.391 OA
ATOM     44  H7  UNL     1      16.802  22.195  26.489  1.00  0.00     0.210 HD
ENDBRANCH  38  43
BRANCH  39  45
HETATM   45  O8  UNL     1      16.774  19.427  27.614  1.00  0.00    -0.311 OA
BRANCH  45  46
HETATM   46  C15 UNL     1      17.793  18.548  27.833  1.00  0.00     0.255 C 
HETATM   47  C16 UNL     1      18.844  18.337  26.818  1.00  0.00     0.126 C 
HETATM   48  O9  UNL     1      17.849  17.907  28.900  1.00  0.00    -0.266 OA
ENDBRANCH  45  46
ENDBRANCH  39  45
BRANCH  40  49
HETATM   49  O10 UNL     1      14.892  17.339  25.885  1.00  0.00    -0.311 OA
BRANCH  49  50
HETATM   50  C18 UNL     1      14.088  16.208  26.022  1.00  0.00     0.255 C 
HETATM   51  C19 UNL     1      13.488  15.598  24.815  1.00  0.00     0.126 C 
HETATM   52  O11 UNL     1      13.912  15.764  27.172  1.00  0.00    -0.266 OA
ENDBRANCH  49  50
ENDBRANCH  40  49
BRANCH  41  53
HETATM   53  O12 UNL     1      12.827  19.832  27.229  1.00  0.00    -0.311 OA
BRANCH  53  54
HETATM   54  C21 UNL     1      11.841  19.228  28.035  1.00  0.00     0.255 C 
HETATM   55  C22 UNL     1      11.137  18.052  27.466  1.00  0.00     0.126 C 
HETATM   56  O13 UNL     1      11.648  19.724  29.145  1.00  0.00    -0.266 OA
ENDBRANCH  53  54
ENDBRANCH  41  53
BRANCH  42  57
HETATM   57  O14 UNL     1      12.406  20.943  25.035  1.00  0.00    -0.391 OA
ATOM     58  H14 UNL     1      12.648  21.783  24.664  1.00  0.00     0.210 HD
ENDBRANCH  42  57
ENDBRANCH  34  37
ENDBRANCH  31  34
ENDBRANCH   1  31
TORSDOF 24
ENDMDL
MODEL 3
REMARK VINA RESULT: -8.747218503      5.432     12.882
REMARK  24 active torsions:
REMARK  status: ('A' for Active; 'I' for Inactive)
REMARK    1  A    between atoms: C2_2  and  O2_4 
REMARK    2  A    between atoms: O2_4  and  C3_5 
REMARK    3  A    between atoms: C3_5  and  C4_7 
REMARK    4  A    between atoms: C4_7  and  C5_8 
REMARK    5  A    between atoms: C6_9  and  O4_10 
REMARK    6  A    between atoms: C7_12  and  C8_13 
REMARK    7  A    between atoms: C8_13  and  O5_14 
REMARK    8  A    between atoms: C8_13  and  N1_16 
REMARK    9  A    between atoms: N1_16  and  C9_18 
REMARK   10  A    between atoms: C9_18  and  C11_20 
REMARK   11  A    between atoms: C11_20  and  O6_21 
REMARK   12  A    between atoms: C11_20  and  N2_23 
REMARK   13  A    between atoms: N2_23  and  C12_26 
REMARK   14  A    between atoms: C13_27  and  O7_28 
REMARK   15  A    between atoms: C14_30  and  O8_31 
REMARK   16  A    between atoms: O8_31  and  C15_32 
REMARK   17  A    between atoms: C17_35  and  O10_36 
REMARK   18  A    between atoms: O10_36  and  C18_37 
REMARK   19  A    between atoms: C20_40  and  O12_41 
REMARK   20  A    between atoms: O12_41  and  C21_42 
REMARK   21  A    between atoms: C23_45  and  O14_46 
REMARK   22  A    between atoms: C24_48  and  O15_49 
REMARK   23  A    between atoms: C25_51  and  O16_52 
REMARK   24  A    between atoms: C27_56  and  O18_57 
ROOT
HETATM    1  C9  UNL     1       8.581  24.859  15.873  1.00  0.00     0.036 C 
HETATM    2  C10 UNL     1       9.394  26.031  15.435  1.00  0.00     0.067 C 
ENDROOT
BRANCH   1   3
HETATM    3  N1  UNL     1       9.225  23.686  16.222  1.00  0.00    -0.363 N 
ATOM      4  H1  UNL     1       9.231  22.937  15.529  1.00  0.00     0.162 HD
BRANCH   3   5
HETATM    5  C8  UNL     1       9.867  23.436  17.434  1.00  0.00     0.258 C 
BRANCH   5   6
HETATM    6  C7  UNL     1       9.020  23.210  18.626  1.00  0.00     0.059 C 
HETATM    7  C6  UNL     1       9.155  24.115  19.684  1.00  0.00     0.088 C 
HETATM    8  C5  UNL     1       8.287  24.324  20.737  1.00  0.00     0.022 C 
HETATM    9  C27 UNL     1       7.025  23.736  20.942  1.00  0.00     0.128 C 
HETATM   10  C26 UNL     1       6.591  22.530  20.443  1.00  0.00     0.241 C 
HETATM   11  C25 UNL     1       7.220  21.705  19.507  1.00  0.00     0.153 C 
HETATM   12  O17 UNL     1       5.471  22.126  20.905  1.00  0.00    -0.282 OA
HETATM   13  C24 UNL     1       8.139  22.155  18.549  1.00  0.00     0.116 C 
BRANCH   7  14
HETATM   14  O4  UNL     1      10.289  24.883  19.668  1.00  0.00    -0.359 OA
ATOM     15  H4  UNL     1      10.864  24.805  20.421  1.00  0.00     0.217 HD
ENDBRANCH   7  14
BRANCH   8  16
HETATM   16  C4  UNL     1       8.654  25.240  21.845  1.00  0.00     0.156 C 
BRANCH  16  17
HETATM   17  C3  UNL     1       9.452  24.463  22.820  1.00  0.00     0.270 C 
HETATM   18  O3  UNL     1       9.450  24.785  24.020  1.00  0.00    -0.264 OA
BRANCH  17  19
HETATM   19  O2  UNL     1      10.236  23.355  22.440  1.00  0.00    -0.245 OA
BRANCH  19  20
HETATM   20  C2  UNL     1      11.623  23.390  22.413  1.00  0.00     0.262 C 
HETATM   21  C1  UNL     1      12.415  22.141  22.096  1.00  0.00     0.126 C 
HETATM   22  O1  UNL     1      12.222  24.439  22.639  1.00  0.00    -0.265 OA
ENDBRANCH  19  20
ENDBRANCH  17  19
ENDBRANCH  16  17
ENDBRANCH   8  16
BRANCH   9  23
HETATM   23  O18 UNL     1       6.155  24.484  21.737  1.00  0.00    -0.356 OA
ATOM     24  H18 UNL     1       6.388  24.518  22.657  1.00  0.00     0.218 HD
ENDBRANCH   9  23
BRANCH  11  25
HETATM   25  O16 UNL     1       6.880  20.393  19.577  1.00  0.00    -0.355 OA
ATOM     26  H16 UNL     1       6.290  20.013  18.938  1.00  0.00     0.218 HD
ENDBRANCH  11  25
BRANCH  13  27
HETATM   27  O15 UNL     1       8.116  21.404  17.387  1.00  0.00    -0.357 OA
ATOM     28  H15 UNL     1       7.304  20.974  17.146  1.00  0.00     0.217 HD
ENDBRANCH  13  27
ENDBRANCH   5   6
BRANCH   5  29
HETATM   29  O5  UNL     1      10.525  22.171  17.249  1.00  0.00    -0.372 OA
ATOM     30  H5  UNL     1      11.346  22.409  16.833  1.00  0.00     0.212 HD
ENDBRANCH   5  29
ENDBRANCH   3   5
ENDBRANCH   1   3
BRANCH   1  31
HETATM   31  C11 UNL     1       7.320  24.770  15.041  1.00  0.00     0.365 C 
BRANCH  31  32
HETATM   32  O6  UNL     1       7.414  23.688  14.208  1.00  0.00    -0.365 OA
ATOM     33  H6  UNL     1       6.599  23.200  14.244  1.00  0.00     0.212 HD
ENDBRANCH  31  32
BRANCH  31  34
HETATM   34  N2  UNL     1       7.243  25.971  14.239  1.00  0.00    -0.034 N 
ATOM     35  H22 UNL     1       7.408  26.800  14.809  1.00  0.00     0.281 HD
ATOM     36  H21 UNL     1       8.042  26.041  13.610  1.00  0.00     0.281 HD
BRANCH  34  37
HETATM   37  C12 UNL     1       6.004  26.084  13.512  1.00  0.00     0.251 C 
HETATM   38  C13 UNL     1       5.347  27.430  13.742  1.00  0.00     0.183 C 
HETATM   39  C14 UNL     1       4.852  27.573  15.152  1.00  0.00     0.195 C 
HETATM   40  C17 UNL     1       3.938  26.471  15.577  1.00  0.00     0.196 C 
HETATM   41  C20 UNL     1       3.824  25.347  14.600  1.00  0.00     0.195 C 
HETATM   42  C23 UNL     1       5.017  25.019  13.794  1.00  0.00     0.183 C 
BRANCH  38  43
HETATM   43  O7  UNL     1       6.287  28.404  13.475  1.00  0.00    -0.391 OA
ATOM     44  H7  UNL     1       6.246  29.042  14.177  1.00  0.00     0.210 HD
ENDBRANCH  38  43
BRANCH  39  45
HETATM   45  O8  UNL     1       4.358  28.873  15.371  1.00  0.00    -0.311 OA
BRANCH  45  46
HETATM   46  C15 UNL     1       4.897  29.779  16.235  1.00  0.00     0.255 C 
HETATM   47  C16 UNL     1       4.194  30.153  17.478  1.00  0.00     0.126 C 
HETATM   48  O9  UNL     1       5.997  30.306  15.984  1.00  0.00    -0.266 OA
ENDBRANCH  45  46
ENDBRANCH  39  45
BRANCH  40  49
HETATM   49  O10 UNL     1       4.394  25.890  16.783  1.00  0.00    -0.311 OA
BRANCH  49  50
HETATM   50  C18 UNL     1       4.129  26.415  18.047  1.00  0.00     0.255 C 
HETATM   51  C19 UNL     1       2.728  26.682  18.440  1.00  0.00     0.126 C 
HETATM   52  O11 UNL     1       5.103  26.638  18.792  1.00  0.00    -0.266 OA
ENDBRANCH  49  50
ENDBRANCH  40  49
BRANCH  41  53
HETATM   53  O12 UNL     1       2.775  25.625  13.685  1.00  0.00    -0.311 OA
BRANCH  53  54
HETATM   54  C21 UNL     1       1.599  24.848  13.656  1.00  0.00     0.255 C 
HETATM   55  C22 UNL     1       0.446  25.347  14.447  1.00  0.00     0.126 C 
HETATM   56  O13 UNL     1       1.626  23.822  12.977  1.00  0.00    -0.266 OA
ENDBRANCH  53  54
ENDBRANCH  41  53
BRANCH  42  57
HETATM   57  O14 UNL     1       4.638  24.372  12.596  1.00  0.00    -0.391 OA
ATOM     58  H14 UNL     1       4.046  23.654  12.783  1.00  0.00     0.210 HD
ENDBRANCH  42  57
ENDBRANCH  34  37
ENDBRANCH  31  34
ENDBRANCH   1  31
TORSDOF 24
ENDMDL
MODEL 4
REMARK VINA RESULT: -8.567806649      1.421      3.686
REMARK  24 active torsions:
REMARK  status: ('A' for Active; 'I' for Inactive)
REMARK    1  A    between atoms: C2_2  and  O2_4 
REMARK    2  A    between atoms: O2_4  and  C3_5 
REMARK    3  A    between atoms: C3_5  and  C4_7 
REMARK    4  A    between atoms: C4_7  and  C5_8 
REMARK    5  A    between atoms: C6_9  and  O4_10 
REMARK    6  A    between atoms: C7_12  and  C8_13 
REMARK    7  A    between atoms: C8_13  and  O5_14 
REMARK    8  A    between atoms: C8_13  and  N1_16 
REMARK    9  A    between atoms: N1_16  and  C9_18 
REMARK   10  A    between atoms: C9_18  and  C11_20 
REMARK   11  A    between atoms: C11_20  and  O6_21 
REMARK   12  A    between atoms: C11_20  and  N2_23 
REMARK   13  A    between atoms: N2_23  and  C12_26 
REMARK   14  A    between atoms: C13_27  and  O7_28 
REMARK   15  A    between atoms: C14_30  and  O8_31 
REMARK   16  A    between atoms: O8_31  and  C15_32 
REMARK   17  A    between atoms: C17_35  and  O10_36 
REMARK   18  A    between atoms: O10_36  and  C18_37 
REMARK   19  A    between atoms: C20_40  and  O12_41 
REMARK   20  A    between atoms: O12_41  and  C21_42 
REMARK   21  A    between atoms: C23_45  and  O14_46 
REMARK   22  A    between atoms: C24_48  and  O15_49 
REMARK   23  A    between atoms: C25_51  and  O16_52 
REMARK   24  A    between atoms: C27_56  and  O18_57 
ROOT
HETATM    1  C9  UNL     1      14.042  20.332  21.270  1.00  0.00     0.036 C 
HETATM    2  C10 UNL     1      14.898  19.942  20.112  1.00  0.00     0.067 C 
ENDROOT
BRANCH   1   3
HETATM    3  N1  UNL     1      12.854  21.000  21.033  1.00  0.00    -0.363 N 
ATOM      4  H1  UNL     1      12.214  20.582  20.357  1.00  0.00     0.162 HD
BRANCH   3   5
HETATM    5  C8  UNL     1      12.453  22.192  21.634  1.00  0.00     0.258 C 
BRANCH   5   6
HETATM    6  C7  UNL     1      11.184  22.799  21.176  1.00  0.00     0.059 C 
HETATM    7  C6  UNL     1      10.551  22.203  20.079  1.00  0.00     0.088 C 
HETATM    8  C5  UNL     1       9.242  22.358  19.669  1.00  0.00     0.022 C 
HETATM    9  C27 UNL     1       8.220  23.084  20.306  1.00  0.00     0.128 C 
HETATM   10  C26 UNL     1       8.381  24.145  21.167  1.00  0.00     0.241 C 
HETATM   11  C25 UNL     1       9.565  24.633  21.725  1.00  0.00     0.153 C 
HETATM   12  O17 UNL     1       7.303  24.752  21.484  1.00  0.00    -0.282 OA
HETATM   13  C24 UNL     1      10.724  23.867  21.914  1.00  0.00     0.116 C 
BRANCH   7  14
HETATM   14  O4  UNL     1      11.331  21.365  19.327  1.00  0.00    -0.359 OA
ATOM     15  H4  UNL     1      12.269  21.411  19.478  1.00  0.00     0.217 HD
ENDBRANCH   7  14
BRANCH   8  16
HETATM   16  C4  UNL     1       8.774  21.744  18.402  1.00  0.00     0.156 C 
BRANCH  16  17
HETATM   17  C3  UNL     1       9.354  22.525  17.287  1.00  0.00     0.270 C 
HETATM   18  O3  UNL     1      10.410  22.151  16.750  1.00  0.00    -0.264 OA
BRANCH  17  19
HETATM   19  O2  UNL     1       8.754  23.705  16.800  1.00  0.00    -0.245 OA
BRANCH  19  20
HETATM   20  C2  UNL     1       9.344  24.956  16.928  1.00  0.00     0.262 C 
HETATM   21  C1  UNL     1       9.984  25.626  15.733  1.00  0.00     0.126 C 
HETATM   22  O1  UNL     1       9.344  25.534  18.012  1.00  0.00    -0.265 OA
ENDBRANCH  19  20
ENDBRANCH  17  19
ENDBRANCH  16  17
ENDBRANCH   8  16
BRANCH   9  23
HETATM   23  O18 UNL     1       6.925  22.653  20.010  1.00  0.00    -0.356 OA
ATOM     24  H18 UNL     1       6.294  23.350  19.882  1.00  0.00     0.218 HD
ENDBRANCH   9  23
BRANCH  11  25
HETATM   25  O16 UNL     1       9.533  25.939  22.090  1.00  0.00    -0.355 OA
ATOM     26  H16 UNL     1       8.933  26.543  21.671  1.00  0.00     0.218 HD
ENDBRANCH  11  25
BRANCH  13  27
HETATM   27  O15 UNL     1      11.469  24.278  23.005  1.00  0.00    -0.357 OA
ATOM     28  H15 UNL     1      12.040  23.644  23.423  1.00  0.00     0.217 HD
ENDBRANCH  13  27
ENDBRANCH   5   6
BRANCH   5  29
HETATM   29  O5  UNL     1      12.180  21.843  23.001  1.00  0.00    -0.372 OA
ATOM     30  H5  UNL     1      13.046  21.760  23.385  1.00  0.00     0.212 HD
ENDBRANCH   5  29
ENDBRANCH   3   5
ENDBRANCH   1   3
BRANCH   1  31
HETATM   31  C11 UNL     1      14.912  20.794  22.418  1.00  0.00     0.365 C 
BRANCH  31  32
HETATM   32  O6  UNL     1      16.197  20.380  22.196  1.00  0.00    -0.365 OA
ATOM     33  H6  UNL     1      16.784  20.891  22.741  1.00  0.00     0.212 HD
ENDBRANCH  31  32
BRANCH  31  34
HETATM   34  N2  UNL     1      14.417  20.160  23.620  1.00  0.00    -0.034 N 
ATOM     35  H22 UNL     1      13.502  20.529  23.877  1.00  0.00     0.281 HD
ATOM     36  H21 UNL     1      14.160  19.190  23.440  1.00  0.00     0.281 HD
BRANCH  34  37
HETATM   37  C12 UNL     1      15.338  20.252  24.725  1.00  0.00     0.251 C 
HETATM   38  C13 UNL     1      15.635  18.888  25.314  1.00  0.00     0.183 C 
HETATM   39  C14 UNL     1      14.435  18.309  26.006  1.00  0.00     0.195 C 
HETATM   40  C17 UNL     1      13.855  19.209  27.047  1.00  0.00     0.196 C 
HETATM   41  C20 UNL     1      14.453  20.577  27.089  1.00  0.00     0.195 C 
HETATM   42  C23 UNL     1      14.916  21.159  25.814  1.00  0.00     0.183 C 
BRANCH  38  43
HETATM   43  O7  UNL     1      16.024  18.062  24.280  1.00  0.00    -0.391 OA
ATOM     44  H7  UNL     1      15.884  17.166  24.561  1.00  0.00     0.210 HD
ENDBRANCH  38  43
BRANCH  39  45
HETATM   45  O8  UNL     1      14.701  16.995  26.437  1.00  0.00    -0.311 OA
BRANCH  45  46
HETATM   46  C15 UNL     1      13.855  15.937  26.287  1.00  0.00     0.255 C 
HETATM   47  C16 UNL     1      13.361  15.544  24.952  1.00  0.00     0.126 C 
HETATM   48  O9  UNL     1      13.487  15.283  27.281  1.00  0.00    -0.266 OA
ENDBRANCH  45  46
ENDBRANCH  39  45
BRANCH  40  49
HETATM   49  O10 UNL     1      12.472  19.400  26.819  1.00  0.00    -0.311 OA
BRANCH  49  50
HETATM   50  C18 UNL     1      11.470  18.826  27.601  1.00  0.00     0.255 C 
HETATM   51  C19 UNL     1      10.681  17.701  27.054  1.00  0.00     0.126 C 
HETATM   52  O11 UNL     1      11.287  19.300  28.739  1.00  0.00    -0.266 OA
ENDBRANCH  49  50
ENDBRANCH  40  49
BRANCH  41  53
HETATM   53  O12 UNL     1      15.570  20.573  27.966  1.00  0.00    -0.311 OA
BRANCH  53  54
HETATM   54  C21 UNL     1      15.668  21.488  29.034  1.00  0.00     0.255 C 
HETATM   55  C22 UNL     1      17.002  21.641  29.666  1.00  0.00     0.126 C 
HETATM   56  O13 UNL     1      14.639  22.084  29.353  1.00  0.00    -0.266 OA
ENDBRANCH  53  54
ENDBRANCH  41  53
BRANCH  42  57
HETATM   57  O14 UNL     1      15.910  22.136  26.051  1.00  0.00    -0.391 OA
ATOM     58  H14 UNL     1      16.634  21.757  26.535  1.00  0.00     0.210 HD
ENDBRANCH  42  57
ENDBRANCH  34  37
ENDBRANCH  31  34
ENDBRANCH   1  31
TORSDOF 24
ENDMDL
MODEL 5
REMARK VINA RESULT: -8.557306262      5.800     13.753
REMARK  24 active torsions:
REMARK  status: ('A' for Active; 'I' for Inactive)
REMARK    1  A    between atoms: C2_2  and  O2_4 
REMARK    2  A    between atoms: O2_4  and  C3_5 
REMARK    3  A    between atoms: C3_5  and  C4_7 
REMARK    4  A    between atoms: C4_7  and  C5_8 
REMARK    5  A    between atoms: C6_9  and  O4_10 
REMARK    6  A    between atoms: C7_12  and  C8_13 
REMARK    7  A    between atoms: C8_13  and  O5_14 
REMARK    8  A    between atoms: C8_13  and  N1_16 
REMARK    9  A    between atoms: N1_16  and  C9_18 
REMARK   10  A    between atoms: C9_18  and  C11_20 
REMARK   11  A    between atoms: C11_20  and  O6_21 
REMARK   12  A    between atoms: C11_20  and  N2_23 
REMARK   13  A    between atoms: N2_23  and  C12_26 
REMARK   14  A    between atoms: C13_27  and  O7_28 
REMARK   15  A    between atoms: C14_30  and  O8_31 
REMARK   16  A    between atoms: O8_31  and  C15_32 
REMARK   17  A    between atoms: C17_35  and  O10_36 
REMARK   18  A    between atoms: O10_36  and  C18_37 
REMARK   19  A    between atoms: C20_40  and  O12_41 
REMARK   20  A    between atoms: O12_41  and  C21_42 
REMARK   21  A    between atoms: C23_45  and  O14_46 
REMARK   22  A    between atoms: C24_48  and  O15_49 
REMARK   23  A    between atoms: C25_51  and  O16_52 
REMARK   24  A    between atoms: C27_56  and  O18_57 
ROOT
HETATM    1  C9  UNL     1       8.031  25.179  15.462  1.00  0.00     0.036 C 
HETATM    2  C10 UNL     1       8.883  26.320  15.015  1.00  0.00     0.067 C 
ENDROOT
BRANCH   1   3
HETATM    3  N1  UNL     1       8.638  24.037  15.952  1.00  0.00    -0.363 N 
ATOM      4  H1  UNL     1       8.538  23.186  15.399  1.00  0.00     0.162 HD
BRANCH   3   5
HETATM    5  C8  UNL     1       9.373  23.945  17.133  1.00  0.00     0.258 C 
BRANCH   5   6
HETATM    6  C7  UNL     1       8.649  23.554  18.363  1.00  0.00     0.059 C 
HETATM    7  C6  UNL     1       8.773  24.399  19.471  1.00  0.00     0.088 C 
HETATM    8  C5  UNL     1       7.972  24.445  20.595  1.00  0.00     0.022 C 
HETATM    9  C27 UNL     1       6.798  23.712  20.847  1.00  0.00     0.128 C 
HETATM   10  C26 UNL     1       6.453  22.500  20.295  1.00  0.00     0.241 C 
HETATM   11  C25 UNL     1       7.089  21.810  19.261  1.00  0.00     0.153 C 
HETATM   12  O17 UNL     1       5.421  21.949  20.806  1.00  0.00    -0.282 OA
HETATM   13  C24 UNL     1       7.879  22.416  18.274  1.00  0.00     0.116 C 
BRANCH   7  14
HETATM   14  O4  UNL     1       9.816  25.285  19.429  1.00  0.00    -0.359 OA
ATOM     15  H4  UNL     1       9.610  26.192  19.625  1.00  0.00     0.217 HD
ENDBRANCH   7  14
BRANCH   8  16
HETATM   16  C4  UNL     1       8.328  25.324  21.737  1.00  0.00     0.156 C 
BRANCH  16  17
HETATM   17  C3  UNL     1       9.353  24.619  22.539  1.00  0.00     0.270 C 
HETATM   18  O3  UNL     1       9.011  23.737  23.345  1.00  0.00    -0.264 OA
BRANCH  17  19
HETATM   19  O2  UNL     1      10.727  24.913  22.434  1.00  0.00    -0.245 OA
BRANCH  19  20
HETATM   20  C2  UNL     1      11.686  23.944  22.170  1.00  0.00     0.262 C 
HETATM   21  C1  UNL     1      11.345  22.743  21.317  1.00  0.00     0.126 C 
HETATM   22  O1  UNL     1      12.824  24.058  22.619  1.00  0.00    -0.265 OA
ENDBRANCH  19  20
ENDBRANCH  17  19
ENDBRANCH  16  17
ENDBRANCH   8  16
BRANCH   9  23
HETATM   23  O18 UNL     1       5.920  24.310  21.753  1.00  0.00    -0.356 OA
ATOM     24  H18 UNL     1       5.365  23.703  22.228  1.00  0.00     0.218 HD
ENDBRANCH   9  23
BRANCH  11  25
HETATM   25  O16 UNL     1       6.893  20.467  19.260  1.00  0.00    -0.355 OA
ATOM     26  H16 UNL     1       7.027  19.959  20.051  1.00  0.00     0.218 HD
ENDBRANCH  11  25
BRANCH  13  27
HETATM   27  O15 UNL     1       7.843  21.743  17.066  1.00  0.00    -0.357 OA
ATOM     28  H15 UNL     1       8.370  20.958  16.974  1.00  0.00     0.217 HD
ENDBRANCH  13  27
ENDBRANCH   5   6
BRANCH   5  29
HETATM   29  O5  UNL     1      10.281  22.852  16.918  1.00  0.00    -0.372 OA
ATOM     30  H5  UNL     1      10.380  22.829  15.974  1.00  0.00     0.212 HD
ENDBRANCH   5  29
ENDBRANCH   3   5
ENDBRANCH   1   3
BRANCH   1  31
HETATM   31  C11 UNL     1       6.851  25.025  14.528  1.00  0.00     0.365 C 
BRANCH  31  32
HETATM   32  O6  UNL     1       7.262  25.276  13.248  1.00  0.00    -0.365 OA
ATOM     33  H6  UNL     1       7.111  26.193  13.050  1.00  0.00     0.212 HD
ENDBRANCH  31  32
BRANCH  31  34
HETATM   34  N2  UNL     1       5.866  26.015  14.905  1.00  0.00    -0.034 N 
ATOM     35  H22 UNL     1       5.306  25.690  15.692  1.00  0.00     0.281 HD
ATOM     36  H21 UNL     1       6.310  26.823  15.340  1.00  0.00     0.281 HD
BRANCH  34  37
HETATM   37  C12 UNL     1       5.024  26.418  13.807  1.00  0.00     0.251 C 
HETATM   38  C13 UNL     1       5.062  27.920  13.603  1.00  0.00     0.183 C 
HETATM   39  C14 UNL     1       4.403  28.651  14.736  1.00  0.00     0.195 C 
HETATM   40  C17 UNL     1       3.005  28.199  15.004  1.00  0.00     0.196 C 
HETATM   41  C20 UNL     1       2.581  26.996  14.227  1.00  0.00     0.195 C 
HETATM   42  C23 UNL     1       3.614  25.988  13.912  1.00  0.00     0.183 C 
BRANCH  38  43
HETATM   43  O7  UNL     1       6.386  28.295  13.510  1.00  0.00    -0.391 OA
ATOM     44  H7  UNL     1       6.793  27.750  12.847  1.00  0.00     0.210 HD
ENDBRANCH  38  43
BRANCH  39  45
HETATM   45  O8  UNL     1       4.559  30.042  14.582  1.00  0.00    -0.311 OA
BRANCH  45  46
HETATM   46  C15 UNL     1       5.389  30.823  15.329  1.00  0.00     0.255 C 
HETATM   47  C16 UNL     1       5.020  32.211  15.670  1.00  0.00     0.126 C 
HETATM   48  O9  UNL     1       6.476  30.372  15.737  1.00  0.00    -0.266 OA
ENDBRANCH  45  46
ENDBRANCH  39  45
BRANCH  40  49
HETATM   49  O10 UNL     1       2.852  27.852  16.367  1.00  0.00    -0.311 OA
BRANCH  49  50
HETATM   50  C18 UNL     1       3.886  27.896  17.301  1.00  0.00     0.255 C 
HETATM   51  C19 UNL     1       4.001  29.068  18.197  1.00  0.00     0.126 C 
HETATM   52  O11 UNL     1       4.673  26.931  17.332  1.00  0.00    -0.266 OA
ENDBRANCH  49  50
ENDBRANCH  40  49
BRANCH  41  53
HETATM   53  O12 UNL     1       2.022  27.410  12.989  1.00  0.00    -0.311 OA
BRANCH  53  54
HETATM   54  C21 UNL     1       0.658  27.209  12.695  1.00  0.00     0.255 C 
HETATM   55  C22 UNL     1      -0.173  28.423  12.504  1.00  0.00     0.126 C 
HETATM   56  O13 UNL     1       0.271  26.043  12.620  1.00  0.00    -0.266 OA
ENDBRANCH  53  54
ENDBRANCH  41  53
BRANCH  42  57
HETATM   57  O14 UNL     1       3.241  25.245  12.769  1.00  0.00    -0.391 OA
ATOM     58  H14 UNL     1       2.717  25.779  12.185  1.00  0.00     0.210 HD
ENDBRANCH  42  57
ENDBRANCH  34  37
ENDBRANCH  31  34
ENDBRANCH   1  31
TORSDOF 24
ENDMDL
