MODEL 1
REMARK VINA RESULT: -7.837788434      0.000      0.000
REMARK  7 active torsions:
REMARK  status: ('A' for Active; 'I' for Inactive)
REMARK    1  A    between atoms: C2_2  and  C3_4 
REMARK    2  A    between atoms: C3_4  and  C4_5 
REMARK    3  A    between atoms: C5_6  and  N1_7 
REMARK    4  A    between atoms: N1_7  and  C6_9 
REMARK    5  A    between atoms: C9_14  and  C10_15 
REMARK    6  A    between atoms: N3_18  and  N4_19 
REMARK    7  A    between atoms: C13_20  and  O1_21 
ROOT
HETATM    1  C4  UNL     1     -27.562  22.574 -19.583  1.00  0.00     0.062 A 
HETATM    2  C5  UNL     1     -28.267  21.800 -18.839  1.00  0.00     0.115 A 
HETATM    3  N2  UNL     1     -29.376  21.056 -19.403  1.00  0.00    -0.327 N 
ATOM      4  H2  UNL     1     -29.906  20.455 -18.772  1.00  0.00     0.169 HD
HETATM    5  C8  UNL     1     -29.779  21.096 -20.750  1.00  0.00     0.129 A 
HETATM    6  C9  UNL     1     -30.764  20.422 -21.269  1.00  0.00     0.028 C 
HETATM    7  N3  UNL     1     -29.001  21.958 -21.595  1.00  0.00    -0.193 N 
HETATM    8  C20 UNL     1     -27.935  22.665 -21.021  1.00  0.00     0.279 A 
HETATM    9  O2  UNL     1     -27.277  23.416 -21.815  1.00  0.00    -0.265 OA
ENDROOT
BRANCH   7  10
HETATM   10  N4  UNL     1     -29.323  22.074 -22.969  1.00  0.00    -0.194 N 
HETATM   11  C13 UNL     1     -28.721  21.405 -23.969  1.00  0.00     0.188 A 
HETATM   12  C14 UNL     1     -29.365  21.834 -25.126  1.00  0.00     0.067 A 
HETATM   13  N5  UNL     1     -30.327  22.736 -24.816  1.00  0.00    -0.322 N 
HETATM   14  C19 UNL     1     -29.221  21.513 -26.559  1.00  0.00     0.062 C 
HETATM   15  C15 UNL     1     -30.282  22.870 -23.476  1.00  0.00     0.203 A 
HETATM   16  C16 UNL     1     -31.163  23.358 -25.804  1.00  0.00     0.131 C 
HETATM   17  S1  UNL     1     -31.226  23.838 -22.547  1.00  0.00    -0.038 SA
HETATM   18  C17 UNL     1     -30.461  23.635 -27.099  1.00  0.00     0.021 C 
HETATM   19  C18 UNL     1     -29.275  22.786 -27.361  1.00  0.00     0.008 C 
BRANCH  11  20
HETATM   20  O1  UNL     1     -27.687  20.487 -23.896  1.00  0.00    -0.343 OA
ATOM     21  H1  UNL     1     -27.609  19.644 -24.328  1.00  0.00     0.219 HD
ENDBRANCH  11  20
ENDBRANCH   7  10
BRANCH   6  22
HETATM   22  C10 UNL     1     -31.621  19.493 -20.521  1.00  0.00     0.012 A 
HETATM   23  C11 UNL     1     -32.409  18.446 -21.313  1.00  0.00     0.009 A 
HETATM   24  C12 UNL     1     -33.107  19.608 -20.609  1.00  0.00     0.009 A 
ENDBRANCH   6  22
BRANCH   1  25
HETATM   25  C3  UNL     1     -26.412  23.423 -19.245  1.00  0.00     0.117 C 
BRANCH  25  26
HETATM   26  C2  UNL     1     -25.074  22.910 -19.243  1.00  0.00     0.089 C 
HETATM   27  C1  UNL     1     -24.527  22.316 -18.199  1.00  0.00     0.052 C 
HETATM   28  F1  UNL     1     -24.325  22.965 -20.405  1.00  0.00    -0.211 F 
ENDBRANCH  25  26
ENDBRANCH   1  25
BRANCH   2  29
HETATM   29  N1  UNL     1     -28.013  21.626 -17.454  1.00  0.00    -0.376 N 
ATOM     30  H1  UNL     1     -27.270  21.002 -17.137  1.00  0.00     0.161 HD
BRANCH  29  31
HETATM   31  C6  UNL     1     -28.833  22.358 -16.488  1.00  0.00     0.116 C 
HETATM   32  C7  UNL     1     -28.273  23.677 -16.087  1.00  0.00     0.026 C 
ENDBRANCH  29  31
ENDBRANCH   2  29
TORSDOF 7
ENDMDL
MODEL 2
REMARK VINA RESULT: -7.796430996      1.331      1.858
REMARK  7 active torsions:
REMARK  status: ('A' for Active; 'I' for Inactive)
REMARK    1  A    between atoms: C2_2  and  C3_4 
REMARK    2  A    between atoms: C3_4  and  C4_5 
REMARK    3  A    between atoms: C5_6  and  N1_7 
REMARK    4  A    between atoms: N1_7  and  C6_9 
REMARK    5  A    between atoms: C9_14  and  C10_15 
REMARK    6  A    between atoms: N3_18  and  N4_19 
REMARK    7  A    between atoms: C13_20  and  O1_21 
ROOT
HETATM    1  C4  UNL     1     -27.720  22.671 -19.671  1.00  0.00     0.062 A 
HETATM    2  C5  UNL     1     -28.411  21.887 -18.923  1.00  0.00     0.115 A 
HETATM    3  N2  UNL     1     -29.624  21.276 -19.430  1.00  0.00    -0.327 N 
ATOM      4  H2  UNL     1     -30.137  20.662 -18.798  1.00  0.00     0.169 HD
HETATM    5  C8  UNL     1     -30.148  21.462 -20.722  1.00  0.00     0.129 A 
HETATM    6  C9  UNL     1     -31.228  20.907 -21.190  1.00  0.00     0.028 C 
HETATM    7  N3  UNL     1     -29.388  22.335 -21.570  1.00  0.00    -0.193 N 
HETATM    8  C20 UNL     1     -28.219  22.913 -21.052  1.00  0.00     0.279 A 
HETATM    9  O2  UNL     1     -27.582  23.680 -21.846  1.00  0.00    -0.265 OA
ENDROOT
BRANCH   7  10
HETATM   10  N4  UNL     1     -29.828  22.593 -22.890  1.00  0.00    -0.194 N 
HETATM   11  C13 UNL     1     -30.729  23.528 -23.242  1.00  0.00     0.188 A 
HETATM   12  C14 UNL     1     -30.840  23.416 -24.626  1.00  0.00     0.067 A 
HETATM   13  N5  UNL     1     -30.023  22.436 -25.081  1.00  0.00    -0.322 N 
HETATM   14  C19 UNL     1     -31.630  24.123 -25.651  1.00  0.00     0.062 C 
HETATM   15  C15 UNL     1     -29.407  21.940 -23.990  1.00  0.00     0.203 A 
HETATM   16  C16 UNL     1     -29.920  22.086 -26.470  1.00  0.00     0.131 C 
HETATM   17  S1  UNL     1     -28.304  20.727 -23.943  1.00  0.00    -0.038 SA
HETATM   18  C17 UNL     1     -31.214  22.197 -27.217  1.00  0.00     0.021 C 
HETATM   19  C18 UNL     1     -32.206  23.119 -26.615  1.00  0.00     0.008 C 
BRANCH  11  20
HETATM   20  O1  UNL     1     -31.411  24.420 -22.433  1.00  0.00    -0.343 OA
ATOM     21  H1  UNL     1     -31.285  24.599 -21.508  1.00  0.00     0.219 HD
ENDBRANCH  11  20
ENDBRANCH   7  10
BRANCH   6  22
HETATM   22  C10 UNL     1     -32.082  19.980 -20.436  1.00  0.00     0.012 A 
HETATM   23  C11 UNL     1     -32.487  18.666 -21.109  1.00  0.00     0.009 A 
HETATM   24  C12 UNL     1     -33.504  19.774 -20.839  1.00  0.00     0.009 A 
ENDBRANCH   6  22
BRANCH   1  25
HETATM   25  C3  UNL     1     -26.479  23.403 -19.385  1.00  0.00     0.117 C 
BRANCH  25  26
HETATM   26  C2  UNL     1     -25.194  22.780 -19.508  1.00  0.00     0.089 C 
HETATM   27  C1  UNL     1     -24.562  22.218 -18.495  1.00  0.00     0.052 C 
HETATM   28  F1  UNL     1     -24.600  22.691 -20.754  1.00  0.00    -0.211 F 
ENDBRANCH  25  26
ENDBRANCH   1  25
BRANCH   2  29
HETATM   29  N1  UNL     1     -28.041  21.576 -17.589  1.00  0.00    -0.376 N 
ATOM     30  H1  UNL     1     -27.274  20.931 -17.400  1.00  0.00     0.161 HD
BRANCH  29  31
HETATM   31  C6  UNL     1     -28.779  22.198 -16.488  1.00  0.00     0.116 C 
HETATM   32  C7  UNL     1     -28.302  23.561 -16.128  1.00  0.00     0.026 C 
ENDBRANCH  29  31
ENDBRANCH   2  29
TORSDOF 7
ENDMDL
MODEL 3
REMARK VINA RESULT: -7.536287335      2.613      5.864
REMARK  7 active torsions:
REMARK  status: ('A' for Active; 'I' for Inactive)
REMARK    1  A    between atoms: C2_2  and  C3_4 
REMARK    2  A    between atoms: C3_4  and  C4_5 
REMARK    3  A    between atoms: C5_6  and  N1_7 
REMARK    4  A    between atoms: N1_7  and  C6_9 
REMARK    5  A    between atoms: C9_14  and  C10_15 
REMARK    6  A    between atoms: N3_18  and  N4_19 
REMARK    7  A    between atoms: C13_20  and  O1_21 
ROOT
HETATM    1  C4  UNL     1     -26.424  21.669 -23.946  1.00  0.00     0.062 A 
HETATM    2  C5  UNL     1     -25.655  22.325 -23.153  1.00  0.00     0.115 A 
HETATM    3  N2  UNL     1     -26.077  22.610 -21.796  1.00  0.00    -0.327 N 
ATOM      4  H2  UNL     1     -25.432  23.134 -21.206  1.00  0.00     0.169 HD
HETATM    5  C8  UNL     1     -27.305  22.222 -21.230  1.00  0.00     0.129 A 
HETATM    6  C9  UNL     1     -27.688  22.462 -20.008  1.00  0.00     0.028 C 
HETATM    7  N3  UNL     1     -28.177  21.488 -22.103  1.00  0.00    -0.193 N 
HETATM    8  C20 UNL     1     -27.741  21.228 -23.410  1.00  0.00     0.279 A 
HETATM    9  O2  UNL     1     -28.552  20.573 -24.144  1.00  0.00    -0.265 OA
ENDROOT
BRANCH   7  10
HETATM   10  N4  UNL     1     -29.438  21.051 -21.633  1.00  0.00    -0.194 N 
HETATM   11  C13 UNL     1     -29.660  19.927 -20.929  1.00  0.00     0.188 A 
HETATM   12  C14 UNL     1     -31.033  19.918 -20.691  1.00  0.00     0.067 A 
HETATM   13  N5  UNL     1     -31.607  21.013 -21.243  1.00  0.00    -0.322 N 
HETATM   14  C19 UNL     1     -31.944  18.998 -19.984  1.00  0.00     0.062 C 
HETATM   15  C15 UNL     1     -30.603  21.699 -21.821  1.00  0.00     0.203 A 
HETATM   16  C16 UNL     1     -33.016  21.280 -21.162  1.00  0.00     0.131 C 
HETATM   17  S1  UNL     1     -30.718  23.114 -22.643  1.00  0.00    -0.038 SA
HETATM   18  C17 UNL     1     -33.868  20.048 -21.221  1.00  0.00     0.021 C 
HETATM   19  C18 UNL     1     -33.186  18.798 -20.811  1.00  0.00     0.008 C 
BRANCH  11  20
HETATM   20  O1  UNL     1     -28.748  18.970 -20.516  1.00  0.00    -0.343 OA
ATOM     21  H1  UNL     1     -28.223  18.382 -21.046  1.00  0.00     0.219 HD
ENDBRANCH  11  20
ENDBRANCH   7  10
BRANCH   6  22
HETATM   22  C10 UNL     1     -26.885  23.180 -19.011  1.00  0.00     0.012 A 
HETATM   23  C11 UNL     1     -26.111  22.355 -17.980  1.00  0.00     0.009 A 
HETATM   24  C12 UNL     1     -27.314  23.208 -17.581  1.00  0.00     0.009 A 
ENDBRANCH   6  22
BRANCH   1  25
HETATM   25  C3  UNL     1     -26.223  21.270 -25.345  1.00  0.00     0.117 C 
BRANCH  25  26
HETATM   26  C2  UNL     1     -26.377  22.201 -26.423  1.00  0.00     0.089 C 
HETATM   27  C1  UNL     1     -27.485  22.311 -27.132  1.00  0.00     0.052 C 
HETATM   28  F1  UNL     1     -25.354  23.089 -26.704  1.00  0.00    -0.211 F 
ENDBRANCH  25  26
ENDBRANCH   1  25
BRANCH   2  29
HETATM   29  N1  UNL     1     -24.376  22.799 -23.543  1.00  0.00    -0.376 N 
ATOM     30  H1  UNL     1     -23.634  22.145 -23.792  1.00  0.00     0.161 HD
BRANCH  29  31
HETATM   31  C6  UNL     1     -24.139  24.243 -23.583  1.00  0.00     0.116 C 
HETATM   32  C7  UNL     1     -25.308  25.039 -24.044  1.00  0.00     0.026 C 
ENDBRANCH  29  31
ENDBRANCH   2  29
TORSDOF 7
ENDMDL
MODEL 4
REMARK VINA RESULT: -7.424126698      1.756      2.308
REMARK  7 active torsions:
REMARK  status: ('A' for Active; 'I' for Inactive)
REMARK    1  A    between atoms: C2_2  and  C3_4 
REMARK    2  A    between atoms: C3_4  and  C4_5 
REMARK    3  A    between atoms: C5_6  and  N1_7 
REMARK    4  A    between atoms: N1_7  and  C6_9 
REMARK    5  A    between atoms: C9_14  and  C10_15 
REMARK    6  A    between atoms: N3_18  and  N4_19 
REMARK    7  A    between atoms: C13_20  and  O1_21 
ROOT
HETATM    1  C4  UNL     1     -28.487  22.548 -19.683  1.00  0.00     0.062 A 
HETATM    2  C5  UNL     1     -29.437  21.978 -19.033  1.00  0.00     0.115 A 
HETATM    3  N2  UNL     1     -30.669  21.620 -19.706  1.00  0.00    -0.327 N 
ATOM      4  H2  UNL     1     -31.394  21.171 -19.147  1.00  0.00     0.169 HD
HETATM    5  C8  UNL     1     -30.946  21.843 -21.067  1.00  0.00     0.129 A 
HETATM    6  C9  UNL     1     -32.044  21.513 -21.684  1.00  0.00     0.028 C 
HETATM    7  N3  UNL     1     -29.893  22.479 -21.809  1.00  0.00    -0.193 N 
HETATM    8  C20 UNL     1     -28.713  22.814 -21.130  1.00  0.00     0.279 A 
HETATM    9  O2  UNL     1     -27.810  23.377 -21.834  1.00  0.00    -0.265 OA
ENDROOT
BRANCH   7  10
HETATM   10  N4  UNL     1     -30.068  22.752 -23.186  1.00  0.00    -0.194 N 
HETATM   11  C13 UNL     1     -30.673  23.841 -23.694  1.00  0.00     0.188 A 
HETATM   12  C14 UNL     1     -30.606  23.678 -25.075  1.00  0.00     0.067 A 
HETATM   13  N5  UNL     1     -29.975  22.518 -25.376  1.00  0.00    -0.322 N 
HETATM   14  C19 UNL     1     -31.058  24.483 -26.225  1.00  0.00     0.062 C 
HETATM   15  C15 UNL     1     -29.653  21.961 -24.193  1.00  0.00     0.203 A 
HETATM   16  C16 UNL     1     -29.755  22.075 -26.725  1.00  0.00     0.131 C 
HETATM   17  S1  UNL     1     -28.873  20.538 -23.950  1.00  0.00    -0.038 SA
HETATM   18  C17 UNL     1     -30.869  22.427 -27.664  1.00  0.00     0.021 C 
HETATM   19  C18 UNL     1     -31.702  23.578 -27.242  1.00  0.00     0.008 C 
BRANCH  11  20
HETATM   20  O1  UNL     1     -31.244  24.907 -23.019  1.00  0.00    -0.343 OA
ATOM     21  H1  UNL     1     -32.132  25.240 -23.077  1.00  0.00     0.219 HD
ENDBRANCH  11  20
ENDBRANCH   7  10
BRANCH   6  22
HETATM   22  C10 UNL     1     -33.184  20.841 -21.049  1.00  0.00     0.012 A 
HETATM   23  C11 UNL     1     -33.210  19.310 -21.053  1.00  0.00     0.009 A 
HETATM   24  C12 UNL     1     -34.195  20.128 -21.885  1.00  0.00     0.009 A 
ENDBRANCH   6  22
BRANCH   1  25
HETATM   25  C3  UNL     1     -27.167  23.004 -19.227  1.00  0.00     0.117 C 
BRANCH  25  26
HETATM   26  C2  UNL     1     -26.017  22.151 -19.278  1.00  0.00     0.089 C 
HETATM   27  C1  UNL     1     -24.954  22.322 -18.515  1.00  0.00     0.052 C 
HETATM   28  F1  UNL     1     -26.029  21.045 -20.109  1.00  0.00    -0.211 F 
ENDBRANCH  25  26
ENDBRANCH   1  25
BRANCH   2  29
HETATM   29  N1  UNL     1     -29.344  21.669 -17.651  1.00  0.00    -0.376 N 
ATOM     30  H1  UNL     1     -29.712  22.312 -16.950  1.00  0.00     0.161 HD
BRANCH  29  31
HETATM   31  C6  UNL     1     -28.710  20.413 -17.250  1.00  0.00     0.116 C 
HETATM   32  C7  UNL     1     -29.482  19.195 -17.618  1.00  0.00     0.026 C 
ENDBRANCH  29  31
ENDBRANCH   2  29
TORSDOF 7
ENDMDL
MODEL 5
REMARK VINA RESULT: -7.287059402      1.539      1.720
REMARK  7 active torsions:
REMARK  status: ('A' for Active; 'I' for Inactive)
REMARK    1  A    between atoms: C2_2  and  C3_4 
REMARK    2  A    between atoms: C3_4  and  C4_5 
REMARK    3  A    between atoms: C5_6  and  N1_7 
REMARK    4  A    between atoms: N1_7  and  C6_9 
REMARK    5  A    between atoms: C9_14  and  C10_15 
REMARK    6  A    between atoms: N3_18  and  N4_19 
REMARK    7  A    between atoms: C13_20  and  O1_21 
ROOT
HETATM    1  C4  UNL     1     -27.501  21.443 -19.332  1.00  0.00     0.062 A 
HETATM    2  C5  UNL     1     -28.609  21.421 -18.683  1.00  0.00     0.115 A 
HETATM    3  N2  UNL     1     -29.871  21.348 -19.392  1.00  0.00    -0.327 N 
ATOM      4  H2  UNL     1     -30.723  21.334 -18.832  1.00  0.00     0.169 HD
HETATM    5  C8  UNL     1     -30.014  21.295 -20.790  1.00  0.00     0.129 A 
HETATM    6  C9  UNL     1     -31.141  21.215 -21.437  1.00  0.00     0.028 C 
HETATM    7  N3  UNL     1     -28.784  21.318 -21.532  1.00  0.00    -0.193 N 
HETATM    8  C20 UNL     1     -27.580  21.390 -20.818  1.00  0.00     0.279 A 
HETATM    9  O2  UNL     1     -26.518  21.408 -21.524  1.00  0.00    -0.265 OA
ENDROOT
BRANCH   7  10
HETATM   10  N4  UNL     1     -28.815  21.270 -22.946  1.00  0.00    -0.194 N 
HETATM   11  C13 UNL     1     -29.098  20.181 -23.683  1.00  0.00     0.188 A 
HETATM   12  C14 UNL     1     -29.011  20.610 -25.005  1.00  0.00     0.067 A 
HETATM   13  N5  UNL     1     -28.683  21.923 -25.048  1.00  0.00    -0.322 N 
HETATM   14  C19 UNL     1     -29.202  19.951 -26.311  1.00  0.00     0.062 C 
HETATM   15  C15 UNL     1     -28.566  22.311 -23.763  1.00  0.00     0.203 A 
HETATM   16  C16 UNL     1     -28.520  22.648 -26.277  1.00  0.00     0.131 C 
HETATM   17  S1  UNL     1     -28.180  23.808 -23.214  1.00  0.00    -0.038 SA
HETATM   18  C17 UNL     1     -27.922  21.834 -27.383  1.00  0.00     0.021 C 
HETATM   19  C18 UNL     1     -28.097  20.368 -27.244  1.00  0.00     0.008 C 
BRANCH  11  20
HETATM   20  O1  UNL     1     -29.413  18.903 -23.252  1.00  0.00    -0.343 OA
ATOM     21  H1  UNL     1     -28.868  18.285 -22.779  1.00  0.00     0.219 HD
ENDBRANCH  11  20
ENDBRANCH   7  10
BRANCH   6  22
HETATM   22  C10 UNL     1     -32.463  21.161 -20.799  1.00  0.00     0.012 A 
HETATM   23  C11 UNL     1     -33.093  19.786 -20.565  1.00  0.00     0.009 A 
HETATM   24  C12 UNL     1     -33.662  20.761 -21.593  1.00  0.00     0.009 A 
ENDBRANCH   6  22
BRANCH   1  25
HETATM   25  C3  UNL     1     -26.118  21.520 -18.844  1.00  0.00     0.117 C 
BRANCH  25  26
HETATM   26  C2  UNL     1     -25.571  22.739 -18.326  1.00  0.00     0.089 C 
HETATM   27  C1  UNL     1     -24.568  22.775 -17.469  1.00  0.00     0.052 C 
HETATM   28  F1  UNL     1     -26.054  23.950 -18.787  1.00  0.00    -0.211 F 
ENDBRANCH  25  26
ENDBRANCH   1  25
BRANCH   2  29
HETATM   29  N1  UNL     1     -28.668  21.465 -17.265  1.00  0.00    -0.376 N 
ATOM     30  H1  UNL     1     -28.288  20.701 -16.706  1.00  0.00     0.161 HD
BRANCH  29  31
HETATM   31  C6  UNL     1     -29.283  22.626 -16.620  1.00  0.00     0.116 C 
HETATM   32  C7  UNL     1     -28.310  23.648 -16.148  1.00  0.00     0.026 C 
ENDBRANCH  29  31
ENDBRANCH   2  29
TORSDOF 7
ENDMDL
