MODEL 1
REMARK VINA RESULT: -8.495613799      0.000      0.000
REMARK  7 active torsions:
REMARK  status: ('A' for Active; 'I' for Inactive)
REMARK    1  A    between atoms: C7_8  and  C8_9 
REMARK    2  A    between atoms: C8_9  and  C9_10 
REMARK    3  A    between atoms: C9_10  and  C10_11 
REMARK    4  A    between atoms: C10_11  and  S1_12 
REMARK    5  A    between atoms: S1_12  and  C11_15 
REMARK    6  A    between atoms: C12_16  and  O3_17 
REMARK    7  A    between atoms: N3_23  and  C14_24 
ROOT
HETATM    1  N1  UNL     1     -26.827  25.975 -23.602  1.00  0.00    -0.197 NA
HETATM    2  C1  UNL     1     -25.992  25.160 -23.582  1.00  0.00     0.064 C 
HETATM    3  C2  UNL     1     -24.944  24.162 -23.540  1.00  0.00     0.097 C 
HETATM    4  C3  UNL     1     -24.384  23.844 -24.907  1.00  0.00     0.019 C 
HETATM    5  C4  UNL     1     -25.344  23.145 -25.796  1.00  0.00     0.001 C 
HETATM    6  C5  UNL     1     -26.654  22.799 -25.207  1.00  0.00     0.000 C 
HETATM    7  C6  UNL     1     -26.669  22.450 -23.772  1.00  0.00     0.006 C 
HETATM    8  C7  UNL     1     -25.494  22.878 -22.976  1.00  0.00     0.003 C 
ENDROOT
BRANCH   8   9
HETATM    9  C8  UNL     1     -25.946  23.195 -21.542  1.00  0.00     0.007 C 
BRANCH   9  10
HETATM   10  C9  UNL     1     -25.757  22.019 -20.642  1.00  0.00     0.016 C 
BRANCH  10  11
HETATM   11  C10 UNL     1     -26.669  20.867 -20.894  1.00  0.00     0.147 C 
BRANCH  11  12
HETATM   12  S1  UNL     1     -28.377  21.200 -20.685  1.00  0.00     0.196 S 
HETATM   13  O1  UNL     1     -28.602  22.619 -20.242  1.00  0.00    -0.221 OA
HETATM   14  O2  UNL     1     -29.201  20.954 -21.912  1.00  0.00    -0.221 OA
BRANCH  12  15
HETATM   15  C11 UNL     1     -28.971  20.091 -19.444  1.00  0.00     0.192 A 
HETATM   16  C12 UNL     1     -29.494  18.850 -19.738  1.00  0.00     0.184 A 
HETATM   17  N2  UNL     1     -29.830  18.316 -18.548  1.00  0.00    -0.286 N 
HETATM   18  C13 UNL     1     -29.526  19.194 -17.568  1.00  0.00     0.336 A 
ATOM     19  H2  UNL     1     -30.248  17.396 -18.410  1.00  0.00     0.172 HD
HETATM   20  O4  UNL     1     -29.702  19.038 -16.311  1.00  0.00    -0.246 OA
HETATM   21  N3  UNL     1     -28.998  20.286 -18.122  1.00  0.00    -0.229 N 
BRANCH  16  22
HETATM   22  O3  UNL     1     -29.647  18.261 -20.988  1.00  0.00    -0.344 OA
ATOM     23  H3  UNL     1     -30.268  17.589 -21.245  1.00  0.00     0.219 HD
ENDBRANCH  16  22
BRANCH  21  24
HETATM   24  C14 UNL     1     -28.523  21.488 -17.468  1.00  0.00     0.160 A 
HETATM   25  N4  UNL     1     -27.310  22.019 -17.513  1.00  0.00    -0.345 N 
HETATM   26  C15 UNL     1     -27.059  23.107 -16.860  1.00  0.00     0.097 A 
ATOM     27  H4  UNL     1     -26.576  21.570 -18.061  1.00  0.00     0.167 HD
HETATM   28  C16 UNL     1     -28.084  23.669 -16.139  1.00  0.00     0.070 A 
HETATM   29  S2  UNL     1     -29.360  22.577 -16.453  1.00  0.00    -0.064 SA
ENDBRANCH  21  24
ENDBRANCH  12  15
ENDBRANCH  11  12
ENDBRANCH  10  11
ENDBRANCH   9  10
ENDBRANCH   8   9
TORSDOF 7
ENDMDL
MODEL 2
REMARK VINA RESULT: -8.396942251      3.984      7.570
REMARK  7 active torsions:
REMARK  status: ('A' for Active; 'I' for Inactive)
REMARK    1  A    between atoms: C7_8  and  C8_9 
REMARK    2  A    between atoms: C8_9  and  C9_10 
REMARK    3  A    between atoms: C9_10  and  C10_11 
REMARK    4  A    between atoms: C10_11  and  S1_12 
REMARK    5  A    between atoms: S1_12  and  C11_15 
REMARK    6  A    between atoms: C12_16  and  O3_17 
REMARK    7  A    between atoms: N3_23  and  C14_24 
ROOT
HETATM    1  N1  UNL     1     -24.275  22.039 -17.265  1.00  0.00    -0.197 NA
HETATM    2  C1  UNL     1     -25.078  22.813 -17.608  1.00  0.00     0.064 C 
HETATM    3  C2  UNL     1     -26.056  23.791 -18.038  1.00  0.00     0.097 C 
HETATM    4  C3  UNL     1     -27.145  24.016 -17.016  1.00  0.00     0.019 C 
HETATM    5  C4  UNL     1     -28.040  22.847 -16.832  1.00  0.00     0.001 C 
HETATM    6  C5  UNL     1     -27.792  21.685 -17.709  1.00  0.00     0.000 C 
HETATM    7  C6  UNL     1     -27.309  21.969 -19.075  1.00  0.00     0.006 C 
HETATM    8  C7  UNL     1     -26.723  23.312 -19.301  1.00  0.00     0.003 C 
ENDROOT
BRANCH   8   9
HETATM    9  C8  UNL     1     -25.616  23.207 -20.361  1.00  0.00     0.007 C 
BRANCH   9  10
HETATM   10  C9  UNL     1     -26.095  22.482 -21.574  1.00  0.00     0.016 C 
BRANCH  10  11
HETATM   11  C10 UNL     1     -25.193  22.548 -22.758  1.00  0.00     0.147 C 
BRANCH  11  12
HETATM   12  S1  UNL     1     -25.685  23.661 -24.020  1.00  0.00     0.196 S 
HETATM   13  O1  UNL     1     -27.044  24.237 -23.733  1.00  0.00    -0.221 OA
HETATM   14  O2  UNL     1     -24.730  24.795 -24.240  1.00  0.00    -0.221 OA
BRANCH  12  15
HETATM   15  C11 UNL     1     -25.737  22.741 -25.528  1.00  0.00     0.192 A 
HETATM   16  C12 UNL     1     -24.657  22.636 -26.378  1.00  0.00     0.184 A 
HETATM   17  N2  UNL     1     -25.083  21.868 -27.399  1.00  0.00    -0.286 N 
HETATM   18  C13 UNL     1     -26.369  21.519 -27.183  1.00  0.00     0.336 A 
ATOM     19  H2  UNL     1     -24.524  21.595 -28.207  1.00  0.00     0.172 HD
HETATM   20  O4  UNL     1     -27.109  20.796 -27.933  1.00  0.00    -0.246 OA
HETATM   21  N3  UNL     1     -26.770  22.058 -26.030  1.00  0.00    -0.229 N 
BRANCH  16  22
HETATM   22  O3  UNL     1     -23.393  23.196 -26.228  1.00  0.00    -0.344 OA
ATOM     23  H3  UNL     1     -22.902  23.706 -26.862  1.00  0.00     0.219 HD
ENDBRANCH  16  22
BRANCH  21  24
HETATM   24  C14 UNL     1     -28.066  21.957 -25.390  1.00  0.00     0.160 A 
HETATM   25  N4  UNL     1     -29.101  22.774 -25.507  1.00  0.00    -0.345 N 
HETATM   26  C15 UNL     1     -30.191  22.529 -24.854  1.00  0.00     0.097 A 
ATOM     27  H4  UNL     1     -29.039  23.595 -26.110  1.00  0.00     0.167 HD
HETATM   28  C16 UNL     1     -30.220  21.410 -24.058  1.00  0.00     0.070 A 
HETATM   29  S2  UNL     1     -28.653  20.776 -24.304  1.00  0.00    -0.064 SA
ENDBRANCH  21  24
ENDBRANCH  12  15
ENDBRANCH  11  12
ENDBRANCH  10  11
ENDBRANCH   9  10
ENDBRANCH   8   9
TORSDOF 7
ENDMDL
MODEL 3
REMARK VINA RESULT: -8.387614689      3.180      5.102
REMARK  7 active torsions:
REMARK  status: ('A' for Active; 'I' for Inactive)
REMARK    1  A    between atoms: C7_8  and  C8_9 
REMARK    2  A    between atoms: C8_9  and  C9_10 
REMARK    3  A    between atoms: C9_10  and  C10_11 
REMARK    4  A    between atoms: C10_11  and  S1_12 
REMARK    5  A    between atoms: S1_12  and  C11_15 
REMARK    6  A    between atoms: C12_16  and  O3_17 
REMARK    7  A    between atoms: N3_23  and  C14_24 
ROOT
HETATM    1  N1  UNL     1     -31.531  18.870 -23.388  1.00  0.00    -0.197 NA
HETATM    2  C1  UNL     1     -31.962  19.530 -22.528  1.00  0.00     0.064 C 
HETATM    3  C2  UNL     1     -32.477  20.342 -21.445  1.00  0.00     0.097 C 
HETATM    4  C3  UNL     1     -33.925  20.047 -21.132  1.00  0.00     0.019 C 
HETATM    5  C4  UNL     1     -34.862  20.459 -22.206  1.00  0.00     0.001 C 
HETATM    6  C5  UNL     1     -34.268  21.151 -23.367  1.00  0.00     0.000 C 
HETATM    7  C6  UNL     1     -33.104  22.021 -23.103  1.00  0.00     0.006 C 
HETATM    8  C7  UNL     1     -32.390  21.798 -21.823  1.00  0.00     0.003 C 
ENDROOT
BRANCH   8   9
HETATM    9  C8  UNL     1     -30.898  22.106 -22.017  1.00  0.00     0.007 C 
BRANCH   9  10
HETATM   10  C9  UNL     1     -30.254  22.497 -20.730  1.00  0.00     0.016 C 
BRANCH  10  11
HETATM   11  C10 UNL     1     -28.766  22.579 -20.757  1.00  0.00     0.147 C 
BRANCH  11  12
HETATM   12  S1  UNL     1     -27.925  21.041 -20.744  1.00  0.00     0.196 S 
HETATM   13  O1  UNL     1     -28.027  20.358 -22.080  1.00  0.00    -0.221 OA
HETATM   14  O2  UNL     1     -26.476  21.141 -20.376  1.00  0.00    -0.221 OA
BRANCH  12  15
HETATM   15  C11 UNL     1     -28.697  20.043 -19.507  1.00  0.00     0.192 A 
HETATM   16  C12 UNL     1     -29.288  18.830 -19.786  1.00  0.00     0.184 A 
HETATM   17  N2  UNL     1     -29.756  18.383 -18.604  1.00  0.00    -0.286 N 
HETATM   18  C13 UNL     1     -29.463  19.286 -17.644  1.00  0.00     0.336 A 
ATOM     19  H2  UNL     1     -30.252  17.504 -18.459  1.00  0.00     0.172 HD
HETATM   20  O4  UNL     1     -29.748  19.208 -16.400  1.00  0.00    -0.246 OA
HETATM   21  N3  UNL     1     -28.812  20.307 -18.202  1.00  0.00    -0.229 N 
BRANCH  16  22
HETATM   22  O3  UNL     1     -29.388  18.190 -21.016  1.00  0.00    -0.344 OA
ATOM     23  H3  UNL     1     -30.150  18.123 -21.580  1.00  0.00     0.219 HD
ENDBRANCH  16  22
BRANCH  21  24
HETATM   24  C14 UNL     1     -28.299  21.504 -17.566  1.00  0.00     0.160 A 
HETATM   25  N4  UNL     1     -27.059  21.968 -17.577  1.00  0.00    -0.345 N 
HETATM   26  C15 UNL     1     -26.776  23.063 -16.948  1.00  0.00     0.097 A 
ATOM     27  H4  UNL     1     -26.328  21.463 -18.080  1.00  0.00     0.167 HD
HETATM   28  C16 UNL     1     -27.797  23.701 -16.288  1.00  0.00     0.070 A 
HETATM   29  S2  UNL     1     -29.117  22.668 -16.621  1.00  0.00    -0.064 SA
ENDBRANCH  21  24
ENDBRANCH  12  15
ENDBRANCH  11  12
ENDBRANCH  10  11
ENDBRANCH   9  10
ENDBRANCH   8   9
TORSDOF 7
ENDMDL
MODEL 4
REMARK VINA RESULT: -8.341076856      2.026      3.154
REMARK  7 active torsions:
REMARK  status: ('A' for Active; 'I' for Inactive)
REMARK    1  A    between atoms: C7_8  and  C8_9 
REMARK    2  A    between atoms: C8_9  and  C9_10 
REMARK    3  A    between atoms: C9_10  and  C10_11 
REMARK    4  A    between atoms: C10_11  and  S1_12 
REMARK    5  A    between atoms: S1_12  and  C11_15 
REMARK    6  A    between atoms: C12_16  and  O3_17 
REMARK    7  A    between atoms: N3_23  and  C14_24 
ROOT
HETATM    1  N1  UNL     1     -26.809  25.829 -23.288  1.00  0.00    -0.197 NA
HETATM    2  C1  UNL     1     -26.008  24.985 -23.374  1.00  0.00     0.064 C 
HETATM    3  C2  UNL     1     -24.998  23.952 -23.467  1.00  0.00     0.097 C 
HETATM    4  C3  UNL     1     -24.678  23.574 -24.895  1.00  0.00     0.019 C 
HETATM    5  C4  UNL     1     -25.791  22.884 -25.592  1.00  0.00     0.001 C 
HETATM    6  C5  UNL     1     -26.997  22.603 -24.787  1.00  0.00     0.000 C 
HETATM    7  C6  UNL     1     -26.790  22.297 -23.357  1.00  0.00     0.006 C 
HETATM    8  C7  UNL     1     -25.489  22.706 -22.777  1.00  0.00     0.003 C 
ENDROOT
BRANCH   8   9
HETATM    9  C8  UNL     1     -25.691  23.081 -21.301  1.00  0.00     0.007 C 
BRANCH   9  10
HETATM   10  C9  UNL     1     -27.034  22.652 -20.812  1.00  0.00     0.016 C 
BRANCH  10  11
HETATM   11  C10 UNL     1     -27.033  21.511 -19.854  1.00  0.00     0.147 C 
BRANCH  11  12
HETATM   12  S1  UNL     1     -28.215  21.609 -18.563  1.00  0.00     0.196 S 
HETATM   13  O1  UNL     1     -27.568  21.410 -17.221  1.00  0.00    -0.221 OA
HETATM   14  O2  UNL     1     -28.977  22.899 -18.531  1.00  0.00    -0.221 OA
BRANCH  12  15
HETATM   15  C11 UNL     1     -29.397  20.328 -18.848  1.00  0.00     0.192 A 
HETATM   16  C12 UNL     1     -29.450  19.177 -18.093  1.00  0.00     0.184 A 
HETATM   17  N2  UNL     1     -30.466  18.459 -18.609  1.00  0.00    -0.286 N 
HETATM   18  C13 UNL     1     -31.012  19.144 -19.637  1.00  0.00     0.336 A 
ATOM     19  H2  UNL     1     -30.774  17.546 -18.277  1.00  0.00     0.172 HD
HETATM   20  O4  UNL     1     -31.995  18.782 -20.369  1.00  0.00    -0.246 OA
HETATM   21  N3  UNL     1     -30.352  20.294 -19.783  1.00  0.00    -0.229 N 
BRANCH  16  22
HETATM   22  O3  UNL     1     -28.636  18.817 -17.024  1.00  0.00    -0.344 OA
ATOM     23  H3  UNL     1     -28.665  19.144 -16.132  1.00  0.00     0.219 HD
ENDBRANCH  16  22
BRANCH  21  24
HETATM   24  C14 UNL     1     -30.580  21.347 -20.751  1.00  0.00     0.160 A 
HETATM   25  N4  UNL     1     -31.085  22.554 -20.543  1.00  0.00    -0.345 N 
HETATM   26  C15 UNL     1     -31.221  23.374 -21.534  1.00  0.00     0.097 A 
ATOM     27  H4  UNL     1     -31.367  22.835 -19.603  1.00  0.00     0.167 HD
HETATM   28  C16 UNL     1     -30.826  22.944 -22.777  1.00  0.00     0.070 A 
HETATM   29  S2  UNL     1     -30.277  21.363 -22.432  1.00  0.00    -0.064 SA
ENDBRANCH  21  24
ENDBRANCH  12  15
ENDBRANCH  11  12
ENDBRANCH  10  11
ENDBRANCH   9  10
ENDBRANCH   8   9
TORSDOF 7
ENDMDL
MODEL 5
REMARK VINA RESULT: -8.331917144      2.284      3.598
REMARK  7 active torsions:
REMARK  status: ('A' for Active; 'I' for Inactive)
REMARK    1  A    between atoms: C7_8  and  C8_9 
REMARK    2  A    between atoms: C8_9  and  C9_10 
REMARK    3  A    between atoms: C9_10  and  C10_11 
REMARK    4  A    between atoms: C10_11  and  S1_12 
REMARK    5  A    between atoms: S1_12  and  C11_15 
REMARK    6  A    between atoms: C12_16  and  O3_17 
REMARK    7  A    between atoms: N3_23  and  C14_24 
ROOT
HETATM    1  N1  UNL     1     -26.434  21.452 -25.024  1.00  0.00    -0.197 NA
HETATM    2  C1  UNL     1     -26.574  22.239 -24.174  1.00  0.00     0.064 C 
HETATM    3  C2  UNL     1     -26.771  23.206 -23.115  1.00  0.00     0.097 C 
HETATM    4  C3  UNL     1     -26.510  24.625 -23.564  1.00  0.00     0.019 C 
HETATM    5  C4  UNL     1     -25.086  24.898 -23.876  1.00  0.00     0.001 C 
HETATM    6  C5  UNL     1     -24.136  23.793 -23.636  1.00  0.00     0.000 C 
HETATM    7  C6  UNL     1     -24.429  22.896 -22.500  1.00  0.00     0.006 C 
HETATM    8  C7  UNL     1     -25.819  22.915 -21.985  1.00  0.00     0.003 C 
ENDROOT
BRANCH   8   9
HETATM    9  C8  UNL     1     -26.182  21.516 -21.463  1.00  0.00     0.007 C 
BRANCH   9  10
HETATM   10  C9  UNL     1     -26.470  21.542 -19.999  1.00  0.00     0.016 C 
BRANCH  10  11
HETATM   11  C10 UNL     1     -27.669  22.330 -19.596  1.00  0.00     0.147 C 
BRANCH  11  12
HETATM   12  S1  UNL     1     -28.542  21.715 -18.206  1.00  0.00     0.196 S 
HETATM   13  O1  UNL     1     -27.595  21.291 -17.117  1.00  0.00    -0.221 OA
HETATM   14  O2  UNL     1     -29.523  22.687 -17.623  1.00  0.00    -0.221 OA
BRANCH  12  15
HETATM   15  C11 UNL     1     -29.474  20.320 -18.757  1.00  0.00     0.192 A 
HETATM   16  C12 UNL     1     -29.448  19.101 -18.115  1.00  0.00     0.184 A 
HETATM   17  N2  UNL     1     -30.274  18.308 -18.825  1.00  0.00    -0.286 N 
HETATM   18  C13 UNL     1     -30.783  19.013 -19.858  1.00  0.00     0.336 A 
ATOM     19  H2  UNL     1     -30.481  17.332 -18.616  1.00  0.00     0.172 HD
HETATM   20  O4  UNL     1     -31.601  18.596 -20.747  1.00  0.00    -0.246 OA
HETATM   21  N3  UNL     1     -30.289  20.251 -19.816  1.00  0.00    -0.229 N 
BRANCH  16  22
HETATM   22  O3  UNL     1     -28.730  18.749 -16.978  1.00  0.00    -0.344 OA
ATOM     23  H3  UNL     1     -28.613  17.883 -16.606  1.00  0.00     0.219 HD
ENDBRANCH  16  22
BRANCH  21  24
HETATM   24  C14 UNL     1     -30.549  21.357 -20.715  1.00  0.00     0.160 A 
HETATM   25  N4  UNL     1     -31.185  22.489 -20.456  1.00  0.00    -0.345 N 
HETATM   26  C15 UNL     1     -31.329  23.374 -21.388  1.00  0.00     0.097 A 
ATOM     27  H4  UNL     1     -31.562  22.662 -19.523  1.00  0.00     0.167 HD
HETATM   28  C16 UNL     1     -30.802  23.089 -22.624  1.00  0.00     0.070 A 
HETATM   29  S2  UNL     1     -30.126  21.543 -22.359  1.00  0.00    -0.064 SA
ENDBRANCH  21  24
ENDBRANCH  12  15
ENDBRANCH  11  12
ENDBRANCH  10  11
ENDBRANCH   9  10
ENDBRANCH   8   9
TORSDOF 7
ENDMDL
