MODEL 1
REMARK VINA RESULT: -7.651060043      0.000      0.000
REMARK  8 active torsions:
REMARK  status: ('A' for Active; 'I' for Inactive)
REMARK    1  A    between atoms: C2_2  and  C3_3 
REMARK    2  A    between atoms: C3_3  and  C4_4 
REMARK    3  A    between atoms: C4_4  and  N1_5 
REMARK    4  A    between atoms: C5_6  and  O1_7 
REMARK    5  A    between atoms: N2_13  and  N3_15 
REMARK       I    between atoms: N3_15  and  C8_17 
REMARK    6  A    between atoms: C8_17  and  C9_19 
REMARK    7  A    between atoms: C11_21  and  O4_22 
REMARK    8  A    between atoms: C14_26  and  C15_27 
ROOT
HETATM    1  N3  UNL     1     -27.000  21.116 -21.185  1.00  0.00    -0.266 N 
ATOM      2  H3  UNL     1     -27.135  20.204 -21.620  1.00  0.00     0.190 HD
HETATM    3  C8  UNL     1     -26.750  22.256 -22.005  1.00  0.00     0.270 C 
HETATM    4  O3  UNL     1     -26.585  23.376 -21.442  1.00  0.00    -0.266 OA
ENDROOT
BRANCH   1   5
HETATM    5  N2  UNL     1     -27.058  21.228 -19.843  1.00  0.00    -0.304 N 
HETATM    6  C3  UNL     1     -27.938  21.284 -18.965  1.00  0.00     0.021 C 
ATOM      7  H2  UNL     1     -26.124  21.281 -19.435  1.00  0.00     0.186 HD
BRANCH   6   8
HETATM    8  C2  UNL     1     -29.375  21.231 -19.216  1.00  0.00     0.051 C 
HETATM    9  C1  UNL     1     -29.963  22.388 -19.954  1.00  0.00     0.011 C 
ENDBRANCH   6   8
BRANCH   6  10
HETATM   10  C4  UNL     1     -27.459  21.416 -17.540  1.00  0.00     0.189 C 
BRANCH  10  11
HETATM   11  N1  UNL     1     -27.361  22.845 -17.156  1.00  0.00    -0.283 N 
HETATM   12  C5  UNL     1     -28.289  23.445 -16.444  1.00  0.00     0.152 A 
HETATM   13  C6  UNL     1     -28.104  24.771 -16.159  1.00  0.00     0.111 A 
HETATM   14  S1  UNL     1     -26.618  25.104 -16.916  1.00  0.00    -0.036 SA
HETATM   15  C7  UNL     1     -26.307  23.557 -17.552  1.00  0.00     0.292 A 
HETATM   16  O2  UNL     1     -25.306  23.144 -18.251  1.00  0.00    -0.259 OA
BRANCH  12  17
HETATM   17  O1  UNL     1     -29.478  22.819 -15.941  1.00  0.00    -0.345 OA
ATOM     18  H1  UNL     1     -29.813  22.913 -15.057  1.00  0.00     0.219 HD
ENDBRANCH  12  17
ENDBRANCH  10  11
ENDBRANCH   6  10
ENDBRANCH   1   5
BRANCH   3  19
HETATM   19  C9  UNL     1     -26.679  22.182 -23.442  1.00  0.00     0.037 A 
HETATM   20  C10 UNL     1     -25.728  22.933 -24.102  1.00  0.00     0.057 A 
HETATM   21  C11 UNL     1     -25.638  22.881 -25.460  1.00  0.00     0.108 A 
HETATM   22  C13 UNL     1     -26.470  22.097 -26.233  1.00  0.00     0.156 A 
HETATM   23  F1  UNL     1     -26.347  22.074 -27.593  1.00  0.00    -0.203 F 
HETATM   24  C14 UNL     1     -27.407  21.357 -25.574  1.00  0.00    -0.008 A 
HETATM   25  C19 UNL     1     -27.503  21.405 -24.190  1.00  0.00     0.028 A 
BRANCH  21  26
HETATM   26  O4  UNL     1     -24.678  23.640 -26.136  1.00  0.00    -0.353 OA
HETATM   27  C12 UNL     1     -23.654  22.989 -26.848  1.00  0.00     0.210 C 
ENDBRANCH  21  26
BRANCH  24  28
HETATM   28  C15 UNL     1     -28.335  20.489 -26.341  1.00  0.00    -0.021 C 
HETATM   29  C16 UNL     1     -29.233  19.718 -25.395  1.00  0.00     0.019 C 
HETATM   30  C17 UNL     1     -29.232  21.340 -27.210  1.00  0.00     0.019 C 
HETATM   31  C18 UNL     1     -27.571  19.461 -27.162  1.00  0.00     0.019 C 
ENDBRANCH  24  28
ENDBRANCH   3  19
TORSDOF 8
ENDMDL
MODEL 2
REMARK VINA RESULT: -7.042677422      4.873      7.290
REMARK  8 active torsions:
REMARK  status: ('A' for Active; 'I' for Inactive)
REMARK    1  A    between atoms: C2_2  and  C3_3 
REMARK    2  A    between atoms: C3_3  and  C4_4 
REMARK    3  A    between atoms: C4_4  and  N1_5 
REMARK    4  A    between atoms: C5_6  and  O1_7 
REMARK    5  A    between atoms: N2_13  and  N3_15 
REMARK       I    between atoms: N3_15  and  C8_17 
REMARK    6  A    between atoms: C8_17  and  C9_19 
REMARK    7  A    between atoms: C11_21  and  O4_22 
REMARK    8  A    between atoms: C14_26  and  C15_27 
ROOT
HETATM    1  N3  UNL     1     -30.180  21.782 -22.210  1.00  0.00    -0.266 N 
ATOM      2  H3  UNL     1     -30.144  22.788 -22.046  1.00  0.00     0.190 HD
HETATM    3  C8  UNL     1     -29.021  20.988 -21.963  1.00  0.00     0.270 C 
HETATM    4  O3  UNL     1     -29.091  19.743 -22.173  1.00  0.00    -0.266 OA
ENDROOT
BRANCH   1   5
HETATM    5  N2  UNL     1     -31.321  21.222 -22.659  1.00  0.00    -0.304 N 
HETATM    6  C3  UNL     1     -32.345  20.711 -22.172  1.00  0.00     0.021 C 
ATOM      7  H2  UNL     1     -31.353  21.216 -23.679  1.00  0.00     0.186 HD
BRANCH   6   8
HETATM    8  C2  UNL     1     -32.611  20.569 -20.744  1.00  0.00     0.051 C 
HETATM    9  C1  UNL     1     -31.942  19.425 -20.054  1.00  0.00     0.011 C 
ENDBRANCH   6   8
BRANCH   6  10
HETATM   10  C4  UNL     1     -33.377  20.207 -23.151  1.00  0.00     0.189 C 
BRANCH  10  11
HETATM   11  N1  UNL     1     -34.365  21.271 -23.457  1.00  0.00    -0.283 N 
HETATM   12  C5  UNL     1     -35.529  21.343 -22.850  1.00  0.00     0.152 A 
HETATM   13  C6  UNL     1     -36.370  22.356 -23.221  1.00  0.00     0.111 A 
HETATM   14  S1  UNL     1     -35.468  23.162 -24.416  1.00  0.00    -0.036 SA
HETATM   15  C7  UNL     1     -34.078  22.181 -24.387  1.00  0.00     0.292 A 
HETATM   16  O2  UNL     1     -32.996  22.270 -25.082  1.00  0.00    -0.259 OA
BRANCH  12  17
HETATM   17  O1  UNL     1     -35.984  20.444 -21.829  1.00  0.00    -0.345 OA
ATOM     18  H1  UNL     1     -36.892  20.305 -21.587  1.00  0.00     0.219 HD
ENDBRANCH  12  17
ENDBRANCH  10  11
ENDBRANCH   6  10
ENDBRANCH   1   5
BRANCH   3  19
HETATM   19  C9  UNL     1     -27.782  21.544 -21.483  1.00  0.00     0.037 A 
HETATM   20  C10 UNL     1     -26.773  21.800 -22.387  1.00  0.00     0.057 A 
HETATM   21  C11 UNL     1     -25.591  22.328 -21.961  1.00  0.00     0.108 A 
HETATM   22  C13 UNL     1     -25.343  22.628 -20.637  1.00  0.00     0.156 A 
HETATM   23  F1  UNL     1     -24.143  23.155 -20.251  1.00  0.00    -0.203 F 
HETATM   24  C14 UNL     1     -26.346  22.372 -19.749  1.00  0.00    -0.008 A 
HETATM   25  C19 UNL     1     -27.552  21.835 -20.177  1.00  0.00     0.028 A 
BRANCH  21  26
HETATM   26  O4  UNL     1     -24.562  22.589 -22.871  1.00  0.00    -0.353 OA
HETATM   27  C12 UNL     1     -24.572  23.790 -23.603  1.00  0.00     0.210 C 
ENDBRANCH  21  26
BRANCH  24  28
HETATM   28  C15 UNL     1     -26.149  22.670 -18.308  1.00  0.00    -0.021 C 
HETATM   29  C16 UNL     1     -26.197  24.167 -18.072  1.00  0.00     0.019 C 
HETATM   30  C17 UNL     1     -27.269  22.057 -17.500  1.00  0.00     0.019 C 
HETATM   31  C18 UNL     1     -24.787  22.190 -17.831  1.00  0.00     0.019 C 
ENDBRANCH  24  28
ENDBRANCH   3  19
TORSDOF 8
ENDMDL
MODEL 3
REMARK VINA RESULT: -7.040868811      1.543      1.841
REMARK  8 active torsions:
REMARK  status: ('A' for Active; 'I' for Inactive)
REMARK    1  A    between atoms: C2_2  and  C3_3 
REMARK    2  A    between atoms: C3_3  and  C4_4 
REMARK    3  A    between atoms: C4_4  and  N1_5 
REMARK    4  A    between atoms: C5_6  and  O1_7 
REMARK    5  A    between atoms: N2_13  and  N3_15 
REMARK       I    between atoms: N3_15  and  C8_17 
REMARK    6  A    between atoms: C8_17  and  C9_19 
REMARK    7  A    between atoms: C11_21  and  O4_22 
REMARK    8  A    between atoms: C14_26  and  C15_27 
ROOT
HETATM    1  N3  UNL     1     -28.366  22.055 -21.071  1.00  0.00    -0.266 N 
ATOM      2  H3  UNL     1     -29.149  22.650 -21.343  1.00  0.00     0.190 HD
HETATM    3  C8  UNL     1     -27.477  21.563 -22.072  1.00  0.00     0.270 C 
HETATM    4  O3  UNL     1     -26.514  20.828 -21.709  1.00  0.00    -0.266 OA
ENDROOT
BRANCH   1   5
HETATM    5  N2  UNL     1     -28.188  21.745 -19.772  1.00  0.00    -0.304 N 
HETATM    6  C3  UNL     1     -28.719  21.005 -18.924  1.00  0.00     0.021 C 
ATOM      7  H2  UNL     1     -27.399  22.257 -19.374  1.00  0.00     0.186 HD
BRANCH   6   8
HETATM    8  C2  UNL     1     -29.867  20.139 -19.171  1.00  0.00     0.051 C 
HETATM    9  C1  UNL     1     -29.927  18.873 -18.383  1.00  0.00     0.011 C 
ENDBRANCH   6   8
BRANCH   6  10
HETATM   10  C4  UNL     1     -28.113  21.022 -17.542  1.00  0.00     0.189 C 
BRANCH  10  11
HETATM   11  N1  UNL     1     -27.779  22.410 -17.138  1.00  0.00    -0.283 N 
HETATM   12  C5  UNL     1     -28.635  23.180 -16.501  1.00  0.00     0.152 A 
HETATM   13  C6  UNL     1     -28.228  24.449 -16.190  1.00  0.00     0.111 A 
HETATM   14  S1  UNL     1     -26.647  24.490 -16.817  1.00  0.00    -0.036 SA
HETATM   15  C7  UNL     1     -26.581  22.908 -17.438  1.00  0.00     0.292 A 
HETATM   16  O2  UNL     1     -25.621  22.308 -18.054  1.00  0.00    -0.259 OA
BRANCH  12  17
HETATM   17  O1  UNL     1     -29.958  22.792 -16.105  1.00  0.00    -0.345 OA
ATOM     18  H1  UNL     1     -30.556  22.273 -16.630  1.00  0.00     0.219 HD
ENDBRANCH  12  17
ENDBRANCH  10  11
ENDBRANCH   6  10
ENDBRANCH   1   5
BRANCH   3  19
HETATM   19  C9  UNL     1     -27.630  21.870 -23.471  1.00  0.00     0.037 A 
HETATM   20  C10 UNL     1     -26.506  21.924 -24.268  1.00  0.00     0.057 A 
HETATM   21  C11 UNL     1     -26.622  22.210 -25.595  1.00  0.00     0.108 A 
HETATM   22  C13 UNL     1     -27.838  22.457 -26.201  1.00  0.00     0.156 A 
HETATM   23  F1  UNL     1     -27.911  22.741 -27.535  1.00  0.00    -0.203 F 
HETATM   24  C14 UNL     1     -28.945  22.401 -25.406  1.00  0.00    -0.008 A 
HETATM   25  C19 UNL     1     -28.832  22.109 -24.054  1.00  0.00     0.028 A 
BRANCH  21  26
HETATM   26  O4  UNL     1     -25.487  22.268 -26.410  1.00  0.00    -0.353 OA
HETATM   27  C12 UNL     1     -24.592  23.344 -26.276  1.00  0.00     0.210 C 
ENDBRANCH  21  26
BRANCH  24  28
HETATM   28  C15 UNL     1     -30.285  22.654 -25.990  1.00  0.00    -0.021 C 
HETATM   29  C16 UNL     1     -31.368  22.215 -25.025  1.00  0.00     0.019 C 
HETATM   30  C17 UNL     1     -30.472  24.135 -26.223  1.00  0.00     0.019 C 
HETATM   31  C18 UNL     1     -30.484  21.857 -27.271  1.00  0.00     0.019 C 
ENDBRANCH  24  28
ENDBRANCH   3  19
TORSDOF 8
ENDMDL
MODEL 4
REMARK VINA RESULT: -6.961274311      2.146      2.689
REMARK  8 active torsions:
REMARK  status: ('A' for Active; 'I' for Inactive)
REMARK    1  A    between atoms: C2_2  and  C3_3 
REMARK    2  A    between atoms: C3_3  and  C4_4 
REMARK    3  A    between atoms: C4_4  and  N1_5 
REMARK    4  A    between atoms: C5_6  and  O1_7 
REMARK    5  A    between atoms: N2_13  and  N3_15 
REMARK       I    between atoms: N3_15  and  C8_17 
REMARK    6  A    between atoms: C8_17  and  C9_19 
REMARK    7  A    between atoms: C11_21  and  O4_22 
REMARK    8  A    between atoms: C14_26  and  C15_27 
ROOT
HETATM    1  N3  UNL     1     -28.353  22.679 -21.959  1.00  0.00    -0.266 N 
ATOM      2  H3  UNL     1     -28.505  23.655 -22.214  1.00  0.00     0.190 HD
HETATM    3  C8  UNL     1     -28.473  21.666 -22.956  1.00  0.00     0.270 C 
HETATM    4  O3  UNL     1     -28.279  20.463 -22.616  1.00  0.00    -0.266 OA
ENDROOT
BRANCH   1   5
HETATM    5  N2  UNL     1     -28.040  22.364 -20.686  1.00  0.00    -0.304 N 
HETATM    6  C3  UNL     1     -28.646  22.081 -19.636  1.00  0.00     0.021 C 
ATOM      7  H2  UNL     1     -27.030  22.356 -20.545  1.00  0.00     0.186 HD
BRANCH   6   8
HETATM    8  C2  UNL     1     -30.097  22.006 -19.502  1.00  0.00     0.051 C 
HETATM    9  C1  UNL     1     -30.740  20.734 -19.950  1.00  0.00     0.011 C 
ENDBRANCH   6   8
BRANCH   6  10
HETATM   10  C4  UNL     1     -27.794  21.799 -18.423  1.00  0.00     0.189 C 
BRANCH  10  11
HETATM   11  N1  UNL     1     -27.623  23.029 -17.612  1.00  0.00    -0.283 N 
HETATM   12  C5  UNL     1     -28.354  23.273 -16.546  1.00  0.00     0.152 A 
HETATM   13  C6  UNL     1     -28.123  24.446 -15.880  1.00  0.00     0.111 A 
HETATM   14  S1  UNL     1     -26.876  25.149 -16.799  1.00  0.00    -0.036 SA
HETATM   15  C7  UNL     1     -26.711  23.930 -17.974  1.00  0.00     0.292 A 
HETATM   16  O2  UNL     1     -25.909  23.865 -18.981  1.00  0.00    -0.259 OA
BRANCH  12  17
HETATM   17  O1  UNL     1     -29.371  22.405 -16.026  1.00  0.00    -0.345 OA
ATOM     18  H1  UNL     1     -29.630  21.575 -16.410  1.00  0.00     0.219 HD
ENDBRANCH  12  17
ENDBRANCH  10  11
ENDBRANCH   6  10
ENDBRANCH   1   5
BRANCH   3  19
HETATM   19  C9  UNL     1     -28.805  21.957 -24.327  1.00  0.00     0.037 A 
HETATM   20  C10 UNL     1     -27.848  21.754 -25.301  1.00  0.00     0.057 A 
HETATM   21  C11 UNL     1     -28.135  22.020 -26.606  1.00  0.00     0.108 A 
HETATM   22  C13 UNL     1     -29.364  22.493 -27.018  1.00  0.00     0.156 A 
HETATM   23  F1  UNL     1     -29.611  22.748 -28.337  1.00  0.00    -0.203 F 
HETATM   24  C14 UNL     1     -30.304  22.690 -26.050  1.00  0.00    -0.008 A 
HETATM   25  C19 UNL     1     -30.018  22.421 -24.719  1.00  0.00     0.028 A 
BRANCH  21  26
HETATM   26  O4  UNL     1     -27.171  21.819 -27.599  1.00  0.00    -0.353 OA
HETATM   27  C12 UNL     1     -25.880  21.396 -27.236  1.00  0.00     0.210 C 
ENDBRANCH  21  26
BRANCH  24  28
HETATM   28  C15 UNL     1     -31.649  23.197 -26.420  1.00  0.00    -0.021 C 
HETATM   29  C16 UNL     1     -32.515  23.335 -25.184  1.00  0.00     0.019 C 
HETATM   30  C17 UNL     1     -31.528  24.573 -27.033  1.00  0.00     0.019 C 
HETATM   31  C18 UNL     1     -32.361  22.230 -27.354  1.00  0.00     0.019 C 
ENDBRANCH  24  28
ENDBRANCH   3  19
TORSDOF 8
ENDMDL
MODEL 5
REMARK VINA RESULT: -6.937436580      4.199      4.754
REMARK  8 active torsions:
REMARK  status: ('A' for Active; 'I' for Inactive)
REMARK    1  A    between atoms: C2_2  and  C3_3 
REMARK    2  A    between atoms: C3_3  and  C4_4 
REMARK    3  A    between atoms: C4_4  and  N1_5 
REMARK    4  A    between atoms: C5_6  and  O1_7 
REMARK    5  A    between atoms: N2_13  and  N3_15 
REMARK       I    between atoms: N3_15  and  C8_17 
REMARK    6  A    between atoms: C8_17  and  C9_19 
REMARK    7  A    between atoms: C11_21  and  O4_22 
REMARK    8  A    between atoms: C14_26  and  C15_27 
ROOT
HETATM    1  N3  UNL     1     -30.813  22.299 -19.822  1.00  0.00    -0.266 N 
ATOM      2  H3  UNL     1     -31.820  22.180 -19.715  1.00  0.00     0.190 HD
HETATM    3  C8  UNL     1     -30.283  22.696 -21.085  1.00  0.00     0.270 C 
HETATM    4  O3  UNL     1     -29.031  22.838 -21.193  1.00  0.00    -0.266 OA
ENDROOT
BRANCH   1   5
HETATM    5  N2  UNL     1     -30.001  22.079 -18.769  1.00  0.00    -0.304 N 
HETATM    6  C3  UNL     1     -29.330  21.137 -18.308  1.00  0.00     0.021 C 
ATOM      7  H2  UNL     1     -29.912  22.915 -18.189  1.00  0.00     0.186 HD
BRANCH   6   8
HETATM    8  C2  UNL     1     -29.241  19.807 -18.900  1.00  0.00     0.051 C 
HETATM    9  C1  UNL     1     -29.927  18.704 -18.164  1.00  0.00     0.011 C 
ENDBRANCH   6   8
BRANCH   6  10
HETATM   10  C4  UNL     1     -28.560  21.416 -17.041  1.00  0.00     0.189 C 
BRANCH  10  11
HETATM   11  N1  UNL     1     -27.736  22.640 -17.193  1.00  0.00    -0.283 N 
HETATM   12  C5  UNL     1     -27.990  23.743 -16.523  1.00  0.00     0.152 A 
HETATM   13  C6  UNL     1     -27.175  24.819 -16.752  1.00  0.00     0.111 A 
HETATM   14  S1  UNL     1     -26.084  24.213 -17.908  1.00  0.00    -0.036 SA
HETATM   15  C7  UNL     1     -26.711  22.637 -18.044  1.00  0.00     0.292 A 
HETATM   16  O2  UNL     1     -26.314  21.657 -18.781  1.00  0.00    -0.259 OA
BRANCH  12  17
HETATM   17  O1  UNL     1     -29.051  23.906 -15.572  1.00  0.00    -0.345 OA
ATOM     18  H1  UNL     1     -29.534  23.197 -15.165  1.00  0.00     0.219 HD
ENDBRANCH  12  17
ENDBRANCH  10  11
ENDBRANCH   6  10
ENDBRANCH   1   5
BRANCH   3  19
HETATM   19  C9  UNL     1     -31.113  22.942 -22.236  1.00  0.00     0.037 A 
HETATM   20  C10 UNL     1     -30.714  23.892 -23.154  1.00  0.00     0.057 A 
HETATM   21  C11 UNL     1     -31.479  24.144 -24.253  1.00  0.00     0.108 A 
HETATM   22  C13 UNL     1     -32.664  23.482 -24.504  1.00  0.00     0.156 A 
HETATM   23  F1  UNL     1     -33.403  23.765 -25.618  1.00  0.00    -0.203 F 
HETATM   24  C14 UNL     1     -33.052  22.545 -23.592  1.00  0.00    -0.008 A 
HETATM   25  C19 UNL     1     -32.276  22.283 -22.471  1.00  0.00     0.028 A 
BRANCH  21  26
HETATM   26  O4  UNL     1     -31.083  25.105 -25.188  1.00  0.00    -0.353 OA
HETATM   27  C12 UNL     1     -31.308  26.467 -24.920  1.00  0.00     0.210 C 
ENDBRANCH  21  26
BRANCH  24  28
HETATM   28  C15 UNL     1     -34.315  21.794 -23.798  1.00  0.00    -0.021 C 
HETATM   29  C16 UNL     1     -34.596  20.906 -22.603  1.00  0.00     0.019 C 
HETATM   30  C17 UNL     1     -35.472  22.758 -23.916  1.00  0.00     0.019 C 
HETATM   31  C18 UNL     1     -34.219  20.883 -25.013  1.00  0.00     0.019 C 
ENDBRANCH  24  28
ENDBRANCH   3  19
TORSDOF 8
ENDMDL
