MODEL 1
REMARK VINA RESULT: -7.860300372      0.000      0.000
REMARK  11 active torsions:
REMARK  status: ('A' for Active; 'I' for Inactive)
REMARK    1  A    between atoms: O1_2  and  N1_3 
REMARK    2  A    between atoms: N1_3  and  S1_5 
REMARK    3  A    between atoms: C3_8  and  C4_9 
REMARK    4  A    between atoms: C5_10  and  C6_11 
REMARK    5  A    between atoms: C6_11  and  C7_12 
REMARK    6  A    between atoms: C7_12  and  C8_13 
REMARK    7  A    between atoms: C8_13  and  N2_14 
REMARK    8  A    between atoms: C11_17  and  O3_18 
REMARK    9  A    between atoms: N3_20  and  N4_21 
REMARK   10  A    between atoms: N4_21  and  C12_23 
REMARK   11  A    between atoms: C12_23  and  C13_27 
ROOT
HETATM    1  S1  UNL     1     -27.585  21.844 -18.564  1.00  0.00     0.094 SA
HETATM    2  C2  UNL     1     -26.649  23.059 -19.471  1.00  0.00     0.255 A 
HETATM    3  O2  UNL     1     -26.168  24.105 -18.990  1.00  0.00    -0.277 OA
HETATM    4  C3  UNL     1     -26.618  22.504 -20.846  1.00  0.00     0.077 A 
HETATM    5  C11 UNL     1     -27.298  21.262 -21.001  1.00  0.00     0.184 A 
HETATM    6  N3  UNL     1     -27.921  20.689 -19.860  1.00  0.00    -0.186 N 
ENDROOT
BRANCH   6   7
HETATM    7  N4  UNL     1     -28.640  19.481 -19.777  1.00  0.00    -0.269 N 
ATOM      8  H4  UNL     1     -28.239  18.629 -20.169  1.00  0.00     0.190 HD
BRANCH   7   9
HETATM    9  C12 UNL     1     -29.916  19.432 -19.157  1.00  0.00     0.124 C 
HETATM   10  N5  UNL     1     -30.066  19.063 -17.949  1.00  0.00    -0.384 N 
ATOM     11  H52 UNL     1     -29.238  18.792 -17.418  1.00  0.00     0.157 HD
ATOM     12  H51 UNL     1     -30.982  19.028 -17.503  1.00  0.00     0.157 HD
BRANCH   9  13
HETATM   13  C13 UNL     1     -31.115  19.824 -19.925  1.00  0.00     0.009 A 
HETATM   14  C14 UNL     1     -31.354  21.142 -20.296  1.00  0.00     0.017 A 
HETATM   15  C15 UNL     1     -32.489  21.503 -21.009  1.00  0.00     0.025 A 
HETATM   16  C16 UNL     1     -33.417  20.556 -21.370  1.00  0.00     0.034 A 
HETATM   17 CL1  UNL     1     -34.867  20.946 -22.265  1.00  0.00    -0.084 Cl
HETATM   18  C17 UNL     1     -33.211  19.240 -21.017  1.00  0.00     0.025 A 
HETATM   19  C18 UNL     1     -32.070  18.909 -20.307  1.00  0.00     0.017 A 
ENDBRANCH   9  13
ENDBRANCH   7   9
ENDBRANCH   6   7
BRANCH   1  20
HETATM   20  N1  UNL     1     -27.961  21.698 -17.004  1.00  0.00    -0.224 N 
ATOM     21  H1  UNL     1     -27.588  20.891 -16.504  1.00  0.00     0.204 HD
BRANCH  20  22
HETATM   22  O1  UNL     1     -28.736  22.566 -16.301  1.00  0.00    -0.278 OA
HETATM   23  C1  UNL     1     -28.292  23.891 -16.118  1.00  0.00     0.238 C 
ENDBRANCH  20  22
ENDBRANCH   1  20
BRANCH   5  24
HETATM   24  O3  UNL     1     -27.387  20.606 -22.131  1.00  0.00    -0.344 OA
ATOM     25  H3  UNL     1     -28.166  20.149 -22.423  1.00  0.00     0.219 HD
ENDBRANCH   5  24
BRANCH   4  26
HETATM   26  C4  UNL     1     -25.969  23.217 -21.793  1.00  0.00     0.020 C 
HETATM   27  C5  UNL     1     -24.686  22.859 -22.309  1.00  0.00     0.001 C 
BRANCH  27  28
HETATM   28  C6  UNL     1     -24.107  23.598 -23.239  1.00  0.00     0.001 C 
BRANCH  28  29
HETATM   29  C7  UNL     1     -24.821  24.150 -24.349  1.00  0.00     0.017 C 
BRANCH  29  30
HETATM   30  C8  UNL     1     -24.701  23.558 -25.555  1.00  0.00     0.084 C 
BRANCH  30  31
HETATM   31  N2  UNL     1     -25.692  22.631 -25.953  1.00  0.00    -0.398 N 
HETATM   32  C9  UNL     1     -26.962  22.652 -25.244  1.00  0.00     0.148 C 
HETATM   33  C10 UNL     1     -25.433  21.681 -27.046  1.00  0.00     0.148 C 
ENDBRANCH  30  31
ENDBRANCH  29  30
ENDBRANCH  28  29
ENDBRANCH  27  28
ENDBRANCH   4  26
TORSDOF 11
ENDMDL
MODEL 2
REMARK VINA RESULT: -7.792828168      3.418      6.785
REMARK  11 active torsions:
REMARK  status: ('A' for Active; 'I' for Inactive)
REMARK    1  A    between atoms: O1_2  and  N1_3 
REMARK    2  A    between atoms: N1_3  and  S1_5 
REMARK    3  A    between atoms: C3_8  and  C4_9 
REMARK    4  A    between atoms: C5_10  and  C6_11 
REMARK    5  A    between atoms: C6_11  and  C7_12 
REMARK    6  A    between atoms: C7_12  and  C8_13 
REMARK    7  A    between atoms: C8_13  and  N2_14 
REMARK    8  A    between atoms: C11_17  and  O3_18 
REMARK    9  A    between atoms: N3_20  and  N4_21 
REMARK   10  A    between atoms: N4_21  and  C12_23 
REMARK   11  A    between atoms: C12_23  and  C13_27 
ROOT
HETATM    1  S1  UNL     1     -28.793  21.333 -17.370  1.00  0.00     0.094 SA
HETATM    2  C2  UNL     1     -29.411  19.674 -17.576  1.00  0.00     0.255 A 
HETATM    3  O2  UNL     1     -29.962  18.995 -16.687  1.00  0.00    -0.277 OA
HETATM    4  C3  UNL     1     -29.100  19.372 -18.995  1.00  0.00     0.077 A 
HETATM    5  C11 UNL     1     -28.450  20.426 -19.698  1.00  0.00     0.184 A 
HETATM    6  N3  UNL     1     -28.170  21.630 -18.998  1.00  0.00    -0.186 N 
ENDROOT
BRANCH   6   7
HETATM    7  N4  UNL     1     -27.543  22.793 -19.486  1.00  0.00    -0.269 N 
ATOM      8  H4  UNL     1     -28.085  23.652 -19.586  1.00  0.00     0.190 HD
BRANCH   7   9
HETATM    9  C12 UNL     1     -26.169  22.789 -19.840  1.00  0.00     0.124 C 
HETATM   10  N5  UNL     1     -25.253  22.553 -18.990  1.00  0.00    -0.384 N 
ATOM     11  H52 UNL     1     -25.524  22.366 -18.024  1.00  0.00     0.157 HD
ATOM     12  H51 UNL     1     -24.265  22.549 -19.244  1.00  0.00     0.157 HD
BRANCH   9  13
HETATM   13  C13 UNL     1     -25.777  23.059 -21.238  1.00  0.00     0.009 A 
HETATM   14  C14 UNL     1     -26.713  23.341 -22.225  1.00  0.00     0.017 A 
HETATM   15  C15 UNL     1     -26.335  23.582 -23.539  1.00  0.00     0.025 A 
HETATM   16  C16 UNL     1     -25.011  23.548 -23.903  1.00  0.00     0.034 A 
HETATM   17 CL1  UNL     1     -24.471  23.841 -25.539  1.00  0.00    -0.084 Cl
HETATM   18  C17 UNL     1     -24.056  23.270 -22.948  1.00  0.00     0.025 A 
HETATM   19  C18 UNL     1     -24.461  23.034 -21.645  1.00  0.00     0.017 A 
ENDBRANCH   9  13
ENDBRANCH   7   9
ENDBRANCH   6   7
BRANCH   1  20
HETATM   20  N1  UNL     1     -28.847  22.372 -16.140  1.00  0.00    -0.224 N 
ATOM     21  H1  UNL     1     -28.807  21.987 -15.196  1.00  0.00     0.204 HD
BRANCH  20  22
HETATM   22  O1  UNL     1     -28.942  23.723 -16.261  1.00  0.00    -0.278 OA
HETATM   23  C1  UNL     1     -27.785  24.511 -16.100  1.00  0.00     0.238 C 
ENDBRANCH  20  22
ENDBRANCH   1  20
BRANCH   5  24
HETATM   24  O3  UNL     1     -28.090  20.361 -20.955  1.00  0.00    -0.344 OA
ATOM     25  H3  UNL     1     -27.217  20.556 -21.272  1.00  0.00     0.219 HD
ENDBRANCH   5  24
BRANCH   4  26
HETATM   26  C4  UNL     1     -29.449  18.154 -19.465  1.00  0.00     0.020 C 
HETATM   27  C5  UNL     1     -30.617  17.919 -20.253  1.00  0.00     0.001 C 
BRANCH  27  28
HETATM   28  C6  UNL     1     -30.900  16.702 -20.685  1.00  0.00     0.001 C 
BRANCH  28  29
HETATM   29  C7  UNL     1     -29.944  15.872 -21.350  1.00  0.00     0.017 C 
BRANCH  29  30
HETATM   30  C8  UNL     1     -30.310  15.242 -22.485  1.00  0.00     0.084 C 
BRANCH  30  31
HETATM   31  N2  UNL     1     -29.758  15.681 -23.710  1.00  0.00    -0.398 N 
HETATM   32  C9  UNL     1     -30.179  16.979 -24.215  1.00  0.00     0.148 C 
HETATM   33  C10 UNL     1     -28.795  14.843 -24.441  1.00  0.00     0.148 C 
ENDBRANCH  30  31
ENDBRANCH  29  30
ENDBRANCH  28  29
ENDBRANCH  27  28
ENDBRANCH   4  26
TORSDOF 11
ENDMDL
MODEL 3
REMARK VINA RESULT: -7.639980068      1.101      1.349
REMARK  11 active torsions:
REMARK  status: ('A' for Active; 'I' for Inactive)
REMARK    1  A    between atoms: O1_2  and  N1_3 
REMARK    2  A    between atoms: N1_3  and  S1_5 
REMARK    3  A    between atoms: C3_8  and  C4_9 
REMARK    4  A    between atoms: C5_10  and  C6_11 
REMARK    5  A    between atoms: C6_11  and  C7_12 
REMARK    6  A    between atoms: C7_12  and  C8_13 
REMARK    7  A    between atoms: C8_13  and  N2_14 
REMARK    8  A    between atoms: C11_17  and  O3_18 
REMARK    9  A    between atoms: N3_20  and  N4_21 
REMARK   10  A    between atoms: N4_21  and  C12_23 
REMARK   11  A    between atoms: C12_23  and  C13_27 
ROOT
HETATM    1  S1  UNL     1     -28.088  22.688 -17.540  1.00  0.00     0.094 SA
HETATM    2  C2  UNL     1     -26.760  23.207 -18.608  1.00  0.00     0.255 A 
HETATM    3  O2  UNL     1     -26.080  24.243 -18.461  1.00  0.00    -0.277 OA
HETATM    4  C3  UNL     1     -26.710  22.136 -19.633  1.00  0.00     0.077 A 
HETATM    5  C11 UNL     1     -27.672  21.100 -19.455  1.00  0.00     0.184 A 
HETATM    6  N3  UNL     1     -28.559  21.187 -18.350  1.00  0.00    -0.186 N 
ENDROOT
BRANCH   6   7
HETATM    7  N4  UNL     1     -29.578  20.289 -17.980  1.00  0.00    -0.269 N 
ATOM      8  H4  UNL     1     -29.921  20.284 -17.019  1.00  0.00     0.190 HD
BRANCH   7   9
HETATM    9  C12 UNL     1     -30.136  19.388 -18.925  1.00  0.00     0.124 C 
HETATM   10  N5  UNL     1     -29.728  18.190 -19.040  1.00  0.00    -0.384 N 
ATOM     11  H52 UNL     1     -28.972  17.875 -18.432  1.00  0.00     0.157 HD
ATOM     12  H51 UNL     1     -30.128  17.543 -19.719  1.00  0.00     0.157 HD
BRANCH   9  13
HETATM   13  C13 UNL     1     -31.232  19.844 -19.805  1.00  0.00     0.009 A 
HETATM   14  C14 UNL     1     -31.327  21.159 -20.244  1.00  0.00     0.017 A 
HETATM   15  C15 UNL     1     -32.366  21.580 -21.062  1.00  0.00     0.025 A 
HETATM   16  C16 UNL     1     -33.340  20.698 -21.464  1.00  0.00     0.034 A 
HETATM   17 CL1  UNL     1     -34.675  21.166 -22.492  1.00  0.00    -0.084 Cl
HETATM   18  C17 UNL     1     -33.276  19.386 -21.047  1.00  0.00     0.025 A 
HETATM   19  C18 UNL     1     -32.228  18.994 -20.231  1.00  0.00     0.017 A 
ENDBRANCH   9  13
ENDBRANCH   7   9
ENDBRANCH   6   7
BRANCH   1  20
HETATM   20  N1  UNL     1     -28.675  23.280 -16.162  1.00  0.00    -0.224 N 
ATOM     21  H1  UNL     1     -29.007  22.612 -15.466  1.00  0.00     0.204 HD
BRANCH  20  22
HETATM   22  O1  UNL     1     -28.763  24.601 -15.852  1.00  0.00    -0.278 OA
HETATM   23  C1  UNL     1     -27.581  25.338 -15.641  1.00  0.00     0.238 C 
ENDBRANCH  20  22
ENDBRANCH   1  20
BRANCH   5  24
HETATM   24  O3  UNL     1     -27.794  20.066 -20.248  1.00  0.00    -0.344 OA
ATOM     25  H3  UNL     1     -27.067  19.531 -20.544  1.00  0.00     0.219 HD
ENDBRANCH   5  24
BRANCH   4  26
HETATM   26  C4  UNL     1     -25.785  22.249 -20.611  1.00  0.00     0.020 C 
HETATM   27  C5  UNL     1     -25.979  23.029 -21.792  1.00  0.00     0.001 C 
BRANCH  27  28
HETATM   28  C6  UNL     1     -25.031  23.101 -22.711  1.00  0.00     0.001 C 
BRANCH  28  29
HETATM   29  C7  UNL     1     -25.251  23.649 -24.013  1.00  0.00     0.017 C 
BRANCH  29  30
HETATM   30  C8  UNL     1     -25.946  22.923 -24.912  1.00  0.00     0.084 C 
BRANCH  30  31
HETATM   31  N2  UNL     1     -25.369  22.686 -26.181  1.00  0.00    -0.398 N 
HETATM   32  C9  UNL     1     -26.011  21.707 -27.045  1.00  0.00     0.148 C 
HETATM   33  C10 UNL     1     -24.158  23.408 -26.600  1.00  0.00     0.148 C 
ENDBRANCH  30  31
ENDBRANCH  29  30
ENDBRANCH  28  29
ENDBRANCH  27  28
ENDBRANCH   4  26
TORSDOF 11
ENDMDL
MODEL 4
REMARK VINA RESULT: -7.631668196      2.940      4.497
REMARK  11 active torsions:
REMARK  status: ('A' for Active; 'I' for Inactive)
REMARK    1  A    between atoms: O1_2  and  N1_3 
REMARK    2  A    between atoms: N1_3  and  S1_5 
REMARK    3  A    between atoms: C3_8  and  C4_9 
REMARK    4  A    between atoms: C5_10  and  C6_11 
REMARK    5  A    between atoms: C6_11  and  C7_12 
REMARK    6  A    between atoms: C7_12  and  C8_13 
REMARK    7  A    between atoms: C8_13  and  N2_14 
REMARK    8  A    between atoms: C11_17  and  O3_18 
REMARK    9  A    between atoms: N3_20  and  N4_21 
REMARK   10  A    between atoms: N4_21  and  C12_23 
REMARK   11  A    between atoms: C12_23  and  C13_27 
ROOT
HETATM    1  S1  UNL     1     -29.969  21.867 -20.730  1.00  0.00     0.094 SA
HETATM    2  C2  UNL     1     -29.074  22.769 -21.978  1.00  0.00     0.255 A 
HETATM    3  O2  UNL     1     -29.541  23.690 -22.678  1.00  0.00    -0.277 OA
HETATM    4  C3  UNL     1     -27.726  22.150 -21.941  1.00  0.00     0.077 A 
HETATM    5  C11 UNL     1     -27.580  21.103 -20.986  1.00  0.00     0.184 A 
HETATM    6  N3  UNL     1     -28.702  20.760 -20.185  1.00  0.00    -0.186 N 
ENDROOT
BRANCH   6   7
HETATM    7  N4  UNL     1     -28.788  19.770 -19.188  1.00  0.00    -0.269 N 
ATOM      8  H4  UNL     1     -28.775  18.786 -19.454  1.00  0.00     0.190 HD
BRANCH   7   9
HETATM    9  C12 UNL     1     -28.893  20.122 -17.816  1.00  0.00     0.124 C 
HETATM   10  N5  UNL     1     -29.357  19.320 -16.946  1.00  0.00    -0.384 N 
ATOM     11  H52 UNL     1     -29.666  18.398 -17.253  1.00  0.00     0.157 HD
ATOM     12  H51 UNL     1     -29.433  19.573 -15.961  1.00  0.00     0.157 HD
BRANCH   9  13
HETATM   13  C13 UNL     1     -28.446  21.458 -17.372  1.00  0.00     0.009 A 
HETATM   14  C14 UNL     1     -27.165  21.932 -17.632  1.00  0.00     0.017 A 
HETATM   15  C15 UNL     1     -26.751  23.185 -17.201  1.00  0.00     0.025 A 
HETATM   16  C16 UNL     1     -27.605  23.999 -16.497  1.00  0.00     0.034 A 
HETATM   17 CL1  UNL     1     -27.144  25.584 -15.924  1.00  0.00    -0.084 Cl
HETATM   18  C17 UNL     1     -28.882  23.559 -16.221  1.00  0.00     0.025 A 
HETATM   19  C18 UNL     1     -29.269  22.306 -16.664  1.00  0.00     0.017 A 
ENDBRANCH   9  13
ENDBRANCH   7   9
ENDBRANCH   6   7
BRANCH   1  20
HETATM   20  N1  UNL     1     -31.455  22.023 -20.127  1.00  0.00    -0.224 N 
ATOM     21  H1  UNL     1     -31.644  22.841 -19.547  1.00  0.00     0.204 HD
BRANCH  20  22
HETATM   22  O1  UNL     1     -32.478  21.149 -20.329  1.00  0.00    -0.278 OA
HETATM   23  C1  UNL     1     -32.185  19.792 -20.566  1.00  0.00     0.238 C 
ENDBRANCH  20  22
ENDBRANCH   1  20
BRANCH   5  24
HETATM   24  O3  UNL     1     -26.473  20.430 -20.795  1.00  0.00    -0.344 OA
ATOM     25  H3  UNL     1     -26.433  19.573 -20.386  1.00  0.00     0.219 HD
ENDBRANCH   5  24
BRANCH   4  26
HETATM   26  C4  UNL     1     -26.796  22.625 -22.798  1.00  0.00     0.020 C 
HETATM   27  C5  UNL     1     -25.513  23.100 -22.387  1.00  0.00     0.001 C 
BRANCH  27  28
HETATM   28  C6  UNL     1     -24.646  23.549 -23.278  1.00  0.00     0.001 C 
BRANCH  28  29
HETATM   29  C7  UNL     1     -25.034  24.320 -24.418  1.00  0.00     0.017 C 
BRANCH  29  30
HETATM   30  C8  UNL     1     -24.234  24.319 -25.504  1.00  0.00     0.084 C 
BRANCH  30  31
HETATM   31  N2  UNL     1     -24.390  23.286 -26.456  1.00  0.00    -0.398 N 
HETATM   32  C9  UNL     1     -23.291  23.044 -27.379  1.00  0.00     0.148 C 
HETATM   33  C10 UNL     1     -25.628  22.493 -26.506  1.00  0.00     0.148 C 
ENDBRANCH  30  31
ENDBRANCH  29  30
ENDBRANCH  28  29
ENDBRANCH  27  28
ENDBRANCH   4  26
TORSDOF 11
ENDMDL
MODEL 5
REMARK VINA RESULT: -7.555518861      3.097      4.702
REMARK  11 active torsions:
REMARK  status: ('A' for Active; 'I' for Inactive)
REMARK    1  A    between atoms: O1_2  and  N1_3 
REMARK    2  A    between atoms: N1_3  and  S1_5 
REMARK    3  A    between atoms: C3_8  and  C4_9 
REMARK    4  A    between atoms: C5_10  and  C6_11 
REMARK    5  A    between atoms: C6_11  and  C7_12 
REMARK    6  A    between atoms: C7_12  and  C8_13 
REMARK    7  A    between atoms: C8_13  and  N2_14 
REMARK    8  A    between atoms: C11_17  and  O3_18 
REMARK    9  A    between atoms: N3_20  and  N4_21 
REMARK   10  A    between atoms: N4_21  and  C12_23 
REMARK   11  A    between atoms: C12_23  and  C13_27 
ROOT
HETATM    1  S1  UNL     1     -30.034  21.897 -20.768  1.00  0.00     0.094 SA
HETATM    2  C2  UNL     1     -29.270  22.832 -22.078  1.00  0.00     0.255 A 
HETATM    3  O2  UNL     1     -29.831  23.719 -22.752  1.00  0.00    -0.277 OA
HETATM    4  C3  UNL     1     -27.891  22.286 -22.123  1.00  0.00     0.077 A 
HETATM    5  C11 UNL     1     -27.629  21.258 -21.173  1.00  0.00     0.184 A 
HETATM    6  N3  UNL     1     -28.677  20.865 -20.299  1.00  0.00    -0.186 N 
ENDROOT
BRANCH   6   7
HETATM    7  N4  UNL     1     -28.645  19.882 -19.291  1.00  0.00    -0.269 N 
ATOM      8  H4  UNL     1     -28.533  18.901 -19.549  1.00  0.00     0.190 HD
BRANCH   7   9
HETATM    9  C12 UNL     1     -28.769  20.235 -17.922  1.00  0.00     0.124 C 
HETATM   10  N5  UNL     1     -29.248  19.435 -17.058  1.00  0.00    -0.384 N 
ATOM     11  H52 UNL     1     -29.556  18.514 -17.368  1.00  0.00     0.157 HD
ATOM     12  H51 UNL     1     -29.337  19.689 -16.074  1.00  0.00     0.157 HD
BRANCH   9  13
HETATM   13  C13 UNL     1     -28.323  21.570 -17.472  1.00  0.00     0.009 A 
HETATM   14  C14 UNL     1     -27.051  22.055 -17.750  1.00  0.00     0.017 A 
HETATM   15  C15 UNL     1     -26.639  23.307 -17.314  1.00  0.00     0.025 A 
HETATM   16  C16 UNL     1     -27.486  24.108 -16.587  1.00  0.00     0.034 A 
HETATM   17 CL1  UNL     1     -27.026  25.691 -16.007  1.00  0.00    -0.084 Cl
HETATM   18  C17 UNL     1     -28.754  23.656 -16.293  1.00  0.00     0.025 A 
HETATM   19  C18 UNL     1     -29.140  22.404 -16.741  1.00  0.00     0.017 A 
ENDBRANCH   9  13
ENDBRANCH   7   9
ENDBRANCH   6   7
BRANCH   1  20
HETATM   20  N1  UNL     1     -31.485  21.979 -20.071  1.00  0.00    -0.224 N 
ATOM     21  H1  UNL     1     -31.658  22.759 -19.437  1.00  0.00     0.204 HD
BRANCH  20  22
HETATM   22  O1  UNL     1     -32.496  21.090 -20.262  1.00  0.00    -0.278 OA
HETATM   23  C1  UNL     1     -32.193  19.721 -20.393  1.00  0.00     0.238 C 
ENDBRANCH  20  22
ENDBRANCH   1  20
BRANCH   5  24
HETATM   24  O3  UNL     1     -26.477  20.647 -21.049  1.00  0.00    -0.344 OA
ATOM     25  H3  UNL     1     -25.634  21.067 -21.166  1.00  0.00     0.219 HD
ENDBRANCH   5  24
BRANCH   4  26
HETATM   26  C4  UNL     1     -27.045  22.801 -23.042  1.00  0.00     0.020 C 
HETATM   27  C5  UNL     1     -26.588  22.077 -24.185  1.00  0.00     0.001 C 
BRANCH  27  28
HETATM   28  C6  UNL     1     -25.763  22.642 -25.050  1.00  0.00     0.001 C 
BRANCH  28  29
HETATM   29  C7  UNL     1     -25.843  22.419 -26.461  1.00  0.00     0.017 C 
BRANCH  29  30
HETATM   30  C8  UNL     1     -26.165  21.187 -26.904  1.00  0.00     0.084 C 
BRANCH  30  31
HETATM   31  N2  UNL     1     -27.526  20.892 -27.150  1.00  0.00    -0.398 N 
HETATM   32  C9  UNL     1     -27.943  19.500 -27.063  1.00  0.00     0.148 C 
HETATM   33  C10 UNL     1     -28.477  21.962 -27.485  1.00  0.00     0.148 C 
ENDBRANCH  30  31
ENDBRANCH  29  30
ENDBRANCH  28  29
ENDBRANCH  27  28
ENDBRANCH   4  26
TORSDOF 11
ENDMDL
