MODEL 1
REMARK VINA RESULT: -9.058714785      0.000      0.000
REMARK  8 active torsions:
REMARK  status: ('A' for Active; 'I' for Inactive)
REMARK    1  A    between atoms: C5_5  and  C6_6 
REMARK    2  A    between atoms: N2_10  and  C8_11 
REMARK    3  A    between atoms: C11_14  and  C12_15 
REMARK    4  A    between atoms: C12_15  and  O1_16 
REMARK    5  A    between atoms: C12_15  and  N3_18 
REMARK    6  A    between atoms: N3_18  and  N4_20 
REMARK    7  A    between atoms: C13_27  and  C14_28 
REMARK    8  A    between atoms: C14_28  and  C15_29 
ROOT
HETATM    1  C12 UNL     1     -30.749  22.215 -20.338  1.00  0.00     0.288 C 
ENDROOT
BRANCH   1   2
HETATM    2  C11 UNL     1     -30.061  21.037 -19.673  1.00  0.00     0.090 A 
HETATM    3  C6  UNL     1     -29.118  21.096 -18.678  1.00  0.00     0.071 A 
HETATM    4  N1  UNL     1     -28.783  19.801 -18.393  1.00  0.00    -0.350 N 
HETATM    5  C7  UNL     1     -29.522  18.998 -19.212  1.00  0.00     0.184 A 
ATOM      6  H1  UNL     1     -28.105  19.492 -17.697  1.00  0.00     0.166 HD
HETATM    7  N2  UNL     1     -30.308  19.760 -19.999  1.00  0.00    -0.337 N 
BRANCH   3   8
HETATM    8  C5  UNL     1     -28.523  22.218 -17.971  1.00  0.00    -0.007 A 
HETATM    9  C4  UNL     1     -27.386  22.852 -18.411  1.00  0.00     0.014 A 
HETATM   10  C3  UNL     1     -26.848  23.919 -17.720  1.00  0.00     0.007 A 
HETATM   11  C2  UNL     1     -27.427  24.388 -16.566  1.00  0.00    -0.062 A 
HETATM   12  C1  UNL     1     -26.840  25.549 -15.814  1.00  0.00     0.048 C 
HETATM   13  C22 UNL     1     -28.565  23.768 -16.109  1.00  0.00     0.007 A 
HETATM   14  C21 UNL     1     -29.107  22.702 -16.793  1.00  0.00     0.014 A 
ENDBRANCH   3   8
BRANCH   7  15
HETATM   15  C8  UNL     1     -31.216  19.226 -20.981  1.00  0.00     0.082 C 
HETATM   16  C9  UNL     1     -32.580  18.917 -20.404  1.00  0.00     0.032 C 
HETATM   17  C10 UNL     1     -30.696  17.908 -21.563  1.00  0.00     0.032 C 
ENDBRANCH   7  15
ENDBRANCH   1   2
BRANCH   1  18
HETATM   18  O1  UNL     1     -32.114  22.132 -20.029  1.00  0.00    -0.370 OA
ATOM     19  H1  UNL     1     -32.509  22.964 -20.262  1.00  0.00     0.212 HD
ENDBRANCH   1  18
BRANCH   1  20
HETATM   20  N3  UNL     1     -30.517  22.217 -21.743  1.00  0.00    -0.278 N 
ATOM     21  H3  UNL     1     -30.330  21.295 -22.137  1.00  0.00     0.185 HD
BRANCH  20  22
HETATM   22  N4  UNL     1     -30.498  23.232 -22.662  1.00  0.00    -0.169 N 
HETATM   23  N5  UNL     1     -31.376  24.268 -22.545  1.00  0.00    -0.205 N 
HETATM   24  N6  UNL     1     -31.225  25.101 -23.528  1.00  0.00    -0.225 N 
ATOM     25  H5  UNL     1     -32.056  24.373 -21.791  1.00  0.00     0.212 HD
HETATM   26  N7  UNL     1     -30.278  24.647 -24.283  1.00  0.00    -0.270 N 
ATOM     27  H6  UNL     1     -31.757  25.959 -23.679  1.00  0.00     0.210 HD
HETATM   28  C13 UNL     1     -29.809  23.473 -23.752  1.00  0.00     0.143 A 
ATOM     29  H7  UNL     1     -29.935  25.090 -25.136  1.00  0.00     0.190 HD
BRANCH  28  30
HETATM   30  C14 UNL     1     -28.719  22.756 -24.388  1.00  0.00     0.120 C 
BRANCH  30  31
HETATM   31  C15 UNL     1     -27.557  22.808 -23.430  1.00  0.00    -0.051 A 
HETATM   32  C16 UNL     1     -26.815  23.967 -23.311  1.00  0.00     0.010 A 
HETATM   33  C17 UNL     1     -25.756  24.030 -22.453  1.00  0.00     0.043 A 
HETATM   34  C18 UNL     1     -25.421  22.937 -21.699  1.00  0.00     0.116 A 
HETATM   35  F1  UNL     1     -24.374  22.989 -20.847  1.00  0.00    -0.206 F 
HETATM   36  C19 UNL     1     -26.136  21.779 -21.796  1.00  0.00     0.043 A 
HETATM   37  C20 UNL     1     -27.227  21.715 -22.681  1.00  0.00     0.010 A 
ENDBRANCH  30  31
ENDBRANCH  28  30
ENDBRANCH  20  22
ENDBRANCH   1  20
TORSDOF 8
ENDMDL
MODEL 2
REMARK VINA RESULT: -9.039198824      0.973      1.055
REMARK  8 active torsions:
REMARK  status: ('A' for Active; 'I' for Inactive)
REMARK    1  A    between atoms: C5_5  and  C6_6 
REMARK    2  A    between atoms: N2_10  and  C8_11 
REMARK    3  A    between atoms: C11_14  and  C12_15 
REMARK    4  A    between atoms: C12_15  and  O1_16 
REMARK    5  A    between atoms: C12_15  and  N3_18 
REMARK    6  A    between atoms: N3_18  and  N4_20 
REMARK    7  A    between atoms: C13_27  and  C14_28 
REMARK    8  A    between atoms: C14_28  and  C15_29 
ROOT
HETATM    1  C12 UNL     1     -30.277  22.342 -20.550  1.00  0.00     0.288 C 
ENDROOT
BRANCH   1   2
HETATM    2  C11 UNL     1     -29.834  21.185 -19.671  1.00  0.00     0.090 A 
HETATM    3  C6  UNL     1     -29.055  21.265 -18.545  1.00  0.00     0.071 A 
HETATM    4  N1  UNL     1     -28.912  19.984 -18.088  1.00  0.00    -0.350 N 
HETATM    5  C7  UNL     1     -29.601  19.168 -18.938  1.00  0.00     0.184 A 
ATOM      6  H1  UNL     1     -28.388  19.692 -17.264  1.00  0.00     0.166 HD
HETATM    7  N2  UNL     1     -30.167  19.909 -19.912  1.00  0.00    -0.337 N 
BRANCH   3   8
HETATM    8  C5  UNL     1     -28.455  22.398 -17.859  1.00  0.00    -0.007 A 
HETATM    9  C4  UNL     1     -27.313  23.016 -18.308  1.00  0.00     0.014 A 
HETATM   10  C3  UNL     1     -26.771  24.093 -17.636  1.00  0.00     0.007 A 
HETATM   11  C2  UNL     1     -27.351  24.590 -16.494  1.00  0.00    -0.062 A 
HETATM   12  C1  UNL     1     -26.760  25.762 -15.764  1.00  0.00     0.048 C 
HETATM   13  C22 UNL     1     -28.496  23.985 -16.030  1.00  0.00     0.007 A 
HETATM   14  C21 UNL     1     -29.041  22.910 -16.694  1.00  0.00     0.014 A 
ENDBRANCH   3   8
BRANCH   7  15
HETATM   15  C8  UNL     1     -30.966  19.356 -20.976  1.00  0.00     0.082 C 
HETATM   16  C9  UNL     1     -32.404  19.125 -20.562  1.00  0.00     0.032 C 
HETATM   17  C10 UNL     1     -30.432  17.993 -21.425  1.00  0.00     0.032 C 
ENDBRANCH   7  15
ENDBRANCH   1   2
BRANCH   1  18
HETATM   18  O1  UNL     1     -31.667  22.463 -20.411  1.00  0.00    -0.370 OA
ATOM     19  H1  UNL     1     -31.906  22.063 -19.584  1.00  0.00     0.212 HD
ENDBRANCH   1  18
BRANCH   1  20
HETATM   20  N3  UNL     1     -29.889  22.135 -21.904  1.00  0.00    -0.278 N 
ATOM     21  H3  UNL     1     -29.793  21.153 -22.165  1.00  0.00     0.185 HD
BRANCH  20  22
HETATM   22  N4  UNL     1     -29.620  23.014 -22.919  1.00  0.00    -0.169 N 
HETATM   23  N5  UNL     1     -30.285  24.202 -22.979  1.00  0.00    -0.205 N 
HETATM   24  N6  UNL     1     -29.917  24.871 -24.029  1.00  0.00    -0.225 N 
ATOM     25  H5  UNL     1     -30.973  24.520 -22.297  1.00  0.00     0.212 HD
HETATM   26  N7  UNL     1     -29.035  24.162 -24.656  1.00  0.00    -0.270 N 
ATOM     27  H6  UNL     1     -30.262  25.789 -24.309  1.00  0.00     0.210 HD
HETATM   28  C13 UNL     1     -28.836  22.993 -23.970  1.00  0.00     0.143 A 
ATOM     29  H7  UNL     1     -28.564  24.430 -25.520  1.00  0.00     0.190 HD
BRANCH  28  30
HETATM   30  C14 UNL     1     -27.871  22.014 -24.440  1.00  0.00     0.120 C 
BRANCH  30  31
HETATM   31  C15 UNL     1     -26.528  22.454 -23.918  1.00  0.00    -0.051 A 
HETATM   32  C16 UNL     1     -25.673  23.169 -24.734  1.00  0.00     0.010 A 
HETATM   33  C17 UNL     1     -24.450  23.571 -24.280  1.00  0.00     0.043 A 
HETATM   34  C18 UNL     1     -24.062  23.264 -23.003  1.00  0.00     0.116 A 
HETATM   35  F1  UNL     1     -22.853  23.656 -22.543  1.00  0.00    -0.206 F 
HETATM   36  C19 UNL     1     -24.885  22.559 -22.175  1.00  0.00     0.043 A 
HETATM   37  C20 UNL     1     -26.145  22.146 -22.644  1.00  0.00     0.010 A 
ENDBRANCH  30  31
ENDBRANCH  28  30
ENDBRANCH  20  22
ENDBRANCH   1  20
TORSDOF 8
ENDMDL
MODEL 3
REMARK VINA RESULT: -9.012215388      1.934      5.352
REMARK  8 active torsions:
REMARK  status: ('A' for Active; 'I' for Inactive)
REMARK    1  A    between atoms: C5_5  and  C6_6 
REMARK    2  A    between atoms: N2_10  and  C8_11 
REMARK    3  A    between atoms: C11_14  and  C12_15 
REMARK    4  A    between atoms: C12_15  and  O1_16 
REMARK    5  A    between atoms: C12_15  and  N3_18 
REMARK    6  A    between atoms: N3_18  and  N4_20 
REMARK    7  A    between atoms: C13_27  and  C14_28 
REMARK    8  A    between atoms: C14_28  and  C15_29 
ROOT
HETATM    1  C12 UNL     1     -29.788  19.668 -21.627  1.00  0.00     0.288 C 
ENDROOT
BRANCH   1   2
HETATM    2  C11 UNL     1     -30.435  20.722 -22.508  1.00  0.00     0.090 A 
HETATM    3  C6  UNL     1     -29.810  21.791 -23.097  1.00  0.00     0.071 A 
HETATM    4  N1  UNL     1     -30.779  22.465 -23.789  1.00  0.00    -0.350 N 
HETATM    5  C7  UNL     1     -31.953  21.794 -23.606  1.00  0.00     0.184 A 
ATOM      6  H1  UNL     1     -30.647  23.312 -24.341  1.00  0.00     0.166 HD
HETATM    7  N2  UNL     1     -31.740  20.721 -22.817  1.00  0.00    -0.337 N 
BRANCH   3   8
HETATM    8  C5  UNL     1     -28.424  22.230 -23.089  1.00  0.00    -0.007 A 
HETATM    9  C4  UNL     1     -28.037  23.454 -22.600  1.00  0.00     0.014 A 
HETATM   10  C3  UNL     1     -26.711  23.840 -22.602  1.00  0.00     0.007 A 
HETATM   11  C2  UNL     1     -25.728  23.015 -23.093  1.00  0.00    -0.062 A 
HETATM   12  C1  UNL     1     -24.286  23.435 -23.095  1.00  0.00     0.048 C 
HETATM   13  C22 UNL     1     -26.095  21.785 -23.586  1.00  0.00     0.007 A 
HETATM   14  C21 UNL     1     -27.416  21.395 -23.588  1.00  0.00     0.014 A 
ENDBRANCH   3   8
BRANCH   7  15
HETATM   15  C8  UNL     1     -32.773  19.797 -22.426  1.00  0.00     0.082 C 
HETATM   16  C9  UNL     1     -33.622  19.347 -23.595  1.00  0.00     0.032 C 
HETATM   17  C10 UNL     1     -33.740  20.434 -21.423  1.00  0.00     0.032 C 
ENDBRANCH   7  15
ENDBRANCH   1   2
BRANCH   1  18
HETATM   18  O1  UNL     1     -29.838  18.452 -22.322  1.00  0.00    -0.370 OA
ATOM     19  H1  UNL     1     -30.752  18.265 -22.502  1.00  0.00     0.212 HD
ENDBRANCH   1  18
BRANCH   1  20
HETATM   20  N3  UNL     1     -30.437  19.590 -20.361  1.00  0.00    -0.278 N 
ATOM     21  H3  UNL     1     -31.438  19.404 -20.417  1.00  0.00     0.185 HD
BRANCH  20  22
HETATM   22  N4  UNL     1     -29.961  19.719 -19.084  1.00  0.00    -0.169 N 
HETATM   23  N5  UNL     1     -29.927  18.633 -18.261  1.00  0.00    -0.205 N 
HETATM   24  N6  UNL     1     -29.482  18.969 -17.089  1.00  0.00    -0.225 N 
ATOM     25  H5  UNL     1     -30.211  17.690 -18.529  1.00  0.00     0.212 HD
HETATM   26  N7  UNL     1     -29.223  20.236 -17.118  1.00  0.00    -0.270 N 
ATOM     27  H6  UNL     1     -29.359  18.347 -16.290  1.00  0.00     0.210 HD
HETATM   28  C13 UNL     1     -29.517  20.722 -18.365  1.00  0.00     0.143 A 
ATOM     29  H7  UNL     1     -28.858  20.785 -16.339  1.00  0.00     0.190 HD
BRANCH  28  30
HETATM   30  C14 UNL     1     -29.295  22.121 -18.686  1.00  0.00     0.120 C 
BRANCH  30  31
HETATM   31  C15 UNL     1     -27.804  22.299 -18.809  1.00  0.00    -0.051 A 
HETATM   32  C16 UNL     1     -27.095  21.546 -19.724  1.00  0.00     0.010 A 
HETATM   33  C17 UNL     1     -25.743  21.690 -19.845  1.00  0.00     0.043 A 
HETATM   34  C18 UNL     1     -25.078  22.588 -19.054  1.00  0.00     0.116 A 
HETATM   35  F1  UNL     1     -23.739  22.738 -19.165  1.00  0.00    -0.206 F 
HETATM   36  C19 UNL     1     -25.752  23.345 -18.141  1.00  0.00     0.043 A 
HETATM   37  C20 UNL     1     -27.145  23.196 -18.017  1.00  0.00     0.010 A 
ENDBRANCH  30  31
ENDBRANCH  28  30
ENDBRANCH  20  22
ENDBRANCH   1  20
TORSDOF 8
ENDMDL
MODEL 4
REMARK VINA RESULT: -9.004803525      1.597      1.829
REMARK  8 active torsions:
REMARK  status: ('A' for Active; 'I' for Inactive)
REMARK    1  A    between atoms: C5_5  and  C6_6 
REMARK    2  A    between atoms: N2_10  and  C8_11 
REMARK    3  A    between atoms: C11_14  and  C12_15 
REMARK    4  A    between atoms: C12_15  and  O1_16 
REMARK    5  A    between atoms: C12_15  and  N3_18 
REMARK    6  A    between atoms: N3_18  and  N4_20 
REMARK    7  A    between atoms: C13_27  and  C14_28 
REMARK    8  A    between atoms: C14_28  and  C15_29 
ROOT
HETATM    1  C12 UNL     1     -29.550  21.482 -20.650  1.00  0.00     0.288 C 
ENDROOT
BRANCH   1   2
HETATM    2  C11 UNL     1     -29.437  20.546 -19.460  1.00  0.00     0.090 A 
HETATM    3  C6  UNL     1     -28.929  20.854 -18.224  1.00  0.00     0.071 A 
HETATM    4  N1  UNL     1     -29.025  19.712 -17.478  1.00  0.00    -0.350 N 
HETATM    5  C7  UNL     1     -29.583  18.751 -18.271  1.00  0.00     0.184 A 
ATOM      6  H1  UNL     1     -28.732  19.598 -16.507  1.00  0.00     0.166 HD
HETATM    7  N2  UNL     1     -29.836  19.266 -19.491  1.00  0.00    -0.337 N 
BRANCH   3   8
HETATM    8  C5  UNL     1     -28.388  22.087 -17.677  1.00  0.00    -0.007 A 
HETATM    9  C4  UNL     1     -27.242  22.671 -18.159  1.00  0.00     0.014 A 
HETATM   10  C3  UNL     1     -26.756  23.846 -17.621  1.00  0.00     0.007 A 
HETATM   11  C2  UNL     1     -27.398  24.477 -16.584  1.00  0.00    -0.062 A 
HETATM   12  C1  UNL     1     -26.869  25.755 -15.999  1.00  0.00     0.048 C 
HETATM   13  C22 UNL     1     -28.548  23.908 -16.087  1.00  0.00     0.007 A 
HETATM   14  C21 UNL     1     -29.037  22.736 -16.619  1.00  0.00     0.014 A 
ENDBRANCH   3   8
BRANCH   7  15
HETATM   15  C8  UNL     1     -30.426  18.517 -20.570  1.00  0.00     0.082 C 
HETATM   16  C9  UNL     1     -31.938  18.575 -20.558  1.00  0.00     0.032 C 
HETATM   17  C10 UNL     1     -30.061  17.032 -20.482  1.00  0.00     0.032 C 
ENDBRANCH   7  15
ENDBRANCH   1   2
BRANCH   1  18
HETATM   18  O1  UNL     1     -30.898  21.851 -20.767  1.00  0.00    -0.370 OA
ATOM     19  H1  UNL     1     -30.953  22.522 -21.436  1.00  0.00     0.212 HD
ENDBRANCH   1  18
BRANCH   1  20
HETATM   20  N3  UNL     1     -29.059  20.865 -21.836  1.00  0.00    -0.278 N 
ATOM     21  H3  UNL     1     -28.665  19.936 -21.690  1.00  0.00     0.185 HD
BRANCH  20  22
HETATM   22  N4  UNL     1     -29.018  21.294 -23.136  1.00  0.00    -0.169 N 
HETATM   23  N5  UNL     1     -29.384  20.447 -24.139  1.00  0.00    -0.205 N 
HETATM   24  N6  UNL     1     -29.239  21.025 -25.292  1.00  0.00    -0.225 N 
ATOM     25  H5  UNL     1     -29.723  19.494 -24.003  1.00  0.00     0.212 HD
HETATM   26  N7  UNL     1     -28.793  22.220 -25.077  1.00  0.00    -0.270 N 
ATOM     27  H6  UNL     1     -29.441  20.612 -26.203  1.00  0.00     0.210 HD
HETATM   28  C13 UNL     1     -28.650  22.405 -23.727  1.00  0.00     0.143 A 
ATOM     29  H7  UNL     1     -28.582  22.913 -25.796  1.00  0.00     0.190 HD
BRANCH  28  30
HETATM   30  C14 UNL     1     -28.186  23.676 -23.199  1.00  0.00     0.120 C 
BRANCH  30  31
HETATM   31  C15 UNL     1     -26.699  23.540 -23.003  1.00  0.00    -0.051 A 
HETATM   32  C16 UNL     1     -25.838  23.844 -24.040  1.00  0.00     0.010 A 
HETATM   33  C17 UNL     1     -24.488  23.721 -23.882  1.00  0.00     0.043 A 
HETATM   34  C18 UNL     1     -23.976  23.292 -22.687  1.00  0.00     0.116 A 
HETATM   35  F1  UNL     1     -22.641  23.165 -22.520  1.00  0.00    -0.206 F 
HETATM   36  C19 UNL     1     -24.803  22.984 -21.645  1.00  0.00     0.043 A 
HETATM   37  C20 UNL     1     -26.193  23.111 -21.809  1.00  0.00     0.010 A 
ENDBRANCH  30  31
ENDBRANCH  28  30
ENDBRANCH  20  22
ENDBRANCH   1  20
TORSDOF 8
ENDMDL
MODEL 5
REMARK VINA RESULT: -8.965546481      2.014      5.367
REMARK  8 active torsions:
REMARK  status: ('A' for Active; 'I' for Inactive)
REMARK    1  A    between atoms: C5_5  and  C6_6 
REMARK    2  A    between atoms: N2_10  and  C8_11 
REMARK    3  A    between atoms: C11_14  and  C12_15 
REMARK    4  A    between atoms: C12_15  and  O1_16 
REMARK    5  A    between atoms: C12_15  and  N3_18 
REMARK    6  A    between atoms: N3_18  and  N4_20 
REMARK    7  A    between atoms: C13_27  and  C14_28 
REMARK    8  A    between atoms: C14_28  and  C15_29 
ROOT
HETATM    1  C12 UNL     1     -31.047  21.727 -20.595  1.00  0.00     0.288 C 
ENDROOT
BRANCH   1   2
HETATM    2  C11 UNL     1     -31.432  21.463 -22.040  1.00  0.00     0.090 A 
HETATM    3  C6  UNL     1     -30.638  21.646 -23.143  1.00  0.00     0.071 A 
HETATM    4  N1  UNL     1     -31.397  21.285 -24.223  1.00  0.00    -0.350 N 
HETATM    5  C7  UNL     1     -32.618  20.895 -23.752  1.00  0.00     0.184 A 
ATOM      6  H1  UNL     1     -31.105  21.304 -25.199  1.00  0.00     0.166 HD
HETATM    7  N2  UNL     1     -32.637  21.005 -22.408  1.00  0.00    -0.337 N 
BRANCH   3   8
HETATM    8  C5  UNL     1     -29.266  22.102 -23.286  1.00  0.00    -0.007 A 
HETATM    9  C4  UNL     1     -28.201  21.236 -23.357  1.00  0.00     0.014 A 
HETATM   10  C3  UNL     1     -26.908  21.700 -23.499  1.00  0.00     0.007 A 
HETATM   11  C2  UNL     1     -26.636  23.045 -23.573  1.00  0.00    -0.062 A 
HETATM   12  C1  UNL     1     -25.229  23.549 -23.726  1.00  0.00     0.048 C 
HETATM   13  C22 UNL     1     -27.688  23.928 -23.504  1.00  0.00     0.007 A 
HETATM   14  C21 UNL     1     -28.979  23.472 -23.363  1.00  0.00     0.014 A 
ENDBRANCH   3   8
BRANCH   7  15
HETATM   15  C8  UNL     1     -33.778  20.673 -21.594  1.00  0.00     0.082 C 
HETATM   16  C9  UNL     1     -33.564  19.416 -20.779  1.00  0.00     0.032 C 
HETATM   17  C10 UNL     1     -35.019  20.412 -22.453  1.00  0.00     0.032 C 
ENDBRANCH   7  15
ENDBRANCH   1   2
BRANCH   1  18
HETATM   18  O1  UNL     1     -30.610  23.057 -20.514  1.00  0.00    -0.370 OA
ATOM     19  H1  UNL     1     -30.734  23.448 -21.371  1.00  0.00     0.212 HD
ENDBRANCH   1  18
BRANCH   1  20
HETATM   20  N3  UNL     1     -30.052  20.808 -20.153  1.00  0.00    -0.278 N 
ATOM     21  H3  UNL     1     -29.532  20.361 -20.909  1.00  0.00     0.185 HD
BRANCH  20  22
HETATM   22  N4  UNL     1     -29.667  20.415 -18.899  1.00  0.00    -0.169 N 
HETATM   23  N5  UNL     1     -29.815  19.114 -18.523  1.00  0.00    -0.205 N 
HETATM   24  N6  UNL     1     -29.430  18.954 -17.293  1.00  0.00    -0.225 N 
ATOM     25  H5  UNL     1     -30.177  18.371 -19.122  1.00  0.00     0.212 HD
HETATM   26  N7  UNL     1     -29.035  20.105 -16.854  1.00  0.00    -0.270 N 
ATOM     27  H6  UNL     1     -29.438  18.079 -16.768  1.00  0.00     0.210 HD
HETATM   28  C13 UNL     1     -29.177  21.034 -17.852  1.00  0.00     0.143 A 
ATOM     29  H7  UNL     1     -28.677  20.291 -15.917  1.00  0.00     0.190 HD
BRANCH  28  30
HETATM   30  C14 UNL     1     -28.782  22.415 -17.639  1.00  0.00     0.120 C 
BRANCH  30  31
HETATM   31  C15 UNL     1     -27.403  22.561 -18.228  1.00  0.00    -0.051 A 
HETATM   32  C16 UNL     1     -27.255  22.804 -19.579  1.00  0.00     0.010 A 
HETATM   33  C17 UNL     1     -26.013  22.933 -20.131  1.00  0.00     0.043 A 
HETATM   34  C18 UNL     1     -24.900  22.820 -19.342  1.00  0.00     0.116 A 
HETATM   35  F1  UNL     1     -23.666  22.944 -19.878  1.00  0.00    -0.206 F 
HETATM   36  C19 UNL     1     -25.016  22.578 -18.004  1.00  0.00     0.043 A 
HETATM   37  C20 UNL     1     -26.295  22.446 -17.437  1.00  0.00     0.010 A 
ENDBRANCH  30  31
ENDBRANCH  28  30
ENDBRANCH  20  22
ENDBRANCH   1  20
TORSDOF 8
ENDMDL
