MODEL 1
REMARK VINA RESULT: -10.236350874      0.000      0.000
REMARK  6 active torsions:
REMARK  status: ('A' for Active; 'I' for Inactive)
REMARK    1  A    between atoms: C1_4  and  N2_5 
REMARK    2  A    between atoms: C1_4  and  C9_34 
REMARK    3  A    between atoms: N3_7  and  N4_9 
REMARK       I    between atoms: C2_11  and  N5_12 
REMARK       I    between atoms: C2_11  and  N10_27 
REMARK    4  A    between atoms: N5_12  and  C3_14 
REMARK    5  A    between atoms: C5_16  and  C6_17 
REMARK       I    between atoms: C6_17  and  N6_19 
REMARK    6  A    between atoms: N6_19  and  N7_20 
ROOT
HETATM    1  N4  UNL     1      20.700  35.674  38.628  1.00  0.00    -0.116 N 
ATOM      2  H4  UNL     1      20.577  34.730  38.993  1.00  0.00     0.207 HD
HETATM    3  C2  UNL     1      19.927  36.149  37.694  1.00  0.00     0.721 C 
HETATM    4  N5  UNL     1      20.160  37.452  37.239  1.00  0.00    -0.172 N 
ATOM      5  H5  UNL     1      21.110  37.666  36.937  1.00  0.00     0.186 HD
HETATM    6  N10 UNL     1      18.909  35.318  37.180  1.00  0.00    -0.080 N 
HETATM    7  C7  UNL     1      18.331  34.229  37.707  1.00  0.00     0.226 A 
HETATM    8  N11 UNL     1      17.401  33.710  36.903  1.00  0.00    -0.345 N 
ATOM      9  H11 UNL     1      16.825  32.887  37.079  1.00  0.00     0.167 HD
HETATM   10  C8  UNL     1      17.381  34.504  35.807  1.00  0.00     0.199 A 
HETATM   11  N12 UNL     1      18.286  35.461  35.985  1.00  0.00    -0.274 N 
ATOM     12  H12 UNL     1      18.484  36.203  35.314  1.00  0.00     0.189 HD
ENDROOT
BRANCH   1  13
HETATM   13  N3  UNL     1      21.676  36.490  39.093  1.00  0.00    -0.227 N 
HETATM   14  N2  UNL     1      21.754  37.248  39.986  1.00  0.00    -0.267 N 
ATOM     15  H2  UNL     1      22.679  37.677  39.995  1.00  0.00     0.190 HD
ATOM     16  H3  UNL     1      22.534  36.433  38.545  1.00  0.00     0.209 HD
BRANCH  14  17
HETATM   17  C1  UNL     1      20.999  37.742  41.021  1.00  0.00     0.181 C 
HETATM   18  N1  UNL     1      19.685  37.803  40.866  1.00  0.00    -0.380 N 
ATOM     19  H12 UNL     1      19.340  37.461  39.970  1.00  0.00     0.158 HD
ATOM     20  H11 UNL     1      19.125  38.170  41.635  1.00  0.00     0.158 HD
BRANCH  17  21
HETATM   21  C9  UNL     1      21.491  38.228  42.296  1.00  0.00     0.299 C 
HETATM   22  N13 UNL     1      21.759  37.383  43.376  1.00  0.00    -0.054 NA
HETATM   23  O2  UNL     1      21.710  39.480  42.480  1.00  0.00    -0.268 OA
ENDBRANCH  17  21
ENDBRANCH  14  17
ENDBRANCH   1  13
BRANCH   4  24
HETATM   24  C3  UNL     1      19.222  38.503  37.153  1.00  0.00     0.138 A 
HETATM   25  C4  UNL     1      18.490  38.738  35.970  1.00  0.00     0.088 A 
HETATM   26  C5  UNL     1      17.667  39.819  36.190  1.00  0.00     0.136 A 
HETATM   27  N8  UNL     1      17.896  40.226  37.461  1.00  0.00    -0.293 N 
HETATM   28  N9  UNL     1      18.810  39.439  37.997  1.00  0.00    -0.284 N 
ATOM     29  H8  UNL     1      17.438  41.010  37.925  1.00  0.00     0.187 HD
ATOM     30  H9  UNL     1      19.160  39.540  38.950  1.00  0.00     0.188 HD
BRANCH  26  31
HETATM   31  C6  UNL     1      16.675  40.410  35.242  1.00  0.00     0.362 C 
HETATM   32  O1  UNL     1      15.554  40.661  35.659  1.00  0.00    -0.247 OA
HETATM   33  N6  UNL     1      17.138  40.638  33.912  1.00  0.00    -0.287 NA
BRANCH  33  34
HETATM   34  N7  UNL     1      17.546  40.839  32.743  1.00  0.00    -0.276 N 
ATOM     35  H72 UNL     1      17.265  40.675  33.710  1.00  0.00     0.191 HD
ATOM     36  H71 UNL     1      17.876  41.003  31.793  1.00  0.00     0.191 HD
ENDBRANCH  33  34
ENDBRANCH  26  31
ENDBRANCH   4  24
TORSDOF 6
ENDMDL
MODEL 2
REMARK VINA RESULT: -9.743018735      1.438      6.479
REMARK  6 active torsions:
REMARK  status: ('A' for Active; 'I' for Inactive)
REMARK    1  A    between atoms: C1_4  and  N2_5 
REMARK    2  A    between atoms: C1_4  and  C9_34 
REMARK    3  A    between atoms: N3_7  and  N4_9 
REMARK       I    between atoms: C2_11  and  N5_12 
REMARK       I    between atoms: C2_11  and  N10_27 
REMARK    4  A    between atoms: N5_12  and  C3_14 
REMARK    5  A    between atoms: C5_16  and  C6_17 
REMARK       I    between atoms: C6_17  and  N6_19 
REMARK    6  A    between atoms: N6_19  and  N7_20 
ROOT
HETATM    1  N4  UNL     1      18.216  37.669  35.521  1.00  0.00    -0.116 N 
ATOM      2  H4  UNL     1      17.966  37.191  34.655  1.00  0.00     0.207 HD
HETATM    3  C2  UNL     1      18.332  37.023  36.645  1.00  0.00     0.721 C 
HETATM    4  N5  UNL     1      18.674  37.746  37.794  1.00  0.00    -0.172 N 
ATOM      5  H5  UNL     1      18.097  38.559  38.008  1.00  0.00     0.186 HD
HETATM    6  N10 UNL     1      18.089  35.632  36.647  1.00  0.00    -0.080 N 
HETATM    7  C7  UNL     1      18.101  34.750  35.639  1.00  0.00     0.226 A 
HETATM    8  N11 UNL     1      17.811  33.512  36.045  1.00  0.00    -0.345 N 
ATOM      9  H11 UNL     1      17.758  32.671  35.470  1.00  0.00     0.167 HD
HETATM   10  C8  UNL     1      17.603  33.605  37.380  1.00  0.00     0.199 A 
HETATM   11  N12 UNL     1      17.773  34.877  37.727  1.00  0.00    -0.274 N 
ATOM     12  H12 UNL     1      17.679  35.236  38.677  1.00  0.00     0.189 HD
ENDROOT
BRANCH   1  13
HETATM   13  N3  UNL     1      18.444  39.003  35.552  1.00  0.00    -0.227 N 
HETATM   14  N2  UNL     1      17.757  39.953  35.506  1.00  0.00    -0.267 N 
ATOM     15  H2  UNL     1      18.328  40.797  35.557  1.00  0.00     0.190 HD
ATOM     16  H3  UNL     1      19.434  39.234  35.634  1.00  0.00     0.209 HD
BRANCH  14  17
HETATM   17  C1  UNL     1      16.430  40.293  35.406  1.00  0.00     0.181 C 
HETATM   18  N1  UNL     1      16.069  41.145  34.459  1.00  0.00    -0.380 N 
ATOM     19  H12 UNL     1      16.829  41.478  33.866  1.00  0.00     0.158 HD
ATOM     20  H11 UNL     1      15.084  41.397  34.385  1.00  0.00     0.158 HD
BRANCH  17  21
HETATM   21  C9  UNL     1      15.349  39.818  36.250  1.00  0.00     0.299 C 
HETATM   22  N13 UNL     1      15.493  38.746  37.132  1.00  0.00    -0.054 NA
HETATM   23  O2  UNL     1      14.197  40.387  36.222  1.00  0.00    -0.268 OA
ENDBRANCH  17  21
ENDBRANCH  14  17
ENDBRANCH   1  13
BRANCH   4  24
HETATM   24  C3  UNL     1      19.731  37.472  38.688  1.00  0.00     0.138 A 
HETATM   25  C4  UNL     1      20.055  38.361  39.735  1.00  0.00     0.088 A 
HETATM   26  C5  UNL     1      21.119  37.828  40.427  1.00  0.00     0.136 A 
HETATM   27  N8  UNL     1      21.430  36.660  39.818  1.00  0.00    -0.293 N 
HETATM   28  N9  UNL     1      20.603  36.479  38.804  1.00  0.00    -0.284 N 
ATOM     29  H8  UNL     1      22.178  36.025  40.096  1.00  0.00     0.187 HD
ATOM     30  H9  UNL     1      20.631  35.671  38.183  1.00  0.00     0.188 HD
BRANCH  26  31
HETATM   31  C6  UNL     1      21.781  38.389  41.643  1.00  0.00     0.362 C 
HETATM   32  O1  UNL     1      22.256  39.514  41.577  1.00  0.00    -0.247 OA
HETATM   33  N6  UNL     1      21.791  37.547  42.795  1.00  0.00    -0.287 NA
BRANCH  33  34
HETATM   34  N7  UNL     1      21.800  36.807  43.807  1.00  0.00    -0.276 N 
ATOM     35  H72 UNL     1      21.808  37.368  42.954  1.00  0.00     0.191 HD
ATOM     36  H71 UNL     1      21.806  36.207  44.631  1.00  0.00     0.191 HD
ENDBRANCH  33  34
ENDBRANCH  26  31
ENDBRANCH   4  24
TORSDOF 6
ENDMDL
MODEL 3
REMARK VINA RESULT: -9.725223055      2.316      6.185
REMARK  6 active torsions:
REMARK  status: ('A' for Active; 'I' for Inactive)
REMARK    1  A    between atoms: C1_4  and  N2_5 
REMARK    2  A    between atoms: C1_4  and  C9_34 
REMARK    3  A    between atoms: N3_7  and  N4_9 
REMARK       I    between atoms: C2_11  and  N5_12 
REMARK       I    between atoms: C2_11  and  N10_27 
REMARK    4  A    between atoms: N5_12  and  C3_14 
REMARK    5  A    between atoms: C5_16  and  C6_17 
REMARK       I    between atoms: C6_17  and  N6_19 
REMARK    6  A    between atoms: N6_19  and  N7_20 
ROOT
HETATM    1  N4  UNL     1      17.424  36.066  35.830  1.00  0.00    -0.116 N 
ATOM      2  H4  UNL     1      16.467  36.337  35.604  1.00  0.00     0.207 HD
HETATM    3  C2  UNL     1      18.262  36.907  36.364  1.00  0.00     0.721 C 
HETATM    4  N5  UNL     1      19.560  36.464  36.643  1.00  0.00    -0.172 N 
ATOM      5  H5  UNL     1      20.068  36.030  35.872  1.00  0.00     0.186 HD
HETATM    6  N10 UNL     1      17.820  38.223  36.618  1.00  0.00    -0.080 N 
HETATM    7  C7  UNL     1      16.578  38.710  36.747  1.00  0.00     0.226 A 
HETATM    8  N11 UNL     1      16.570  40.024  36.979  1.00  0.00    -0.345 N 
ATOM      9  H11 UNL     1      15.754  40.621  37.113  1.00  0.00     0.167 HD
HETATM   10  C8  UNL     1      17.871  40.399  37.000  1.00  0.00     0.199 A 
HETATM   11  N12 UNL     1      18.607  39.313  36.785  1.00  0.00    -0.274 N 
ATOM     12  H12 UNL     1      19.627  39.302  36.750  1.00  0.00     0.189 HD
ENDROOT
BRANCH   1  13
HETATM   13  N3  UNL     1      17.880  34.814  35.587  1.00  0.00    -0.227 N 
HETATM   14  N2  UNL     1      18.021  33.851  36.243  1.00  0.00    -0.267 N 
ATOM     15  H2  UNL     1      18.404  33.097  35.674  1.00  0.00     0.190 HD
ATOM     16  H3  UNL     1      18.164  34.677  34.617  1.00  0.00     0.209 HD
BRANCH  14  17
HETATM   17  C1  UNL     1      17.835  33.416  37.533  1.00  0.00     0.181 C 
HETATM   18  N1  UNL     1      16.602  33.381  38.012  1.00  0.00    -0.380 N 
ATOM     19  H12 UNL     1      15.876  33.682  37.360  1.00  0.00     0.158 HD
ATOM     20  H11 UNL     1      16.464  33.059  38.969  1.00  0.00     0.158 HD
BRANCH  17  21
HETATM   21  C9  UNL     1      18.866  32.988  38.459  1.00  0.00     0.299 C 
HETATM   22  N13 UNL     1      19.316  31.668  38.535  1.00  0.00    -0.054 NA
HETATM   23  O2  UNL     1      19.423  33.830  39.255  1.00  0.00    -0.268 OA
ENDBRANCH  17  21
ENDBRANCH  14  17
ENDBRANCH   1  13
BRANCH   4  24
HETATM   24  C3  UNL     1      20.243  36.551  37.875  1.00  0.00     0.138 A 
HETATM   25  C4  UNL     1      19.715  37.290  38.955  1.00  0.00     0.088 A 
HETATM   26  C5  UNL     1      20.599  37.191  40.006  1.00  0.00     0.136 A 
HETATM   27  N8  UNL     1      21.626  36.421  39.576  1.00  0.00    -0.293 N 
HETATM   28  N9  UNL     1      21.391  36.064  38.326  1.00  0.00    -0.284 N 
ATOM     29  H8  UNL     1      22.445  36.160  40.125  1.00  0.00     0.187 HD
ATOM     30  H9  UNL     1      22.019  35.482  37.772  1.00  0.00     0.188 HD
BRANCH  26  31
HETATM   31  C6  UNL     1      20.447  37.768  41.375  1.00  0.00     0.362 C 
HETATM   32  O1  UNL     1      19.559  38.587  41.563  1.00  0.00    -0.247 OA
HETATM   33  N6  UNL     1      21.366  37.296  42.359  1.00  0.00    -0.287 NA
BRANCH  33  34
HETATM   34  N7  UNL     1      22.173  36.881  43.224  1.00  0.00    -0.276 N 
ATOM     35  H72 UNL     1      21.557  37.245  42.497  1.00  0.00     0.191 HD
ATOM     36  H71 UNL     1      22.829  36.542  43.928  1.00  0.00     0.191 HD
ENDBRANCH  33  34
ENDBRANCH  26  31
ENDBRANCH   4  24
TORSDOF 6
ENDMDL
MODEL 4
REMARK VINA RESULT: -9.439337926      3.092      5.323
REMARK  6 active torsions:
REMARK  status: ('A' for Active; 'I' for Inactive)
REMARK    1  A    between atoms: C1_4  and  N2_5 
REMARK    2  A    between atoms: C1_4  and  C9_34 
REMARK    3  A    between atoms: N3_7  and  N4_9 
REMARK       I    between atoms: C2_11  and  N5_12 
REMARK       I    between atoms: C2_11  and  N10_27 
REMARK    4  A    between atoms: N5_12  and  C3_14 
REMARK    5  A    between atoms: C5_16  and  C6_17 
REMARK       I    between atoms: C6_17  and  N6_19 
REMARK    6  A    between atoms: N6_19  and  N7_20 
ROOT
HETATM    1  N4  UNL     1      20.093  36.166  37.923  1.00  0.00    -0.116 N 
ATOM      2  H4  UNL     1      20.701  35.456  38.332  1.00  0.00     0.207 HD
HETATM    3  C2  UNL     1      19.843  37.285  38.540  1.00  0.00     0.721 C 
HETATM    4  N5  UNL     1      18.996  38.211  37.918  1.00  0.00    -0.172 N 
ATOM      5  H5  UNL     1      18.088  37.862  37.612  1.00  0.00     0.186 HD
HETATM    6  N10 UNL     1      20.426  37.496  39.807  1.00  0.00    -0.080 N 
HETATM    7  C7  UNL     1      21.492  36.918  40.378  1.00  0.00     0.226 A 
HETATM    8  N11 UNL     1      21.727  37.388  41.604  1.00  0.00    -0.345 N 
ATOM      9  H11 UNL     1      22.476  37.108  42.238  1.00  0.00     0.167 HD
HETATM   10  C8  UNL     1      20.765  38.313  41.832  1.00  0.00     0.199 A 
HETATM   11  N12 UNL     1      19.995  38.369  40.751  1.00  0.00    -0.274 N 
ATOM     12  H12 UNL     1      19.189  38.985  40.644  1.00  0.00     0.189 HD
ENDROOT
BRANCH   1  13
HETATM   13  N3  UNL     1      19.511  35.987  36.713  1.00  0.00    -0.227 N 
HETATM   14  N2  UNL     1      18.739  35.216  36.281  1.00  0.00    -0.267 N 
ATOM     15  H2  UNL     1      18.553  35.424  35.301  1.00  0.00     0.190 HD
ATOM     16  H3  UNL     1      19.810  36.677  36.024  1.00  0.00     0.209 HD
BRANCH  14  17
HETATM   17  C1  UNL     1      18.007  34.122  36.674  1.00  0.00     0.181 C 
HETATM   18  N1  UNL     1      17.517  33.325  35.738  1.00  0.00    -0.380 N 
ATOM     19  H12 UNL     1      17.740  33.597  34.780  1.00  0.00     0.158 HD
ATOM     20  H11 UNL     1      16.973  32.514  36.029  1.00  0.00     0.158 HD
BRANCH  17  21
HETATM   21  C9  UNL     1      17.691  33.736  38.036  1.00  0.00     0.299 C 
HETATM   22  N13 UNL     1      18.606  33.847  39.086  1.00  0.00    -0.054 NA
HETATM   23  O2  UNL     1      16.529  33.276  38.335  1.00  0.00    -0.268 OA
ENDBRANCH  17  21
ENDBRANCH  14  17
ENDBRANCH   1  13
BRANCH   4  24
HETATM   24  C3  UNL     1      19.263  39.573  37.668  1.00  0.00     0.138 A 
HETATM   25  C4  UNL     1      20.501  39.994  37.139  1.00  0.00     0.088 A 
HETATM   26  C5  UNL     1      20.463  41.364  37.010  1.00  0.00     0.136 A 
HETATM   27  N8  UNL     1      19.244  41.758  37.448  1.00  0.00    -0.293 N 
HETATM   28  N9  UNL     1      18.566  40.691  37.827  1.00  0.00    -0.284 N 
ATOM     29  H8  UNL     1      18.906  42.720  37.479  1.00  0.00     0.187 HD
ATOM     30  H9  UNL     1      17.617  40.721  38.200  1.00  0.00     0.188 HD
BRANCH  26  31
HETATM   31  C6  UNL     1      21.526  42.251  36.452  1.00  0.00     0.362 C 
HETATM   32  O1  UNL     1      22.520  41.731  35.967  1.00  0.00    -0.247 OA
HETATM   33  N6  UNL     1      21.276  43.654  36.530  1.00  0.00    -0.287 NA
BRANCH  33  34
HETATM   34  N7  UNL     1      21.055  44.886  36.597  1.00  0.00    -0.276 N 
ATOM     35  H72 UNL     1      21.185  43.877  36.525  1.00  0.00     0.191 HD
ATOM     36  H71 UNL     1      20.877  45.889  36.652  1.00  0.00     0.191 HD
ENDBRANCH  33  34
ENDBRANCH  26  31
ENDBRANCH   4  24
TORSDOF 6
ENDMDL
MODEL 5
REMARK VINA RESULT: -9.429923918      1.485      1.877
REMARK  6 active torsions:
REMARK  status: ('A' for Active; 'I' for Inactive)
REMARK    1  A    between atoms: C1_4  and  N2_5 
REMARK    2  A    between atoms: C1_4  and  C9_34 
REMARK    3  A    between atoms: N3_7  and  N4_9 
REMARK       I    between atoms: C2_11  and  N5_12 
REMARK       I    between atoms: C2_11  and  N10_27 
REMARK    4  A    between atoms: N5_12  and  C3_14 
REMARK    5  A    between atoms: C5_16  and  C6_17 
REMARK       I    between atoms: C6_17  and  N6_19 
REMARK    6  A    between atoms: N6_19  and  N7_20 
ROOT
HETATM    1  N4  UNL     1      20.485  35.241  39.162  1.00  0.00    -0.116 N 
ATOM      2  H4  UNL     1      20.207  34.547  39.855  1.00  0.00     0.207 HD
HETATM    3  C2  UNL     1      19.849  35.368  38.033  1.00  0.00     0.721 C 
HETATM    4  N5  UNL     1      20.290  36.339  37.127  1.00  0.00    -0.172 N 
ATOM      5  H5  UNL     1      21.279  36.313  36.878  1.00  0.00     0.186 HD
HETATM    6  N10 UNL     1      18.759  34.507  37.778  1.00  0.00    -0.080 N 
HETATM    7  C7  UNL     1      18.002  33.795  38.623  1.00  0.00     0.226 A 
HETATM    8  N11 UNL     1      17.062  33.090  37.990  1.00  0.00    -0.345 N 
ATOM      9  H11 UNL     1      16.367  32.474  38.411  1.00  0.00     0.167 HD
HETATM   10  C8  UNL     1      17.225  33.362  36.674  1.00  0.00     0.199 A 
HETATM   11  N12 UNL     1      18.242  34.211  36.561  1.00  0.00    -0.274 N 
ATOM     12  H12 UNL     1      18.585  34.589  35.678  1.00  0.00     0.189 HD
ENDROOT
BRANCH   1  13
HETATM   13  N3  UNL     1      21.533  36.073  39.373  1.00  0.00    -0.227 N 
HETATM   14  N2  UNL     1      21.705  37.020  40.044  1.00  0.00    -0.267 N 
ATOM     15  H2  UNL     1      22.655  37.368  39.914  1.00  0.00     0.190 HD
ATOM     16  H3  UNL     1      22.356  35.818  38.827  1.00  0.00     0.209 HD
BRANCH  14  17
HETATM   17  C1  UNL     1      21.037  37.809  40.948  1.00  0.00     0.181 C 
HETATM   18  N1  UNL     1      19.793  38.166  40.671  1.00  0.00    -0.380 N 
ATOM     19  H12 UNL     1      19.427  37.806  39.790  1.00  0.00     0.158 HD
ATOM     20  H11 UNL     1      19.297  38.752  41.342  1.00  0.00     0.158 HD
BRANCH  17  21
HETATM   21  C9  UNL     1      21.558  38.319  42.202  1.00  0.00     0.299 C 
HETATM   22  N13 UNL     1      21.750  37.513  43.327  1.00  0.00    -0.054 NA
HETATM   23  O2  UNL     1      21.878  39.558  42.324  1.00  0.00    -0.268 OA
ENDBRANCH  17  21
ENDBRANCH  14  17
ENDBRANCH   1  13
BRANCH   4  24
HETATM   24  C3  UNL     1      19.517  37.352  36.521  1.00  0.00     0.138 A 
HETATM   25  C4  UNL     1      19.536  38.678  37.004  1.00  0.00     0.088 A 
HETATM   26  C5  UNL     1      18.688  39.426  36.219  1.00  0.00     0.136 A 
HETATM   27  N8  UNL     1      18.171  38.581  35.295  1.00  0.00    -0.293 N 
HETATM   28  N9  UNL     1      18.673  37.376  35.498  1.00  0.00    -0.284 N 
ATOM     29  H8  UNL     1      17.506  38.834  34.565  1.00  0.00     0.187 HD
ATOM     30  H9  UNL     1      18.438  36.560  34.935  1.00  0.00     0.188 HD
BRANCH  26  31
HETATM   31  C6  UNL     1      18.418  40.891  36.319  1.00  0.00     0.362 C 
HETATM   32  O1  UNL     1      17.268  41.280  36.172  1.00  0.00    -0.247 OA
HETATM   33  N6  UNL     1      19.548  41.719  36.589  1.00  0.00    -0.287 NA
BRANCH  33  34
HETATM   34  N7  UNL     1      20.541  42.446  36.828  1.00  0.00    -0.276 N 
ATOM     35  H72 UNL     1      19.734  41.839  36.685  1.00  0.00     0.191 HD
ATOM     36  H71 UNL     1      21.349  43.038  37.021  1.00  0.00     0.191 HD
ENDBRANCH  33  34
ENDBRANCH  26  31
ENDBRANCH   4  24
TORSDOF 6
ENDMDL
