MODEL 1
REMARK VINA RESULT: -8.693211363      0.000      0.000
REMARK  8 active torsions:
REMARK  status: ('A' for Active; 'I' for Inactive)
REMARK    1  A    between atoms: N1_1  and  C1_5 
REMARK    2  A    between atoms: C1_5  and  N2_6 
REMARK    3  A    between atoms: C3_11  and  S1_12 
REMARK    4  A    between atoms: S1_12  and  C4_13 
REMARK    5  A    between atoms: C6_18  and  O1_19 
REMARK    6  A    between atoms: C6_18  and  C7_21 
REMARK       I    between atoms: C7_21  and  N7_23 
REMARK    7  A    between atoms: C11_27  and  C12_28 
REMARK    8  A    between atoms: C12_28  and  O3_29 
ROOT
HETATM    1  C4  UNL     1      18.872  38.260  36.567  1.00  0.00     0.111 C 
HETATM    2  N5  UNL     1      19.894  38.897  37.011  1.00  0.00    -0.298 N 
ATOM      3  H5  UNL     1      20.842  38.520  37.021  1.00  0.00     0.183 HD
HETATM    4  N6  UNL     1      19.555  40.167  37.478  1.00  0.00    -0.137 NA
HETATM    5  C5  UNL     1      18.125  40.106  37.797  1.00  0.00     0.190 C 
HETATM    6  C6  UNL     1      17.692  39.140  36.707  1.00  0.00     0.203 C 
ENDROOT
BRANCH   1   7
HETATM    7  S1  UNL     1      18.875  36.585  35.873  1.00  0.00    -0.035 SA
BRANCH   7   8
HETATM    8  C3  UNL     1      18.627  35.420  37.215  1.00  0.00     0.163 C 
HETATM    9  N2  UNL     1      19.370  35.384  38.423  1.00  0.00    -0.247 N 
HETATM   10  N3  UNL     1      19.262  34.096  38.944  1.00  0.00    -0.116 NA
HETATM   11  C2  UNL     1      17.893  33.750  38.547  1.00  0.00     0.258 C 
HETATM   12  N4  UNL     1      17.747  34.458  37.272  1.00  0.00    -0.354 N 
ATOM     13  H4  UNL     1      17.066  34.235  36.546  1.00  0.00     0.163 HD
BRANCH   9  14
HETATM   14  C1  UNL     1      20.110  36.491  39.009  1.00  0.00     0.375 C 
BRANCH  14  15
HETATM   15  N1  UNL     1      21.492  36.170  39.197  1.00  0.00    -0.062 N 
ATOM     16  H13 UNL     1      21.927  35.880  38.322  1.00  0.00     0.276 HD
ATOM     17  H12 UNL     1      22.044  37.007  39.382  1.00  0.00     0.276 HD
ATOM     18  H11 UNL     1      21.624  35.471  39.926  1.00  0.00     0.276 HD
ENDBRANCH  14  15
ENDBRANCH   9  14
ENDBRANCH   7   8
ENDBRANCH   1   7
BRANCH   6  19
HETATM   19  O1  UNL     1      16.670  38.354  37.225  1.00  0.00    -0.373 OA
ATOM     20  H1  UNL     1      16.108  38.123  36.495  1.00  0.00     0.211 HD
ENDBRANCH   6  19
BRANCH   6  21
HETATM   21  C7  UNL     1      17.352  39.838  35.459  1.00  0.00     0.263 C 
HETATM   22  O2  UNL     1      18.174  39.648  34.498  1.00  0.00    -0.269 OA
HETATM   23  N7  UNL     1      16.217  40.665  35.291  1.00  0.00    -0.342 N 
HETATM   24  C8  UNL     1      15.250  40.911  36.344  1.00  0.00     0.126 C 
HETATM   25  C11 UNL     1      15.779  41.404  34.142  1.00  0.00     0.111 C 
HETATM   26  C9  UNL     1      14.122  41.728  35.700  1.00  0.00     0.022 C 
HETATM   27  C10 UNL     1      14.269  41.243  34.250  1.00  0.00     0.029 C 
BRANCH  25  28
HETATM   28  C12 UNL     1      16.312  40.958  32.830  1.00  0.00     0.189 C 
BRANCH  28  29
HETATM   29  O3  UNL     1      17.413  41.805  32.541  1.00  0.00    -0.399 OA
ATOM     30  H3  UNL     1      18.173  41.239  32.478  1.00  0.00     0.209 HD
ENDBRANCH  28  29
ENDBRANCH  25  28
ENDBRANCH   6  21
TORSDOF 8
ENDMDL
MODEL 2
REMARK VINA RESULT: -8.142071179      0.833      1.768
REMARK  8 active torsions:
REMARK  status: ('A' for Active; 'I' for Inactive)
REMARK    1  A    between atoms: N1_1  and  C1_5 
REMARK    2  A    between atoms: C1_5  and  N2_6 
REMARK    3  A    between atoms: C3_11  and  S1_12 
REMARK    4  A    between atoms: S1_12  and  C4_13 
REMARK    5  A    between atoms: C6_18  and  O1_19 
REMARK    6  A    between atoms: C6_18  and  C7_21 
REMARK       I    between atoms: C7_21  and  N7_23 
REMARK    7  A    between atoms: C11_27  and  C12_28 
REMARK    8  A    between atoms: C12_28  and  O3_29 
ROOT
HETATM    1  C4  UNL     1      18.722  38.722  36.522  1.00  0.00     0.111 C 
HETATM    2  N5  UNL     1      19.741  39.395  36.920  1.00  0.00    -0.298 N 
ATOM      3  H5  UNL     1      20.698  39.042  36.907  1.00  0.00     0.183 HD
HETATM    4  N6  UNL     1      19.384  40.665  37.372  1.00  0.00    -0.137 NA
HETATM    5  C5  UNL     1      17.967  40.575  37.739  1.00  0.00     0.190 C 
HETATM    6  C6  UNL     1      17.525  39.575  36.682  1.00  0.00     0.203 C 
ENDROOT
BRANCH   1   7
HETATM    7  S1  UNL     1      18.746  37.034  35.862  1.00  0.00    -0.035 SA
BRANCH   7   8
HETATM    8  C3  UNL     1      19.129  35.910  37.207  1.00  0.00     0.163 C 
HETATM    9  N2  UNL     1      18.315  34.829  37.634  1.00  0.00    -0.247 N 
HETATM   10  N3  UNL     1      18.655  34.545  38.956  1.00  0.00    -0.116 NA
HETATM   11  C2  UNL     1      20.094  34.828  38.939  1.00  0.00     0.258 C 
HETATM   12  N4  UNL     1      20.188  35.923  37.969  1.00  0.00    -0.354 N 
ATOM     13  H4  UNL     1      20.958  36.589  37.901  1.00  0.00     0.163 HD
BRANCH   9  14
HETATM   14  C1  UNL     1      17.309  34.145  36.838  1.00  0.00     0.375 C 
BRANCH  14  15
HETATM   15  N1  UNL     1      17.891  33.178  35.958  1.00  0.00    -0.062 N 
ATOM     16  H13 UNL     1      17.299  32.352  35.870  1.00  0.00     0.276 HD
ATOM     17  H12 UNL     1      17.867  33.496  34.989  1.00  0.00     0.276 HD
ATOM     18  H11 UNL     1      18.838  32.927  36.241  1.00  0.00     0.276 HD
ENDBRANCH  14  15
ENDBRANCH   9  14
ENDBRANCH   7   8
ENDBRANCH   1   7
BRANCH   6  19
HETATM   19  O1  UNL     1      16.541  38.775  37.249  1.00  0.00    -0.373 OA
ATOM     20  H1  UNL     1      15.721  39.019  36.836  1.00  0.00     0.211 HD
ENDBRANCH   6  19
BRANCH   6  21
HETATM   21  C7  UNL     1      17.128  40.239  35.433  1.00  0.00     0.263 C 
HETATM   22  O2  UNL     1      17.985  40.157  34.487  1.00  0.00    -0.269 OA
HETATM   23  N7  UNL     1      15.905  40.925  35.247  1.00  0.00    -0.342 N 
HETATM   24  C8  UNL     1      14.896  41.044  36.282  1.00  0.00     0.126 C 
HETATM   25  C11 UNL     1      15.404  41.617  34.094  1.00  0.00     0.111 C 
HETATM   26  C9  UNL     1      13.690  41.726  35.621  1.00  0.00     0.022 C 
HETATM   27  C10 UNL     1      13.922  41.275  34.171  1.00  0.00     0.029 C 
BRANCH  25  28
HETATM   28  C12 UNL     1      16.012  41.249  32.790  1.00  0.00     0.189 C 
BRANCH  28  29
HETATM   29  O3  UNL     1      16.996  42.235  32.521  1.00  0.00    -0.399 OA
ATOM     30  H3  UNL     1      17.694  41.791  32.055  1.00  0.00     0.209 HD
ENDBRANCH  28  29
ENDBRANCH  25  28
ENDBRANCH   6  21
TORSDOF 8
ENDMDL
MODEL 3
REMARK VINA RESULT: -7.640737464      2.136      6.651
REMARK  8 active torsions:
REMARK  status: ('A' for Active; 'I' for Inactive)
REMARK    1  A    between atoms: N1_1  and  C1_5 
REMARK    2  A    between atoms: C1_5  and  N2_6 
REMARK    3  A    between atoms: C3_11  and  S1_12 
REMARK    4  A    between atoms: S1_12  and  C4_13 
REMARK    5  A    between atoms: C6_18  and  O1_19 
REMARK    6  A    between atoms: C6_18  and  C7_21 
REMARK       I    between atoms: C7_21  and  N7_23 
REMARK    7  A    between atoms: C11_27  and  C12_28 
REMARK    8  A    between atoms: C12_28  and  O3_29 
ROOT
HETATM    1  C4  UNL     1      17.627  39.528  37.070  1.00  0.00     0.111 C 
HETATM    2  N5  UNL     1      17.942  40.559  37.768  1.00  0.00    -0.298 N 
ATOM      3  H5  UNL     1      17.265  41.151  38.250  1.00  0.00     0.183 HD
HETATM    4  N6  UNL     1      19.320  40.773  37.789  1.00  0.00    -0.137 NA
HETATM    5  C5  UNL     1      19.847  40.100  36.598  1.00  0.00     0.190 C 
HETATM    6  C6  UNL     1      18.877  38.931  36.551  1.00  0.00     0.203 C 
ENDROOT
BRANCH   1   7
HETATM    7  S1  UNL     1      15.949  38.902  36.785  1.00  0.00    -0.035 SA
BRANCH   7   8
HETATM    8  C3  UNL     1      14.996  40.191  35.980  1.00  0.00     0.163 C 
HETATM    9  N2  UNL     1      15.485  41.079  34.988  1.00  0.00    -0.247 N 
HETATM   10  N3  UNL     1      14.669  42.210  34.998  1.00  0.00    -0.116 NA
HETATM   11  C2  UNL     1      13.369  41.611  35.317  1.00  0.00     0.258 C 
HETATM   12  N4  UNL     1      13.743  40.492  36.187  1.00  0.00    -0.354 N 
ATOM     13  H4  UNL     1      13.124  40.023  36.849  1.00  0.00     0.163 HD
BRANCH   9  14
HETATM   14  C1  UNL     1      16.629  40.851  34.120  1.00  0.00     0.375 C 
BRANCH  14  15
HETATM   15  N1  UNL     1      16.660  41.770  33.023  1.00  0.00    -0.062 N 
ATOM     16  H13 UNL     1      16.598  41.283  32.130  1.00  0.00     0.276 HD
ATOM     17  H12 UNL     1      15.799  42.313  32.971  1.00  0.00     0.276 HD
ATOM     18  H11 UNL     1      17.479  42.376  33.058  1.00  0.00     0.276 HD
ENDBRANCH  14  15
ENDBRANCH   9  14
ENDBRANCH   7   8
ENDBRANCH   1   7
BRANCH   6  19
HETATM   19  O1  UNL     1      18.647  38.631  35.214  1.00  0.00    -0.373 OA
ATOM     20  H1  UNL     1      19.276  39.134  34.711  1.00  0.00     0.211 HD
ENDBRANCH   6  19
BRANCH   6  21
HETATM   21  C7  UNL     1      19.345  37.798  37.361  1.00  0.00     0.263 C 
HETATM   22  O2  UNL     1      20.046  38.122  38.380  1.00  0.00    -0.269 OA
HETATM   23  N7  UNL     1      19.065  36.442  37.073  1.00  0.00    -0.342 N 
HETATM   24  C8  UNL     1      18.271  36.019  35.935  1.00  0.00     0.126 C 
HETATM   25  C11 UNL     1      19.465  35.252  37.769  1.00  0.00     0.111 C 
HETATM   26  C9  UNL     1      18.096  34.501  36.082  1.00  0.00     0.022 C 
HETATM   27  C10 UNL     1      18.220  34.390  37.610  1.00  0.00     0.029 C 
BRANCH  25  28
HETATM   28  C12 UNL     1      19.867  35.424  39.188  1.00  0.00     0.189 C 
BRANCH  28  29
HETATM   29  O3  UNL     1      21.284  35.505  39.189  1.00  0.00    -0.399 OA
ATOM     30  H3  UNL     1      21.573  35.065  39.980  1.00  0.00     0.209 HD
ENDBRANCH  28  29
ENDBRANCH  25  28
ENDBRANCH   6  21
TORSDOF 8
ENDMDL
MODEL 4
REMARK VINA RESULT: -7.422470554      2.175      6.736
REMARK  8 active torsions:
REMARK  status: ('A' for Active; 'I' for Inactive)
REMARK    1  A    between atoms: N1_1  and  C1_5 
REMARK    2  A    between atoms: C1_5  and  N2_6 
REMARK    3  A    between atoms: C3_11  and  S1_12 
REMARK    4  A    between atoms: S1_12  and  C4_13 
REMARK    5  A    between atoms: C6_18  and  O1_19 
REMARK    6  A    between atoms: C6_18  and  C7_21 
REMARK       I    between atoms: C7_21  and  N7_23 
REMARK    7  A    between atoms: C11_27  and  C12_28 
REMARK    8  A    between atoms: C12_28  and  O3_29 
ROOT
HETATM    1  C4  UNL     1      18.164  39.893  37.000  1.00  0.00     0.111 C 
HETATM    2  N5  UNL     1      18.675  40.774  37.782  1.00  0.00    -0.298 N 
ATOM      3  H5  UNL     1      18.137  41.502  38.252  1.00  0.00     0.183 HD
HETATM    4  N6  UNL     1      20.056  40.618  37.912  1.00  0.00    -0.137 NA
HETATM    5  C5  UNL     1      20.488  39.882  36.720  1.00  0.00     0.190 C 
HETATM    6  C6  UNL     1      19.256  39.012  36.532  1.00  0.00     0.203 C 
ENDROOT
BRANCH   1   7
HETATM    7  S1  UNL     1      16.412  39.742  36.560  1.00  0.00    -0.035 SA
BRANCH   7   8
HETATM    8  C3  UNL     1      16.122  40.692  35.067  1.00  0.00     0.163 C 
HETATM    9  N2  UNL     1      14.934  41.404  34.760  1.00  0.00    -0.247 N 
HETATM   10  N3  UNL     1      14.880  41.554  33.375  1.00  0.00    -0.116 NA
HETATM   11  C2  UNL     1      16.303  41.708  33.057  1.00  0.00     0.258 C 
HETATM   12  N4  UNL     1      16.945  40.862  34.068  1.00  0.00    -0.354 N 
ATOM     13  H4  UNL     1      17.884  40.469  34.001  1.00  0.00     0.163 HD
BRANCH   9  14
HETATM   14  C1  UNL     1      13.952  41.887  35.718  1.00  0.00     0.375 C 
BRANCH  14  15
HETATM   15  N1  UNL     1      13.041  40.858  36.116  1.00  0.00    -0.062 N 
ATOM     16  H13 UNL     1      12.554  40.463  35.312  1.00  0.00     0.276 HD
ATOM     17  H12 UNL     1      13.538  40.024  36.428  1.00  0.00     0.276 HD
ATOM     18  H11 UNL     1      12.384  41.184  36.824  1.00  0.00     0.276 HD
ENDBRANCH  14  15
ENDBRANCH   9  14
ENDBRANCH   7   8
ENDBRANCH   1   7
BRANCH   6  19
HETATM   19  O1  UNL     1      19.069  38.840  35.167  1.00  0.00    -0.373 OA
ATOM     20  H1  UNL     1      19.199  37.916  34.990  1.00  0.00     0.211 HD
ENDBRANCH   6  19
BRANCH   6  21
HETATM   21  C7  UNL     1      19.346  37.763  37.300  1.00  0.00     0.263 C 
HETATM   22  O2  UNL     1      19.822  37.892  38.480  1.00  0.00    -0.269 OA
HETATM   23  N7  UNL     1      18.950  36.496  36.811  1.00  0.00    -0.342 N 
HETATM   24  C8  UNL     1      18.400  36.292  35.485  1.00  0.00     0.126 C 
HETATM   25  C11 UNL     1      18.994  35.210  37.447  1.00  0.00     0.111 C 
HETATM   26  C9  UNL     1      17.976  34.818  35.424  1.00  0.00     0.022 C 
HETATM   27  C10 UNL     1      17.712  34.581  36.918  1.00  0.00     0.029 C 
BRANCH  25  28
HETATM   28  C12 UNL     1      19.064  35.211  38.930  1.00  0.00     0.189 C 
BRANCH  28  29
HETATM   29  O3  UNL     1      20.439  35.096  39.260  1.00  0.00    -0.399 OA
ATOM     30  H3  UNL     1      20.471  34.857  40.179  1.00  0.00     0.209 HD
ENDBRANCH  28  29
ENDBRANCH  25  28
ENDBRANCH   6  21
TORSDOF 8
ENDMDL
MODEL 5
REMARK VINA RESULT: -6.438308419      1.979      7.033
REMARK  8 active torsions:
REMARK  status: ('A' for Active; 'I' for Inactive)
REMARK    1  A    between atoms: N1_1  and  C1_5 
REMARK    2  A    between atoms: C1_5  and  N2_6 
REMARK    3  A    between atoms: C3_11  and  S1_12 
REMARK    4  A    between atoms: S1_12  and  C4_13 
REMARK    5  A    between atoms: C6_18  and  O1_19 
REMARK    6  A    between atoms: C6_18  and  C7_21 
REMARK       I    between atoms: C7_21  and  N7_23 
REMARK    7  A    between atoms: C11_27  and  C12_28 
REMARK    8  A    between atoms: C12_28  and  O3_29 
ROOT
HETATM    1  C4  UNL     1      17.692  39.712  36.936  1.00  0.00     0.111 C 
HETATM    2  N5  UNL     1      18.264  40.430  37.833  1.00  0.00    -0.298 N 
ATOM      3  H5  UNL     1      17.797  41.174  38.352  1.00  0.00     0.183 HD
HETATM    4  N6  UNL     1      19.600  40.072  38.015  1.00  0.00    -0.137 NA
HETATM    5  C5  UNL     1      20.007  39.408  36.773  1.00  0.00     0.190 C 
HETATM    6  C6  UNL     1      18.686  38.740  36.430  1.00  0.00     0.203 C 
ENDROOT
BRANCH   1   7
HETATM    7  S1  UNL     1      15.967  39.849  36.395  1.00  0.00    -0.035 SA
BRANCH   7   8
HETATM    8  C3  UNL     1      15.924  40.833  34.896  1.00  0.00     0.163 C 
HETATM    9  N2  UNL     1      14.808  41.574  34.429  1.00  0.00    -0.247 N 
HETATM   10  N3  UNL     1      14.967  41.751  33.055  1.00  0.00    -0.116 NA
HETATM   11  C2  UNL     1      16.425  41.882  32.958  1.00  0.00     0.258 C 
HETATM   12  N4  UNL     1      16.891  41.004  34.036  1.00  0.00    -0.354 N 
ATOM     13  H4  UNL     1      17.822  40.593  34.104  1.00  0.00     0.163 HD
BRANCH   9  14
HETATM   14  C1  UNL     1      13.701  42.061  35.237  1.00  0.00     0.375 C 
BRANCH  14  15
HETATM   15  N1  UNL     1      12.955  40.989  35.822  1.00  0.00    -0.062 N 
ATOM     16  H13 UNL     1      12.283  41.335  36.506  1.00  0.00     0.276 HD
ATOM     17  H12 UNL     1      12.305  40.581  35.150  1.00  0.00     0.276 HD
ATOM     18  H11 UNL     1      13.563  40.278  36.227  1.00  0.00     0.276 HD
ENDBRANCH  14  15
ENDBRANCH   9  14
ENDBRANCH   7   8
ENDBRANCH   1   7
BRANCH   6  19
HETATM   19  O1  UNL     1      18.566  38.734  35.046  1.00  0.00    -0.373 OA
ATOM     20  H1  UNL     1      18.159  39.557  34.806  1.00  0.00     0.211 HD
ENDBRANCH   6  19
BRANCH   6  21
HETATM   21  C7  UNL     1      18.560  37.419  37.061  1.00  0.00     0.263 C 
HETATM   22  O2  UNL     1      17.691  36.649  36.524  1.00  0.00    -0.269 OA
HETATM   23  N7  UNL     1      19.321  36.990  38.174  1.00  0.00    -0.342 N 
HETATM   24  C8  UNL     1      20.322  37.818  38.818  1.00  0.00     0.126 C 
HETATM   25  C11 UNL     1      19.290  35.744  38.884  1.00  0.00     0.111 C 
HETATM   26  C9  UNL     1      20.997  36.926  39.869  1.00  0.00     0.022 C 
HETATM   27  C10 UNL     1      20.767  35.559  39.209  1.00  0.00     0.029 C 
BRANCH  25  28
HETATM   28  C12 UNL     1      18.713  34.585  38.156  1.00  0.00     0.189 C 
BRANCH  28  29
HETATM   29  O3  UNL     1      17.419  34.382  38.702  1.00  0.00    -0.399 OA
ATOM     30  H3  UNL     1      16.843  34.987  38.249  1.00  0.00     0.209 HD
ENDBRANCH  28  29
ENDBRANCH  25  28
ENDBRANCH   6  21
TORSDOF 8
ENDMDL
