MODEL 1
REMARK VINA RESULT: -8.311746798      0.000      0.000
REMARK  7 active torsions:
REMARK  status: ('A' for Active; 'I' for Inactive)
REMARK    1  A    between atoms: N1_1  and  C1_4 
REMARK    2  A    between atoms: N6_16  and  C5_17 
REMARK    3  A    between atoms: C5_17  and  C10_30 
REMARK    4  A    between atoms: N7_18  and  N8_20 
REMARK    5  A    between atoms: N8_20  and  C6_22 
REMARK    6  A    between atoms: C10_30  and  N11_31 
REMARK    7  A    between atoms: C10_30  and  C11_35 
ROOT
HETATM    1  C5  UNL     1      19.944  37.441  38.372  1.00  0.00     0.161 C 
HETATM    2  N7  UNL     1      20.053  38.710  38.167  1.00  0.00    -0.271 N 
ATOM      3  H7  UNL     1      20.427  39.281  38.926  1.00  0.00     0.189 HD
ENDROOT
BRANCH   1   4
HETATM    4  N6  UNL     1      19.440  36.595  37.377  1.00  0.00    -0.207 N 
HETATM    5  C3  UNL     1      18.748  35.461  37.659  1.00  0.00     0.163 A 
HETATM    6  N3  UNL     1      18.374  34.865  38.802  1.00  0.00    -0.335 N 
HETATM    7  C4  UNL     1      18.389  34.852  36.473  1.00  0.00     0.139 A 
HETATM    8  C2  UNL     1      17.678  33.719  38.859  1.00  0.00     0.183 A 
ATOM      9  H3  UNL     1      18.636  35.310  39.681  1.00  0.00     0.168 HD
HETATM   10  N2  UNL     1      17.335  33.138  37.695  1.00  0.00    -0.337 N 
HETATM   11  C1  UNL     1      17.665  33.661  36.505  1.00  0.00     0.132 A 
ATOM     12  H2  UNL     1      16.805  32.267  37.718  1.00  0.00     0.168 HD
HETATM   13  N4  UNL     1      18.868  35.623  35.503  1.00  0.00    -0.279 N 
HETATM   14  N5  UNL     1      19.486  36.649  36.067  1.00  0.00    -0.232 N 
ATOM     15  H4  UNL     1      18.775  35.455  34.501  1.00  0.00     0.189 HD
ATOM     16  H5  UNL     1      19.944  37.394  35.544  1.00  0.00     0.209 HD
BRANCH  11  17
HETATM   17  N1  UNL     1      17.359  33.140  35.373  1.00  0.00    -0.383 N 
ATOM     18  H12 UNL     1      17.630  32.167  35.227  1.00  0.00     0.157 HD
ATOM     19  H11 UNL     1      16.871  33.631  34.624  1.00  0.00     0.157 HD
ENDBRANCH  11  17
ENDBRANCH   1   4
BRANCH   1  20
HETATM   20  C10 UNL     1      20.374  36.925  39.699  1.00  0.00     0.342 C 
BRANCH  20  21
HETATM   21  N11 UNL     1      21.584  36.141  39.605  1.00  0.00    -0.060 N 
ATOM     22 3H11 UNL     1      21.884  35.810  40.522  1.00  0.00     0.275 HD
ATOM     23 2H11 UNL     1      21.409  35.240  39.160  1.00  0.00     0.275 HD
ATOM     24 1H11 UNL     1      22.331  36.649  39.132  1.00  0.00     0.275 HD
ENDBRANCH  20  21
BRANCH  20  25
HETATM   25  C11 UNL     1      20.602  38.023  40.666  1.00  0.00     0.269 C 
HETATM   26  N12 UNL     1      21.882  38.608  40.881  1.00  0.00    -0.060 NA
HETATM   27  O1  UNL     1      19.640  38.472  41.335  1.00  0.00    -0.274 OA
ENDBRANCH  20  25
ENDBRANCH   1  20
BRANCH   2  28
HETATM   28  N8  UNL     1      19.701  39.352  36.995  1.00  0.00    -0.131 N 
ATOM     29  H8  UNL     1      20.435  39.610  36.336  1.00  0.00     0.205 HD
BRANCH  28  30
HETATM   30  C6  UNL     1      18.335  39.669  36.671  1.00  0.00     0.688 C 
HETATM   31  N9  UNL     1      17.366  39.202  37.351  1.00  0.00    -0.225 N 
HETATM   32  C7  UNL     1      15.977  39.446  37.126  1.00  0.00     0.139 C 
ATOM     33  H9  UNL     1      17.605  38.594  38.134  1.00  0.00     0.177 HD
HETATM   34  C8  UNL     1      15.732  40.603  36.182  1.00  0.00     0.040 C 
HETATM   35  C9  UNL     1      16.717  40.602  35.051  1.00  0.00     0.139 C 
HETATM   36  N10 UNL     1      18.080  40.520  35.570  1.00  0.00    -0.225 N 
ATOM     37  H10 UNL     1      18.832  41.064  35.147  1.00  0.00     0.177 HD
ENDBRANCH  28  30
ENDBRANCH   2  28
TORSDOF 7
ENDMDL
MODEL 2
REMARK VINA RESULT: -8.086639431      1.206      2.050
REMARK  7 active torsions:
REMARK  status: ('A' for Active; 'I' for Inactive)
REMARK    1  A    between atoms: N1_1  and  C1_4 
REMARK    2  A    between atoms: N6_16  and  C5_17 
REMARK    3  A    between atoms: C5_17  and  C10_30 
REMARK    4  A    between atoms: N7_18  and  N8_20 
REMARK    5  A    between atoms: N8_20  and  C6_22 
REMARK    6  A    between atoms: C10_30  and  N11_31 
REMARK    7  A    between atoms: C10_30  and  C11_35 
ROOT
HETATM    1  C5  UNL     1      18.754  38.110  37.498  1.00  0.00     0.161 C 
HETATM    2  N7  UNL     1      17.824  38.986  37.685  1.00  0.00    -0.271 N 
ATOM      3  H7  UNL     1      18.050  39.801  38.255  1.00  0.00     0.189 HD
ENDROOT
BRANCH   1   4
HETATM    4  N6  UNL     1      18.516  36.966  36.727  1.00  0.00    -0.207 N 
HETATM    5  C3  UNL     1      18.350  35.735  37.273  1.00  0.00     0.163 A 
HETATM    6  N3  UNL     1      18.355  35.272  38.533  1.00  0.00    -0.335 N 
HETATM    7  C4  UNL     1      18.135  34.823  36.259  1.00  0.00     0.139 A 
HETATM    8  C2  UNL     1      18.166  33.985  38.862  1.00  0.00     0.183 A 
ATOM      9  H3  UNL     1      18.513  35.941  39.287  1.00  0.00     0.168 HD
HETATM   10  N2  UNL     1      17.957  33.109  37.863  1.00  0.00    -0.337 N 
HETATM   11  C1  UNL     1      17.935  33.480  36.575  1.00  0.00     0.132 A 
ATOM     12  H2  UNL     1      17.810  32.127  38.094  1.00  0.00     0.168 HD
HETATM   13  N4  UNL     1      18.176  35.516  35.126  1.00  0.00    -0.279 N 
HETATM   14  N5  UNL     1      18.403  36.783  35.433  1.00  0.00    -0.232 N 
ATOM     15  H4  UNL     1      18.054  35.138  34.187  1.00  0.00     0.189 HD
ATOM     16  H5  UNL     1      18.481  37.530  34.743  1.00  0.00     0.209 HD
BRANCH  11  17
HETATM   17  N1  UNL     1      17.741  32.678  35.592  1.00  0.00    -0.383 N 
ATOM     18  H12 UNL     1      18.095  31.727  35.698  1.00  0.00     0.157 HD
ATOM     19  H11 UNL     1      17.262  32.930  34.727  1.00  0.00     0.157 HD
ENDBRANCH  11  17
ENDBRANCH   1   4
BRANCH   1  20
HETATM   20  C10 UNL     1      20.073  38.371  38.132  1.00  0.00     0.342 C 
BRANCH  20  21
HETATM   21  N11 UNL     1      20.352  39.786  38.233  1.00  0.00    -0.060 N 
ATOM     22 3H11 UNL     1      20.437  40.213  37.311  1.00  0.00     0.275 HD
ATOM     23 2H11 UNL     1      19.540  40.300  38.574  1.00  0.00     0.275 HD
ATOM     24 1H11 UNL     1      21.175  39.971  38.805  1.00  0.00     0.275 HD
ENDBRANCH  20  21
BRANCH  20  25
HETATM   25  C11 UNL     1      20.156  37.780  39.488  1.00  0.00     0.269 C 
HETATM   26  N12 UNL     1      20.920  36.613  39.774  1.00  0.00    -0.060 NA
HETATM   27  O1  UNL     1      19.535  38.314  40.438  1.00  0.00    -0.274 OA
ENDBRANCH  20  25
ENDBRANCH   1  20
BRANCH   2  28
HETATM   28  N8  UNL     1      16.545  38.898  37.170  1.00  0.00    -0.131 N 
ATOM     29  H8  UNL     1      15.932  38.154  37.502  1.00  0.00     0.205 HD
BRANCH  28  30
HETATM   30  C6  UNL     1      16.046  39.819  36.182  1.00  0.00     0.688 C 
HETATM   31  N9  UNL     1      16.786  40.241  35.236  1.00  0.00    -0.225 N 
HETATM   32  C7  UNL     1      16.404  41.150  34.203  1.00  0.00     0.139 C 
ATOM     33  H9  UNL     1      17.746  39.895  35.213  1.00  0.00     0.177 HD
HETATM   34  C8  UNL     1      14.906  41.340  34.116  1.00  0.00     0.040 C 
HETATM   35  C9  UNL     1      14.284  41.403  35.479  1.00  0.00     0.139 C 
HETATM   36  N10 UNL     1      14.704  40.255  36.279  1.00  0.00    -0.225 N 
ATOM     37  H10 UNL     1      14.045  39.778  36.894  1.00  0.00     0.177 HD
ENDBRANCH  28  30
ENDBRANCH   2  28
TORSDOF 7
ENDMDL
MODEL 3
REMARK VINA RESULT: -7.612516740      2.094      6.085
REMARK  7 active torsions:
REMARK  status: ('A' for Active; 'I' for Inactive)
REMARK    1  A    between atoms: N1_1  and  C1_4 
REMARK    2  A    between atoms: N6_16  and  C5_17 
REMARK    3  A    between atoms: C5_17  and  C10_30 
REMARK    4  A    between atoms: N7_18  and  N8_20 
REMARK    5  A    between atoms: N8_20  and  C6_22 
REMARK    6  A    between atoms: C10_30  and  N11_31 
REMARK    7  A    between atoms: C10_30  and  C11_35 
ROOT
HETATM    1  C5  UNL     1      18.561  39.401  36.170  1.00  0.00     0.161 C 
HETATM    2  N7  UNL     1      19.002  38.232  35.847  1.00  0.00    -0.271 N 
ATOM      3  H7  UNL     1      20.012  38.089  35.851  1.00  0.00     0.189 HD
ENDROOT
BRANCH   1   4
HETATM    4  N6  UNL     1      17.187  39.671  36.186  1.00  0.00    -0.207 N 
HETATM    5  C3  UNL     1      16.569  40.387  35.213  1.00  0.00     0.163 A 
HETATM    6  N3  UNL     1      16.996  40.983  34.088  1.00  0.00    -0.335 N 
HETATM    7  C4  UNL     1      15.225  40.478  35.513  1.00  0.00     0.139 A 
HETATM    8  C2  UNL     1      16.198  41.657  33.246  1.00  0.00     0.183 A 
ATOM      9  H3  UNL     1      17.988  40.919  33.860  1.00  0.00     0.168 HD
HETATM   10  N2  UNL     1      14.891  41.737  33.552  1.00  0.00    -0.337 N 
HETATM   11  C1  UNL     1      14.375  41.173  34.653  1.00  0.00     0.132 A 
ATOM     12  H2  UNL     1      14.269  42.244  32.922  1.00  0.00     0.168 HD
HETATM   13  N4  UNL     1      15.057  39.820  36.655  1.00  0.00    -0.279 N 
HETATM   14  N5  UNL     1      16.236  39.352  37.031  1.00  0.00    -0.232 N 
ATOM     15  H4  UNL     1      14.176  39.697  37.153  1.00  0.00     0.189 HD
ATOM     16  H5  UNL     1      16.388  38.807  37.879  1.00  0.00     0.209 HD
BRANCH  11  17
HETATM   17  N1  UNL     1      13.136  41.225  34.984  1.00  0.00    -0.383 N 
ATOM     18  H12 UNL     1      12.473  41.454  34.243  1.00  0.00     0.157 HD
ATOM     19  H11 UNL     1      12.781  41.054  35.924  1.00  0.00     0.157 HD
ENDBRANCH  11  17
ENDBRANCH   1   4
BRANCH   1  20
HETATM   20  C10 UNL     1      19.570  40.436  36.519  1.00  0.00     0.342 C 
BRANCH  20  21
HETATM   21  N11 UNL     1      18.974  41.747  36.648  1.00  0.00    -0.060 N 
ATOM     22 3H11 UNL     1      18.319  41.932  35.888  1.00  0.00     0.275 HD
ATOM     23 2H11 UNL     1      18.323  41.782  37.432  1.00  0.00     0.275 HD
ATOM     24 1H11 UNL     1      19.679  42.480  36.717  1.00  0.00     0.275 HD
ENDBRANCH  20  21
BRANCH  20  25
HETATM   25  C11 UNL     1      20.270  40.115  37.784  1.00  0.00     0.269 C 
HETATM   26  N12 UNL     1      19.928  38.992  38.591  1.00  0.00    -0.060 NA
HETATM   27  O1  UNL     1      21.207  40.849  38.180  1.00  0.00    -0.274 OA
ENDBRANCH  20  25
ENDBRANCH   1  20
BRANCH   2  28
HETATM   28  N8  UNL     1      18.204  37.160  35.496  1.00  0.00    -0.131 N 
ATOM     29  H8  UNL     1      17.640  37.224  34.648  1.00  0.00     0.205 HD
BRANCH  28  30
HETATM   30  C6  UNL     1      18.140  35.955  36.282  1.00  0.00     0.688 C 
HETATM   31  N9  UNL     1      18.534  35.932  37.491  1.00  0.00    -0.225 N 
HETATM   32  C7  UNL     1      18.519  34.803  38.366  1.00  0.00     0.139 C 
ATOM     33  H9  UNL     1      18.898  36.805  37.874  1.00  0.00     0.177 HD
HETATM   34  C8  UNL     1      17.669  33.668  37.840  1.00  0.00     0.040 C 
HETATM   35  C9  UNL     1      17.834  33.504  36.358  1.00  0.00     0.139 C 
HETATM   36  N10 UNL     1      17.624  34.782  35.683  1.00  0.00    -0.225 N 
ATOM     37  H10 UNL     1      17.117  34.828  34.799  1.00  0.00     0.177 HD
ENDBRANCH  28  30
ENDBRANCH   2  28
TORSDOF 7
ENDMDL
MODEL 4
REMARK VINA RESULT: -7.601807796      1.603      5.086
REMARK  7 active torsions:
REMARK  status: ('A' for Active; 'I' for Inactive)
REMARK    1  A    between atoms: N1_1  and  C1_4 
REMARK    2  A    between atoms: N6_16  and  C5_17 
REMARK    3  A    between atoms: C5_17  and  C10_30 
REMARK    4  A    between atoms: N7_18  and  N8_20 
REMARK    5  A    between atoms: N8_20  and  C6_22 
REMARK    6  A    between atoms: C10_30  and  N11_31 
REMARK    7  A    between atoms: C10_30  and  C11_35 
ROOT
HETATM    1  C5  UNL     1      20.182  37.749  39.569  1.00  0.00     0.161 C 
HETATM    2  N7  UNL     1      20.976  36.777  39.272  1.00  0.00    -0.271 N 
ATOM      3  H7  UNL     1      21.664  36.496  39.972  1.00  0.00     0.189 HD
ENDROOT
BRANCH   1   4
HETATM    4  N6  UNL     1      19.213  38.189  38.659  1.00  0.00    -0.207 N 
HETATM    5  C3  UNL     1      19.344  39.336  37.946  1.00  0.00     0.163 A 
HETATM    6  N3  UNL     1      20.292  40.285  37.883  1.00  0.00    -0.335 N 
HETATM    7  C4  UNL     1      18.232  39.490  37.143  1.00  0.00     0.139 A 
HETATM    8  C2  UNL     1      20.221  41.366  37.091  1.00  0.00     0.183 A 
ATOM      9  H3  UNL     1      21.116  40.176  38.473  1.00  0.00     0.168 HD
HETATM   10  N2  UNL     1      19.132  41.501  36.314  1.00  0.00    -0.337 N 
HETATM   11  C1  UNL     1      18.135  40.605  36.310  1.00  0.00     0.132 A 
ATOM     12  H2  UNL     1      19.062  42.316  35.704  1.00  0.00     0.168 HD
HETATM   13  N4  UNL     1      17.455  38.440  37.384  1.00  0.00    -0.279 N 
HETATM   14  N5  UNL     1      18.061  37.685  38.286  1.00  0.00    -0.232 N 
ATOM     15  H4  UNL     1      16.551  38.249  36.951  1.00  0.00     0.189 HD
ATOM     16  H5  UNL     1      17.677  36.813  38.649  1.00  0.00     0.209 HD
BRANCH  11  17
HETATM   17  N1  UNL     1      17.079  40.696  35.587  1.00  0.00    -0.383 N 
ATOM     18  H12 UNL     1      16.550  41.565  35.655  1.00  0.00     0.157 HD
ATOM     19  H11 UNL     1      16.744  39.964  34.960  1.00  0.00     0.157 HD
ENDBRANCH  11  17
ENDBRANCH   1   4
BRANCH   1  20
HETATM   20  C10 UNL     1      20.342  38.374  40.909  1.00  0.00     0.342 C 
BRANCH  20  21
HETATM   21  N11 UNL     1      19.313  37.945  41.829  1.00  0.00    -0.060 N 
ATOM     22 3H11 UNL     1      18.388  38.235  41.513  1.00  0.00     0.275 HD
ATOM     23 2H11 UNL     1      19.184  36.934  41.796  1.00  0.00     0.275 HD
ATOM     24 1H11 UNL     1      19.496  38.264  42.780  1.00  0.00     0.275 HD
ENDBRANCH  20  21
BRANCH  20  25
HETATM   25  C11 UNL     1      21.662  38.063  41.505  1.00  0.00     0.269 C 
HETATM   26  N12 UNL     1      21.830  37.111  42.551  1.00  0.00    -0.060 NA
HETATM   27  O1  UNL     1      22.687  38.652  41.087  1.00  0.00    -0.274 OA
ENDBRANCH  20  25
ENDBRANCH   1  20
BRANCH   2  28
HETATM   28  N8  UNL     1      20.963  36.088  38.074  1.00  0.00    -0.131 N 
ATOM     29  H8  UNL     1      21.805  36.090  37.497  1.00  0.00     0.205 HD
BRANCH  28  30
HETATM   30  C6  UNL     1      19.806  35.369  37.610  1.00  0.00     0.688 C 
HETATM   31  N9  UNL     1      19.319  35.572  36.452  1.00  0.00    -0.225 N 
HETATM   32  C7  UNL     1      18.182  34.921  35.884  1.00  0.00     0.139 C 
ATOM     33  H9  UNL     1      19.788  36.268  35.871  1.00  0.00     0.177 HD
HETATM   34  C8  UNL     1      17.766  33.690  36.660  1.00  0.00     0.040 C 
HETATM   35  C9  UNL     1      17.880  33.912  38.138  1.00  0.00     0.139 C 
HETATM   36  N10 UNL     1      19.210  34.418  38.471  1.00  0.00    -0.225 N 
ATOM     37  H10 UNL     1      19.698  34.093  39.306  1.00  0.00     0.177 HD
ENDBRANCH  28  30
ENDBRANCH   2  28
TORSDOF 7
ENDMDL
MODEL 5
REMARK VINA RESULT: -7.510402212      1.830      5.422
REMARK  7 active torsions:
REMARK  status: ('A' for Active; 'I' for Inactive)
REMARK    1  A    between atoms: N1_1  and  C1_4 
REMARK    2  A    between atoms: N6_16  and  C5_17 
REMARK    3  A    between atoms: C5_17  and  C10_30 
REMARK    4  A    between atoms: N7_18  and  N8_20 
REMARK    5  A    between atoms: N8_20  and  C6_22 
REMARK    6  A    between atoms: C10_30  and  N11_31 
REMARK    7  A    between atoms: C10_30  and  C11_35 
ROOT
HETATM    1  C5  UNL     1      18.634  35.932  37.221  1.00  0.00     0.161 C 
HETATM    2  N7  UNL     1      19.470  35.927  38.204  1.00  0.00    -0.271 N 
ATOM      3  H7  UNL     1      19.461  35.121  38.830  1.00  0.00     0.189 HD
ENDROOT
BRANCH   1   4
HETATM    4  N6  UNL     1      18.588  37.004  36.322  1.00  0.00    -0.207 N 
HETATM    5  C3  UNL     1      17.696  38.020  36.437  1.00  0.00     0.163 A 
HETATM    6  N3  UNL     1      16.713  38.296  37.309  1.00  0.00    -0.335 N 
HETATM    7  C4  UNL     1      17.905  38.915  35.406  1.00  0.00     0.139 A 
HETATM    8  C2  UNL     1      15.928  39.382  37.237  1.00  0.00     0.183 A 
ATOM      9  H3  UNL     1      16.554  37.639  38.073  1.00  0.00     0.168 HD
HETATM   10  N2  UNL     1      16.145  40.244  36.228  1.00  0.00    -0.337 N 
HETATM   11  C1  UNL     1      17.103  40.051  35.311  1.00  0.00     0.132 A 
ATOM     12  H2  UNL     1      15.559  41.077  36.159  1.00  0.00     0.168 HD
HETATM   13  N4  UNL     1      18.913  38.425  34.693  1.00  0.00    -0.279 N 
HETATM   14  N5  UNL     1      19.299  37.293  35.258  1.00  0.00    -0.232 N 
ATOM     15  H4  UNL     1      19.319  38.848  33.858  1.00  0.00     0.189 HD
ATOM     16  H5  UNL     1      20.060  36.712  34.907  1.00  0.00     0.209 HD
BRANCH  11  17
HETATM   17  N1  UNL     1      17.343  40.847  34.332  1.00  0.00    -0.383 N 
ATOM     18  H12 UNL     1      17.796  40.442  33.513  1.00  0.00     0.157 HD
ATOM     19  H11 UNL     1      17.112  41.840  34.326  1.00  0.00     0.157 HD
ENDBRANCH  11  17
ENDBRANCH   1   4
BRANCH   1  20
HETATM   20  C10 UNL     1      17.730  34.757  37.090  1.00  0.00     0.342 C 
BRANCH  20  21
HETATM   21  N11 UNL     1      17.862  34.118  35.801  1.00  0.00    -0.060 N 
ATOM     22 3H11 UNL     1      17.925  34.805  35.051  1.00  0.00     0.275 HD
ATOM     23 2H11 UNL     1      18.778  33.682  35.696  1.00  0.00     0.275 HD
ATOM     24 1H11 UNL     1      17.112  33.449  35.630  1.00  0.00     0.275 HD
ENDBRANCH  20  21
BRANCH  20  25
HETATM   25  C11 UNL     1      17.988  33.747  38.142  1.00  0.00     0.269 C 
HETATM   26  N12 UNL     1      19.048  32.799  38.058  1.00  0.00    -0.060 NA
HETATM   27  O1  UNL     1      17.254  33.707  39.159  1.00  0.00    -0.274 OA
ENDBRANCH  20  25
ENDBRANCH   1  20
BRANCH   2  28
HETATM   28  N8  UNL     1      20.376  36.936  38.471  1.00  0.00    -0.131 N 
ATOM     29  H8  UNL     1      20.916  37.327  37.699  1.00  0.00     0.205 HD
BRANCH  28  30
HETATM   30  C6  UNL     1      20.585  37.455  39.797  1.00  0.00     0.688 C 
HETATM   31  N9  UNL     1      19.615  37.626  40.603  1.00  0.00    -0.225 N 
HETATM   32  C7  UNL     1      19.698  38.130  41.936  1.00  0.00     0.139 C 
ATOM     33  H9  UNL     1      18.685  37.379  40.262  1.00  0.00     0.177 HD
HETATM   34  C8  UNL     1      21.116  38.147  42.466  1.00  0.00     0.040 C 
HETATM   35  C9  UNL     1      22.089  38.574  41.408  1.00  0.00     0.139 C 
HETATM   36  N10 UNL     1      21.903  37.775  40.199  1.00  0.00    -0.225 N 
ATOM     37  H10 UNL     1      22.705  37.456  39.657  1.00  0.00     0.177 HD
ENDBRANCH  28  30
ENDBRANCH   2  28
TORSDOF 7
ENDMDL
