MODEL 1
REMARK VINA RESULT: -7.440280869      0.000      0.000
REMARK  8 active torsions:
REMARK  status: ('A' for Active; 'I' for Inactive)
REMARK    1  A    between atoms: N1_1  and  C1_5 
REMARK    2  A    between atoms: C3_7  and  C4_8 
REMARK    3  A    between atoms: C4_8  and  O1_9 
REMARK    4  A    between atoms: C4_8  and  C5_11 
REMARK    5  A    between atoms: C6_15  and  N3_16 
REMARK    6  A    between atoms: C7_22  and  O2_23 
REMARK    7  A    between atoms: N5_25  and  C8_26 
REMARK    8  A    between atoms: C9_31  and  C10_32 
ROOT
HETATM    1  C1  UNL     1      20.661  37.581  40.137  1.00  0.00     0.204 C 
HETATM    2  C2  UNL     1      20.801  36.634  38.988  1.00  0.00     0.063 C 
HETATM    3  C3  UNL     1      19.783  37.102  37.996  1.00  0.00     0.135 C 
HETATM    4  N5  UNL     1      19.368  38.428  38.349  1.00  0.00    -0.207 N 
HETATM    5  C13 UNL     1      19.939  38.776  39.620  1.00  0.00     0.174 C 
ENDROOT
BRANCH   3   6
HETATM    6  C4  UNL     1      18.678  36.176  37.666  1.00  0.00     0.180 C 
BRANCH   6   7
HETATM    7  O1  UNL     1      17.640  36.718  36.941  1.00  0.00    -0.391 OA
ATOM      8  H1  UNL     1      17.004  36.098  36.604  1.00  0.00     0.210 HD
ENDBRANCH   6   7
BRANCH   6   9
HETATM    9  C5  UNL     1      18.968  34.795  37.246  1.00  0.00     0.294 C 
HETATM   10  N2  UNL     1      18.819  33.882  38.422  1.00  0.00    -0.015 N 
HETATM   11  C6  UNL     1      19.015  32.619  37.663  1.00  0.00     0.485 C 
ATOM     12  H22 UNL     1      19.425  34.048  39.226  1.00  0.00     0.282 HD
ATOM     13  H21 UNL     1      17.970  33.969  38.980  1.00  0.00     0.282 HD
HETATM   14  N4  UNL     1      18.122  32.855  36.517  1.00  0.00    -0.323 N 
HETATM   15  C7  UNL     1      18.095  34.151  36.274  1.00  0.00     0.148 C 
ATOM     16  H4  UNL     1      17.612  32.139  36.000  1.00  0.00     0.165 HD
BRANCH  11  17
HETATM   17  N3  UNL     1      18.552  31.549  38.486  1.00  0.00    -0.033 N 
ATOM     18  H33 UNL     1      17.705  31.784  39.005  1.00  0.00     0.278 HD
ATOM     19  H32 UNL     1      18.169  30.772  37.948  1.00  0.00     0.278 HD
ATOM     20  H31 UNL     1      19.325  31.272  39.092  1.00  0.00     0.278 HD
ENDBRANCH  11  17
BRANCH  15  21
HETATM   21  O2  UNL     1      17.307  34.631  35.226  1.00  0.00    -0.348 OA
ATOM     22  H2  UNL     1      16.802  34.207  34.542  1.00  0.00     0.219 HD
ENDBRANCH  15  21
ENDBRANCH   6   9
ENDBRANCH   3   6
BRANCH   4  23
HETATM   23  C8  UNL     1      18.530  39.283  37.588  1.00  0.00     0.697 A 
HETATM   24  N6  UNL     1      17.697  40.239  37.996  1.00  0.00    -0.130 N 
HETATM   25  N7  UNL     1      17.107  40.798  36.996  1.00  0.00    -0.269 N 
ATOM     26  H6  UNL     1      17.545  40.494  38.972  1.00  0.00     0.205 HD
HETATM   27  C9  UNL     1      17.544  40.215  35.871  1.00  0.00     0.164 A 
ATOM     28  H7  UNL     1      16.426  41.555  37.051  1.00  0.00     0.189 HD
HETATM   29  N10 UNL     1      18.426  39.274  36.224  1.00  0.00    -0.172 N 
ATOM     30  H10 UNL     1      18.931  38.657  35.588  1.00  0.00     0.186 HD
BRANCH  27  31
HETATM   31  C10 UNL     1      17.132  40.546  34.508  1.00  0.00     0.095 A 
HETATM   32  C11 UNL     1      16.042  41.321  34.165  1.00  0.00     0.122 A 
HETATM   33  N8  UNL     1      15.975  41.407  32.845  1.00  0.00    -0.360 N 
HETATM   34  C12 UNL     1      17.008  40.696  32.356  1.00  0.00     0.180 A 
ATOM     35  H8  UNL     1      15.276  41.916  32.303  1.00  0.00     0.166 HD
HETATM   36  N9  UNL     1      17.708  40.174  33.364  1.00  0.00    -0.348 N 
ATOM     37  H9  UNL     1      18.541  39.591  33.275  1.00  0.00     0.167 HD
ENDBRANCH  27  31
ENDBRANCH   4  23
BRANCH   1  38
HETATM   38  N1  UNL     1      21.956  37.927  40.707  1.00  0.00    -0.073 N 
ATOM     39  H13 UNL     1      22.338  38.770  40.278  1.00  0.00     0.274 HD
ATOM     40  H12 UNL     1      21.863  38.266  41.665  1.00  0.00     0.274 HD
ATOM     41  H11 UNL     1      22.612  37.148  40.649  1.00  0.00     0.274 HD
ENDBRANCH   1  38
TORSDOF 8
ENDMDL
MODEL 2
REMARK VINA RESULT: -7.297535650      1.207      1.696
REMARK  8 active torsions:
REMARK  status: ('A' for Active; 'I' for Inactive)
REMARK    1  A    between atoms: N1_1  and  C1_5 
REMARK    2  A    between atoms: C3_7  and  C4_8 
REMARK    3  A    between atoms: C4_8  and  O1_9 
REMARK    4  A    between atoms: C4_8  and  C5_11 
REMARK    5  A    between atoms: C6_15  and  N3_16 
REMARK    6  A    between atoms: C7_22  and  O2_23 
REMARK    7  A    between atoms: N5_25  and  C8_26 
REMARK    8  A    between atoms: C9_31  and  C10_32 
ROOT
HETATM    1  C1  UNL     1      20.401  37.827  40.029  1.00  0.00     0.204 C 
HETATM    2  C2  UNL     1      20.628  36.720  39.050  1.00  0.00     0.063 C 
HETATM    3  C3  UNL     1      19.713  37.040  37.910  1.00  0.00     0.135 C 
HETATM    4  N5  UNL     1      19.290  38.405  38.024  1.00  0.00    -0.207 N 
HETATM    5  C13 UNL     1      19.751  38.936  39.278  1.00  0.00     0.174 C 
ENDROOT
BRANCH   3   6
HETATM    6  C4  UNL     1      18.626  36.080  37.619  1.00  0.00     0.180 C 
BRANCH   6   7
HETATM    7  O1  UNL     1      17.554  36.585  36.916  1.00  0.00    -0.391 OA
ATOM      8  H1  UNL     1      17.760  36.972  36.073  1.00  0.00     0.210 HD
ENDBRANCH   6   7
BRANCH   6   9
HETATM    9  C5  UNL     1      18.944  34.703  37.206  1.00  0.00     0.294 C 
HETATM   10  N2  UNL     1      18.826  33.796  38.391  1.00  0.00    -0.015 N 
HETATM   11  C6  UNL     1      19.044  32.532  37.640  1.00  0.00     0.485 C 
ATOM     12  H22 UNL     1      19.436  33.982  39.187  1.00  0.00     0.282 HD
ATOM     13  H21 UNL     1      17.980  33.868  38.956  1.00  0.00     0.282 HD
HETATM   14  N4  UNL     1      18.135  32.738  36.501  1.00  0.00    -0.323 N 
HETATM   15  C7  UNL     1      18.076  34.031  36.248  1.00  0.00     0.148 C 
ATOM     16  H4  UNL     1      17.636  32.007  35.994  1.00  0.00     0.165 HD
BRANCH  11  17
HETATM   17  N3  UNL     1      18.613  31.458  38.475  1.00  0.00    -0.033 N 
ATOM     18  H33 UNL     1      19.388  30.909  38.849  1.00  0.00     0.278 HD
ATOM     19  H32 UNL     1      18.232  31.775  39.366  1.00  0.00     0.278 HD
ATOM     20  H31 UNL     1      17.953  30.897  37.936  1.00  0.00     0.278 HD
ENDBRANCH  11  17
BRANCH  15  21
HETATM   21  O2  UNL     1      17.267  34.485  35.204  1.00  0.00    -0.348 OA
ATOM     22  H2  UNL     1      16.330  34.465  35.049  1.00  0.00     0.219 HD
ENDBRANCH  15  21
ENDBRANCH   6   9
ENDBRANCH   3   6
BRANCH   4  23
HETATM   23  C8  UNL     1      18.541  39.142  37.072  1.00  0.00     0.697 A 
HETATM   24  N6  UNL     1      18.945  39.739  35.952  1.00  0.00    -0.130 N 
HETATM   25  N7  UNL     1      17.959  40.312  35.351  1.00  0.00    -0.269 N 
ATOM     26  H6  UNL     1      19.908  39.743  35.614  1.00  0.00     0.205 HD
HETATM   27  C9  UNL     1      16.850  40.105  36.073  1.00  0.00     0.164 A 
ATOM     28  H7  UNL     1      18.014  40.833  34.476  1.00  0.00     0.189 HD
HETATM   29  N10 UNL     1      17.196  39.382  37.142  1.00  0.00    -0.172 N 
ATOM     30  H10 UNL     1      16.568  39.065  37.881  1.00  0.00     0.186 HD
BRANCH  27  31
HETATM   31  C10 UNL     1      15.505  40.583  35.750  1.00  0.00     0.095 A 
HETATM   32  C11 UNL     1      15.187  41.451  34.726  1.00  0.00     0.122 A 
HETATM   33  N8  UNL     1      13.879  41.662  34.733  1.00  0.00    -0.360 N 
HETATM   34  C12 UNL     1      13.374  40.937  35.749  1.00  0.00     0.180 A 
ATOM     35  H8  UNL     1      13.355  42.258  34.092  1.00  0.00     0.166 HD
HETATM   36  N9  UNL     1      14.360  40.284  36.365  1.00  0.00    -0.348 N 
ATOM     37  H9  UNL     1      14.256  39.664  37.168  1.00  0.00     0.167 HD
ENDBRANCH  27  31
ENDBRANCH   4  23
BRANCH   1  38
HETATM   38  N1  UNL     1      21.645  38.248  40.659  1.00  0.00    -0.073 N 
ATOM     39  H13 UNL     1      21.921  37.609  41.404  1.00  0.00     0.274 HD
ATOM     40  H12 UNL     1      22.441  38.119  40.035  1.00  0.00     0.274 HD
ATOM     41  H11 UNL     1      21.588  39.210  40.996  1.00  0.00     0.274 HD
ENDBRANCH   1  38
TORSDOF 8
ENDMDL
MODEL 3
REMARK VINA RESULT: -7.153087652      2.372      7.149
REMARK  8 active torsions:
REMARK  status: ('A' for Active; 'I' for Inactive)
REMARK    1  A    between atoms: N1_1  and  C1_5 
REMARK    2  A    between atoms: C3_7  and  C4_8 
REMARK    3  A    between atoms: C4_8  and  O1_9 
REMARK    4  A    between atoms: C4_8  and  C5_11 
REMARK    5  A    between atoms: C6_15  and  N3_16 
REMARK    6  A    between atoms: C7_22  and  O2_23 
REMARK    7  A    between atoms: N5_25  and  C8_26 
REMARK    8  A    between atoms: C9_31  and  C10_32 
ROOT
HETATM    1  C1  UNL     1      19.521  40.716  36.858  1.00  0.00     0.204 C 
HETATM    2  C2  UNL     1      18.194  40.809  37.540  1.00  0.00     0.063 C 
HETATM    3  C3  UNL     1      17.547  39.486  37.277  1.00  0.00     0.135 C 
HETATM    4  N5  UNL     1      18.549  38.561  36.832  1.00  0.00    -0.207 N 
HETATM    5  C13 UNL     1      19.784  39.268  36.631  1.00  0.00     0.174 C 
ENDROOT
BRANCH   3   6
HETATM    6  C4  UNL     1      16.305  39.482  36.473  1.00  0.00     0.180 C 
BRANCH   6   7
HETATM    7  O1  UNL     1      15.231  38.828  37.036  1.00  0.00    -0.391 OA
ATOM      8  H1  UNL     1      14.545  39.385  37.384  1.00  0.00     0.210 HD
ENDBRANCH   6   7
BRANCH   6   9
HETATM    9  C5  UNL     1      15.884  40.696  35.755  1.00  0.00     0.294 C 
HETATM   10  N2  UNL     1      16.465  40.677  34.376  1.00  0.00    -0.015 N 
HETATM   11  C6  UNL     1      15.758  41.892  33.894  1.00  0.00     0.485 C 
ATOM     12  H22 UNL     1      17.482  40.660  34.295  1.00  0.00     0.282 HD
ATOM     13  H21 UNL     1      16.356  39.822  33.831  1.00  0.00     0.282 HD
HETATM   14  N4  UNL     1      14.391  41.607  34.358  1.00  0.00    -0.323 N 
HETATM   15  C7  UNL     1      14.470  40.893  35.464  1.00  0.00     0.148 C 
ATOM     16  H4  UNL     1      13.530  41.910  33.903  1.00  0.00     0.165 HD
BRANCH  11  17
HETATM   17  N3  UNL     1      15.844  41.900  32.469  1.00  0.00    -0.033 N 
ATOM     18  H33 UNL     1      16.782  42.112  32.128  1.00  0.00     0.278 HD
ATOM     19  H32 UNL     1      15.760  40.970  32.060  1.00  0.00     0.278 HD
ATOM     20  H31 UNL     1      15.139  42.552  32.124  1.00  0.00     0.278 HD
ENDBRANCH  11  17
BRANCH  15  21
HETATM   21  O2  UNL     1      13.294  40.490  36.100  1.00  0.00    -0.348 OA
ATOM     22  H2  UNL     1      12.386  40.442  35.824  1.00  0.00     0.219 HD
ENDBRANCH  15  21
ENDBRANCH   6   9
ENDBRANCH   3   6
BRANCH   4  23
HETATM   23  C8  UNL     1      18.381  37.169  36.619  1.00  0.00     0.697 A 
HETATM   24  N6  UNL     1      17.858  36.527  35.575  1.00  0.00    -0.130 N 
HETATM   25  N7  UNL     1      17.881  35.252  35.757  1.00  0.00    -0.269 N 
ATOM     26  H6  UNL     1      17.488  36.985  34.742  1.00  0.00     0.205 HD
HETATM   27  C9  UNL     1      18.433  35.008  36.953  1.00  0.00     0.164 A 
ATOM     28  H7  UNL     1      17.538  34.549  35.102  1.00  0.00     0.189 HD
HETATM   29  N10 UNL     1      18.747  36.187  37.498  1.00  0.00    -0.172 N 
ATOM     30  H10 UNL     1      19.182  36.330  38.409  1.00  0.00     0.186 HD
BRANCH  27  31
HETATM   31  C10 UNL     1      18.652  33.692  37.553  1.00  0.00     0.095 A 
HETATM   32  C11 UNL     1      18.929  33.454  38.884  1.00  0.00     0.122 A 
HETATM   33  N8  UNL     1      19.067  32.149  39.067  1.00  0.00    -0.360 N 
HETATM   34  C12 UNL     1      18.881  31.567  37.868  1.00  0.00     0.180 A 
ATOM     35  H8  UNL     1      19.275  31.677  39.948  1.00  0.00     0.166 HD
HETATM   36  N9  UNL     1      18.629  32.502  36.951  1.00  0.00    -0.348 N 
ATOM     37  H9  UNL     1      18.451  32.336  35.961  1.00  0.00     0.167 HD
ENDBRANCH  27  31
ENDBRANCH   4  23
BRANCH   1  38
HETATM   38  N1  UNL     1      20.573  41.346  37.644  1.00  0.00    -0.073 N 
ATOM     39  H13 UNL     1      20.326  41.388  38.632  1.00  0.00     0.274 HD
ATOM     40  H12 UNL     1      21.397  40.748  37.712  1.00  0.00     0.274 HD
ATOM     41  H11 UNL     1      20.812  42.269  37.280  1.00  0.00     0.274 HD
ENDBRANCH   1  38
TORSDOF 8
ENDMDL
MODEL 4
REMARK VINA RESULT: -6.991707948      2.276      7.226
REMARK  8 active torsions:
REMARK  status: ('A' for Active; 'I' for Inactive)
REMARK    1  A    between atoms: N1_1  and  C1_5 
REMARK    2  A    between atoms: C3_7  and  C4_8 
REMARK    3  A    between atoms: C4_8  and  O1_9 
REMARK    4  A    between atoms: C4_8  and  C5_11 
REMARK    5  A    between atoms: C6_15  and  N3_16 
REMARK    6  A    between atoms: C7_22  and  O2_23 
REMARK    7  A    between atoms: N5_25  and  C8_26 
REMARK    8  A    between atoms: C9_31  and  C10_32 
ROOT
HETATM    1  C1  UNL     1      17.548  34.645  36.636  1.00  0.00     0.204 C 
HETATM    2  C2  UNL     1      17.773  35.880  35.824  1.00  0.00     0.063 C 
HETATM    3  C3  UNL     1      18.663  36.728  36.678  1.00  0.00     0.135 C 
HETATM    4  N5  UNL     1      19.232  35.910  37.709  1.00  0.00    -0.207 N 
HETATM    5  C13 UNL     1      18.621  34.610  37.668  1.00  0.00     0.174 C 
ENDROOT
BRANCH   3   6
HETATM    6  C4  UNL     1      18.124  38.024  37.146  1.00  0.00     0.180 C 
BRANCH   6   7
HETATM    7  O1  UNL     1      18.995  38.806  37.873  1.00  0.00    -0.391 OA
ATOM      8  H1  UNL     1      19.851  38.940  37.484  1.00  0.00     0.210 HD
ENDBRANCH   6   7
BRANCH   6   9
HETATM    9  C5  UNL     1      17.277  38.838  36.259  1.00  0.00     0.294 C 
HETATM   10  N2  UNL     1      15.923  38.991  36.877  1.00  0.00    -0.015 N 
HETATM   11  C6  UNL     1      15.397  39.941  35.863  1.00  0.00     0.485 C 
ATOM     12  H22 UNL     1      15.386  38.141  37.050  1.00  0.00     0.282 HD
ATOM     13  H21 UNL     1      15.882  39.277  37.855  1.00  0.00     0.282 HD
HETATM   14  N4  UNL     1      16.520  40.889  35.776  1.00  0.00    -0.323 N 
HETATM   15  C7  UNL     1      17.637  40.229  36.015  1.00  0.00     0.148 C 
ATOM     16  H4  UNL     1      16.447  41.884  35.568  1.00  0.00     0.165 HD
BRANCH  11  17
HETATM   17  N3  UNL     1      14.229  40.551  36.413  1.00  0.00    -0.033 N 
ATOM     18  H33 UNL     1      14.438  41.377  36.974  1.00  0.00     0.278 HD
ATOM     19  H32 UNL     1      13.651  41.010  35.708  1.00  0.00     0.278 HD
ATOM     20  H31 UNL     1      13.726  39.833  36.934  1.00  0.00     0.278 HD
ENDBRANCH  11  17
BRANCH  15  21
HETATM   21  O2  UNL     1      18.852  40.916  35.994  1.00  0.00    -0.348 OA
ATOM     22  H2  UNL     1      19.257  41.506  35.370  1.00  0.00     0.219 HD
ENDBRANCH  15  21
ENDBRANCH   6   9
ENDBRANCH   3   6
BRANCH   4  23
HETATM   23  C8  UNL     1      20.239  36.292  38.632  1.00  0.00     0.697 A 
HETATM   24  N6  UNL     1      21.565  36.241  38.513  1.00  0.00    -0.130 N 
HETATM   25  N7  UNL     1      22.143  36.681  39.577  1.00  0.00    -0.269 N 
ATOM     26  H6  UNL     1      22.057  35.900  37.687  1.00  0.00     0.205 HD
HETATM   27  C9  UNL     1      21.195  37.042  40.452  1.00  0.00     0.164 A 
ATOM     28  H7  UNL     1      23.150  36.742  39.728  1.00  0.00     0.189 HD
HETATM   29  N10 UNL     1      20.010  36.806  39.879  1.00  0.00    -0.172 N 
ATOM     30  H10 UNL     1      19.096  36.979  40.298  1.00  0.00     0.186 HD
BRANCH  27  31
HETATM   31  C10 UNL     1      21.414  37.595  41.788  1.00  0.00     0.095 A 
HETATM   32  C11 UNL     1      21.551  38.934  42.089  1.00  0.00     0.122 A 
HETATM   33  N8  UNL     1      21.737  39.064  43.395  1.00  0.00    -0.360 N 
HETATM   34  C12 UNL     1      21.719  37.823  43.915  1.00  0.00     0.180 A 
ATOM     35  H8  UNL     1      21.868  39.937  43.907  1.00  0.00     0.166 HD
HETATM   36  N9  UNL     1      21.524  36.933  42.941  1.00  0.00    -0.348 N 
ATOM     37  H9  UNL     1      21.469  35.921  43.057  1.00  0.00     0.167 HD
ENDBRANCH  27  31
ENDBRANCH   4  23
BRANCH   1  38
HETATM   38  N1  UNL     1      17.551  33.449  35.804  1.00  0.00    -0.073 N 
ATOM     39  H13 UNL     1      18.014  32.670  36.273  1.00  0.00     0.274 HD
ATOM     40  H12 UNL     1      16.616  33.051  35.721  1.00  0.00     0.274 HD
ATOM     41  H11 UNL     1      17.962  33.630  34.888  1.00  0.00     0.274 HD
ENDBRANCH   1  38
TORSDOF 8
ENDMDL
MODEL 5
REMARK VINA RESULT: -6.969894321      1.739      4.284
REMARK  8 active torsions:
REMARK  status: ('A' for Active; 'I' for Inactive)
REMARK    1  A    between atoms: N1_1  and  C1_5 
REMARK    2  A    between atoms: C3_7  and  C4_8 
REMARK    3  A    between atoms: C4_8  and  O1_9 
REMARK    4  A    between atoms: C4_8  and  C5_11 
REMARK    5  A    between atoms: C6_15  and  N3_16 
REMARK    6  A    between atoms: C7_22  and  O2_23 
REMARK    7  A    between atoms: N5_25  and  C8_26 
REMARK    8  A    between atoms: C9_31  and  C10_32 
ROOT
HETATM    1  C1  UNL     1      18.420  34.143  36.240  1.00  0.00     0.204 C 
HETATM    2  C2  UNL     1      18.634  34.371  37.703  1.00  0.00     0.063 C 
HETATM    3  C3  UNL     1      18.684  35.861  37.842  1.00  0.00     0.135 C 
HETATM    4  N5  UNL     1      18.150  36.456  36.652  1.00  0.00    -0.207 N 
HETATM    5  C13 UNL     1      17.916  35.426  35.677  1.00  0.00     0.174 C 
ENDROOT
BRANCH   3   6
HETATM    6  C4  UNL     1      19.952  36.458  38.316  1.00  0.00     0.180 C 
BRANCH   6   7
HETATM    7  O1  UNL     1      20.750  37.017  37.343  1.00  0.00    -0.391 OA
ATOM      8  H1  UNL     1      21.614  37.290  37.625  1.00  0.00     0.210 HD
ENDBRANCH   6   7
BRANCH   6   9
HETATM    9  C5  UNL     1      19.980  37.247  39.559  1.00  0.00     0.294 C 
HETATM   10  N2  UNL     1      20.950  36.626  40.513  1.00  0.00    -0.015 N 
HETATM   11  C6  UNL     1      20.860  37.695  41.542  1.00  0.00     0.485 C 
ATOM     12  H22 UNL     1      20.768  35.668  40.812  1.00  0.00     0.282 HD
ATOM     13  H21 UNL     1      21.877  36.393  40.156  1.00  0.00     0.282 HD
HETATM   14  N4  UNL     1      20.986  38.892  40.695  1.00  0.00    -0.323 N 
HETATM   15  C7  UNL     1      20.463  38.621  39.515  1.00  0.00     0.148 C 
ATOM     16  H4  UNL     1      21.406  39.779  40.973  1.00  0.00     0.165 HD
BRANCH  11  17
HETATM   17  N3  UNL     1      21.978  37.543  42.416  1.00  0.00    -0.033 N 
ATOM     18  H33 UNL     1      21.862  38.039  43.301  1.00  0.00     0.278 HD
ATOM     19  H32 UNL     1      22.058  36.601  42.800  1.00  0.00     0.278 HD
ATOM     20  H31 UNL     1      22.810  37.835  41.903  1.00  0.00     0.278 HD
ENDBRANCH  11  17
BRANCH  15  21
HETATM   21  O2  UNL     1      20.467  39.606  38.526  1.00  0.00    -0.348 OA
ATOM     22  H2  UNL     1      20.761  39.622  37.623  1.00  0.00     0.219 HD
ENDBRANCH  15  21
ENDBRANCH   6   9
ENDBRANCH   3   6
BRANCH   4  23
HETATM   23  C8  UNL     1      17.884  37.832  36.440  1.00  0.00     0.697 A 
HETATM   24  N6  UNL     1      18.067  38.868  37.258  1.00  0.00    -0.130 N 
HETATM   25  N7  UNL     1      17.701  39.970  36.699  1.00  0.00    -0.269 N 
ATOM     26  H6  UNL     1      18.448  38.798  38.202  1.00  0.00     0.205 HD
HETATM   27  C9  UNL     1      17.254  39.688  35.468  1.00  0.00     0.164 A 
ATOM     28  H7  UNL     1      17.743  40.897  37.122  1.00  0.00     0.189 HD
HETATM   29  N10 UNL     1      17.362  38.367  35.295  1.00  0.00    -0.172 N 
ATOM     30  H10 UNL     1      17.101  37.849  34.456  1.00  0.00     0.186 HD
BRANCH  27  31
HETATM   31  C10 UNL     1      16.743  40.650  34.491  1.00  0.00     0.095 A 
HETATM   32  C11 UNL     1      15.536  41.313  34.575  1.00  0.00     0.122 A 
HETATM   33  N8  UNL     1      15.404  42.100  33.518  1.00  0.00    -0.360 N 
HETATM   34  C12 UNL     1      16.513  41.939  32.773  1.00  0.00     0.180 A 
ATOM     35  H8  UNL     1      14.614  42.712  33.309  1.00  0.00     0.166 HD
HETATM   36  N9  UNL     1      17.324  41.059  33.363  1.00  0.00    -0.348 N 
ATOM     37  H9  UNL     1      18.231  40.753  33.011  1.00  0.00     0.167 HD
ENDBRANCH  27  31
ENDBRANCH   4  23
BRANCH   1  38
HETATM   38  N1  UNL     1      17.499  33.041  35.999  1.00  0.00    -0.073 N 
ATOM     39  H13 UNL     1      17.979  32.234  35.600  1.00  0.00     0.274 HD
ATOM     40  H12 UNL     1      17.184  32.621  36.874  1.00  0.00     0.274 HD
ATOM     41  H11 UNL     1      16.711  33.330  35.420  1.00  0.00     0.274 HD
ENDBRANCH   1  38
TORSDOF 8
ENDMDL
