MODEL 1
REMARK VINA RESULT: -7.900247199      0.000      0.000
REMARK  5 active torsions:
REMARK  status: ('A' for Active; 'I' for Inactive)
REMARK       I    between atoms: C1_2  and  N2_4 
REMARK    1  A    between atoms: N2_4  and  N3_6 
REMARK    2  A    between atoms: C5_15  and  C6_16 
REMARK    3  A    between atoms: N6_17  and  N7_19 
REMARK    4  A    between atoms: N7_19  and  C7_21 
REMARK    5  A    between atoms: C9_25  and  C10_26 
ROOT
HETATM    1  N3  UNL     1      16.188  39.803  35.903  1.00  0.00    -0.126 N 
ATOM      2  H3  UNL     1      15.654  38.965  35.677  1.00  0.00     0.206 HD
HETATM    3  C2  UNL     1      17.379  39.648  36.323  1.00  0.00     0.720 A 
HETATM    4  N4  UNL     1      18.157  40.700  36.645  1.00  0.00    -0.185 N 
ATOM      5  H4  UNL     1      17.791  41.648  36.554  1.00  0.00     0.185 HD
HETATM    6  C3  UNL     1      19.422  40.510  37.089  1.00  0.00     0.200 A 
HETATM    7  N5  UNL     1      19.907  39.261  37.209  1.00  0.00    -0.335 N 
ATOM      8  H5  UNL     1      20.859  39.111  37.543  1.00  0.00     0.168 HD
HETATM    9  C4  UNL     1      19.122  38.198  36.883  1.00  0.00     0.159 A 
HETATM   10  C5  UNL     1      19.326  36.808  36.897  1.00  0.00     0.044 A 
HETATM   11  C11 UNL     1      18.165  36.219  36.457  1.00  0.00     0.125 A 
HETATM   12  N10 UNL     1      17.303  37.235  36.193  1.00  0.00    -0.288 N 
ATOM     13  H10 UNL     1      16.351  37.116  35.849  1.00  0.00     0.187 HD
HETATM   14  N11 UNL     1      17.871  38.398  36.446  1.00  0.00    -0.068 N 
ENDROOT
BRANCH  10  15
HETATM   15  C6  UNL     1      20.587  36.212  37.322  1.00  0.00     0.124 C 
HETATM   16  N6  UNL     1      20.912  36.053  38.516  1.00  0.00    -0.308 N 
ATOM     17  H6  UNL     1      21.827  35.619  38.632  1.00  0.00     0.186 HD
BRANCH  16  18
HETATM   18  N7  UNL     1      20.292  36.340  39.703  1.00  0.00    -0.272 N 
ATOM     19  H7  UNL     1      19.478  35.798  39.993  1.00  0.00     0.190 HD
BRANCH  18  20
HETATM   20  C7  UNL     1      20.777  37.386  40.532  1.00  0.00     0.191 C 
HETATM   21  N8  UNL     1      21.920  37.951  40.336  1.00  0.00    -0.359 N 
HETATM   22  C8  UNL     1      22.166  38.977  41.315  1.00  0.00     0.159 C 
ATOM     23  H8  UNL     1      22.565  37.704  39.585  1.00  0.00     0.162 HD
HETATM   24  C9  UNL     1      21.183  38.641  42.413  1.00  0.00     0.203 C 
HETATM   25  N9  UNL     1      20.138  37.972  41.666  1.00  0.00    -0.345 N 
ATOM     26  H9  UNL     1      19.146  37.929  41.902  1.00  0.00     0.163 HD
BRANCH  24  27
HETATM   27  C10 UNL     1      21.789  37.704  43.367  1.00  0.00     0.198 C 
HETATM   28  O2  UNL     1      22.434  36.710  42.947  1.00  0.00    -0.646 OA
HETATM   29  O3  UNL     1      21.686  37.863  44.741  1.00  0.00    -0.646 OA
ENDBRANCH  24  27
ENDBRANCH  18  20
ENDBRANCH  16  18
ENDBRANCH  10  15
BRANCH   1  30
HETATM   30  N2  UNL     1      15.561  41.032  35.732  1.00  0.00    -0.240 N 
HETATM   31  C1  UNL     1      14.160  41.208  35.732  1.00  0.00     0.347 C 
HETATM   32  N1  UNL     1      13.614  42.497  35.551  1.00  0.00    -0.038 NA
HETATM   33  O1  UNL     1      13.407  40.221  35.892  1.00  0.00    -0.249 OA
ATOM     34  H2  UNL     1      16.148  41.856  35.599  1.00  0.00     0.192 HD
ENDBRANCH   1  30
TORSDOF 5
ENDMDL
MODEL 2
REMARK VINA RESULT: -7.840619240      1.638      8.329
REMARK  5 active torsions:
REMARK  status: ('A' for Active; 'I' for Inactive)
REMARK       I    between atoms: C1_2  and  N2_4 
REMARK    1  A    between atoms: N2_4  and  N3_6 
REMARK    2  A    between atoms: C5_15  and  C6_16 
REMARK    3  A    between atoms: N6_17  and  N7_19 
REMARK    4  A    between atoms: N7_19  and  C7_21 
REMARK    5  A    between atoms: C9_25  and  C10_26 
ROOT
HETATM    1  N3  UNL     1      20.243  38.222  39.932  1.00  0.00    -0.126 N 
ATOM      2  H3  UNL     1      20.348  39.236  39.932  1.00  0.00     0.206 HD
HETATM    3  C2  UNL     1      19.723  37.684  38.903  1.00  0.00     0.720 A 
HETATM    4  N4  UNL     1      19.545  36.350  38.816  1.00  0.00    -0.185 N 
ATOM      5  H4  UNL     1      19.832  35.750  39.590  1.00  0.00     0.185 HD
HETATM    6  C3  UNL     1      18.990  35.801  37.711  1.00  0.00     0.200 A 
HETATM    7  N5  UNL     1      18.612  36.590  36.690  1.00  0.00    -0.335 N 
ATOM      8  H5  UNL     1      18.193  36.182  35.855  1.00  0.00     0.168 HD
HETATM    9  C4  UNL     1      18.791  37.937  36.776  1.00  0.00     0.159 A 
HETATM   10  C5  UNL     1      18.511  39.004  35.907  1.00  0.00     0.044 A 
HETATM   11  C11 UNL     1      18.913  40.159  36.534  1.00  0.00     0.125 A 
HETATM   12  N10 UNL     1      19.415  39.779  37.737  1.00  0.00    -0.288 N 
ATOM     13  H10 UNL     1      19.796  40.417  38.436  1.00  0.00     0.187 HD
HETATM   14  N11 UNL     1      19.341  38.471  37.875  1.00  0.00    -0.068 N 
ENDROOT
BRANCH  10  15
HETATM   15  C6  UNL     1      17.900  38.802  34.599  1.00  0.00     0.124 C 
HETATM   16  N6  UNL     1      17.287  39.691  33.975  1.00  0.00    -0.308 N 
ATOM     17  H6  UNL     1      16.925  39.377  33.074  1.00  0.00     0.186 HD
BRANCH  16  18
HETATM   18  N7  UNL     1      16.999  41.001  34.248  1.00  0.00    -0.272 N 
ATOM     19  H7  UNL     1      17.682  41.726  34.031  1.00  0.00     0.190 HD
BRANCH  18  20
HETATM   20  C7  UNL     1      15.754  41.357  34.833  1.00  0.00     0.191 C 
HETATM   21  N8  UNL     1      15.439  41.029  36.041  1.00  0.00    -0.359 N 
HETATM   22  C8  UNL     1      14.127  41.512  36.383  1.00  0.00     0.159 C 
ATOM     23  H8  UNL     1      16.040  40.497  36.671  1.00  0.00     0.162 HD
HETATM   24  C9  UNL     1      13.510  41.804  35.035  1.00  0.00     0.203 C 
HETATM   25  N9  UNL     1      14.685  42.093  34.239  1.00  0.00    -0.345 N 
ATOM     26  H9  UNL     1      14.738  42.699  33.420  1.00  0.00     0.163 HD
BRANCH  24  27
HETATM   27  C10 UNL     1      12.839  40.606  34.515  1.00  0.00     0.198 C 
HETATM   28  O2  UNL     1      12.855  39.539  35.179  1.00  0.00    -0.646 OA
HETATM   29  O3  UNL     1      12.172  40.589  33.298  1.00  0.00    -0.646 OA
ENDBRANCH  24  27
ENDBRANCH  18  20
ENDBRANCH  16  18
ENDBRANCH  10  15
BRANCH   1  30
HETATM   30  N2  UNL     1      20.676  37.529  41.056  1.00  0.00    -0.240 N 
HETATM   31  C1  UNL     1      21.541  38.074  42.031  1.00  0.00     0.347 C 
HETATM   32  N1  UNL     1      21.927  37.292  43.141  1.00  0.00    -0.038 NA
HETATM   33  O1  UNL     1      21.962  39.246  41.908  1.00  0.00    -0.249 OA
ATOM     34  H2  UNL     1      20.351  36.571  41.184  1.00  0.00     0.192 HD
ENDBRANCH   1  30
TORSDOF 5
ENDMDL
MODEL 3
REMARK VINA RESULT: -7.614958012      1.599      1.621
REMARK  5 active torsions:
REMARK  status: ('A' for Active; 'I' for Inactive)
REMARK       I    between atoms: C1_2  and  N2_4 
REMARK    1  A    between atoms: N2_4  and  N3_6 
REMARK    2  A    between atoms: C5_15  and  C6_16 
REMARK    3  A    between atoms: N6_17  and  N7_19 
REMARK    4  A    between atoms: N7_19  and  C7_21 
REMARK    5  A    between atoms: C9_25  and  C10_26 
ROOT
HETATM    1  N3  UNL     1      17.110  39.833  34.762  1.00  0.00    -0.126 N 
ATOM      2  H3  UNL     1      16.599  39.043  34.370  1.00  0.00     0.206 HD
HETATM    3  C2  UNL     1      18.066  39.578  35.563  1.00  0.00     0.720 A 
HETATM    4  N4  UNL     1      18.796  40.560  36.128  1.00  0.00    -0.185 N 
ATOM      5  H4  UNL     1      18.584  41.535  35.914  1.00  0.00     0.185 HD
HETATM    6  C3  UNL     1      19.808  40.265  36.976  1.00  0.00     0.200 A 
HETATM    7  N5  UNL     1      20.089  38.980  37.258  1.00  0.00    -0.335 N 
ATOM      8  H5  UNL     1      20.850  38.750  37.897  1.00  0.00     0.168 HD
HETATM    9  C4  UNL     1      19.353  37.987  36.688  1.00  0.00     0.159 A 
HETATM   10  C5  UNL     1      19.392  36.585  36.775  1.00  0.00     0.044 A 
HETATM   11  C11 UNL     1      18.393  36.096  35.969  1.00  0.00     0.125 A 
HETATM   12  N10 UNL     1      17.784  37.181  35.424  1.00  0.00    -0.288 N 
ATOM     13  H10 UNL     1      16.997  37.142  34.776  1.00  0.00     0.187 HD
HETATM   14  N11 UNL     1      18.352  38.291  35.850  1.00  0.00    -0.068 N 
ENDROOT
BRANCH  10  15
HETATM   15  C6  UNL     1      20.364  35.885  37.606  1.00  0.00     0.124 C 
HETATM   16  N6  UNL     1      20.453  36.030  38.842  1.00  0.00    -0.308 N 
ATOM     17  H6  UNL     1      21.188  35.462  39.264  1.00  0.00     0.186 HD
BRANCH  16  18
HETATM   18  N7  UNL     1      19.768  36.793  39.749  1.00  0.00    -0.272 N 
ATOM     19  H7  UNL     1      18.751  36.725  39.802  1.00  0.00     0.190 HD
BRANCH  18  20
HETATM   20  C7  UNL     1      20.463  37.678  40.616  1.00  0.00     0.191 C 
HETATM   21  N8  UNL     1      21.655  38.101  40.360  1.00  0.00    -0.359 N 
HETATM   22  C8  UNL     1      22.124  38.983  41.397  1.00  0.00     0.159 C 
ATOM     23  H8  UNL     1      22.194  37.845  39.532  1.00  0.00     0.162 HD
HETATM   24  C9  UNL     1      21.198  38.675  42.550  1.00  0.00     0.203 C 
HETATM   25  N9  UNL     1      20.010  38.229  41.851  1.00  0.00    -0.345 N 
ATOM     26  H9  UNL     1      19.045  38.296  42.176  1.00  0.00     0.163 HD
BRANCH  24  27
HETATM   27  C10 UNL     1      21.742  37.575  43.357  1.00  0.00     0.198 C 
HETATM   28  O2  UNL     1      22.364  36.635  42.800  1.00  0.00    -0.646 OA
HETATM   29  O3  UNL     1      21.602  37.517  44.736  1.00  0.00    -0.646 OA
ENDBRANCH  24  27
ENDBRANCH  18  20
ENDBRANCH  16  18
ENDBRANCH  10  15
BRANCH   1  30
HETATM   30  N2  UNL     1      16.712  41.110  34.384  1.00  0.00    -0.240 N 
HETATM   31  C1  UNL     1      16.613  41.538  33.042  1.00  0.00     0.347 C 
HETATM   32  N1  UNL     1      16.198  42.856  32.754  1.00  0.00    -0.038 NA
HETATM   33  O1  UNL     1      16.893  40.748  32.112  1.00  0.00    -0.249 OA
ATOM     34  H2  UNL     1      16.477  41.777  35.119  1.00  0.00     0.192 HD
ENDBRANCH   1  30
TORSDOF 5
ENDMDL
MODEL 4
REMARK VINA RESULT: -7.275652775      3.259      7.809
REMARK  5 active torsions:
REMARK  status: ('A' for Active; 'I' for Inactive)
REMARK       I    between atoms: C1_2  and  N2_4 
REMARK    1  A    between atoms: N2_4  and  N3_6 
REMARK    2  A    between atoms: C5_15  and  C6_16 
REMARK    3  A    between atoms: N6_17  and  N7_19 
REMARK    4  A    between atoms: N7_19  and  C7_21 
REMARK    5  A    between atoms: C9_25  and  C10_26 
ROOT
HETATM    1  N3  UNL     1      19.151  34.544  37.829  1.00  0.00    -0.126 N 
ATOM      2  H3  UNL     1      18.834  34.434  36.867  1.00  0.00     0.206 HD
HETATM    3  C2  UNL     1      19.438  35.719  38.224  1.00  0.00     0.720 A 
HETATM    4  N4  UNL     1      19.866  35.958  39.480  1.00  0.00    -0.185 N 
ATOM      5  H4  UNL     1      19.965  35.184  40.137  1.00  0.00     0.185 HD
HETATM    6  C3  UNL     1      20.165  37.217  39.877  1.00  0.00     0.200 A 
HETATM    7  N5  UNL     1      20.035  38.239  39.012  1.00  0.00    -0.335 N 
ATOM      8  H5  UNL     1      20.259  39.190  39.306  1.00  0.00     0.168 HD
HETATM    9  C4  UNL     1      19.602  37.999  37.744  1.00  0.00     0.159 A 
HETATM   10  C5  UNL     1      19.367  38.826  36.633  1.00  0.00     0.044 A 
HETATM   11  C11 UNL     1      18.934  38.020  35.607  1.00  0.00     0.125 A 
HETATM   12  N10 UNL     1      18.915  36.756  36.104  1.00  0.00    -0.288 N 
ATOM     13  H10 UNL     1      18.636  35.929  35.577  1.00  0.00     0.187 HD
HETATM   14  N11 UNL     1      19.310  36.749  37.361  1.00  0.00    -0.068 N 
ENDROOT
BRANCH  10  15
HETATM   15  C6  UNL     1      19.581  40.267  36.677  1.00  0.00     0.124 C 
HETATM   16  N6  UNL     1      18.694  41.091  36.978  1.00  0.00    -0.308 N 
ATOM     17  H6  UNL     1      19.017  42.059  36.960  1.00  0.00     0.186 HD
BRANCH  16  18
HETATM   18  N7  UNL     1      17.376  40.965  37.327  1.00  0.00    -0.272 N 
ATOM     19  H7  UNL     1      17.100  41.060  38.304  1.00  0.00     0.190 HD
BRANCH  18  20
HETATM   20  C7  UNL     1      16.391  40.704  36.337  1.00  0.00     0.191 C 
HETATM   21  N8  UNL     1      16.420  41.255  35.170  1.00  0.00    -0.359 N 
HETATM   22  C8  UNL     1      15.310  40.819  34.365  1.00  0.00     0.159 C 
ATOM     23  H8  UNL     1      17.136  41.912  34.860  1.00  0.00     0.162 HD
HETATM   24  C9  UNL     1      14.348  40.257  35.386  1.00  0.00     0.203 C 
HETATM   25  N9  UNL     1      15.257  39.844  36.436  1.00  0.00    -0.345 N 
ATOM     26  H9  UNL     1      15.114  39.091  37.110  1.00  0.00     0.163 HD
BRANCH  24  27
HETATM   27  C10 UNL     1      13.462  41.316  35.884  1.00  0.00     0.198 C 
HETATM   28  O2  UNL     1      13.340  42.388  35.239  1.00  0.00    -0.646 OA
HETATM   29  O3  UNL     1      12.732  41.192  37.058  1.00  0.00    -0.646 OA
ENDBRANCH  24  27
ENDBRANCH  18  20
ENDBRANCH  16  18
ENDBRANCH  10  15
BRANCH   1  30
HETATM   30  N2  UNL     1      19.240  33.400  38.613  1.00  0.00    -0.240 N 
HETATM   31  C1  UNL     1      19.098  32.089  38.110  1.00  0.00     0.347 C 
HETATM   32  N1  UNL     1      19.206  30.985  38.986  1.00  0.00    -0.038 NA
HETATM   33  O1  UNL     1      18.878  31.907  36.892  1.00  0.00    -0.249 OA
ATOM     34  H2  UNL     1      19.419  33.515  39.611  1.00  0.00     0.192 HD
ENDBRANCH   1  30
TORSDOF 5
ENDMDL
MODEL 5
REMARK VINA RESULT: -7.195679133      3.293      8.333
REMARK  5 active torsions:
REMARK  status: ('A' for Active; 'I' for Inactive)
REMARK       I    between atoms: C1_2  and  N2_4 
REMARK    1  A    between atoms: N2_4  and  N3_6 
REMARK    2  A    between atoms: C5_15  and  C6_16 
REMARK    3  A    between atoms: N6_17  and  N7_19 
REMARK    4  A    between atoms: N7_19  and  C7_21 
REMARK    5  A    between atoms: C9_25  and  C10_26 
ROOT
HETATM    1  N3  UNL     1      18.726  34.585  37.761  1.00  0.00    -0.126 N 
ATOM      2  H3  UNL     1      18.334  34.388  36.841  1.00  0.00     0.206 HD
HETATM    3  C2  UNL     1      18.991  35.797  38.042  1.00  0.00     0.720 A 
HETATM    4  N4  UNL     1      19.512  36.149  39.235  1.00  0.00    -0.185 N 
ATOM      5  H4  UNL     1      19.702  35.432  39.936  1.00  0.00     0.185 HD
HETATM    6  C3  UNL     1      19.785  37.445  39.511  1.00  0.00     0.200 A 
HETATM    7  N5  UNL     1      19.536  38.392  38.588  1.00  0.00    -0.335 N 
ATOM      8  H5  UNL     1      19.740  39.371  38.790  1.00  0.00     0.168 HD
HETATM    9  C4  UNL     1      19.009  38.038  37.384  1.00  0.00     0.159 A 
HETATM   10  C5  UNL     1      18.644  38.767  36.240  1.00  0.00     0.044 A 
HETATM   11  C11 UNL     1      18.162  37.868  35.318  1.00  0.00     0.125 A 
HETATM   12  N10 UNL     1      18.244  36.646  35.906  1.00  0.00    -0.288 N 
ATOM     13  H10 UNL     1      17.960  35.770  35.467  1.00  0.00     0.187 HD
HETATM   14  N11 UNL     1      18.743  36.752  37.121  1.00  0.00    -0.068 N 
ENDROOT
BRANCH  10  15
HETATM   15  C6  UNL     1      18.794  40.215  36.159  1.00  0.00     0.124 C 
HETATM   16  N6  UNL     1      18.044  40.954  35.490  1.00  0.00    -0.308 N 
ATOM     17  H6  UNL     1      18.292  41.942  35.548  1.00  0.00     0.186 HD
BRANCH  16  18
HETATM   18  N7  UNL     1      16.957  40.713  34.694  1.00  0.00    -0.272 N 
ATOM     19  H7  UNL     1      17.056  40.131  33.862  1.00  0.00     0.190 HD
BRANCH  18  20
HETATM   20  C7  UNL     1      15.690  41.270  35.018  1.00  0.00     0.191 C 
HETATM   21  N8  UNL     1      15.201  41.224  36.211  1.00  0.00    -0.359 N 
HETATM   22  C8  UNL     1      13.910  41.859  36.265  1.00  0.00     0.159 C 
ATOM     23  H8  UNL     1      15.666  40.795  37.011  1.00  0.00     0.162 HD
HETATM   24  C9  UNL     1      13.492  41.905  34.813  1.00  0.00     0.203 C 
HETATM   25  N9  UNL     1      14.778  41.937  34.148  1.00  0.00    -0.345 N 
ATOM     26  H9  UNL     1      14.989  42.353  33.240  1.00  0.00     0.163 HD
BRANCH  24  27
HETATM   27  C10 UNL     1      12.777  40.674  34.453  1.00  0.00     0.198 C 
HETATM   28  O2  UNL     1      12.702  39.727  35.277  1.00  0.00    -0.646 OA
HETATM   29  O3  UNL     1      12.165  40.496  33.221  1.00  0.00    -0.646 OA
ENDBRANCH  24  27
ENDBRANCH  18  20
ENDBRANCH  16  18
ENDBRANCH  10  15
BRANCH   1  30
HETATM   30  N2  UNL     1      18.933  33.510  38.617  1.00  0.00    -0.240 N 
HETATM   31  C1  UNL     1      19.030  32.168  38.185  1.00  0.00     0.347 C 
HETATM   32  N1  UNL     1      19.242  31.140  39.130  1.00  0.00    -0.038 NA
HETATM   33  O1  UNL     1      18.927  31.894  36.969  1.00  0.00    -0.249 OA
ATOM     34  H2  UNL     1      19.021  33.700  39.615  1.00  0.00     0.192 HD
ENDBRANCH   1  30
TORSDOF 5
ENDMDL
