MODEL 1
REMARK VINA RESULT: -7.064100657      0.000      0.000
REMARK  7 active torsions:
REMARK  status: ('A' for Active; 'I' for Inactive)
REMARK    1  A    between atoms: C6_9  and  N3_10 
REMARK    2  A    between atoms: C6_9  and  N4_14 
REMARK    3  A    between atoms: N4_14  and  C7_17 
REMARK    4  A    between atoms: C7_17  and  C8_18 
REMARK    5  A    between atoms: C8_18  and  S1_19 
REMARK    6  A    between atoms: S1_19  and  C9_22 
REMARK    7  A    between atoms: C11_28  and  N7_29 
ROOT
HETATM    1  N4  UNL     1      19.303  36.788  39.283  1.00  0.00    -0.021 N 
ATOM      2  H41 UNL     1      19.522  36.476  40.229  1.00  0.00     0.282 HD
ATOM      3  H42 UNL     1      18.289  36.682  39.317  1.00  0.00     0.282 HD
ENDROOT
BRANCH   1   4
HETATM    4  C6  UNL     1      19.900  35.928  38.281  1.00  0.00     0.363 C 
HETATM    5  C5  UNL     1      19.511  34.507  38.611  1.00  0.00     0.165 C 
HETATM    6  C4  UNL     1      18.033  34.411  38.402  1.00  0.00     0.096 C 
HETATM    7  N1  UNL     1      17.574  35.031  37.373  1.00  0.00    -0.356 N 
HETATM    8  N2  UNL     1      17.203  33.680  39.289  1.00  0.00    -0.088 NA
HETATM    9  C2  UNL     1      18.345  35.783  36.439  1.00  0.00     0.096 C 
ATOM     10  H1  UNL     1      16.568  34.980  37.211  1.00  0.00     0.163 HD
HETATM   11  C1  UNL     1      18.727  34.831  35.299  1.00  0.00     0.062 C 
HETATM   12  C3  UNL     1      17.447  36.839  35.822  1.00  0.00     0.062 C 
HETATM   13  N9  UNL     1      19.565  36.322  36.957  1.00  0.00    -0.343 N 
ATOM     14  H9  UNL     1      20.157  36.949  36.411  1.00  0.00     0.160 HD
BRANCH   4  15
HETATM   15  N3  UNL     1      21.349  36.010  38.422  1.00  0.00    -0.026 N 
ATOM     16  H33 UNL     1      21.725  35.348  39.101  1.00  0.00     0.279 HD
ATOM     17  H32 UNL     1      21.853  35.658  37.608  1.00  0.00     0.279 HD
ATOM     18  H31 UNL     1      21.568  36.981  38.643  1.00  0.00     0.279 HD
ENDBRANCH   4  15
ENDBRANCH   1   4
BRANCH   1  19
HETATM   19  C7  UNL     1      19.694  38.184  39.069  1.00  0.00     0.253 C 
BRANCH  19  20
HETATM   20  C8  UNL     1      18.578  38.984  38.484  1.00  0.00     0.175 C 
BRANCH  20  21
HETATM   21  S1  UNL     1      19.087  39.914  37.060  1.00  0.00     0.194 S 
HETATM   22  O1  UNL     1      20.026  39.144  36.199  1.00  0.00    -0.221 OA
HETATM   23  O2  UNL     1      19.806  41.141  37.566  1.00  0.00    -0.221 OA
BRANCH  21  24
HETATM   24  C9  UNL     1      17.714  40.374  36.082  1.00  0.00     0.161 A 
HETATM   25  C10 UNL     1      16.455  40.564  36.608  1.00  0.00     0.150 A 
HETATM   26  N5  UNL     1      15.445  40.919  35.787  1.00  0.00    -0.295 N 
HETATM   27  N6  UNL     1      15.588  41.102  34.486  1.00  0.00    -0.133 N 
ATOM     28  H5  UNL     1      14.519  41.054  36.194  1.00  0.00     0.186 HD
HETATM   29  C11 UNL     1      16.815  40.918  33.970  1.00  0.00     0.691 A 
ATOM     30  H6  UNL     1      14.799  41.371  33.897  1.00  0.00     0.205 HD
HETATM   31  N8  UNL     1      17.864  40.559  34.761  1.00  0.00    -0.179 N 
ATOM     32  H8  UNL     1      18.785  40.428  34.340  1.00  0.00     0.185 HD
BRANCH  29  33
HETATM   33  N7  UNL     1      16.962  41.094  32.706  1.00  0.00    -0.233 N 
ATOM     34  H72 UNL     1      16.212  40.873  32.050  1.00  0.00     0.174 HD
ATOM     35  H71 UNL     1      17.856  41.462  32.380  1.00  0.00     0.174 HD
ENDBRANCH  29  33
ENDBRANCH  21  24
ENDBRANCH  20  21
ENDBRANCH  19  20
ENDBRANCH   1  19
TORSDOF 7
ENDMDL
MODEL 2
REMARK VINA RESULT: -6.944372184      1.511      2.747
REMARK  7 active torsions:
REMARK  status: ('A' for Active; 'I' for Inactive)
REMARK    1  A    between atoms: C6_9  and  N3_10 
REMARK    2  A    between atoms: C6_9  and  N4_14 
REMARK    3  A    between atoms: N4_14  and  C7_17 
REMARK    4  A    between atoms: C7_17  and  C8_18 
REMARK    5  A    between atoms: C8_18  and  S1_19 
REMARK    6  A    between atoms: S1_19  and  C9_22 
REMARK    7  A    between atoms: C11_28  and  N7_29 
ROOT
HETATM    1  N4  UNL     1      17.982  36.987  37.806  1.00  0.00    -0.021 N 
ATOM      2  H41 UNL     1      17.921  36.635  38.761  1.00  0.00     0.282 HD
ATOM      3  H42 UNL     1      16.988  37.143  37.635  1.00  0.00     0.282 HD
ENDROOT
BRANCH   1   4
HETATM    4  C6  UNL     1      18.533  35.996  36.903  1.00  0.00     0.363 C 
HETATM    5  C5  UNL     1      20.002  35.856  37.224  1.00  0.00     0.165 C 
HETATM    6  C4  UNL     1      20.085  35.254  38.590  1.00  0.00     0.096 C 
HETATM    7  N1  UNL     1      19.233  34.325  38.842  1.00  0.00    -0.356 N 
HETATM    8  N2  UNL     1      21.046  35.689  39.537  1.00  0.00    -0.088 NA
HETATM    9  C2  UNL     1      18.241  33.835  37.942  1.00  0.00     0.096 C 
ATOM     10  H1  UNL     1      19.271  33.900  39.769  1.00  0.00     0.163 HD
HETATM   11  C1  UNL     1      18.852  32.637  37.205  1.00  0.00     0.062 C 
HETATM   12  C3  UNL     1      17.088  33.283  38.760  1.00  0.00     0.062 C 
HETATM   13  N9  UNL     1      17.819  34.768  36.942  1.00  0.00    -0.343 N 
ATOM     14  H9  UNL     1      17.054  34.564  36.299  1.00  0.00     0.160 HD
BRANCH   4  15
HETATM   15  N3  UNL     1      18.447  36.524  35.547  1.00  0.00    -0.026 N 
ATOM     16  H33 UNL     1      19.202  36.202  34.941  1.00  0.00     0.279 HD
ATOM     17  H32 UNL     1      17.675  36.129  35.009  1.00  0.00     0.279 HD
ATOM     18  H31 UNL     1      18.403  37.539  35.630  1.00  0.00     0.279 HD
ENDBRANCH   4  15
ENDBRANCH   1   4
BRANCH   1  19
HETATM   19  C7  UNL     1      18.746  38.234  37.736  1.00  0.00     0.253 C 
BRANCH  19  20
HETATM   20  C8  UNL     1      17.853  39.417  37.555  1.00  0.00     0.175 C 
BRANCH  20  21
HETATM   21  S1  UNL     1      18.066  40.189  35.970  1.00  0.00     0.194 S 
HETATM   22  O1  UNL     1      18.679  39.264  34.979  1.00  0.00    -0.221 OA
HETATM   23  O2  UNL     1      19.001  41.357  36.170  1.00  0.00    -0.221 OA
BRANCH  21  24
HETATM   24  C9  UNL     1      16.538  40.737  35.324  1.00  0.00     0.161 A 
HETATM   25  C10 UNL     1      16.396  41.193  34.032  1.00  0.00     0.150 A 
HETATM   26  N5  UNL     1      15.182  41.600  33.606  1.00  0.00    -0.295 N 
HETATM   27  N6  UNL     1      14.098  41.588  34.363  1.00  0.00    -0.133 N 
ATOM     28  H5  UNL     1      15.096  41.935  32.646  1.00  0.00     0.186 HD
HETATM   29  C11 UNL     1      14.234  41.142  35.624  1.00  0.00     0.691 A 
ATOM     30  H6  UNL     1      13.197  41.903  34.004  1.00  0.00     0.205 HD
HETATM   31  N8  UNL     1      15.440  40.722  36.096  1.00  0.00    -0.179 N 
ATOM     32  H8  UNL     1      15.511  40.389  37.058  1.00  0.00     0.185 HD
BRANCH  29  33
HETATM   33  N7  UNL     1      13.185  41.128  36.365  1.00  0.00    -0.233 N 
ATOM     34  H72 UNL     1      12.582  41.946  36.447  1.00  0.00     0.174 HD
ATOM     35  H71 UNL     1      12.976  40.267  36.872  1.00  0.00     0.174 HD
ENDBRANCH  29  33
ENDBRANCH  21  24
ENDBRANCH  20  21
ENDBRANCH  19  20
ENDBRANCH   1  19
TORSDOF 7
ENDMDL
MODEL 3
REMARK VINA RESULT: -6.843822488      1.282      2.426
REMARK  7 active torsions:
REMARK  status: ('A' for Active; 'I' for Inactive)
REMARK    1  A    between atoms: C6_9  and  N3_10 
REMARK    2  A    between atoms: C6_9  and  N4_14 
REMARK    3  A    between atoms: N4_14  and  C7_17 
REMARK    4  A    between atoms: C7_17  and  C8_18 
REMARK    5  A    between atoms: C8_18  and  S1_19 
REMARK    6  A    between atoms: S1_19  and  C9_22 
REMARK    7  A    between atoms: C11_28  and  N7_29 
ROOT
HETATM    1  N4  UNL     1      17.805  36.546  36.624  1.00  0.00    -0.021 N 
ATOM      2  H41 UNL     1      17.818  36.833  37.603  1.00  0.00     0.282 HD
ATOM      3  H42 UNL     1      16.817  36.306  36.547  1.00  0.00     0.282 HD
ENDROOT
BRANCH   1   4
HETATM    4  C6  UNL     1      18.658  35.398  36.390  1.00  0.00     0.363 C 
HETATM    5  C5  UNL     1      19.911  35.587  37.211  1.00  0.00     0.165 C 
HETATM    6  C4  UNL     1      19.498  35.503  38.646  1.00  0.00     0.096 C 
HETATM    7  N1  UNL     1      18.623  34.602  38.921  1.00  0.00    -0.356 N 
HETATM    8  N2  UNL     1      20.044  36.366  39.629  1.00  0.00    -0.088 NA
HETATM    9  C2  UNL     1      18.030  33.700  37.989  1.00  0.00     0.096 C 
ATOM     10  H1  UNL     1      18.324  34.527  39.894  1.00  0.00     0.163 HD
HETATM   11  C1  UNL     1      18.880  32.423  37.995  1.00  0.00     0.062 C 
HETATM   12  C3  UNL     1      16.665  33.299  38.516  1.00  0.00     0.062 C 
HETATM   13  N9  UNL     1      17.991  34.167  36.637  1.00  0.00    -0.343 N 
ATOM     14  H9  UNL     1      17.515  33.650  35.898  1.00  0.00     0.160 HD
BRANCH   4  15
HETATM   15  N3  UNL     1      19.066  35.416  34.990  1.00  0.00    -0.026 N 
ATOM     16  H33 UNL     1      18.994  36.339  34.563  1.00  0.00     0.279 HD
ATOM     17  H32 UNL     1      20.070  35.293  34.863  1.00  0.00     0.279 HD
ATOM     18  H31 UNL     1      18.509  34.707  34.513  1.00  0.00     0.279 HD
ENDBRANCH   4  15
ENDBRANCH   1   4
BRANCH   1  19
HETATM   19  C7  UNL     1      18.166  37.650  35.731  1.00  0.00     0.253 C 
BRANCH  19  20
HETATM   20  C8  UNL     1      19.241  38.503  36.318  1.00  0.00     0.175 C 
BRANCH  20  21
HETATM   21  S1  UNL     1      18.659  40.124  36.750  1.00  0.00     0.194 S 
HETATM   22  O1  UNL     1      19.719  41.156  36.589  1.00  0.00    -0.221 OA
HETATM   23  O2  UNL     1      18.259  40.077  38.205  1.00  0.00    -0.221 OA
BRANCH  21  24
HETATM   24  C9  UNL     1      17.297  40.590  35.760  1.00  0.00     0.161 A 
HETATM   25  C10 UNL     1      16.024  40.738  36.265  1.00  0.00     0.150 A 
HETATM   26  N5  UNL     1      15.024  41.101  35.436  1.00  0.00    -0.295 N 
HETATM   27  N6  UNL     1      15.189  41.329  34.144  1.00  0.00    -0.133 N 
ATOM     28  H5  UNL     1      14.087  41.205  35.828  1.00  0.00     0.186 HD
HETATM   29  C11 UNL     1      16.430  41.185  33.648  1.00  0.00     0.691 A 
ATOM     30  H6  UNL     1      14.407  41.602  33.549  1.00  0.00     0.205 HD
HETATM   31  N8  UNL     1      17.470  40.821  34.448  1.00  0.00    -0.179 N 
ATOM     32  H8  UNL     1      18.400  40.721  34.043  1.00  0.00     0.185 HD
BRANCH  29  33
HETATM   33  N7  UNL     1      16.598  41.405  32.394  1.00  0.00    -0.233 N 
ATOM     34  H72 UNL     1      16.406  42.320  31.986  1.00  0.00     0.174 HD
ATOM     35  H71 UNL     1      16.929  40.631  31.818  1.00  0.00     0.174 HD
ENDBRANCH  29  33
ENDBRANCH  21  24
ENDBRANCH  20  21
ENDBRANCH  19  20
ENDBRANCH   1  19
TORSDOF 7
ENDMDL
MODEL 4
REMARK VINA RESULT: -6.842119105      1.688      2.767
REMARK  7 active torsions:
REMARK  status: ('A' for Active; 'I' for Inactive)
REMARK    1  A    between atoms: C6_9  and  N3_10 
REMARK    2  A    between atoms: C6_9  and  N4_14 
REMARK    3  A    between atoms: N4_14  and  C7_17 
REMARK    4  A    between atoms: C7_17  and  C8_18 
REMARK    5  A    between atoms: C8_18  and  S1_19 
REMARK    6  A    between atoms: S1_19  and  C9_22 
REMARK    7  A    between atoms: C11_28  and  N7_29 
ROOT
HETATM    1  N4  UNL     1      17.768  36.446  36.479  1.00  0.00    -0.021 N 
ATOM      2  H41 UNL     1      17.705  36.791  37.437  1.00  0.00     0.282 HD
ATOM      3  H42 UNL     1      16.797  36.157  36.355  1.00  0.00     0.282 HD
ENDROOT
BRANCH   1   4
HETATM    4  C6  UNL     1      18.680  35.326  36.370  1.00  0.00     0.363 C 
HETATM    5  C5  UNL     1      19.867  35.618  37.257  1.00  0.00     0.165 C 
HETATM    6  C4  UNL     1      19.361  35.597  38.665  1.00  0.00     0.096 C 
HETATM    7  N1  UNL     1      18.507  34.675  38.936  1.00  0.00    -0.356 N 
HETATM    8  N2  UNL     1      19.803  36.539  39.628  1.00  0.00    -0.088 NA
HETATM    9  C2  UNL     1      18.018  33.695  38.023  1.00  0.00     0.096 C 
ATOM     10  H1  UNL     1      18.148  34.641  39.890  1.00  0.00     0.163 HD
HETATM   11  C1  UNL     1      18.917  32.460  38.160  1.00  0.00     0.062 C 
HETATM   12  C3  UNL     1      16.638  33.263  38.483  1.00  0.00     0.062 C 
HETATM   13  N9  UNL     1      18.051  34.082  36.646  1.00  0.00    -0.343 N 
ATOM     14  H9  UNL     1      17.647  33.503  35.910  1.00  0.00     0.160 HD
BRANCH   4  15
HETATM   15  N3  UNL     1      19.181  35.283  35.001  1.00  0.00    -0.026 N 
ATOM     16  H33 UNL     1      20.178  35.485  34.930  1.00  0.00     0.279 HD
ATOM     17  H32 UNL     1      19.213  34.340  34.614  1.00  0.00     0.279 HD
ATOM     18  H31 UNL     1      18.602  35.922  34.457  1.00  0.00     0.279 HD
ENDBRANCH   4  15
ENDBRANCH   1   4
BRANCH   1  19
HETATM   19  C7  UNL     1      18.139  37.511  35.543  1.00  0.00     0.253 C 
BRANCH  19  20
HETATM   20  C8  UNL     1      18.491  38.773  36.259  1.00  0.00     0.175 C 
BRANCH  20  21
HETATM   21  S1  UNL     1      17.056  39.659  36.812  1.00  0.00     0.194 S 
HETATM   22  O1  UNL     1      17.388  40.644  37.878  1.00  0.00    -0.221 OA
HETATM   23  O2  UNL     1      16.101  38.641  37.387  1.00  0.00    -0.221 OA
BRANCH  21  24
HETATM   24  C9  UNL     1      16.301  40.524  35.495  1.00  0.00     0.161 A 
HETATM   25  C10 UNL     1      15.022  41.031  35.572  1.00  0.00     0.150 A 
HETATM   26  N5  UNL     1      14.508  41.687  34.511  1.00  0.00    -0.295 N 
HETATM   27  N6  UNL     1      15.166  41.880  33.380  1.00  0.00    -0.133 N 
ATOM     28  H5  UNL     1      13.560  42.055  34.586  1.00  0.00     0.186 HD
HETATM   29  C11 UNL     1      16.414  41.388  33.302  1.00  0.00     0.691 A 
ATOM     30  H6  UNL     1      14.743  42.383  32.600  1.00  0.00     0.205 HD
HETATM   31  N8  UNL     1      16.973  40.718  34.349  1.00  0.00    -0.179 N 
ATOM     32  H8  UNL     1      17.923  40.357  34.260  1.00  0.00     0.185 HD
BRANCH  29  33
HETATM   33  N7  UNL     1      17.059  41.572  32.207  1.00  0.00    -0.233 N 
ATOM     34  H72 UNL     1      17.535  42.453  32.014  1.00  0.00     0.174 HD
ATOM     35  H71 UNL     1      17.077  40.805  31.534  1.00  0.00     0.174 HD
ENDBRANCH  29  33
ENDBRANCH  21  24
ENDBRANCH  20  21
ENDBRANCH  19  20
ENDBRANCH   1  19
TORSDOF 7
ENDMDL
MODEL 5
REMARK VINA RESULT: -6.739831826      2.331      5.669
REMARK  7 active torsions:
REMARK  status: ('A' for Active; 'I' for Inactive)
REMARK    1  A    between atoms: C6_9  and  N3_10 
REMARK    2  A    between atoms: C6_9  and  N4_14 
REMARK    3  A    between atoms: N4_14  and  C7_17 
REMARK    4  A    between atoms: C7_17  and  C8_18 
REMARK    5  A    between atoms: C8_18  and  S1_19 
REMARK    6  A    between atoms: S1_19  and  C9_22 
REMARK    7  A    between atoms: C11_28  and  N7_29 
ROOT
HETATM    1  N4  UNL     1      18.558  39.381  38.322  1.00  0.00    -0.021 N 
ATOM      2  H41 UNL     1      17.816  38.696  38.179  1.00  0.00     0.282 HD
ATOM      3  H42 UNL     1      18.177  39.852  39.143  1.00  0.00     0.282 HD
ENDROOT
BRANCH   1   4
HETATM    4  C6  UNL     1      18.681  40.282  37.194  1.00  0.00     0.363 C 
HETATM    5  C5  UNL     1      19.336  39.516  36.069  1.00  0.00     0.165 C 
HETATM    6  C4  UNL     1      18.361  38.464  35.646  1.00  0.00     0.096 C 
HETATM    7  N1  UNL     1      17.129  38.830  35.606  1.00  0.00    -0.356 N 
HETATM    8  N2  UNL     1      18.781  37.151  35.314  1.00  0.00    -0.088 NA
HETATM    9  C2  UNL     1      16.633  40.128  35.924  1.00  0.00     0.096 C 
ATOM     10  H1  UNL     1      16.445  38.129  35.320  1.00  0.00     0.163 HD
HETATM   11  C1  UNL     1      16.582  40.926  34.615  1.00  0.00     0.062 C 
HETATM   12  C3  UNL     1      15.195  39.988  36.387  1.00  0.00     0.062 C 
HETATM   13  N9  UNL     1      17.442  40.878  36.836  1.00  0.00    -0.343 N 
ATOM     14  H9  UNL     1      17.148  41.782  37.206  1.00  0.00     0.160 HD
BRANCH   4  15
HETATM   15  N3  UNL     1      19.603  41.349  37.567  1.00  0.00    -0.026 N 
ATOM     16  H33 UNL     1      20.135  41.143  38.413  1.00  0.00     0.279 HD
ATOM     17  H32 UNL     1      20.398  41.434  36.933  1.00  0.00     0.279 HD
ATOM     18  H31 UNL     1      19.050  42.203  37.637  1.00  0.00     0.279 HD
ENDBRANCH   4  15
ENDBRANCH   1   4
BRANCH   1  19
HETATM   19  C7  UNL     1      19.841  38.736  38.614  1.00  0.00     0.253 C 
BRANCH  19  20
HETATM   20  C8  UNL     1      19.662  37.499  39.430  1.00  0.00     0.175 C 
BRANCH  20  21
HETATM   21  S1  UNL     1      20.469  36.091  38.710  1.00  0.00     0.194 S 
HETATM   22  O1  UNL     1      21.403  35.437  39.665  1.00  0.00    -0.221 OA
HETATM   23  O2  UNL     1      21.269  36.594  37.533  1.00  0.00    -0.221 OA
BRANCH  21  24
HETATM   24  C9  UNL     1      19.306  34.896  38.187  1.00  0.00     0.161 A 
HETATM   25  C10 UNL     1      18.938  33.823  38.970  1.00  0.00     0.150 A 
HETATM   26  N5  UNL     1      18.033  32.942  38.495  1.00  0.00    -0.295 N 
HETATM   27  N6  UNL     1      17.465  33.043  37.306  1.00  0.00    -0.133 N 
ATOM     28  H5  UNL     1      17.772  32.153  39.088  1.00  0.00     0.186 HD
HETATM   29  C11 UNL     1      17.823  34.088  36.540  1.00  0.00     0.691 A 
ATOM     30  H6  UNL     1      16.784  32.356  36.982  1.00  0.00     0.205 HD
HETATM   31  N8  UNL     1      18.732  35.003  36.979  1.00  0.00    -0.179 N 
ATOM     32  H8  UNL     1      18.983  35.786  36.375  1.00  0.00     0.185 HD
BRANCH  29  33
HETATM   33  N7  UNL     1      17.275  34.193  35.383  1.00  0.00    -0.233 N 
ATOM     34  H72 UNL     1      16.811  33.399  34.943  1.00  0.00     0.174 HD
ATOM     35  H71 UNL     1      17.322  35.100  34.919  1.00  0.00     0.174 HD
ENDBRANCH  29  33
ENDBRANCH  21  24
ENDBRANCH  20  21
ENDBRANCH  19  20
ENDBRANCH   1  19
TORSDOF 7
ENDMDL
