MODEL 1
REMARK VINA RESULT: -7.273006749      0.000      0.000
REMARK  9 active torsions:
REMARK  status: ('A' for Active; 'I' for Inactive)
REMARK    1  A    between atoms: O1_2  and  C2_3 
REMARK    2  A    between atoms: C3_4  and  N1_5 
REMARK    3  A    between atoms: C5_10  and  N2_11 
REMARK       I    between atoms: N2_11  and  C6_13 
REMARK    4  A    between atoms: C6_13  and  C7_15 
REMARK    5  A    between atoms: C7_15  and  N3_17 
REMARK    6  A    between atoms: N3_17  and  C9_19 
REMARK    7  A    between atoms: C9_19  and  N4_21 
REMARK    8  A    between atoms: N4_21  and  S2_23 
REMARK    9  A    between atoms: S2_23  and  C10_26 
ROOT
HETATM    1  N2  UNL     1     -38.129  -3.816 190.231  1.00  0.00    -0.354 N 
ATOM      2  H2  UNL     1     -38.629  -4.231 191.018  1.00  0.00     0.162 HD
HETATM    3  C6  UNL     1     -38.594  -2.569 189.740  1.00  0.00     0.240 C 
HETATM    4  O2  UNL     1     -37.983  -2.059 188.774  1.00  0.00    -0.271 OA
ENDROOT
BRANCH   3   5
HETATM    5  C7  UNL     1     -39.752  -1.837 190.295  1.00  0.00     0.172 C 
HETATM    6  C8  UNL     1     -40.560  -2.689 191.248  1.00  0.00     0.042 C 
BRANCH   5   7
HETATM    7  N3  UNL     1     -40.580  -1.340 189.245  1.00  0.00    -0.354 N 
ATOM      8  H3  UNL     1     -40.815  -1.949 188.462  1.00  0.00     0.162 HD
BRANCH   7   9
HETATM    9  C9  UNL     1     -41.086  -0.007 189.271  1.00  0.00     0.181 C 
HETATM   10  S1  UNL     1     -40.618   1.020 190.439  1.00  0.00    -0.040 SA
BRANCH   9  11
HETATM   11  N4  UNL     1     -41.947   0.430 188.230  1.00  0.00    -0.260 N 
ATOM     12  H4  UNL     1     -42.935   0.571 188.444  1.00  0.00     0.181 HD
BRANCH  11  13
HETATM   13  S2  UNL     1     -41.414   0.727 186.650  1.00  0.00     0.236 S 
HETATM   14  O3  UNL     1     -40.886  -0.574 186.037  1.00  0.00    -0.205 OA
HETATM   15  O4  UNL     1     -42.619   1.084 185.794  1.00  0.00    -0.205 OA
BRANCH  13  16
HETATM   16  C10 UNL     1     -40.142   1.919 186.471  1.00  0.00     0.130 A 
HETATM   17  C11 UNL     1     -40.507   3.237 185.823  1.00  0.00     0.023 A 
HETATM   18  C12 UNL     1     -40.127   3.138 187.274  1.00  0.00     0.023 A 
ENDBRANCH  13  16
ENDBRANCH  11  13
ENDBRANCH   9  11
ENDBRANCH   7   9
ENDBRANCH   5   7
ENDBRANCH   3   5
BRANCH   1  19
HETATM   19  C5  UNL     1     -37.017  -4.531 189.708  1.00  0.00     0.097 C 
HETATM   20  C4  UNL     1     -35.722  -3.833 190.069  1.00  0.00     0.061 C 
HETATM   21  C3  UNL     1     -34.675  -4.894 189.935  1.00  0.00     0.215 C 
HETATM   22  C2  UNL     1     -35.399  -6.222 189.864  1.00  0.00     0.161 C 
HETATM   23  C13 UNL     1     -36.826  -5.895 190.298  1.00  0.00     0.001 C 
HETATM   24  C14 UNL     1     -37.719  -6.903 189.610  1.00  0.00     0.020 C 
HETATM   25  C15 UNL     1     -36.985  -5.961 191.777  1.00  0.00     0.020 C 
BRANCH  21  26
HETATM   26  N1  UNL     1     -33.727  -4.876 191.038  1.00  0.00    -0.072 N 
ATOM     27  H13 UNL     1     -33.733  -5.756 191.554  1.00  0.00     0.274 HD
ATOM     28  H12 UNL     1     -32.763  -4.898 190.707  1.00  0.00     0.274 HD
ATOM     29  H11 UNL     1     -33.896  -4.079 191.652  1.00  0.00     0.274 HD
ENDBRANCH  21  26
BRANCH  22  30
HETATM   30  O1  UNL     1     -34.823  -7.206 190.626  1.00  0.00    -0.388 OA
HETATM   31  C1  UNL     1     -34.031  -8.059 189.823  1.00  0.00     0.202 C 
ENDBRANCH  22  30
ENDBRANCH   1  19
TORSDOF 9
ENDMDL
MODEL 2
REMARK VINA RESULT: -6.895886720      1.993      2.555
REMARK  9 active torsions:
REMARK  status: ('A' for Active; 'I' for Inactive)
REMARK    1  A    between atoms: O1_2  and  C2_3 
REMARK    2  A    between atoms: C3_4  and  N1_5 
REMARK    3  A    between atoms: C5_10  and  N2_11 
REMARK       I    between atoms: N2_11  and  C6_13 
REMARK    4  A    between atoms: C6_13  and  C7_15 
REMARK    5  A    between atoms: C7_15  and  N3_17 
REMARK    6  A    between atoms: N3_17  and  C9_19 
REMARK    7  A    between atoms: C9_19  and  N4_21 
REMARK    8  A    between atoms: N4_21  and  S2_23 
REMARK    9  A    between atoms: S2_23  and  C10_26 
ROOT
HETATM    1  N2  UNL     1     -38.741  -3.301 189.958  1.00  0.00    -0.354 N 
ATOM      2  H2  UNL     1     -38.093  -2.911 189.274  1.00  0.00     0.162 HD
HETATM    3  C6  UNL     1     -39.791  -2.465 190.420  1.00  0.00     0.240 C 
HETATM    4  O2  UNL     1     -40.586  -2.942 191.261  1.00  0.00    -0.271 OA
ENDROOT
BRANCH   3   5
HETATM    5  C7  UNL     1     -40.003  -1.073 189.973  1.00  0.00     0.172 C 
HETATM    6  C8  UNL     1     -41.262  -0.474 190.557  1.00  0.00     0.042 C 
BRANCH   5   7
HETATM    7  N3  UNL     1     -40.030  -1.003 188.548  1.00  0.00    -0.354 N 
ATOM      8  H3  UNL     1     -40.761  -1.496 188.037  1.00  0.00     0.162 HD
BRANCH   7   9
HETATM    9  C9  UNL     1     -39.054  -0.256 187.826  1.00  0.00     0.181 C 
HETATM   10  S1  UNL     1     -37.473  -0.462 188.140  1.00  0.00    -0.040 SA
BRANCH   9  11
HETATM   11  N4  UNL     1     -39.474   0.617 186.789  1.00  0.00    -0.260 N 
ATOM     12  H4  UNL     1     -38.933   0.639 185.924  1.00  0.00     0.181 HD
BRANCH  11  13
HETATM   13  S2  UNL     1     -40.831   1.623 186.917  1.00  0.00     0.236 S 
HETATM   14  O3  UNL     1     -42.104   0.782 186.786  1.00  0.00    -0.205 OA
HETATM   15  O4  UNL     1     -40.889   2.174 188.333  1.00  0.00    -0.205 OA
BRANCH  13  16
HETATM   16  C10 UNL     1     -40.956   2.913 185.738  1.00  0.00     0.130 A 
HETATM   17  C11 UNL     1     -40.388   4.263 186.115  1.00  0.00     0.023 A 
HETATM   18  C12 UNL     1     -39.780   3.414 185.034  1.00  0.00     0.023 A 
ENDBRANCH  13  16
ENDBRANCH  11  13
ENDBRANCH   9  11
ENDBRANCH   7   9
ENDBRANCH   5   7
ENDBRANCH   3   5
BRANCH   1  19
HETATM   19  C5  UNL     1     -38.526  -4.642 190.379  1.00  0.00     0.097 C 
HETATM   20  C4  UNL     1     -38.083  -5.498 189.210  1.00  0.00     0.061 C 
HETATM   21  C3  UNL     1     -37.415  -6.679 189.843  1.00  0.00     0.215 C 
HETATM   22  C2  UNL     1     -37.165  -6.319 191.292  1.00  0.00     0.161 C 
HETATM   23  C13 UNL     1     -37.398  -4.811 191.351  1.00  0.00     0.001 C 
HETATM   24  C14 UNL     1     -37.860  -4.509 192.759  1.00  0.00     0.020 C 
HETATM   25  C15 UNL     1     -36.167  -4.045 191.015  1.00  0.00     0.020 C 
BRANCH  21  26
HETATM   26  N1  UNL     1     -36.174  -7.035 189.173  1.00  0.00    -0.072 N 
ATOM     27  H13 UNL     1     -36.203  -6.805 188.180  1.00  0.00     0.274 HD
ATOM     28  H12 UNL     1     -35.407  -6.424 189.451  1.00  0.00     0.274 HD
ATOM     29  H11 UNL     1     -35.946  -8.018 189.325  1.00  0.00     0.274 HD
ENDBRANCH  21  26
BRANCH  22  30
HETATM   30  O1  UNL     1     -35.922  -6.683 191.744  1.00  0.00    -0.388 OA
HETATM   31  C1  UNL     1     -35.982  -7.089 193.097  1.00  0.00     0.202 C 
ENDBRANCH  22  30
ENDBRANCH   1  19
TORSDOF 9
ENDMDL
MODEL 3
REMARK VINA RESULT: -6.813884958      2.159      2.798
REMARK  9 active torsions:
REMARK  status: ('A' for Active; 'I' for Inactive)
REMARK    1  A    between atoms: O1_2  and  C2_3 
REMARK    2  A    between atoms: C3_4  and  N1_5 
REMARK    3  A    between atoms: C5_10  and  N2_11 
REMARK       I    between atoms: N2_11  and  C6_13 
REMARK    4  A    between atoms: C6_13  and  C7_15 
REMARK    5  A    between atoms: C7_15  and  N3_17 
REMARK    6  A    between atoms: N3_17  and  C9_19 
REMARK    7  A    between atoms: C9_19  and  N4_21 
REMARK    8  A    between atoms: N4_21  and  S2_23 
REMARK    9  A    between atoms: S2_23  and  C10_26 
ROOT
HETATM    1  N2  UNL     1     -36.603  -4.898 190.304  1.00  0.00    -0.354 N 
ATOM      2  H2  UNL     1     -36.011  -4.320 189.708  1.00  0.00     0.162 HD
HETATM    3  C6  UNL     1     -37.881  -4.388 190.653  1.00  0.00     0.240 C 
HETATM    4  O2  UNL     1     -38.608  -5.095 191.387  1.00  0.00    -0.271 OA
ENDROOT
BRANCH   3   5
HETATM    5  C7  UNL     1     -38.405  -3.081 190.206  1.00  0.00     0.172 C 
HETATM    6  C8  UNL     1     -39.853  -2.886 190.594  1.00  0.00     0.042 C 
BRANCH   5   7
HETATM    7  N3  UNL     1     -38.240  -2.930 188.797  1.00  0.00    -0.354 N 
ATOM      8  H3  UNL     1     -38.238  -3.759 188.202  1.00  0.00     0.162 HD
BRANCH   7   9
HETATM    9  C9  UNL     1     -38.080  -1.644 188.205  1.00  0.00     0.181 C 
HETATM   10  S1  UNL     1     -36.817  -0.708 188.616  1.00  0.00    -0.040 SA
BRANCH   9  11
HETATM   11  N4  UNL     1     -38.995  -1.219 187.206  1.00  0.00    -0.260 N 
ATOM     12  H4  UNL     1     -38.957  -1.667 186.290  1.00  0.00     0.181 HD
BRANCH  11  13
HETATM   13  S2  UNL     1     -40.148  -0.005 187.462  1.00  0.00     0.236 S 
HETATM   14  O3  UNL     1     -41.468  -0.406 186.795  1.00  0.00    -0.205 OA
HETATM   15  O4  UNL     1     -40.476   0.042 188.946  1.00  0.00    -0.205 OA
BRANCH  13  16
HETATM   16  C10 UNL     1     -39.744   1.590 186.859  1.00  0.00     0.130 A 
HETATM   17  C11 UNL     1     -40.868   2.426 186.287  1.00  0.00     0.023 A 
HETATM   18  C12 UNL     1     -40.166   2.796 187.563  1.00  0.00     0.023 A 
ENDBRANCH  13  16
ENDBRANCH  11  13
ENDBRANCH   9  11
ENDBRANCH   7   9
ENDBRANCH   5   7
ENDBRANCH   3   5
BRANCH   1  19
HETATM   19  C5  UNL     1     -36.087  -6.154 190.726  1.00  0.00     0.097 C 
HETATM   20  C4  UNL     1     -35.393  -6.853 189.576  1.00  0.00     0.061 C 
HETATM   21  C3  UNL     1     -34.488  -7.847 190.233  1.00  0.00     0.215 C 
HETATM   22  C2  UNL     1     -34.402  -7.465 191.696  1.00  0.00     0.161 C 
HETATM   23  C13 UNL     1     -35.000  -6.061 191.753  1.00  0.00     0.001 C 
HETATM   24  C14 UNL     1     -35.588  -5.907 193.138  1.00  0.00     0.020 C 
HETATM   25  C15 UNL     1     -33.979  -5.012 191.485  1.00  0.00     0.020 C 
BRANCH  21  26
HETATM   26  N1  UNL     1     -33.167  -7.878 189.624  1.00  0.00    -0.072 N 
ATOM     27  H13 UNL     1     -32.444  -8.110 190.306  1.00  0.00     0.274 HD
ATOM     28  H12 UNL     1     -33.057  -8.679 189.003  1.00  0.00     0.274 HD
ATOM     29  H11 UNL     1     -32.965  -7.000 189.145  1.00  0.00     0.274 HD
ENDBRANCH  21  26
BRANCH  22  30
HETATM   30  O1  UNL     1     -33.131  -7.524 192.207  1.00  0.00    -0.388 OA
HETATM   31  C1  UNL     1     -33.033  -8.540 193.186  1.00  0.00     0.202 C 
ENDBRANCH  22  30
ENDBRANCH   1  19
TORSDOF 9
ENDMDL
MODEL 4
REMARK VINA RESULT: -6.804202830      3.192      8.884
REMARK  9 active torsions:
REMARK  status: ('A' for Active; 'I' for Inactive)
REMARK    1  A    between atoms: O1_2  and  C2_3 
REMARK    2  A    between atoms: C3_4  and  N1_5 
REMARK    3  A    between atoms: C5_10  and  N2_11 
REMARK       I    between atoms: N2_11  and  C6_13 
REMARK    4  A    between atoms: C6_13  and  C7_15 
REMARK    5  A    between atoms: C7_15  and  N3_17 
REMARK    6  A    between atoms: N3_17  and  C9_19 
REMARK    7  A    between atoms: C9_19  and  N4_21 
REMARK    8  A    between atoms: N4_21  and  S2_23 
REMARK    9  A    between atoms: S2_23  and  C10_26 
ROOT
HETATM    1  N2  UNL     1     -39.699  -1.308 188.446  1.00  0.00    -0.354 N 
ATOM      2  H2  UNL     1     -40.643  -1.519 188.770  1.00  0.00     0.162 HD
HETATM    3  C6  UNL     1     -38.634  -2.083 188.975  1.00  0.00     0.240 C 
HETATM    4  O2  UNL     1     -37.474  -1.824 188.580  1.00  0.00    -0.271 OA
ENDROOT
BRANCH   3   5
HETATM    5  C7  UNL     1     -38.807  -3.171 189.959  1.00  0.00     0.172 C 
HETATM    6  C8  UNL     1     -39.887  -2.857 190.970  1.00  0.00     0.042 C 
BRANCH   5   7
HETATM    7  N3  UNL     1     -37.573  -3.452 190.618  1.00  0.00    -0.354 N 
ATOM      8  H3  UNL     1     -37.110  -2.714 191.149  1.00  0.00     0.162 HD
BRANCH   7   9
HETATM    9  C9  UNL     1     -36.975  -4.744 190.550  1.00  0.00     0.181 C 
HETATM   10  S1  UNL     1     -35.659  -4.986 189.628  1.00  0.00    -0.040 SA
BRANCH   9  11
HETATM   11  N4  UNL     1     -37.501  -5.796 191.344  1.00  0.00    -0.260 N 
ATOM     12  H4  UNL     1     -37.889  -6.614 190.872  1.00  0.00     0.181 HD
BRANCH  11  13
HETATM   13  S2  UNL     1     -37.517  -5.760 193.037  1.00  0.00     0.236 S 
HETATM   14  O3  UNL     1     -38.073  -4.413 193.513  1.00  0.00    -0.205 OA
HETATM   15  O4  UNL     1     -38.529  -6.780 193.532  1.00  0.00    -0.205 OA
BRANCH  13  16
HETATM   16  C10 UNL     1     -35.971  -5.974 193.833  1.00  0.00     0.130 A 
HETATM   17  C11 UNL     1     -35.415  -7.379 193.914  1.00  0.00     0.023 A 
HETATM   18  C12 UNL     1     -34.769  -6.311 193.077  1.00  0.00     0.023 A 
ENDBRANCH  13  16
ENDBRANCH  11  13
ENDBRANCH   9  11
ENDBRANCH   7   9
ENDBRANCH   5   7
ENDBRANCH   3   5
BRANCH   1  19
HETATM   19  C5  UNL     1     -39.547  -0.259 187.499  1.00  0.00     0.097 C 
HETATM   20  C4  UNL     1     -40.643  -0.326 186.456  1.00  0.00     0.061 C 
HETATM   21  C3  UNL     1     -40.687   1.051 185.869  1.00  0.00     0.215 C 
HETATM   22  C2  UNL     1     -39.904   1.951 186.801  1.00  0.00     0.161 C 
HETATM   23  C13 UNL     1     -39.723   1.117 188.066  1.00  0.00     0.001 C 
HETATM   24  C14 UNL     1     -38.440   1.595 188.709  1.00  0.00     0.020 C 
HETATM   25  C15 UNL     1     -40.875   1.263 188.997  1.00  0.00     0.020 C 
BRANCH  21  26
HETATM   26  N1  UNL     1     -42.048   1.535 185.698  1.00  0.00    -0.072 N 
ATOM     27  H13 UNL     1     -42.724   0.927 186.161  1.00  0.00     0.274 HD
ATOM     28  H12 UNL     1     -42.214   2.387 186.232  1.00  0.00     0.274 HD
ATOM     29  H11 UNL     1     -42.270   1.660 184.711  1.00  0.00     0.274 HD
ENDBRANCH  21  26
BRANCH  22  30
HETATM   30  O1  UNL     1     -40.511   3.157 187.041  1.00  0.00    -0.388 OA
HETATM   31  C1  UNL     1     -40.215   4.079 186.011  1.00  0.00     0.202 C 
ENDBRANCH  22  30
ENDBRANCH   1  19
TORSDOF 9
ENDMDL
MODEL 5
REMARK VINA RESULT: -6.671797256      1.508      2.045
REMARK  9 active torsions:
REMARK  status: ('A' for Active; 'I' for Inactive)
REMARK    1  A    between atoms: O1_2  and  C2_3 
REMARK    2  A    between atoms: C3_4  and  N1_5 
REMARK    3  A    between atoms: C5_10  and  N2_11 
REMARK       I    between atoms: N2_11  and  C6_13 
REMARK    4  A    between atoms: C6_13  and  C7_15 
REMARK    5  A    between atoms: C7_15  and  N3_17 
REMARK    6  A    between atoms: N3_17  and  C9_19 
REMARK    7  A    between atoms: C9_19  and  N4_21 
REMARK    8  A    between atoms: N4_21  and  S2_23 
REMARK    9  A    between atoms: S2_23  and  C10_26 
ROOT
HETATM    1  N2  UNL     1     -38.141  -3.089 189.817  1.00  0.00    -0.354 N 
ATOM      2  H2  UNL     1     -39.072  -3.484 189.686  1.00  0.00     0.162 HD
HETATM    3  C6  UNL     1     -37.844  -1.872 189.151  1.00  0.00     0.240 C 
HETATM    4  O2  UNL     1     -36.701  -1.386 189.308  1.00  0.00    -0.271 OA
ENDROOT
BRANCH   3   5
HETATM    5  C7  UNL     1     -38.796  -1.145 188.285  1.00  0.00     0.172 C 
HETATM    6  C8  UNL     1     -38.338   0.267 187.997  1.00  0.00     0.042 C 
BRANCH   5   7
HETATM    7  N3  UNL     1     -40.098  -1.138 188.867  1.00  0.00    -0.354 N 
ATOM      8  H3  UNL     1     -40.520  -2.019 189.160  1.00  0.00     0.162 HD
BRANCH   7   9
HETATM    9  C9  UNL     1     -40.821   0.077 189.048  1.00  0.00     0.181 C 
HETATM   10  S1  UNL     1     -40.461   1.064 190.287  1.00  0.00    -0.040 SA
BRANCH   9  11
HETATM   11  N4  UNL     1     -41.809   0.446 188.098  1.00  0.00    -0.260 N 
ATOM     12  H4  UNL     1     -42.782   0.492 188.402  1.00  0.00     0.181 HD
BRANCH  11  13
HETATM   13  S2  UNL     1     -41.451   0.812 186.484  1.00  0.00     0.236 S 
HETATM   14  O3  UNL     1     -40.910  -0.439 185.784  1.00  0.00    -0.205 OA
HETATM   15  O4  UNL     1     -42.752   1.115 185.758  1.00  0.00    -0.205 OA
BRANCH  13  16
HETATM   16  C10 UNL     1     -40.276   2.084 186.218  1.00  0.00     0.130 A 
HETATM   17  C11 UNL     1     -40.791   3.424 185.739  1.00  0.00     0.023 A 
HETATM   18  C12 UNL     1     -40.195   3.240 187.107  1.00  0.00     0.023 A 
ENDBRANCH  13  16
ENDBRANCH  11  13
ENDBRANCH   9  11
ENDBRANCH   7   9
ENDBRANCH   5   7
ENDBRANCH   3   5
BRANCH   1  19
HETATM   19  C5  UNL     1     -37.236  -3.799 190.653  1.00  0.00     0.097 C 
HETATM   20  C4  UNL     1     -37.948  -4.312 191.887  1.00  0.00     0.061 C 
HETATM   21  C3  UNL     1     -37.078  -5.424 192.386  1.00  0.00     0.215 C 
HETATM   22  C2  UNL     1     -36.113  -5.763 191.269  1.00  0.00     0.161 C 
HETATM   23  C13 UNL     1     -36.691  -5.056 190.046  1.00  0.00     0.001 C 
HETATM   24  C14 UNL     1     -35.517  -4.745 189.143  1.00  0.00     0.020 C 
HETATM   25  C15 UNL     1     -37.699  -5.895 189.343  1.00  0.00     0.020 C 
BRANCH  21  26
HETATM   26  N1  UNL     1     -37.848  -6.592 192.783  1.00  0.00    -0.072 N 
ATOM     27  H13 UNL     1     -38.841  -6.473 192.584  1.00  0.00     0.274 HD
ATOM     28  H12 UNL     1     -37.663  -7.389 192.174  1.00  0.00     0.274 HD
ATOM     29  H11 UNL     1     -37.685  -6.821 193.763  1.00  0.00     0.274 HD
ENDBRANCH  21  26
BRANCH  22  30
HETATM   30  O1  UNL     1     -35.946  -7.111 191.076  1.00  0.00    -0.388 OA
HETATM   31  C1  UNL     1     -34.632  -7.505 191.417  1.00  0.00     0.202 C 
ENDBRANCH  22  30
ENDBRANCH   1  19
TORSDOF 9
ENDMDL
