MODEL 1
REMARK VINA RESULT: -7.413646712      0.000      0.000
REMARK  8 active torsions:
REMARK  status: ('A' for Active; 'I' for Inactive)
REMARK    1  A    between atoms: C2_3  and  C3_4 
REMARK    2  A    between atoms: C3_4  and  C4_5 
REMARK    3  A    between atoms: C5_6  and  C7_9 
REMARK       I    between atoms: C7_9  and  N3_11 
REMARK    4  A    between atoms: N3_11  and  C8_13 
REMARK    5  A    between atoms: C11_16  and  N4_17 
REMARK    6  A    between atoms: C11_16  and  C13_24 
REMARK       I    between atoms: N4_17  and  C12_19 
REMARK    7  A    between atoms: C13_24  and  O2_25 
REMARK    8  A    between atoms: C13_24  and  N7_27 
ROOT
HETATM    1  N1  UNL     1     -40.523   4.893 185.230  1.00  0.00    -0.197 NA
HETATM    2  C1  UNL     1     -40.354   4.123 186.082  1.00  0.00     0.059 C 
HETATM    3  C2  UNL     1     -40.147   3.152 187.133  1.00  0.00     0.127 C 
ENDROOT
BRANCH   3   4
HETATM    4  C3  UNL     1     -40.947   1.889 186.802  1.00  0.00     0.043 C 
BRANCH   4   5
HETATM    5  C4  UNL     1     -41.023   1.107 188.037  1.00  0.00     0.002 C 
HETATM    6  C5  UNL     1     -40.195   0.260 188.558  1.00  0.00     0.108 C 
HETATM    7  C6  UNL     1     -40.557  -0.384 189.845  1.00  0.00     0.104 C 
HETATM    8  N2  UNL     1     -40.851  -0.870 190.847  1.00  0.00    -0.191 NA
BRANCH   6   9
HETATM    9  C7  UNL     1     -38.939  -0.140 188.010  1.00  0.00     0.262 C 
HETATM   10  O1  UNL     1     -38.846  -0.791 186.967  1.00  0.00    -0.267 OA
HETATM   11  N3  UNL     1     -37.720   0.214 188.669  1.00  0.00    -0.352 N 
ATOM     12  H3  UNL     1     -37.772   0.754 189.533  1.00  0.00     0.163 HD
BRANCH  11  13
HETATM   13  C8  UNL     1     -36.401  -0.163 188.161  1.00  0.00     0.085 C 
HETATM   14  C9  UNL     1     -35.979  -1.356 188.942  1.00  0.00     0.028 C 
HETATM   15  C10 UNL     1     -34.545  -1.306 189.426  1.00  0.00     0.042 C 
HETATM   16  C11 UNL     1     -33.665  -0.544 188.514  1.00  0.00     0.097 C 
HETATM   17  C18 UNL     1     -34.131   0.897 188.616  1.00  0.00     0.042 C 
HETATM   18  C19 UNL     1     -35.566   1.046 188.187  1.00  0.00     0.028 C 
BRANCH  16  19
HETATM   19  N4  UNL     1     -33.890  -1.028 187.148  1.00  0.00    -0.348 N 
HETATM   20  C12 UNL     1     -33.135  -0.614 186.026  1.00  0.00     0.182 C 
HETATM   21  N5  UNL     1     -32.929   0.614 185.720  1.00  0.00    -0.374 N 
HETATM   22  N6  UNL     1     -32.543  -1.600 185.152  1.00  0.00    -0.064 NA
ATOM     23  H52 UNL     1     -33.346   1.311 186.337  1.00  0.00     0.158 HD
ATOM     24  H51 UNL     1     -32.383   0.912 184.911  1.00  0.00     0.158 HD
ATOM     25  H4  UNL     1     -34.638  -1.705 186.997  1.00  0.00     0.163 HD
ENDBRANCH  16  19
BRANCH  16  26
HETATM   26  C13 UNL     1     -32.263  -0.626 188.888  1.00  0.00     0.142 C 
BRANCH  26  27
HETATM   27  O2  UNL     1     -31.831  -1.862 189.011  1.00  0.00    -0.348 OA
ATOM     28  H2  UNL     1     -30.958  -1.991 188.656  1.00  0.00     0.219 HD
ENDBRANCH  26  27
BRANCH  26  29
HETATM   29  N7  UNL     1     -31.282   0.322 189.147  1.00  0.00    -0.359 N 
HETATM   30  C14 UNL     1     -31.114   0.741 190.559  1.00  0.00     0.151 C 
HETATM   31  C15 UNL     1     -31.003   2.237 190.669  1.00  0.00     0.187 C 
HETATM   32  O3  UNL     1     -30.388   2.809 189.559  1.00  0.00    -0.388 OA
HETATM   33  C16 UNL     1     -29.515   1.881 188.991  1.00  0.00     0.187 C 
HETATM   34  C17 UNL     1     -30.448   0.939 188.165  1.00  0.00     0.151 C 
ENDBRANCH  26  29
ENDBRANCH  16  26
ENDBRANCH  11  13
ENDBRANCH   6   9
ENDBRANCH   4   5
ENDBRANCH   3   4
TORSDOF 8
ENDMDL
MODEL 2
REMARK VINA RESULT: -7.171211639      1.742      2.698
REMARK  8 active torsions:
REMARK  status: ('A' for Active; 'I' for Inactive)
REMARK    1  A    between atoms: C2_3  and  C3_4 
REMARK    2  A    between atoms: C3_4  and  C4_5 
REMARK    3  A    between atoms: C5_6  and  C7_9 
REMARK       I    between atoms: C7_9  and  N3_11 
REMARK    4  A    between atoms: N3_11  and  C8_13 
REMARK    5  A    between atoms: C11_16  and  N4_17 
REMARK    6  A    between atoms: C11_16  and  C13_24 
REMARK       I    between atoms: N4_17  and  C12_19 
REMARK    7  A    between atoms: C13_24  and  O2_25 
REMARK    8  A    between atoms: C13_24  and  N7_27 
ROOT
HETATM    1  N1  UNL     1     -42.704   1.169 185.735  1.00  0.00    -0.197 NA
HETATM    2  C1  UNL     1     -41.624   1.589 185.817  1.00  0.00     0.059 C 
HETATM    3  C2  UNL     1     -40.281   2.111 185.937  1.00  0.00     0.127 C 
ENDROOT
BRANCH   3   4
HETATM    4  C3  UNL     1     -40.154   2.844 187.275  1.00  0.00     0.043 C 
BRANCH   4   5
HETATM    5  C4  UNL     1     -40.482   1.870 188.317  1.00  0.00     0.002 C 
HETATM    6  C5  UNL     1     -39.876   0.789 188.691  1.00  0.00     0.108 C 
HETATM    7  C6  UNL     1     -40.464  -0.005 189.799  1.00  0.00     0.104 C 
HETATM    8  N2  UNL     1     -40.929  -0.605 190.665  1.00  0.00    -0.191 NA
BRANCH   6   9
HETATM    9  C7  UNL     1     -38.675   0.258 188.133  1.00  0.00     0.262 C 
HETATM   10  O1  UNL     1     -38.674  -0.535 187.189  1.00  0.00    -0.267 OA
HETATM   11  N3  UNL     1     -37.403   0.643 188.663  1.00  0.00    -0.352 N 
ATOM     12  H3  UNL     1     -37.379   1.299 189.443  1.00  0.00     0.163 HD
BRANCH  11  13
HETATM   13  C8  UNL     1     -36.135   0.137 188.138  1.00  0.00     0.085 C 
HETATM   14  C9  UNL     1     -35.851  -1.123 188.875  1.00  0.00     0.028 C 
HETATM   15  C10 UNL     1     -34.421  -1.254 189.355  1.00  0.00     0.042 C 
HETATM   16  C11 UNL     1     -33.460  -0.564 188.467  1.00  0.00     0.097 C 
HETATM   17  C18 UNL     1     -33.760   0.916 188.622  1.00  0.00     0.042 C 
HETATM   18  C19 UNL     1     -35.168   1.242 188.203  1.00  0.00     0.028 C 
BRANCH  16  19
HETATM   19  N4  UNL     1     -33.738  -0.970 187.086  1.00  0.00    -0.348 N 
HETATM   20  C12 UNL     1     -32.879  -0.702 185.994  1.00  0.00     0.182 C 
HETATM   21  N5  UNL     1     -32.417   0.461 185.720  1.00  0.00    -0.374 N 
HETATM   22  N6  UNL     1     -32.476  -1.776 185.115  1.00  0.00    -0.064 NA
ATOM     23  H52 UNL     1     -32.702   1.219 186.340  1.00  0.00     0.158 HD
ATOM     24  H51 UNL     1     -31.798   0.654 184.932  1.00  0.00     0.158 HD
ATOM     25  H4  UNL     1     -34.604  -1.477 186.900  1.00  0.00     0.163 HD
ENDBRANCH  16  19
BRANCH  16  26
HETATM   26  C13 UNL     1     -32.077  -0.818 188.834  1.00  0.00     0.142 C 
BRANCH  26  27
HETATM   27  O2  UNL     1     -31.298   0.231 188.678  1.00  0.00    -0.348 OA
ATOM     28  H2  UNL     1     -30.404   0.004 188.447  1.00  0.00     0.219 HD
ENDBRANCH  26  27
BRANCH  26  29
HETATM   29  N7  UNL     1     -31.400  -1.932 189.311  1.00  0.00    -0.359 N 
HETATM   30  C14 UNL     1     -31.223  -3.062 188.366  1.00  0.00     0.151 C 
HETATM   31  C15 UNL     1     -31.550  -4.373 189.025  1.00  0.00     0.187 C 
HETATM   32  O3  UNL     1     -31.246  -4.377 190.384  1.00  0.00    -0.388 OA
HETATM   33  C16 UNL     1     -30.200  -3.487 190.622  1.00  0.00     0.187 C 
HETATM   34  C17 UNL     1     -30.889  -2.086 190.636  1.00  0.00     0.151 C 
ENDBRANCH  26  29
ENDBRANCH  16  26
ENDBRANCH  11  13
ENDBRANCH   6   9
ENDBRANCH   4   5
ENDBRANCH   3   4
TORSDOF 8
ENDMDL
MODEL 3
REMARK VINA RESULT: -7.121581204      1.008      1.087
REMARK  8 active torsions:
REMARK  status: ('A' for Active; 'I' for Inactive)
REMARK    1  A    between atoms: C2_3  and  C3_4 
REMARK    2  A    between atoms: C3_4  and  C4_5 
REMARK    3  A    between atoms: C5_6  and  C7_9 
REMARK       I    between atoms: C7_9  and  N3_11 
REMARK    4  A    between atoms: N3_11  and  C8_13 
REMARK    5  A    between atoms: C11_16  and  N4_17 
REMARK    6  A    between atoms: C11_16  and  C13_24 
REMARK       I    between atoms: N4_17  and  C12_19 
REMARK    7  A    between atoms: C13_24  and  O2_25 
REMARK    8  A    between atoms: C13_24  and  N7_27 
ROOT
HETATM    1  N1  UNL     1     -40.278   4.126 186.280  1.00  0.00    -0.197 NA
HETATM    2  C1  UNL     1     -40.269   3.328 187.122  1.00  0.00     0.059 C 
HETATM    3  C2  UNL     1     -40.263   2.321 188.160  1.00  0.00     0.127 C 
ENDROOT
BRANCH   3   4
HETATM    4  C3  UNL     1     -41.267   1.226 187.792  1.00  0.00     0.043 C 
BRANCH   4   5
HETATM    5  C4  UNL     1     -41.095   0.155 188.775  1.00  0.00     0.002 C 
HETATM    6  C5  UNL     1     -40.102  -0.645 188.996  1.00  0.00     0.108 C 
HETATM    7  C6  UNL     1     -40.227  -1.646 190.085  1.00  0.00     0.104 C 
HETATM    8  N2  UNL     1     -40.339  -2.412 190.937  1.00  0.00    -0.191 NA
BRANCH   6   9
HETATM    9  C7  UNL     1     -38.867  -0.676 188.280  1.00  0.00     0.262 C 
HETATM   10  O1  UNL     1     -38.810  -0.849 187.061  1.00  0.00    -0.267 OA
HETATM   11  N3  UNL     1     -37.629  -0.499 188.974  1.00  0.00    -0.352 N 
ATOM     12  H3  UNL     1     -37.652  -0.353 189.983  1.00  0.00     0.163 HD
BRANCH  11  13
HETATM   13  C8  UNL     1     -36.330  -0.519 188.302  1.00  0.00     0.085 C 
HETATM   14  C9  UNL     1     -35.498  -1.513 189.032  1.00  0.00     0.028 C 
HETATM   15  C10 UNL     1     -34.087  -1.047 189.324  1.00  0.00     0.042 C 
HETATM   16  C11 UNL     1     -33.575  -0.113 188.299  1.00  0.00     0.097 C 
HETATM   17  C18 UNL     1     -34.410   1.146 188.448  1.00  0.00     0.042 C 
HETATM   18  C19 UNL     1     -35.870   0.873 188.208  1.00  0.00     0.028 C 
BRANCH  16  19
HETATM   19  N4  UNL     1     -33.821  -0.701 186.978  1.00  0.00    -0.348 N 
HETATM   20  C12 UNL     1     -33.418  -0.107 185.759  1.00  0.00     0.182 C 
HETATM   21  N5  UNL     1     -33.680   1.105 185.436  1.00  0.00    -0.374 N 
HETATM   22  N6  UNL     1     -32.664  -0.879 184.797  1.00  0.00    -0.064 NA
ATOM     23  H52 UNL     1     -34.212   1.649 186.115  1.00  0.00     0.158 HD
ATOM     24  H51 UNL     1     -33.389   1.533 184.557  1.00  0.00     0.158 HD
ATOM     25  H4  UNL     1     -34.314  -1.593 186.936  1.00  0.00     0.163 HD
ENDBRANCH  16  19
BRANCH  16  26
HETATM   26  C13 UNL     1     -32.171   0.213 188.488  1.00  0.00     0.142 C 
BRANCH  26  27
HETATM   27  O2  UNL     1     -31.402  -0.849 188.595  1.00  0.00    -0.348 OA
ATOM     28  H2  UNL     1     -30.610  -0.792 188.073  1.00  0.00     0.219 HD
ENDBRANCH  26  27
BRANCH  26  29
HETATM   29  N7  UNL     1     -31.467   1.406 188.582  1.00  0.00    -0.359 N 
HETATM   30  C14 UNL     1     -31.236   1.939 189.947  1.00  0.00     0.151 C 
HETATM   31  C15 UNL     1     -31.532   3.411 190.010  1.00  0.00     0.187 C 
HETATM   32  O3  UNL     1     -31.254   4.063 188.811  1.00  0.00    -0.388 OA
HETATM   33  C16 UNL     1     -30.242   3.376 188.141  1.00  0.00     0.187 C 
HETATM   34  C17 UNL     1     -30.977   2.168 187.478  1.00  0.00     0.151 C 
ENDBRANCH  26  29
ENDBRANCH  16  26
ENDBRANCH  11  13
ENDBRANCH   6   9
ENDBRANCH   4   5
ENDBRANCH   3   4
TORSDOF 8
ENDMDL
MODEL 4
REMARK VINA RESULT: -6.829823230      4.799      6.069
REMARK  8 active torsions:
REMARK  status: ('A' for Active; 'I' for Inactive)
REMARK    1  A    between atoms: C2_3  and  C3_4 
REMARK    2  A    between atoms: C3_4  and  C4_5 
REMARK    3  A    between atoms: C5_6  and  C7_9 
REMARK       I    between atoms: C7_9  and  N3_11 
REMARK    4  A    between atoms: N3_11  and  C8_13 
REMARK    5  A    between atoms: C11_16  and  N4_17 
REMARK    6  A    between atoms: C11_16  and  C13_24 
REMARK       I    between atoms: N4_17  and  C12_19 
REMARK    7  A    between atoms: C13_24  and  O2_25 
REMARK    8  A    between atoms: C13_24  and  N7_27 
ROOT
HETATM    1  N1  UNL     1     -42.428   1.128 185.896  1.00  0.00    -0.197 NA
HETATM    2  C1  UNL     1     -41.349   1.385 186.240  1.00  0.00     0.059 C 
HETATM    3  C2  UNL     1     -40.001   1.689 186.664  1.00  0.00     0.127 C 
ENDROOT
BRANCH   3   4
HETATM    4  C3  UNL     1     -39.295   0.384 187.040  1.00  0.00     0.043 C 
BRANCH   4   5
HETATM    5  C4  UNL     1     -39.871  -0.050 188.314  1.00  0.00     0.002 C 
HETATM    6  C5  UNL     1     -39.493  -0.962 189.151  1.00  0.00     0.108 C 
HETATM    7  C6  UNL     1     -40.298  -1.173 190.380  1.00  0.00     0.104 C 
HETATM    8  N2  UNL     1     -40.930  -1.319 191.332  1.00  0.00    -0.191 NA
BRANCH   6   9
HETATM    9  C7  UNL     1     -38.358  -1.817 189.012  1.00  0.00     0.262 C 
HETATM   10  O1  UNL     1     -37.278  -1.421 188.569  1.00  0.00    -0.267 OA
HETATM   11  N3  UNL     1     -38.442  -3.193 189.395  1.00  0.00    -0.352 N 
ATOM     12  H3  UNL     1     -39.326  -3.542 189.766  1.00  0.00     0.163 HD
BRANCH  11  13
HETATM   13  C8  UNL     1     -37.319  -4.122 189.279  1.00  0.00     0.085 C 
HETATM   14  C9  UNL     1     -37.893  -5.488 189.405  1.00  0.00     0.028 C 
HETATM   15  C10 UNL     1     -37.111  -6.408 190.319  1.00  0.00     0.042 C 
HETATM   16  C11 UNL     1     -35.665  -6.099 190.333  1.00  0.00     0.097 C 
HETATM   17  C18 UNL     1     -35.551  -4.742 191.002  1.00  0.00     0.042 C 
HETATM   18  C19 UNL     1     -36.293  -3.681 190.235  1.00  0.00     0.028 C 
BRANCH  16  19
HETATM   19  N4  UNL     1     -35.205  -5.992 188.945  1.00  0.00    -0.348 N 
HETATM   20  C12 UNL     1     -33.844  -5.938 188.564  1.00  0.00     0.182 C 
HETATM   21  N5  UNL     1     -32.995  -5.120 189.068  1.00  0.00    -0.374 N 
HETATM   22  N6  UNL     1     -33.342  -6.840 187.553  1.00  0.00    -0.064 NA
ATOM     23  H52 UNL     1     -33.349  -4.483 189.781  1.00  0.00     0.158 HD
ATOM     24  H51 UNL     1     -32.013  -5.081 188.792  1.00  0.00     0.158 HD
ATOM     25  H4  UNL     1     -35.910  -5.955 188.208  1.00  0.00     0.163 HD
ENDBRANCH  16  19
BRANCH  16  26
HETATM   26  C13 UNL     1     -34.890  -7.074 191.082  1.00  0.00     0.142 C 
BRANCH  26  27
HETATM   27  O2  UNL     1     -34.714  -8.205 190.434  1.00  0.00    -0.348 OA
ATOM     28  H2  UNL     1     -34.793  -8.972 190.989  1.00  0.00     0.219 HD
ENDBRANCH  26  27
BRANCH  26  29
HETATM   29  N7  UNL     1     -34.298  -7.069 192.338  1.00  0.00    -0.359 N 
HETATM   30  C14 UNL     1     -35.195  -7.281 193.501  1.00  0.00     0.151 C 
HETATM   31  C15 UNL     1     -34.901  -6.293 194.596  1.00  0.00     0.187 C 
HETATM   32  O3  UNL     1     -33.556  -5.935 194.644  1.00  0.00    -0.388 OA
HETATM   33  C16 UNL     1     -32.784  -6.986 194.149  1.00  0.00     0.187 C 
HETATM   34  C17 UNL     1     -32.910  -6.851 192.598  1.00  0.00     0.151 C 
ENDBRANCH  26  29
ENDBRANCH  16  26
ENDBRANCH  11  13
ENDBRANCH   6   9
ENDBRANCH   4   5
ENDBRANCH   3   4
TORSDOF 8
ENDMDL
MODEL 5
REMARK VINA RESULT: -6.809913075      5.041      7.046
REMARK  8 active torsions:
REMARK  status: ('A' for Active; 'I' for Inactive)
REMARK    1  A    between atoms: C2_3  and  C3_4 
REMARK    2  A    between atoms: C3_4  and  C4_5 
REMARK    3  A    between atoms: C5_6  and  C7_9 
REMARK       I    between atoms: C7_9  and  N3_11 
REMARK    4  A    between atoms: N3_11  and  C8_13 
REMARK    5  A    between atoms: C11_16  and  N4_17 
REMARK    6  A    between atoms: C11_16  and  C13_24 
REMARK       I    between atoms: N4_17  and  C12_19 
REMARK    7  A    between atoms: C13_24  and  O2_25 
REMARK    8  A    between atoms: C13_24  and  N7_27 
ROOT
HETATM    1  N1  UNL     1     -39.308   1.018 187.222  1.00  0.00    -0.197 NA
HETATM    2  C1  UNL     1     -38.511   0.341 187.726  1.00  0.00     0.059 C 
HETATM    3  C2  UNL     1     -37.509  -0.489 188.358  1.00  0.00     0.127 C 
ENDROOT
BRANCH   3   4
HETATM    4  C3  UNL     1     -36.171   0.256 188.343  1.00  0.00     0.043 C 
BRANCH   4   5
HETATM    5  C4  UNL     1     -35.196  -0.625 188.988  1.00  0.00     0.002 C 
HETATM    6  C5  UNL     1     -33.918  -0.504 189.151  1.00  0.00     0.108 C 
HETATM    7  C6  UNL     1     -33.188  -1.584 189.860  1.00  0.00     0.104 C 
HETATM    8  N2  UNL     1     -32.639  -2.429 190.418  1.00  0.00    -0.191 NA
BRANCH   6   9
HETATM    9  C7  UNL     1     -33.110   0.584 188.703  1.00  0.00     0.262 C 
HETATM   10  O1  UNL     1     -31.913   0.456 188.435  1.00  0.00    -0.267 OA
HETATM   11  N3  UNL     1     -33.679   1.887 188.545  1.00  0.00    -0.352 N 
ATOM     12  H3  UNL     1     -34.668   2.015 188.759  1.00  0.00     0.163 HD
BRANCH  11  13
HETATM   13  C8  UNL     1     -32.908   3.043 188.089  1.00  0.00     0.085 C 
HETATM   14  C9  UNL     1     -33.506   4.231 188.755  1.00  0.00     0.028 C 
HETATM   15  C10 UNL     1     -33.716   5.417 187.838  1.00  0.00     0.042 C 
HETATM   16  C11 UNL     1     -32.715   5.477 186.750  1.00  0.00     0.097 C 
HETATM   17  C18 UNL     1     -33.010   4.279 185.866  1.00  0.00     0.042 C 
HETATM   18  C19 UNL     1     -32.867   2.986 186.622  1.00  0.00     0.028 C 
BRANCH  16  19
HETATM   19  N4  UNL     1     -31.383   5.323 187.343  1.00  0.00    -0.348 N 
HETATM   20  C12 UNL     1     -30.863   6.167 188.351  1.00  0.00     0.182 C 
HETATM   21  N5  UNL     1     -30.844   7.447 188.269  1.00  0.00    -0.374 N 
HETATM   22  N6  UNL     1     -30.312   5.594 189.558  1.00  0.00    -0.064 NA
ATOM     23  H52 UNL     1     -31.233   7.851 187.418  1.00  0.00     0.158 HD
ATOM     24  H51 UNL     1     -30.469   8.056 188.997  1.00  0.00     0.158 HD
ATOM     25  H4  UNL     1     -30.795   4.559 187.009  1.00  0.00     0.163 HD
ENDBRANCH  16  19
BRANCH  16  26
HETATM   26  C13 UNL     1     -32.815   6.695 185.963  1.00  0.00     0.142 C 
BRANCH  26  27
HETATM   27  O2  UNL     1     -33.580   7.610 186.518  1.00  0.00    -0.348 OA
ATOM     28  H2  UNL     1     -33.286   8.498 186.350  1.00  0.00     0.219 HD
ENDBRANCH  26  27
BRANCH  26  29
HETATM   29  N7  UNL     1     -32.277   7.100 184.749  1.00  0.00    -0.359 N 
HETATM   30  C14 UNL     1     -30.797   7.152 184.659  1.00  0.00     0.151 C 
HETATM   31  C15 UNL     1     -30.341   8.427 184.006  1.00  0.00     0.187 C 
HETATM   32  O3  UNL     1     -31.243   8.891 183.052  1.00  0.00    -0.388 OA
HETATM   33  C16 UNL     1     -31.944   7.808 182.521  1.00  0.00     0.187 C 
HETATM   34  C17 UNL     1     -33.028   7.492 183.599  1.00  0.00     0.151 C 
ENDBRANCH  26  29
ENDBRANCH  16  26
ENDBRANCH  11  13
ENDBRANCH   6   9
ENDBRANCH   4   5
ENDBRANCH   3   4
TORSDOF 8
ENDMDL
