MODEL 1
REMARK VINA RESULT: -8.494429191      0.000      0.000
REMARK  8 active torsions:
REMARK  status: ('A' for Active; 'I' for Inactive)
REMARK       I    between atoms: C1_2  and  N1_3 
REMARK    1  A    between atoms: C1_2  and  C5_13 
REMARK    2  A    between atoms: N1_3  and  N2_5 
REMARK    3  A    between atoms: N2_5  and  S1_7 
REMARK    4  A    between atoms: S1_7  and  C2_10 
REMARK    5  A    between atoms: N3_18  and  C10_19 
REMARK    6  A    between atoms: C10_19  and  O4_20 
REMARK    7  A    between atoms: C10_19  and  C11_22 
REMARK    8  A    between atoms: C13_24  and  C14_25 
ROOT
HETATM    1  C5  UNL     1     -39.726   1.238 189.116  1.00  0.00     0.179 C 
HETATM    2  C6  UNL     1     -40.359   2.432 188.487  1.00  0.00     0.035 C 
HETATM    3  C7  UNL     1     -40.187   2.591 187.024  1.00  0.00     0.007 C 
HETATM    4  C8  UNL     1     -40.125   1.330 186.242  1.00  0.00     0.044 C 
HETATM    5  C9  UNL     1     -39.645   0.118 186.981  1.00  0.00     0.062 C 
HETATM    6  N3  UNL     1     -39.068   0.334 188.221  1.00  0.00    -0.352 N 
ENDROOT
BRANCH   6   7
HETATM    7  C10 UNL     1     -37.749  -0.054 188.503  1.00  0.00     0.251 C 
BRANCH   7   8
HETATM    8  O4  UNL     1     -36.929   0.686 187.584  1.00  0.00    -0.374 OA
ATOM      9  H4  UNL     1     -36.134   0.175 187.488  1.00  0.00     0.212 HD
ENDBRANCH   7   8
BRANCH   7  10
HETATM   10  C11 UNL     1     -37.484  -1.524 188.246  1.00  0.00     0.236 C 
HETATM   11  C12 UNL     1     -36.364  -2.148 189.035  1.00  0.00     0.070 C 
HETATM   12  C13 UNL     1     -37.322  -3.270 189.230  1.00  0.00     0.192 C 
HETATM   13  N4  UNL     1     -38.412  -2.388 189.005  1.00  0.00    -0.062 N 
ATOM     14  H42 UNL     1     -38.956  -2.016 189.784  1.00  0.00     0.278 HD
ATOM     15  H41 UNL     1     -39.279  -2.722 188.585  1.00  0.00     0.278 HD
BRANCH  12  16
HETATM   16  C14 UNL     1     -37.283  -4.021 190.532  1.00  0.00     0.016 C 
HETATM   17  C15 UNL     1     -38.280  -5.132 190.645  1.00  0.00     0.007 C 
HETATM   18  C16 UNL     1     -37.576  -6.289 191.320  1.00  0.00     0.000 C 
HETATM   19  C17 UNL     1     -36.100  -6.079 191.083  1.00  0.00     0.000 C 
HETATM   20  C18 UNL     1     -35.912  -4.682 190.588  1.00  0.00     0.007 C 
ENDBRANCH  12  16
ENDBRANCH   7  10
ENDBRANCH   6   7
BRANCH   1  21
HETATM   21  C1  UNL     1     -40.844   0.463 189.753  1.00  0.00     0.259 C 
HETATM   22  O1  UNL     1     -41.959   0.328 189.188  1.00  0.00    -0.269 OA
HETATM   23  N1  UNL     1     -40.617  -0.129 191.026  1.00  0.00    -0.259 N 
ATOM     24  H1  UNL     1     -39.713  -0.043 191.491  1.00  0.00     0.190 HD
BRANCH  23  25
HETATM   25  N2  UNL     1     -41.688  -0.845 191.637  1.00  0.00    -0.224 N 
ATOM     26  H2  UNL     1     -42.664  -0.738 191.362  1.00  0.00     0.200 HD
BRANCH  25  27
HETATM   27  S1  UNL     1     -41.174  -1.892 192.868  1.00  0.00     0.248 S 
HETATM   28  O2  UNL     1     -40.185  -1.247 193.819  1.00  0.00    -0.204 OA
HETATM   29  O3  UNL     1     -40.511  -3.113 192.235  1.00  0.00    -0.204 OA
BRANCH  27  30
HETATM   30  C2  UNL     1     -42.500  -2.525 193.876  1.00  0.00     0.131 A 
HETATM   31  C3  UNL     1     -42.830  -1.784 195.129  1.00  0.00     0.023 A 
HETATM   32  C4  UNL     1     -43.804  -1.885 193.978  1.00  0.00     0.023 A 
ENDBRANCH  27  30
ENDBRANCH  25  27
ENDBRANCH  23  25
ENDBRANCH   1  21
TORSDOF 8
ENDMDL
MODEL 2
REMARK VINA RESULT: -8.353161949      2.397      3.749
REMARK  8 active torsions:
REMARK  status: ('A' for Active; 'I' for Inactive)
REMARK       I    between atoms: C1_2  and  N1_3 
REMARK    1  A    between atoms: C1_2  and  C5_13 
REMARK    2  A    between atoms: N1_3  and  N2_5 
REMARK    3  A    between atoms: N2_5  and  S1_7 
REMARK    4  A    between atoms: S1_7  and  C2_10 
REMARK    5  A    between atoms: N3_18  and  C10_19 
REMARK    6  A    between atoms: C10_19  and  O4_20 
REMARK    7  A    between atoms: C10_19  and  C11_22 
REMARK    8  A    between atoms: C13_24  and  C14_25 
ROOT
HETATM    1  C5  UNL     1     -39.776   0.898 188.742  1.00  0.00     0.179 C 
HETATM    2  C6  UNL     1     -40.226   2.269 188.366  1.00  0.00     0.035 C 
HETATM    3  C7  UNL     1     -40.314   2.573 186.918  1.00  0.00     0.007 C 
HETATM    4  C8  UNL     1     -40.703   1.437 186.044  1.00  0.00     0.044 C 
HETATM    5  C9  UNL     1     -40.382   0.067 186.559  1.00  0.00     0.062 C 
HETATM    6  N3  UNL     1     -39.537  -0.003 187.654  1.00  0.00    -0.352 N 
ENDROOT
BRANCH   6   7
HETATM    7  C10 UNL     1     -38.315  -0.692 187.605  1.00  0.00     0.251 C 
BRANCH   7   8
HETATM    8  O4  UNL     1     -38.618  -2.035 188.018  1.00  0.00    -0.374 OA
ATOM      9  H4  UNL     1     -38.476  -2.047 188.957  1.00  0.00     0.212 HD
ENDBRANCH   7   8
BRANCH   7  10
HETATM   10  C11 UNL     1     -37.280  -0.155 188.573  1.00  0.00     0.236 C 
HETATM   11  C12 UNL     1     -36.060  -1.011 188.787  1.00  0.00     0.070 C 
HETATM   12  C13 UNL     1     -35.318   0.274 188.671  1.00  0.00     0.192 C 
HETATM   13  N4  UNL     1     -36.392   0.835 187.930  1.00  0.00    -0.062 N 
ATOM     14  H42 UNL     1     -36.343   0.914 186.914  1.00  0.00     0.278 HD
ATOM     15  H41 UNL     1     -36.596   1.832 187.978  1.00  0.00     0.278 HD
BRANCH  12  16
HETATM   16  C14 UNL     1     -33.957   0.254 188.032  1.00  0.00     0.016 C 
HETATM   17  C15 UNL     1     -33.587   1.510 187.306  1.00  0.00     0.007 C 
HETATM   18  C16 UNL     1     -32.132   1.787 187.617  1.00  0.00     0.000 C 
HETATM   19  C17 UNL     1     -31.835   1.068 188.911  1.00  0.00     0.000 C 
HETATM   20  C18 UNL     1     -32.963   0.124 189.178  1.00  0.00     0.007 C 
ENDBRANCH  12  16
ENDBRANCH   7  10
ENDBRANCH   6   7
BRANCH   1  21
HETATM   21  C1  UNL     1     -40.895   0.301 189.546  1.00  0.00     0.259 C 
HETATM   22  O1  UNL     1     -42.083   0.312 189.134  1.00  0.00    -0.269 OA
HETATM   23  N1  UNL     1     -40.585  -0.290 190.803  1.00  0.00    -0.259 N 
ATOM     24  H1  UNL     1     -39.624  -0.322 191.144  1.00  0.00     0.190 HD
BRANCH  23  25
HETATM   25  N2  UNL     1     -41.654  -0.835 191.573  1.00  0.00    -0.224 N 
ATOM     26  H2  UNL     1     -42.635  -0.609 191.412  1.00  0.00     0.200 HD
BRANCH  25  27
HETATM   27  S1  UNL     1     -41.127  -1.898 192.785  1.00  0.00     0.248 S 
HETATM   28  O2  UNL     1     -40.125  -1.266 193.732  1.00  0.00    -0.204 OA
HETATM   29  O3  UNL     1     -40.474  -3.113 192.130  1.00  0.00    -0.204 OA
BRANCH  27  30
HETATM   30  C2  UNL     1     -42.442  -2.540 193.801  1.00  0.00     0.131 A 
HETATM   31  C3  UNL     1     -42.702  -1.862 195.106  1.00  0.00     0.023 A 
HETATM   32  C4  UNL     1     -43.717  -1.861 193.986  1.00  0.00     0.023 A 
ENDBRANCH  27  30
ENDBRANCH  25  27
ENDBRANCH  23  25
ENDBRANCH   1  21
TORSDOF 8
ENDMDL
MODEL 3
REMARK VINA RESULT: -8.194246708      1.382      1.891
REMARK  8 active torsions:
REMARK  status: ('A' for Active; 'I' for Inactive)
REMARK       I    between atoms: C1_2  and  N1_3 
REMARK    1  A    between atoms: C1_2  and  C5_13 
REMARK    2  A    between atoms: N1_3  and  N2_5 
REMARK    3  A    between atoms: N2_5  and  S1_7 
REMARK    4  A    between atoms: S1_7  and  C2_10 
REMARK    5  A    between atoms: N3_18  and  C10_19 
REMARK    6  A    between atoms: C10_19  and  O4_20 
REMARK    7  A    between atoms: C10_19  and  C11_22 
REMARK    8  A    between atoms: C13_24  and  C14_25 
ROOT
HETATM    1  C5  UNL     1     -39.817   0.896 188.717  1.00  0.00     0.179 C 
HETATM    2  C6  UNL     1     -40.187   2.315 188.448  1.00  0.00     0.035 C 
HETATM    3  C7  UNL     1     -40.332   2.714 187.028  1.00  0.00     0.007 C 
HETATM    4  C8  UNL     1     -40.848   1.664 186.114  1.00  0.00     0.044 C 
HETATM    5  C9  UNL     1     -40.599   0.246 186.528  1.00  0.00     0.062 C 
HETATM    6  N3  UNL     1     -39.702   0.050 187.566  1.00  0.00    -0.352 N 
ENDROOT
BRANCH   6   7
HETATM    7  C10 UNL     1     -38.538  -0.717 187.405  1.00  0.00     0.251 C 
BRANCH   7   8
HETATM    8  O4  UNL     1     -38.943  -1.873 186.655  1.00  0.00    -0.374 OA
ATOM      9  H4  UNL     1     -38.506  -2.608 187.070  1.00  0.00     0.212 HD
ENDBRANCH   7   8
BRANCH   7  10
HETATM   10  C11 UNL     1     -37.960  -1.218 188.713  1.00  0.00     0.236 C 
HETATM   11  C12 UNL     1     -37.720  -2.701 188.811  1.00  0.00     0.070 C 
HETATM   12  C13 UNL     1     -36.421  -2.303 189.419  1.00  0.00     0.192 C 
HETATM   13  N4  UNL     1     -36.494  -1.044 188.766  1.00  0.00    -0.062 N 
ATOM     14  H42 UNL     1     -35.956  -0.860 187.919  1.00  0.00     0.278 HD
ATOM     15  H41 UNL     1     -36.080  -0.212 189.185  1.00  0.00     0.278 HD
BRANCH  12  16
HETATM   16  C14 UNL     1     -35.218  -3.164 189.154  1.00  0.00     0.016 C 
HETATM   17  C15 UNL     1     -33.908  -2.548 189.538  1.00  0.00     0.007 C 
HETATM   18  C16 UNL     1     -33.075  -3.641 190.172  1.00  0.00     0.000 C 
HETATM   19  C17 UNL     1     -34.052  -4.682 190.662  1.00  0.00     0.000 C 
HETATM   20  C18 UNL     1     -35.381  -4.389 190.043  1.00  0.00     0.007 C 
ENDBRANCH  12  16
ENDBRANCH   7  10
ENDBRANCH   6   7
BRANCH   1  21
HETATM   21  C1  UNL     1     -40.930   0.327 189.549  1.00  0.00     0.259 C 
HETATM   22  O1  UNL     1     -42.124   0.349 189.157  1.00  0.00    -0.269 OA
HETATM   23  N1  UNL     1     -40.606  -0.247 190.810  1.00  0.00    -0.259 N 
ATOM     24  H1  UNL     1     -39.641  -0.287 191.135  1.00  0.00     0.190 HD
BRANCH  23  25
HETATM   25  N2  UNL     1     -41.669  -0.765 191.607  1.00  0.00    -0.224 N 
ATOM     26  H2  UNL     1     -42.648  -0.516 191.469  1.00  0.00     0.200 HD
BRANCH  25  27
HETATM   27  S1  UNL     1     -41.139  -1.839 192.808  1.00  0.00     0.248 S 
HETATM   28  O2  UNL     1     -40.167  -1.203 193.782  1.00  0.00    -0.204 OA
HETATM   29  O3  UNL     1     -40.451  -3.027 192.142  1.00  0.00    -0.204 OA
BRANCH  27  30
HETATM   30  C2  UNL     1     -42.456  -2.526 193.791  1.00  0.00     0.131 A 
HETATM   31  C3  UNL     1     -42.756  -1.873 195.100  1.00  0.00     0.023 A 
HETATM   32  C4  UNL     1     -43.751  -1.880 193.961  1.00  0.00     0.023 A 
ENDBRANCH  27  30
ENDBRANCH  25  27
ENDBRANCH  23  25
ENDBRANCH   1  21
TORSDOF 8
ENDMDL
MODEL 4
REMARK VINA RESULT: -7.804656633      3.119      6.682
REMARK  8 active torsions:
REMARK  status: ('A' for Active; 'I' for Inactive)
REMARK       I    between atoms: C1_2  and  N1_3 
REMARK    1  A    between atoms: C1_2  and  C5_13 
REMARK    2  A    between atoms: N1_3  and  N2_5 
REMARK    3  A    between atoms: N2_5  and  S1_7 
REMARK    4  A    between atoms: S1_7  and  C2_10 
REMARK    5  A    between atoms: N3_18  and  C10_19 
REMARK    6  A    between atoms: C10_19  and  O4_20 
REMARK    7  A    between atoms: C10_19  and  C11_22 
REMARK    8  A    between atoms: C13_24  and  C14_25 
ROOT
HETATM    1  C5  UNL     1     -37.433  -4.590 189.184  1.00  0.00     0.179 C 
HETATM    2  C6  UNL     1     -37.844  -5.974 189.557  1.00  0.00     0.035 C 
HETATM    3  C7  UNL     1     -36.909  -6.744 190.411  1.00  0.00     0.007 C 
HETATM    4  C8  UNL     1     -36.130  -5.949 191.393  1.00  0.00     0.044 C 
HETATM    5  C9  UNL     1     -35.899  -4.510 191.045  1.00  0.00     0.062 C 
HETATM    6  N3  UNL     1     -36.199  -4.130 189.747  1.00  0.00    -0.352 N 
ENDROOT
BRANCH   6   7
HETATM    7  C10 UNL     1     -35.230  -3.581 188.892  1.00  0.00     0.251 C 
BRANCH   7   8
HETATM    8  O4  UNL     1     -34.414  -4.689 188.480  1.00  0.00    -0.374 OA
ATOM      9  H4  UNL     1     -33.552  -4.322 188.323  1.00  0.00     0.212 HD
ENDBRANCH   7   8
BRANCH   7  10
HETATM   10  C11 UNL     1     -34.314  -2.588 189.577  1.00  0.00     0.236 C 
HETATM   11  C12 UNL     1     -33.098  -2.156 188.801  1.00  0.00     0.070 C 
HETATM   12  C13 UNL     1     -33.461  -0.792 189.273  1.00  0.00     0.192 C 
HETATM   13  N4  UNL     1     -34.810  -1.203 189.444  1.00  0.00    -0.062 N 
ATOM     14  H42 UNL     1     -35.522  -0.965 188.754  1.00  0.00     0.278 HD
ATOM     15  H41 UNL     1     -35.397  -0.785 190.165  1.00  0.00     0.278 HD
BRANCH  12  16
HETATM   16  C14 UNL     1     -33.190   0.372 188.362  1.00  0.00     0.016 C 
HETATM   17  C15 UNL     1     -34.286   1.390 188.303  1.00  0.00     0.007 C 
HETATM   18  C16 UNL     1     -33.625   2.751 188.290  1.00  0.00     0.000 C 
HETATM   19  C17 UNL     1     -32.256   2.558 188.898  1.00  0.00     0.000 C 
HETATM   20  C18 UNL     1     -31.984   1.089 188.953  1.00  0.00     0.007 C 
ENDBRANCH  12  16
ENDBRANCH   7  10
ENDBRANCH   6   7
BRANCH   1  21
HETATM   21  C1  UNL     1     -38.504  -3.681 189.716  1.00  0.00     0.259 C 
HETATM   22  O1  UNL     1     -39.238  -4.020 190.679  1.00  0.00    -0.269 OA
HETATM   23  N1  UNL     1     -38.677  -2.409 189.104  1.00  0.00    -0.259 N 
ATOM     24  H1  UNL     1     -38.079  -2.112 188.333  1.00  0.00     0.190 HD
BRANCH  23  25
HETATM   25  N2  UNL     1     -39.710  -1.559 189.598  1.00  0.00    -0.224 N 
ATOM     26  H2  UNL     1     -40.444  -1.876 190.231  1.00  0.00     0.200 HD
BRANCH  25  27
HETATM   27  S1  UNL     1     -39.594   0.033 189.026  1.00  0.00     0.248 S 
HETATM   28  O2  UNL     1     -38.165   0.460 188.751  1.00  0.00    -0.204 OA
HETATM   29  O3  UNL     1     -40.190   0.978 190.066  1.00  0.00    -0.204 OA
BRANCH  27  30
HETATM   30  C2  UNL     1     -40.503   0.326 187.522  1.00  0.00     0.131 A 
HETATM   31  C3  UNL     1     -41.967   0.595 187.639  1.00  0.00     0.023 A 
HETATM   32  C4  UNL     1     -40.999   1.637 187.128  1.00  0.00     0.023 A 
ENDBRANCH  27  30
ENDBRANCH  25  27
ENDBRANCH  23  25
ENDBRANCH   1  21
TORSDOF 8
ENDMDL
MODEL 5
REMARK VINA RESULT: -7.765970153      3.598      5.378
REMARK  8 active torsions:
REMARK  status: ('A' for Active; 'I' for Inactive)
REMARK       I    between atoms: C1_2  and  N1_3 
REMARK    1  A    between atoms: C1_2  and  C5_13 
REMARK    2  A    between atoms: N1_3  and  N2_5 
REMARK    3  A    between atoms: N2_5  and  S1_7 
REMARK    4  A    between atoms: S1_7  and  C2_10 
REMARK    5  A    between atoms: N3_18  and  C10_19 
REMARK    6  A    between atoms: C10_19  and  O4_20 
REMARK    7  A    between atoms: C10_19  and  C11_22 
REMARK    8  A    between atoms: C13_24  and  C14_25 
ROOT
HETATM    1  C5  UNL     1     -35.074   0.007 188.897  1.00  0.00     0.179 C 
HETATM    2  C6  UNL     1     -34.864   1.377 188.348  1.00  0.00     0.035 C 
HETATM    3  C7  UNL     1     -33.712   1.565 187.433  1.00  0.00     0.007 C 
HETATM    4  C8  UNL     1     -33.374   0.400 186.576  1.00  0.00     0.044 C 
HETATM    5  C9  UNL     1     -33.771  -0.946 187.103  1.00  0.00     0.062 C 
HETATM    6  N3  UNL     1     -34.170  -1.001 188.429  1.00  0.00    -0.352 N 
ENDROOT
BRANCH   6   7
HETATM    7  C10 UNL     1     -33.505  -1.802 189.370  1.00  0.00     0.251 C 
BRANCH   7   8
HETATM    8  O4  UNL     1     -32.122  -1.422 189.287  1.00  0.00    -0.374 OA
ATOM      9  H4  UNL     1     -31.751  -1.637 190.134  1.00  0.00     0.212 HD
ENDBRANCH   7   8
BRANCH   7  10
HETATM   10  C11 UNL     1     -33.577  -3.283 189.059  1.00  0.00     0.236 C 
HETATM   11  C12 UNL     1     -33.520  -4.216 190.239  1.00  0.00     0.070 C 
HETATM   12  C13 UNL     1     -34.630  -4.926 189.546  1.00  0.00     0.192 C 
HETATM   13  N4  UNL     1     -34.969  -3.733 188.854  1.00  0.00    -0.062 N 
ATOM     14  H42 UNL     1     -35.756  -3.158 189.155  1.00  0.00     0.278 HD
ATOM     15  H41 UNL     1     -35.377  -3.767 187.920  1.00  0.00     0.278 HD
BRANCH  12  16
HETATM   16  C14 UNL     1     -35.692  -5.578 190.387  1.00  0.00     0.016 C 
HETATM   17  C15 UNL     1     -36.934  -4.762 190.572  1.00  0.00     0.007 C 
HETATM   18  C16 UNL     1     -38.106  -5.711 190.466  1.00  0.00     0.000 C 
HETATM   19  C17 UNL     1     -37.611  -6.903 189.682  1.00  0.00     0.000 C 
HETATM   20  C18 UNL     1     -36.120  -6.823 189.622  1.00  0.00     0.007 C 
ENDBRANCH  12  16
ENDBRANCH   7  10
ENDBRANCH   6   7
BRANCH   1  21
HETATM   21  C1  UNL     1     -36.444  -0.414 188.450  1.00  0.00     0.259 C 
HETATM   22  O1  UNL     1     -36.935  -1.522 188.784  1.00  0.00    -0.269 OA
HETATM   23  N1  UNL     1     -37.191   0.477 187.630  1.00  0.00    -0.259 N 
ATOM     24  H1  UNL     1     -36.813   1.386 187.364  1.00  0.00     0.190 HD
BRANCH  23  25
HETATM   25  N2  UNL     1     -38.482   0.063 187.189  1.00  0.00    -0.224 N 
ATOM     26  H2  UNL     1     -38.632  -0.575 186.408  1.00  0.00     0.200 HD
BRANCH  25  27
HETATM   27  S1  UNL     1     -39.745   0.742 188.095  1.00  0.00     0.248 S 
HETATM   28  O2  UNL     1     -39.269   1.384 189.384  1.00  0.00    -0.204 OA
HETATM   29  O3  UNL     1     -40.751  -0.353 188.441  1.00  0.00    -0.204 OA
BRANCH  27  30
HETATM   30  C2  UNL     1     -40.666   1.992 187.222  1.00  0.00     0.131 A 
HETATM   31  C3  UNL     1     -40.091   2.513 185.947  1.00  0.00     0.023 A 
HETATM   32  C4  UNL     1     -41.388   1.738 185.983  1.00  0.00     0.023 A 
ENDBRANCH  27  30
ENDBRANCH  25  27
ENDBRANCH  23  25
ENDBRANCH   1  21
TORSDOF 8
ENDMDL
