MODEL 1
REMARK VINA RESULT: -6.849437411      0.000      0.000
REMARK  6 active torsions:
REMARK  status: ('A' for Active; 'I' for Inactive)
REMARK    1  A    between atoms: C2_2  and  N1_3 
REMARK       I    between atoms: N1_3  and  C3_5 
REMARK    2  A    between atoms: C3_5  and  C4_7 
REMARK    3  A    between atoms: C5_11  and  S1_12 
REMARK    4  A    between atoms: S1_12  and  C6_13 
REMARK    5  A    between atoms: C6_13  and  C7_14 
REMARK    6  A    between atoms: C9_18  and  C10_19 
REMARK       I    between atoms: C10_19  and  N4_21 
ROOT
HETATM    1  C4  UNL     1     -37.782  -0.940 188.207  1.00  0.00     0.300 C 
HETATM    2  N2  UNL     1     -38.238  -2.225 188.689  1.00  0.00    -0.043 N 
ATOM      3  H21 UNL     1     -39.047  -2.547 188.159  1.00  0.00     0.280 HD
ATOM      4  H22 UNL     1     -38.668  -2.137 189.610  1.00  0.00     0.280 HD
HETATM    5  C5  UNL     1     -37.208  -3.209 188.699  1.00  0.00     0.287 C 
HETATM    6  C16 UNL     1     -36.094  -2.721 189.608  1.00  0.00     0.099 C 
HETATM    7  N5  UNL     1     -35.616  -1.429 189.318  1.00  0.00    -0.393 N 
ATOM      8  H5  UNL     1     -34.650  -1.179 189.532  1.00  0.00     0.159 HD
HETATM    9  C17 UNL     1     -36.479  -0.481 188.732  1.00  0.00     0.116 C 
HETATM   10  C18 UNL     1     -35.711   0.158 187.563  1.00  0.00     0.034 C 
ENDROOT
BRANCH   5  11
HETATM   11  S1  UNL     1     -37.739  -4.815 189.218  1.00  0.00    -0.111 SA
BRANCH  11  12
HETATM   12  C6  UNL     1     -37.636  -5.162 190.960  1.00  0.00     0.102 A 
HETATM   13  C8  UNL     1     -37.827  -6.659 191.279  1.00  0.00     0.047 A 
HETATM   14  C9  UNL     1     -36.507  -5.952 191.526  1.00  0.00     0.107 A 
BRANCH  12  15
HETATM   15  C7  UNL     1     -38.422  -4.327 191.892  1.00  0.00     0.251 C 
HETATM   16  N3  UNL     1     -38.143  -4.319 193.265  1.00  0.00    -0.061 NA
HETATM   17  O2  UNL     1     -39.348  -3.618 191.427  1.00  0.00    -0.275 OA
ENDBRANCH  12  15
BRANCH  14  18
HETATM   18  C10 UNL     1     -35.415  -6.462 190.704  1.00  0.00     0.226 C 
HETATM   19  O3  UNL     1     -35.580  -7.434 189.922  1.00  0.00    -0.273 OA
HETATM   20  N4  UNL     1     -34.130  -5.867 190.767  1.00  0.00    -0.351 N 
HETATM   21  C11 UNL     1     -32.934  -6.257 190.003  1.00  0.00     0.130 C 
HETATM   22  C15 UNL     1     -33.663  -4.750 191.579  1.00  0.00     0.130 C 
HETATM   23  C12 UNL     1     -31.880  -6.271 191.102  1.00  0.00     0.010 A 
HETATM   24  C13 UNL     1     -31.145  -4.974 191.377  1.00  0.00     0.013 A 
HETATM   25  C14 UNL     1     -32.361  -5.302 192.135  1.00  0.00     0.010 A 
ENDBRANCH  14  18
ENDBRANCH  11  12
ENDBRANCH   5  11
BRANCH   1  26
HETATM   26  C3  UNL     1     -38.833   0.062 188.580  1.00  0.00     0.250 C 
HETATM   27  N1  UNL     1     -39.073   1.197 187.760  1.00  0.00    -0.360 N 
ATOM     28  H1  UNL     1     -38.525   1.330 186.911  1.00  0.00     0.162 HD
HETATM   29  O1  UNL     1     -39.532  -0.070 189.628  1.00  0.00    -0.271 OA
BRANCH  27  30
HETATM   30  C2  UNL     1     -40.081   2.161 188.114  1.00  0.00     0.118 C 
HETATM   31  C1  UNL     1     -40.273   3.150 186.992  1.00  0.00     0.026 C 
ENDBRANCH  27  30
ENDBRANCH   1  26
TORSDOF 6
ENDMDL
MODEL 2
REMARK VINA RESULT: -6.595502061      2.458      3.318
REMARK  6 active torsions:
REMARK  status: ('A' for Active; 'I' for Inactive)
REMARK    1  A    between atoms: C2_2  and  N1_3 
REMARK       I    between atoms: N1_3  and  C3_5 
REMARK    2  A    between atoms: C3_5  and  C4_7 
REMARK    3  A    between atoms: C5_11  and  S1_12 
REMARK    4  A    between atoms: S1_12  and  C6_13 
REMARK    5  A    between atoms: C6_13  and  C7_14 
REMARK    6  A    between atoms: C9_18  and  C10_19 
REMARK       I    between atoms: C10_19  and  N4_21 
ROOT
HETATM    1  C4  UNL     1     -39.635  -0.212 188.720  1.00  0.00     0.300 C 
HETATM    2  N2  UNL     1     -39.014  -1.467 188.359  1.00  0.00    -0.043 N 
ATOM      3  H21 UNL     1     -38.185  -1.313 187.786  1.00  0.00     0.280 HD
ATOM      4  H22 UNL     1     -39.587  -1.978 187.688  1.00  0.00     0.280 HD
HETATM    5  C5  UNL     1     -38.709  -2.278 189.490  1.00  0.00     0.287 C 
HETATM    6  C16 UNL     1     -40.005  -2.574 190.226  1.00  0.00     0.099 C 
HETATM    7  N5  UNL     1     -40.772  -1.441 190.554  1.00  0.00    -0.393 N 
ATOM      8  H5  UNL     1     -41.380  -1.452 191.374  1.00  0.00     0.159 HD
HETATM    9  C17 UNL     1     -40.699  -0.290 189.744  1.00  0.00     0.116 C 
HETATM   10  C18 UNL     1     -40.518   0.909 190.688  1.00  0.00     0.034 C 
ENDROOT
BRANCH   5  11
HETATM   11  S1  UNL     1     -37.887  -3.796 189.100  1.00  0.00    -0.111 SA
BRANCH  11  12
HETATM   12  C6  UNL     1     -36.903  -4.523 190.391  1.00  0.00     0.102 A 
HETATM   13  C8  UNL     1     -35.844  -5.504 189.848  1.00  0.00     0.047 A 
HETATM   14  C9  UNL     1     -35.454  -4.206 190.531  1.00  0.00     0.107 A 
BRANCH  12  15
HETATM   15  C7  UNL     1     -37.593  -5.098 191.563  1.00  0.00     0.251 C 
HETATM   16  N3  UNL     1     -37.432  -4.545 192.840  1.00  0.00    -0.061 NA
HETATM   17  O2  UNL     1     -38.335  -6.097 191.392  1.00  0.00    -0.275 OA
ENDBRANCH  12  15
BRANCH  14  18
HETATM   18  C10 UNL     1     -34.765  -3.272 189.646  1.00  0.00     0.226 C 
HETATM   19  O3  UNL     1     -35.128  -2.071 189.550  1.00  0.00    -0.273 OA
HETATM   20  N4  UNL     1     -33.660  -3.700 188.870  1.00  0.00    -0.351 N 
HETATM   21  C11 UNL     1     -32.860  -2.885 187.941  1.00  0.00     0.130 C 
HETATM   22  C15 UNL     1     -33.042  -5.017 188.782  1.00  0.00     0.130 C 
HETATM   23  C12 UNL     1     -32.787  -3.809 186.733  1.00  0.00     0.010 A 
HETATM   24  C13 UNL     1     -31.637  -4.795 186.682  1.00  0.00     0.013 A 
HETATM   25  C14 UNL     1     -32.920  -5.196 187.278  1.00  0.00     0.010 A 
ENDBRANCH  14  18
ENDBRANCH  11  12
ENDBRANCH   5  11
BRANCH   1  26
HETATM   26  C3  UNL     1     -40.215   0.363 187.463  1.00  0.00     0.250 C 
HETATM   27  N1  UNL     1     -40.008   1.728 187.130  1.00  0.00    -0.360 N 
ATOM     28  H1  UNL     1     -39.460   2.321 187.753  1.00  0.00     0.162 HD
HETATM   29  O1  UNL     1     -40.902  -0.344 186.667  1.00  0.00    -0.271 OA
BRANCH  27  30
HETATM   30  C2  UNL     1     -40.562   2.285 185.924  1.00  0.00     0.118 C 
HETATM   31  C1  UNL     1     -40.262   3.760 185.845  1.00  0.00     0.026 C 
ENDBRANCH  27  30
ENDBRANCH   1  26
TORSDOF 6
ENDMDL
MODEL 3
REMARK VINA RESULT: -6.559627759      2.253      3.048
REMARK  6 active torsions:
REMARK  status: ('A' for Active; 'I' for Inactive)
REMARK    1  A    between atoms: C2_2  and  N1_3 
REMARK       I    between atoms: N1_3  and  C3_5 
REMARK    2  A    between atoms: C3_5  and  C4_7 
REMARK    3  A    between atoms: C5_11  and  S1_12 
REMARK    4  A    between atoms: S1_12  and  C6_13 
REMARK    5  A    between atoms: C6_13  and  C7_14 
REMARK    6  A    between atoms: C9_18  and  C10_19 
REMARK       I    between atoms: C10_19  and  N4_21 
ROOT
HETATM    1  C4  UNL     1     -39.805  -0.234 189.083  1.00  0.00     0.300 C 
HETATM    2  N2  UNL     1     -39.391  -1.608 188.908  1.00  0.00    -0.043 N 
ATOM      3  H21 UNL     1     -38.546  -1.666 188.341  1.00  0.00     0.280 HD
ATOM      4  H22 UNL     1     -40.036  -2.108 188.297  1.00  0.00     0.280 HD
HETATM    5  C5  UNL     1     -39.224  -2.296 190.145  1.00  0.00     0.287 C 
HETATM    6  C16 UNL     1     -40.554  -2.281 190.880  1.00  0.00     0.099 C 
HETATM    7  N5  UNL     1     -41.132  -1.007 191.034  1.00  0.00    -0.393 N 
ATOM      8  H5  UNL     1     -41.736  -0.812 191.832  1.00  0.00     0.159 HD
HETATM    9  C17 UNL     1     -40.872  -0.003 190.080  1.00  0.00     0.116 C 
HETATM   10  C18 UNL     1     -40.506   1.269 190.860  1.00  0.00     0.034 C 
ENDROOT
BRANCH   5  11
HETATM   11  S1  UNL     1     -38.654  -3.963 189.981  1.00  0.00    -0.111 SA
BRANCH  11  12
HETATM   12  C6  UNL     1     -37.502  -4.534 191.210  1.00  0.00     0.102 A 
HETATM   13  C8  UNL     1     -36.813  -5.854 190.810  1.00  0.00     0.047 A 
HETATM   14  C9  UNL     1     -36.036  -4.558 190.945  1.00  0.00     0.107 A 
BRANCH  12  15
HETATM   15  C7  UNL     1     -37.942  -4.584 192.619  1.00  0.00     0.251 C 
HETATM   16  N3  UNL     1     -37.135  -5.159 193.609  1.00  0.00    -0.061 NA
HETATM   17  O2  UNL     1     -39.060  -4.094 192.916  1.00  0.00    -0.275 OA
ENDBRANCH  12  15
BRANCH  14  18
HETATM   18  C10 UNL     1     -35.457  -4.097 189.687  1.00  0.00     0.226 C 
HETATM   19  O3  UNL     1     -35.965  -3.142 189.043  1.00  0.00    -0.273 OA
HETATM   20  N4  UNL     1     -34.299  -4.719 189.158  1.00  0.00    -0.351 N 
HETATM   21  C11 UNL     1     -33.596  -4.369 187.913  1.00  0.00     0.130 C 
HETATM   22  C15 UNL     1     -33.522  -5.834 189.683  1.00  0.00     0.130 C 
HETATM   23  C12 UNL     1     -33.396  -5.747 187.296  1.00  0.00     0.010 A 
HETATM   24  C13 UNL     1     -32.132  -6.498 187.669  1.00  0.00     0.013 A 
HETATM   25  C14 UNL     1     -33.362  -6.703 188.447  1.00  0.00     0.010 A 
ENDBRANCH  14  18
ENDBRANCH  11  12
ENDBRANCH   5  11
BRANCH   1  26
HETATM   26  C3  UNL     1     -40.280   0.250 187.746  1.00  0.00     0.250 C 
HETATM   27  N1  UNL     1     -39.878   1.520 187.251  1.00  0.00    -0.360 N 
ATOM     28  H1  UNL     1     -39.261   2.106 187.812  1.00  0.00     0.162 HD
HETATM   29  O1  UNL     1     -41.049  -0.451 187.023  1.00  0.00    -0.271 OA
BRANCH  27  30
HETATM   30  C2  UNL     1     -40.331   1.988 185.968  1.00  0.00     0.118 C 
HETATM   31  C1  UNL     1     -40.296   3.494 185.921  1.00  0.00     0.026 C 
ENDBRANCH  27  30
ENDBRANCH   1  26
TORSDOF 6
ENDMDL
MODEL 4
REMARK VINA RESULT: -6.444324040     10.184     12.936
REMARK  6 active torsions:
REMARK  status: ('A' for Active; 'I' for Inactive)
REMARK    1  A    between atoms: C2_2  and  N1_3 
REMARK       I    between atoms: N1_3  and  C3_5 
REMARK    2  A    between atoms: C3_5  and  C4_7 
REMARK    3  A    between atoms: C5_11  and  S1_12 
REMARK    4  A    between atoms: S1_12  and  C6_13 
REMARK    5  A    between atoms: C6_13  and  C7_14 
REMARK    6  A    between atoms: C9_18  and  C10_19 
REMARK       I    between atoms: C10_19  and  N4_21 
ROOT
HETATM    1  C4  UNL     1     -30.414   7.658 182.654  1.00  0.00     0.300 C 
HETATM    2  N2  UNL     1     -30.704   6.248 182.791  1.00  0.00    -0.043 N 
ATOM      3  H21 UNL     1     -31.380   6.085 183.537  1.00  0.00     0.280 HD
ATOM      4  H22 UNL     1     -29.905   5.747 183.180  1.00  0.00     0.280 HD
HETATM    5  C5  UNL     1     -31.135   5.651 181.571  1.00  0.00     0.287 C 
HETATM    6  C16 UNL     1     -30.029   5.819 180.544  1.00  0.00     0.099 C 
HETATM    7  N5  UNL     1     -29.569   7.139 180.377  1.00  0.00    -0.393 N 
ATOM      8  H5  UNL     1     -29.189   7.441 179.480  1.00  0.00     0.159 HD
HETATM    9  C17 UNL     1     -29.637   8.043 181.457  1.00  0.00     0.116 C 
HETATM   10  C18 UNL     1     -30.245   9.344 180.912  1.00  0.00     0.034 C 
ENDROOT
BRANCH   5  11
HETATM   11  S1  UNL     1     -31.565   3.940 181.707  1.00  0.00    -0.111 SA
BRANCH  11  12
HETATM   12  C6  UNL     1     -33.267   3.575 182.074  1.00  0.00     0.102 A 
HETATM   13  C8  UNL     1     -33.484   2.101 182.473  1.00  0.00     0.047 A 
HETATM   14  C9  UNL     1     -33.705   3.235 183.457  1.00  0.00     0.107 A 
BRANCH  12  15
HETATM   15  C7  UNL     1     -34.303   4.013 181.117  1.00  0.00     0.251 C 
HETATM   16  N3  UNL     1     -34.119   3.870 179.735  1.00  0.00    -0.061 NA
HETATM   17  O2  UNL     1     -35.362   4.516 181.568  1.00  0.00    -0.275 OA
ENDBRANCH  12  15
BRANCH  14  18
HETATM   18  C10 UNL     1     -32.784   3.207 184.588  1.00  0.00     0.226 C 
HETATM   19  O3  UNL     1     -32.149   2.164 184.892  1.00  0.00    -0.273 OA
HETATM   20  N4  UNL     1     -32.580   4.366 185.377  1.00  0.00    -0.351 N 
HETATM   21  C11 UNL     1     -31.687   4.502 186.539  1.00  0.00     0.130 C 
HETATM   22  C15 UNL     1     -33.181   5.688 185.257  1.00  0.00     0.130 C 
HETATM   23  C12 UNL     1     -32.603   5.210 187.528  1.00  0.00     0.010 A 
HETATM   24  C13 UNL     1     -32.615   6.725 187.501  1.00  0.00     0.013 A 
HETATM   25  C14 UNL     1     -33.585   5.971 186.694  1.00  0.00     0.010 A 
ENDBRANCH  14  18
ENDBRANCH  11  12
ENDBRANCH   5  11
BRANCH   1  26
HETATM   26  C3  UNL     1     -29.649   8.065 183.878  1.00  0.00     0.250 C 
HETATM   27  N1  UNL     1     -28.893   7.111 184.609  1.00  0.00    -0.360 N 
ATOM     28  H1  UNL     1     -28.872   6.140 184.298  1.00  0.00     0.162 HD
HETATM   29  O1  UNL     1     -29.654   9.262 184.294  1.00  0.00    -0.271 OA
BRANCH  27  30
HETATM   30  C2  UNL     1     -28.157   7.498 185.784  1.00  0.00     0.118 C 
HETATM   31  C1  UNL     1     -28.833   6.965 187.022  1.00  0.00     0.026 C 
ENDBRANCH  27  30
ENDBRANCH   1  26
TORSDOF 6
ENDMDL
MODEL 5
REMARK VINA RESULT: -6.431551903      2.281      3.249
REMARK  6 active torsions:
REMARK  status: ('A' for Active; 'I' for Inactive)
REMARK    1  A    between atoms: C2_2  and  N1_3 
REMARK       I    between atoms: N1_3  and  C3_5 
REMARK    2  A    between atoms: C3_5  and  C4_7 
REMARK    3  A    between atoms: C5_11  and  S1_12 
REMARK    4  A    between atoms: S1_12  and  C6_13 
REMARK    5  A    between atoms: C6_13  and  C7_14 
REMARK    6  A    between atoms: C9_18  and  C10_19 
REMARK       I    between atoms: C10_19  and  N4_21 
ROOT
HETATM    1  C4  UNL     1     -39.385  -0.327 188.597  1.00  0.00     0.300 C 
HETATM    2  N2  UNL     1     -38.717  -1.560 188.245  1.00  0.00    -0.043 N 
ATOM      3  H21 UNL     1     -37.846  -1.375 187.749  1.00  0.00     0.280 HD
ATOM      4  H22 UNL     1     -39.224  -2.054 187.511  1.00  0.00     0.280 HD
HETATM    5  C5  UNL     1     -38.493  -2.407 189.369  1.00  0.00     0.287 C 
HETATM    6  C16 UNL     1     -39.840  -2.746 189.983  1.00  0.00     0.099 C 
HETATM    7  N5  UNL     1     -40.651  -1.636 190.285  1.00  0.00    -0.393 N 
ATOM      8  H5  UNL     1     -41.323  -1.685 191.051  1.00  0.00     0.159 HD
HETATM    9  C17 UNL     1     -40.528  -0.455 189.525  1.00  0.00     0.116 C 
HETATM   10  C18 UNL     1     -40.446   0.711 190.522  1.00  0.00     0.034 C 
ENDROOT
BRANCH   5  11
HETATM   11  S1  UNL     1     -37.617  -3.899 188.996  1.00  0.00    -0.111 SA
BRANCH  11  12
HETATM   12  C6  UNL     1     -36.698  -4.636 190.328  1.00  0.00     0.102 A 
HETATM   13  C8  UNL     1     -36.086  -5.999 189.943  1.00  0.00     0.047 A 
HETATM   14  C9  UNL     1     -35.218  -4.794 190.252  1.00  0.00     0.107 A 
BRANCH  12  15
HETATM   15  C7  UNL     1     -37.325  -4.705 191.663  1.00  0.00     0.251 C 
HETATM   16  N3  UNL     1     -36.547  -4.840 192.821  1.00  0.00    -0.061 NA
HETATM   17  O2  UNL     1     -38.576  -4.637 191.743  1.00  0.00    -0.275 OA
ENDBRANCH  12  15
BRANCH  14  18
HETATM   18  C10 UNL     1     -34.436  -4.336 189.108  1.00  0.00     0.226 C 
HETATM   19  O3  UNL     1     -34.016  -5.140 188.236  1.00  0.00    -0.273 OA
HETATM   20  N4  UNL     1     -34.132  -2.961 188.950  1.00  0.00    -0.351 N 
HETATM   21  C11 UNL     1     -33.365  -2.342 187.857  1.00  0.00     0.130 C 
HETATM   22  C15 UNL     1     -34.481  -1.830 189.800  1.00  0.00     0.130 C 
HETATM   23  C12 UNL     1     -32.428  -1.431 188.638  1.00  0.00     0.010 A 
HETATM   24  C13 UNL     1     -32.916  -0.028 188.941  1.00  0.00     0.013 A 
HETATM   25  C14 UNL     1     -33.147  -1.109 189.910  1.00  0.00     0.010 A 
ENDBRANCH  14  18
ENDBRANCH  11  12
ENDBRANCH   5  11
BRANCH   1  26
HETATM   26  C3  UNL     1     -39.868   0.286 187.317  1.00  0.00     0.250 C 
HETATM   27  N1  UNL     1     -39.728   1.680 187.084  1.00  0.00    -0.360 N 
ATOM     28  H1  UNL     1     -39.295   2.268 187.795  1.00  0.00     0.162 HD
HETATM   29  O1  UNL     1     -40.412  -0.415 186.411  1.00  0.00    -0.271 OA
BRANCH  27  30
HETATM   30  C2  UNL     1     -40.189   2.272 185.857  1.00  0.00     0.118 C 
HETATM   31  C1  UNL     1     -40.256   3.772 185.994  1.00  0.00     0.026 C 
ENDBRANCH  27  30
ENDBRANCH   1  26
TORSDOF 6
ENDMDL
