MODEL 1
REMARK VINA RESULT: -8.871374470      0.000      0.000
REMARK  7 active torsions:
REMARK  status: ('A' for Active; 'I' for Inactive)
REMARK    1  A    between atoms: C2_2  and  C4_4 
REMARK    2  A    between atoms: C4_4  and  C5_5 
REMARK    3  A    between atoms: C4_4  and  O3_25 
REMARK    4  A    between atoms: C5_5  and  C6_6 
REMARK    5  A    between atoms: C6_6  and  C8_14 
REMARK       I    between atoms: N1_7  and  C7_9 
REMARK       I    between atoms: C8_14  and  N4_16 
REMARK    6  A    between atoms: N4_16  and  C9_18 
REMARK    7  A    between atoms: O3_25  and  C15_26 
REMARK       I    between atoms: C15_26  and  N5_28 
ROOT
HETATM    1  C6  UNL     1     -38.627  -2.360 189.264  1.00  0.00     0.082 C 
HETATM    2  N1  UNL     1     -39.401  -2.497 190.207  1.00  0.00    -0.330 N 
ATOM      3  H1  UNL     1     -39.152  -3.396 190.621  1.00  0.00     0.168 HD
HETATM    4  C7  UNL     1     -40.416  -2.042 190.959  1.00  0.00     0.186 C 
HETATM    5  N2  UNL     1     -40.899  -0.831 191.013  1.00  0.00    -0.374 N 
ATOM      6  H21 UNL     1     -41.670  -0.485 191.584  1.00  0.00     0.158 HD
ATOM      7  H22 UNL     1     -40.421  -0.171 190.400  1.00  0.00     0.158 HD
HETATM    8  N3  UNL     1     -41.095  -2.980 191.829  1.00  0.00    -0.064 NA
ENDROOT
BRANCH   1   9
HETATM    9  C5  UNL     1     -37.606  -3.456 189.003  1.00  0.00     0.096 C 
BRANCH   9  10
HETATM   10  C4  UNL     1     -36.478  -3.384 189.977  1.00  0.00     0.142 C 
BRANCH  10  11
HETATM   11  C2  UNL     1     -35.107  -3.285 189.268  1.00  0.00     0.007 C 
HETATM   12  C1  UNL     1     -34.178  -4.294 189.872  1.00  0.00     0.012 C 
HETATM   13  C3  UNL     1     -34.555  -1.899 189.480  1.00  0.00     0.012 C 
ENDBRANCH  10  11
BRANCH  10  14
HETATM   14  O3  UNL     1     -36.378  -4.644 190.661  1.00  0.00    -0.298 OA
BRANCH  14  15
HETATM   15  C15 UNL     1     -37.106  -5.020 191.746  1.00  0.00     0.363 C 
HETATM   16  O4  UNL     1     -38.343  -4.826 191.713  1.00  0.00    -0.238 OA
HETATM   17  N5  UNL     1     -36.532  -5.618 192.905  1.00  0.00    -0.325 N 
HETATM   18  C16 UNL     1     -37.375  -5.956 194.010  1.00  0.00     0.147 C 
HETATM   19  C19 UNL     1     -35.115  -5.903 192.998  1.00  0.00     0.147 C 
HETATM   20  C17 UNL     1     -37.082  -7.361 194.447  1.00  0.00     0.133 C 
HETATM   21  N6  UNL     1     -35.707  -7.688 194.600  1.00  0.00    -0.418 N 
HETATM   22  C18 UNL     1     -34.810  -7.244 193.595  1.00  0.00     0.133 C 
ATOM     23  H6  UNL     1     -35.377  -8.223 195.404  1.00  0.00     0.153 HD
ENDBRANCH  14  15
ENDBRANCH  10  14
ENDBRANCH   9  10
ENDBRANCH   1   9
BRANCH   1  24
HETATM   24  C8  UNL     1     -38.704  -1.241 188.333  1.00  0.00     0.264 C 
HETATM   25  O1  UNL     1     -37.629  -0.594 188.085  1.00  0.00    -0.266 OA
HETATM   26  N4  UNL     1     -39.880  -0.812 187.673  1.00  0.00    -0.348 N 
ATOM     27  H4  UNL     1     -40.761  -1.303 187.831  1.00  0.00     0.163 HD
BRANCH  26  28
HETATM   28  C9  UNL     1     -39.836   0.300 186.791  1.00  0.00     0.119 C 
HETATM   29  C10 UNL     1     -41.283   0.678 186.338  1.00  0.00     0.035 C 
HETATM   30  C11 UNL     1     -41.894   0.997 187.654  1.00  0.00     0.011 C 
HETATM   31  C14 UNL     1     -40.922   1.989 185.661  1.00  0.00     0.175 C 
HETATM   32  C12 UNL     1     -40.773   1.790 188.320  1.00  0.00     0.034 C 
HETATM   33  C13 UNL     1     -39.563   1.639 187.413  1.00  0.00     0.144 C 
HETATM   34  O2  UNL     1     -39.805   2.488 186.325  1.00  0.00    -0.383 OA
ENDBRANCH  26  28
ENDBRANCH   1  24
TORSDOF 7
ENDMDL
MODEL 2
REMARK VINA RESULT: -8.674952983      1.662      2.334
REMARK  7 active torsions:
REMARK  status: ('A' for Active; 'I' for Inactive)
REMARK    1  A    between atoms: C2_2  and  C4_4 
REMARK    2  A    between atoms: C4_4  and  C5_5 
REMARK    3  A    between atoms: C4_4  and  O3_25 
REMARK    4  A    between atoms: C5_5  and  C6_6 
REMARK    5  A    between atoms: C6_6  and  C8_14 
REMARK       I    between atoms: N1_7  and  C7_9 
REMARK       I    between atoms: C8_14  and  N4_16 
REMARK    6  A    between atoms: N4_16  and  C9_18 
REMARK    7  A    between atoms: O3_25  and  C15_26 
REMARK       I    between atoms: C15_26  and  N5_28 
ROOT
HETATM    1  C6  UNL     1     -40.219  -2.500 191.161  1.00  0.00     0.082 C 
HETATM    2  N1  UNL     1     -40.503  -2.791 192.320  1.00  0.00    -0.330 N 
ATOM      3  H1  UNL     1     -40.199  -3.759 192.428  1.00  0.00     0.168 HD
HETATM    4  C7  UNL     1     -41.018  -2.457 193.513  1.00  0.00     0.186 C 
HETATM    5  N2  UNL     1     -41.285  -1.265 193.970  1.00  0.00    -0.374 N 
ATOM      6  H21 UNL     1     -41.676  -1.011 194.878  1.00  0.00     0.158 HD
ATOM      7  H22 UNL     1     -41.059  -0.514 193.318  1.00  0.00     0.158 HD
HETATM    8  N3  UNL     1     -41.339  -3.523 194.440  1.00  0.00    -0.064 NA
ENDROOT
BRANCH   1   9
HETATM    9  C5  UNL     1     -39.553  -3.557 190.293  1.00  0.00     0.096 C 
BRANCH   9  10
HETATM   10  C4  UNL     1     -38.139  -3.784 190.713  1.00  0.00     0.142 C 
BRANCH  10  11
HETATM   11  C2  UNL     1     -37.204  -4.006 189.500  1.00  0.00     0.007 C 
HETATM   12  C1  UNL     1     -35.850  -3.453 189.829  1.00  0.00     0.012 C 
HETATM   13  C3  UNL     1     -37.775  -3.275 188.313  1.00  0.00     0.012 C 
ENDBRANCH  10  11
BRANCH  10  14
HETATM   14  O3  UNL     1     -38.058  -5.045 191.397  1.00  0.00    -0.298 OA
BRANCH  14  15
HETATM   15  C15 UNL     1     -37.632  -5.231 192.675  1.00  0.00     0.363 C 
HETATM   16  O4  UNL     1     -38.393  -4.868 193.601  1.00  0.00    -0.238 OA
HETATM   17  N5  UNL     1     -36.374  -5.813 193.004  1.00  0.00    -0.325 N 
HETATM   18  C16 UNL     1     -36.001  -5.944 194.379  1.00  0.00     0.147 C 
HETATM   19  C19 UNL     1     -35.459  -6.287 191.987  1.00  0.00     0.147 C 
HETATM   20  C17 UNL     1     -35.508  -7.339 194.629  1.00  0.00     0.133 C 
HETATM   21  N6  UNL     1     -34.571  -7.843 193.687  1.00  0.00    -0.418 N 
HETATM   22  C18 UNL     1     -34.829  -7.608 192.313  1.00  0.00     0.133 C 
ATOM     23  H6  UNL     1     -33.743  -8.356 193.989  1.00  0.00     0.153 HD
ENDBRANCH  14  15
ENDBRANCH  10  14
ENDBRANCH   9  10
ENDBRANCH   1   9
BRANCH   1  24
HETATM   24  C8  UNL     1     -40.576  -1.223 190.556  1.00  0.00     0.264 C 
HETATM   25  O1  UNL     1     -40.840  -0.245 191.336  1.00  0.00    -0.266 OA
HETATM   26  N4  UNL     1     -40.649  -0.975 189.164  1.00  0.00    -0.348 N 
ATOM     27  H4  UNL     1     -40.437  -1.721 188.502  1.00  0.00     0.163 HD
BRANCH  26  28
HETATM   28  C9  UNL     1     -41.017   0.312 188.690  1.00  0.00     0.119 C 
HETATM   29  C10 UNL     1     -39.737   1.153 188.382  1.00  0.00     0.035 C 
HETATM   30  C11 UNL     1     -39.108   0.301 187.340  1.00  0.00     0.011 C 
HETATM   31  C14 UNL     1     -40.440   2.302 187.683  1.00  0.00     0.175 C 
HETATM   32  C12 UNL     1     -40.322  -0.089 186.500  1.00  0.00     0.034 C 
HETATM   33  C13 UNL     1     -41.535   0.385 187.282  1.00  0.00     0.144 C 
HETATM   34  O2  UNL     1     -41.582   1.772 187.092  1.00  0.00    -0.383 OA
ENDBRANCH  26  28
ENDBRANCH   1  24
TORSDOF 7
ENDMDL
MODEL 3
REMARK VINA RESULT: -8.209677913      4.504      7.783
REMARK  7 active torsions:
REMARK  status: ('A' for Active; 'I' for Inactive)
REMARK    1  A    between atoms: C2_2  and  C4_4 
REMARK    2  A    between atoms: C4_4  and  C5_5 
REMARK    3  A    between atoms: C4_4  and  O3_25 
REMARK    4  A    between atoms: C5_5  and  C6_6 
REMARK    5  A    between atoms: C6_6  and  C8_14 
REMARK       I    between atoms: N1_7  and  C7_9 
REMARK       I    between atoms: C8_14  and  N4_16 
REMARK    6  A    between atoms: N4_16  and  C9_18 
REMARK    7  A    between atoms: O3_25  and  C15_26 
REMARK       I    between atoms: C15_26  and  N5_28 
ROOT
HETATM    1  C6  UNL     1     -36.295  -0.390 188.584  1.00  0.00     0.082 C 
HETATM    2  N1  UNL     1     -35.584  -1.330 188.927  1.00  0.00    -0.330 N 
ATOM      3  H1  UNL     1     -34.632  -0.966 188.888  1.00  0.00     0.168 HD
HETATM    4  C7  UNL     1     -35.448  -2.604 189.330  1.00  0.00     0.186 C 
HETATM    5  N2  UNL     1     -36.368  -3.405 189.793  1.00  0.00    -0.374 N 
ATOM      6  H21 UNL     1     -36.264  -4.372 190.099  1.00  0.00     0.158 HD
ATOM      7  H22 UNL     1     -37.293  -2.980 189.848  1.00  0.00     0.158 HD
HETATM    8  N3  UNL     1     -34.134  -3.207 189.251  1.00  0.00    -0.064 NA
ENDROOT
BRANCH   1   9
HETATM    9  C5  UNL     1     -35.627   0.930 188.233  1.00  0.00     0.096 C 
BRANCH   9  10
HETATM   10  C4  UNL     1     -34.192   0.728 187.876  1.00  0.00     0.142 C 
BRANCH  10  11
HETATM   11  C2  UNL     1     -33.248   1.552 188.783  1.00  0.00     0.007 C 
HETATM   12  C1  UNL     1     -33.285   2.984 188.342  1.00  0.00     0.012 C 
HETATM   13  C3  UNL     1     -31.849   1.013 188.637  1.00  0.00     0.012 C 
ENDBRANCH  10  11
BRANCH  10  14
HETATM   14  O3  UNL     1     -33.954   1.306 186.581  1.00  0.00    -0.298 OA
BRANCH  14  15
HETATM   15  C15 UNL     1     -33.530   0.636 185.477  1.00  0.00     0.363 C 
HETATM   16  O4  UNL     1     -33.422  -0.609 185.557  1.00  0.00    -0.238 OA
HETATM   17  N5  UNL     1     -33.206   1.279 184.248  1.00  0.00    -0.325 N 
HETATM   18  C16 UNL     1     -32.742   0.493 183.146  1.00  0.00     0.147 C 
HETATM   19  C19 UNL     1     -33.340   2.711 184.073  1.00  0.00     0.147 C 
HETATM   20  C17 UNL     1     -33.504   0.870 181.911  1.00  0.00     0.133 C 
HETATM   21  N6  UNL     1     -33.631   2.264 181.662  1.00  0.00    -0.418 N 
HETATM   22  C18 UNL     1     -33.949   3.102 182.760  1.00  0.00     0.133 C 
ATOM     23  H6  UNL     1     -33.498   2.647 180.725  1.00  0.00     0.153 HD
ENDBRANCH  14  15
ENDBRANCH  10  14
ENDBRANCH   9  10
ENDBRANCH   1   9
BRANCH   1  24
HETATM   24  C8  UNL     1     -37.737  -0.512 188.407  1.00  0.00     0.264 C 
HETATM   25  O1  UNL     1     -38.358  -1.365 189.130  1.00  0.00    -0.266 OA
HETATM   26  N4  UNL     1     -38.512   0.247 187.498  1.00  0.00    -0.348 N 
ATOM     27  H4  UNL     1     -38.063   0.947 186.907  1.00  0.00     0.163 HD
BRANCH  26  28
HETATM   28  C9  UNL     1     -39.913   0.034 187.407  1.00  0.00     0.119 C 
HETATM   29  C10 UNL     1     -40.651   0.878 188.495  1.00  0.00     0.035 C 
HETATM   30  C11 UNL     1     -40.238   2.246 188.090  1.00  0.00     0.011 C 
HETATM   31  C14 UNL     1     -42.060   0.644 187.979  1.00  0.00     0.175 C 
HETATM   32  C12 UNL     1     -40.372   2.162 186.572  1.00  0.00     0.034 C 
HETATM   33  C13 UNL     1     -40.619   0.696 186.259  1.00  0.00     0.144 C 
HETATM   34  O2  UNL     1     -41.956   0.462 186.603  1.00  0.00    -0.383 OA
ENDBRANCH  26  28
ENDBRANCH   1  24
TORSDOF 7
ENDMDL
MODEL 4
REMARK VINA RESULT: -8.106353793      2.348      4.247
REMARK  7 active torsions:
REMARK  status: ('A' for Active; 'I' for Inactive)
REMARK    1  A    between atoms: C2_2  and  C4_4 
REMARK    2  A    between atoms: C4_4  and  C5_5 
REMARK    3  A    between atoms: C4_4  and  O3_25 
REMARK    4  A    between atoms: C5_5  and  C6_6 
REMARK    5  A    between atoms: C6_6  and  C8_14 
REMARK       I    between atoms: N1_7  and  C7_9 
REMARK       I    between atoms: C8_14  and  N4_16 
REMARK    6  A    between atoms: N4_16  and  C9_18 
REMARK    7  A    between atoms: O3_25  and  C15_26 
REMARK       I    between atoms: C15_26  and  N5_28 
ROOT
HETATM    1  C6  UNL     1     -36.413  -1.594 188.975  1.00  0.00     0.082 C 
HETATM    2  N1  UNL     1     -35.226  -1.661 189.283  1.00  0.00    -0.330 N 
ATOM      3  H1  UNL     1     -35.095  -2.618 189.611  1.00  0.00     0.168 HD
HETATM    4  C7  UNL     1     -34.018  -1.088 189.400  1.00  0.00     0.186 C 
HETATM    5  N2  UNL     1     -33.598   0.025 188.864  1.00  0.00    -0.374 N 
ATOM      6  H21 UNL     1     -32.680   0.460 188.953  1.00  0.00     0.158 HD
ATOM      7  H22 UNL     1     -34.297   0.492 188.287  1.00  0.00     0.158 HD
HETATM    8  N3  UNL     1     -33.025  -1.751 190.220  1.00  0.00    -0.064 NA
ENDROOT
BRANCH   1   9
HETATM    9  C5  UNL     1     -37.273  -2.837 189.144  1.00  0.00     0.096 C 
BRANCH   9  10
HETATM   10  C4  UNL     1     -36.735  -3.721 190.219  1.00  0.00     0.142 C 
BRANCH  10  11
HETATM   11  C2  UNL     1     -35.887  -4.881 189.643  1.00  0.00     0.007 C 
HETATM   12  C1  UNL     1     -36.745  -6.106 189.555  1.00  0.00     0.012 C 
HETATM   13  C3  UNL     1     -34.730  -5.138 190.572  1.00  0.00     0.012 C 
ENDBRANCH  10  11
BRANCH  10  14
HETATM   14  O3  UNL     1     -37.830  -4.419 190.834  1.00  0.00    -0.298 OA
BRANCH  14  15
HETATM   15  C15 UNL     1     -38.373  -4.135 192.048  1.00  0.00     0.363 C 
HETATM   16  O4  UNL     1     -37.750  -4.512 193.067  1.00  0.00    -0.238 OA
HETATM   17  N5  UNL     1     -39.604  -3.437 192.211  1.00  0.00    -0.325 N 
HETATM   18  C16 UNL     1     -40.110  -3.208 193.529  1.00  0.00     0.147 C 
HETATM   19  C19 UNL     1     -40.360  -2.942 191.079  1.00  0.00     0.147 C 
HETATM   20  C17 UNL     1     -40.506  -1.767 193.665  1.00  0.00     0.133 C 
HETATM   21  N6  UNL     1     -41.289  -1.236 192.604  1.00  0.00    -0.418 N 
HETATM   22  C18 UNL     1     -40.905  -1.560 191.278  1.00  0.00     0.133 C 
ATOM     23  H6  UNL     1     -42.098  -0.643 192.791  1.00  0.00     0.153 HD
ENDBRANCH  14  15
ENDBRANCH  10  14
ENDBRANCH   9  10
ENDBRANCH   1   9
BRANCH   1  24
HETATM   24  C8  UNL     1     -37.050  -0.356 188.544  1.00  0.00     0.264 C 
HETATM   25  O1  UNL     1     -36.309   0.550 188.031  1.00  0.00    -0.266 OA
HETATM   26  N4  UNL     1     -38.434  -0.078 188.643  1.00  0.00    -0.348 N 
ATOM     27  H4  UNL     1     -39.068  -0.774 189.036  1.00  0.00     0.163 HD
BRANCH  26  28
HETATM   28  C9  UNL     1     -38.942   1.172 188.196  1.00  0.00     0.119 C 
HETATM   29  C10 UNL     1     -39.719   0.981 186.855  1.00  0.00     0.035 C 
HETATM   30  C11 UNL     1     -40.781   0.041 187.298  1.00  0.00     0.011 C 
HETATM   31  C14 UNL     1     -40.323   2.373 186.797  1.00  0.00     0.175 C 
HETATM   32  C12 UNL     1     -41.168   0.642 188.647  1.00  0.00     0.034 C 
HETATM   33  C13 UNL     1     -40.131   1.715 188.934  1.00  0.00     0.144 C 
HETATM   34  O2  UNL     1     -40.477   2.796 188.114  1.00  0.00    -0.383 OA
ENDBRANCH  26  28
ENDBRANCH   1  24
TORSDOF 7
ENDMDL
MODEL 5
REMARK VINA RESULT: -7.942230549      4.251      7.414
REMARK  7 active torsions:
REMARK  status: ('A' for Active; 'I' for Inactive)
REMARK    1  A    between atoms: C2_2  and  C4_4 
REMARK    2  A    between atoms: C4_4  and  C5_5 
REMARK    3  A    between atoms: C4_4  and  O3_25 
REMARK    4  A    between atoms: C5_5  and  C6_6 
REMARK    5  A    between atoms: C6_6  and  C8_14 
REMARK       I    between atoms: N1_7  and  C7_9 
REMARK       I    between atoms: C8_14  and  N4_16 
REMARK    6  A    between atoms: N4_16  and  C9_18 
REMARK    7  A    between atoms: O3_25  and  C15_26 
REMARK       I    between atoms: C15_26  and  N5_28 
ROOT
HETATM    1  C6  UNL     1     -36.724  -0.664 188.545  1.00  0.00     0.082 C 
HETATM    2  N1  UNL     1     -36.455  -1.748 189.055  1.00  0.00    -0.330 N 
ATOM      3  H1  UNL     1     -35.522  -1.627 189.448  1.00  0.00     0.168 HD
HETATM    4  C7  UNL     1     -36.791  -3.014 189.348  1.00  0.00     0.186 C 
HETATM    5  N2  UNL     1     -37.973  -3.564 189.308  1.00  0.00    -0.374 N 
ATOM      6  H21 UNL     1     -38.228  -4.527 189.531  1.00  0.00     0.158 HD
ATOM      7  H22 UNL     1     -38.714  -2.926 189.020  1.00  0.00     0.158 HD
HETATM    8  N3  UNL     1     -35.739  -3.921 189.757  1.00  0.00    -0.064 NA
ENDROOT
BRANCH   1   9
HETATM    9  C5  UNL     1     -35.694   0.452 188.636  1.00  0.00     0.096 C 
BRANCH   9  10
HETATM   10  C4  UNL     1     -34.545   0.198 187.718  1.00  0.00     0.142 C 
BRANCH  10  11
HETATM   11  C2  UNL     1     -33.651  -0.961 188.218  1.00  0.00     0.007 C 
HETATM   12  C1  UNL     1     -32.730  -0.437 189.278  1.00  0.00     0.012 C 
HETATM   13  C3  UNL     1     -32.843  -1.480 187.057  1.00  0.00     0.012 C 
ENDBRANCH  10  11
BRANCH  10  14
HETATM   14  O3  UNL     1     -33.651   1.322 187.777  1.00  0.00    -0.298 OA
BRANCH  14  15
HETATM   15  C15 UNL     1     -33.353   2.157 186.747  1.00  0.00     0.363 C 
HETATM   16  O4  UNL     1     -33.423   1.696 185.585  1.00  0.00    -0.238 OA
HETATM   17  N5  UNL     1     -32.970   3.517 186.928  1.00  0.00    -0.325 N 
HETATM   18  C16 UNL     1     -32.650   4.313 185.783  1.00  0.00     0.147 C 
HETATM   19  C19 UNL     1     -32.902   4.127 188.240  1.00  0.00     0.147 C 
HETATM   20  C17 UNL     1     -33.379   5.621 185.867  1.00  0.00     0.133 C 
HETATM   21  N6  UNL     1     -33.311   6.290 187.119  1.00  0.00    -0.418 N 
HETATM   22  C18 UNL     1     -33.480   5.510 188.291  1.00  0.00     0.133 C 
ATOM     23  H6  UNL     1     -33.147   7.295 187.173  1.00  0.00     0.153 HD
ENDBRANCH  14  15
ENDBRANCH  10  14
ENDBRANCH   9  10
ENDBRANCH   1   9
BRANCH   1  24
HETATM   24  C8  UNL     1     -37.942  -0.430 187.779  1.00  0.00     0.264 C 
HETATM   25  O1  UNL     1     -38.582  -1.449 187.348  1.00  0.00    -0.266 OA
HETATM   26  N4  UNL     1     -38.480   0.844 187.477  1.00  0.00    -0.348 N 
ATOM     27  H4  UNL     1     -38.011   1.687 187.808  1.00  0.00     0.163 HD
BRANCH  26  28
HETATM   28  C9  UNL     1     -39.673   0.949 186.713  1.00  0.00     0.119 C 
HETATM   29  C10 UNL     1     -40.917   0.868 187.654  1.00  0.00     0.035 C 
HETATM   30  C11 UNL     1     -40.668   2.050 188.519  1.00  0.00     0.011 C 
HETATM   31  C14 UNL     1     -41.954   1.259 186.616  1.00  0.00     0.175 C 
HETATM   32  C12 UNL     1     -40.208   3.081 187.492  1.00  0.00     0.034 C 
HETATM   33  C13 UNL     1     -40.018   2.315 186.194  1.00  0.00     0.144 C 
HETATM   34  O2  UNL     1     -41.310   2.089 185.702  1.00  0.00    -0.383 OA
ENDBRANCH  26  28
ENDBRANCH   1  24
TORSDOF 7
ENDMDL
