MODEL 1
REMARK VINA RESULT: -6.126534189      0.000      0.000
REMARK  2 active torsions:
REMARK  status: ('A' for Active; 'I' for Inactive)
REMARK    1  A    between atoms: C2_2  and  C4_5 
REMARK    2  A    between atoms: C4_5  and  C5_7 
ROOT
HETATM    1  C5  UNL     1      30.504 -26.831 -27.718  1.00  0.00     0.138 C 
HETATM    2  C6  UNL     1      29.486 -26.250 -26.787  1.00  0.00     0.044 C 
HETATM    3  S1  UNL     1      32.045 -25.875 -27.812  1.00  0.00    -0.066 SA
HETATM    4  C7  UNL     1      33.136 -27.039 -27.048  1.00  0.00     0.198 C 
HETATM    5  O2  UNL     1      34.318 -27.025 -27.066  1.00  0.00    -0.285 OA
HETATM    6  C8  UNL     1      32.239 -28.005 -26.399  1.00  0.00     0.134 C 
HETATM    7  C9  UNL     1      31.948 -27.480 -24.988  1.00  0.00     0.027 C 
HETATM    8  C10 UNL     1      31.011 -28.148 -27.172  1.00  0.00     0.165 C 
HETATM    9  O3  UNL     1      30.409 -29.179 -27.394  1.00  0.00    -0.295 OA
ENDROOT
BRANCH   1  10
HETATM   10  C4  UNL     1      30.017 -27.013 -29.099  1.00  0.00     0.182 C 
HETATM   11  O1  UNL     1      29.935 -28.156 -29.639  1.00  0.00    -0.290 OA
BRANCH  10  12
HETATM   12  C2  UNL     1      29.609 -25.880 -29.901  1.00  0.00    -0.003 C 
HETATM   13  C1  UNL     1      29.571 -24.485 -29.386  1.00  0.00     0.053 C 
HETATM   14  C3  UNL     1      29.231 -26.082 -31.173  1.00  0.00     0.095 C 
HETATM   15 CL1  UNL     1      28.711 -24.777 -32.195  1.00  0.00    -0.096 Cl
ENDBRANCH  10  12
ENDBRANCH   1  10
TORSDOF 2
ENDMDL
MODEL 2
REMARK VINA RESULT: -5.604929652      7.334      9.830
REMARK  2 active torsions:
REMARK  status: ('A' for Active; 'I' for Inactive)
REMARK    1  A    between atoms: C2_2  and  C4_5 
REMARK    2  A    between atoms: C4_5  and  C5_7 
ROOT
HETATM    1  C5  UNL     1      26.768 -30.786 -35.151  1.00  0.00     0.138 C 
HETATM    2  C6  UNL     1      27.038 -29.864 -36.299  1.00  0.00     0.044 C 
HETATM    3  S1  UNL     1      25.055 -30.729 -34.549  1.00  0.00    -0.066 SA
HETATM    4  C7  UNL     1      24.541 -32.351 -35.036  1.00  0.00     0.198 C 
HETATM    5  O2  UNL     1      23.577 -32.931 -34.673  1.00  0.00    -0.285 OA
HETATM    6  C8  UNL     1      25.577 -32.792 -35.980  1.00  0.00     0.134 C 
HETATM    7  C9  UNL     1      25.148 -32.329 -37.377  1.00  0.00     0.027 C 
HETATM    8  C10 UNL     1      26.868 -32.224 -35.610  1.00  0.00     0.165 C 
HETATM    9  O3  UNL     1      27.944 -32.787 -35.641  1.00  0.00    -0.295 OA
ENDROOT
BRANCH   1  10
HETATM   10  C4  UNL     1      27.648 -30.566 -33.988  1.00  0.00     0.182 C 
HETATM   11  O1  UNL     1      27.377 -31.031 -32.841  1.00  0.00    -0.290 OA
BRANCH  10  12
HETATM   12  C2  UNL     1      28.869 -29.801 -34.112  1.00  0.00    -0.003 C 
HETATM   13  C1  UNL     1      30.114 -30.339 -34.720  1.00  0.00     0.053 C 
HETATM   14  C3  UNL     1      28.901 -28.542 -33.646  1.00  0.00     0.095 C 
HETATM   15 CL1  UNL     1      30.334 -27.563 -33.741  1.00  0.00    -0.096 Cl
ENDBRANCH  10  12
ENDBRANCH   1  10
TORSDOF 2
ENDMDL
MODEL 3
REMARK VINA RESULT: -5.446749618      3.161      5.474
REMARK  2 active torsions:
REMARK  status: ('A' for Active; 'I' for Inactive)
REMARK    1  A    between atoms: C2_2  and  C4_5 
REMARK    2  A    between atoms: C4_5  and  C5_7 
ROOT
HETATM    1  C5  UNL     1      29.414 -26.179 -30.601  1.00  0.00     0.138 C 
HETATM    2  C6  UNL     1      27.980 -26.211 -30.174  1.00  0.00     0.044 C 
HETATM    3  S1  UNL     1      29.755 -27.130 -32.110  1.00  0.00    -0.066 SA
HETATM    4  C7  UNL     1      30.151 -25.790 -33.195  1.00  0.00     0.198 C 
HETATM    5  O2  UNL     1      30.684 -25.859 -34.248  1.00  0.00    -0.285 OA
HETATM    6  C8  UNL     1      29.666 -24.595 -32.488  1.00  0.00     0.134 C 
HETATM    7  C9  UNL     1      28.205 -24.384 -32.898  1.00  0.00     0.027 C 
HETATM    8  C10 UNL     1      29.788 -24.782 -31.047  1.00  0.00     0.165 C 
HETATM    9  O3  UNL     1      30.144 -23.951 -30.235  1.00  0.00    -0.295 OA
ENDROOT
BRANCH   1  10
HETATM   10  C4  UNL     1      30.357 -26.646 -29.567  1.00  0.00     0.182 C 
HETATM   11  O1  UNL     1      31.509 -27.087 -29.856  1.00  0.00    -0.290 OA
BRANCH  10  12
HETATM   12  C2  UNL     1      29.999 -26.619 -28.166  1.00  0.00    -0.003 C 
HETATM   13  C1  UNL     1      29.558 -25.389 -27.457  1.00  0.00     0.053 C 
HETATM   14  C3  UNL     1      30.076 -27.753 -27.450  1.00  0.00     0.095 C 
HETATM   15 CL1  UNL     1      29.681 -27.800 -25.759  1.00  0.00    -0.096 Cl
ENDBRANCH  10  12
ENDBRANCH   1  10
TORSDOF 2
ENDMDL
MODEL 4
REMARK VINA RESULT: -5.424150178      3.228      5.528
REMARK  2 active torsions:
REMARK  status: ('A' for Active; 'I' for Inactive)
REMARK    1  A    between atoms: C2_2  and  C4_5 
REMARK    2  A    between atoms: C4_5  and  C5_7 
ROOT
HETATM    1  C5  UNL     1      30.075 -25.548 -30.293  1.00  0.00     0.138 C 
HETATM    2  C6  UNL     1      31.063 -26.621 -30.626  1.00  0.00     0.044 C 
HETATM    3  S1  UNL     1      30.480 -23.928 -31.007  1.00  0.00    -0.066 SA
HETATM    4  C7  UNL     1      29.146 -23.796 -32.161  1.00  0.00     0.198 C 
HETATM    5  O2  UNL     1      28.787 -22.823 -32.727  1.00  0.00    -0.285 OA
HETATM    6  C8  UNL     1      28.603 -25.160 -32.246  1.00  0.00     0.134 C 
HETATM    7  C9  UNL     1      29.375 -25.889 -33.351  1.00  0.00     0.027 C 
HETATM    8  C10 UNL     1      28.751 -25.838 -30.964  1.00  0.00     0.165 C 
HETATM    9  O3  UNL     1      27.939 -26.571 -30.433  1.00  0.00    -0.295 OA
ENDROOT
BRANCH   1  10
HETATM   10  C4  UNL     1      29.873 -25.349 -28.845  1.00  0.00     0.182 C 
HETATM   11  O1  UNL     1      29.145 -24.418 -28.387  1.00  0.00    -0.290 OA
BRANCH  10  12
HETATM   12  C2  UNL     1      30.507 -26.219 -27.878  1.00  0.00    -0.003 C 
HETATM   13  C1  UNL     1      31.795 -25.898 -27.209  1.00  0.00     0.053 C 
HETATM   14  C3  UNL     1      29.921 -27.387 -27.568  1.00  0.00     0.095 C 
HETATM   15 CL1  UNL     1      30.627 -28.494 -26.430  1.00  0.00    -0.096 Cl
ENDBRANCH  10  12
ENDBRANCH   1  10
TORSDOF 2
ENDMDL
MODEL 5
REMARK VINA RESULT: -5.295555005     10.532     11.786
REMARK  2 active torsions:
REMARK  status: ('A' for Active; 'I' for Inactive)
REMARK    1  A    between atoms: C2_2  and  C4_5 
REMARK    2  A    between atoms: C4_5  and  C5_7 
ROOT
HETATM    1  C5  UNL     1      25.264 -33.077 -36.456  1.00  0.00     0.138 C 
HETATM    2  C6  UNL     1      25.251 -32.942 -37.946  1.00  0.00     0.044 C 
HETATM    3  S1  UNL     1      24.000 -34.208 -35.808  1.00  0.00    -0.066 SA
HETATM    4  C7  UNL     1      25.061 -35.493 -35.213  1.00  0.00     0.198 C 
HETATM    5  O2  UNL     1      24.771 -36.372 -34.477  1.00  0.00    -0.285 OA
HETATM    6  C8  UNL     1      26.360 -35.211 -35.841  1.00  0.00     0.134 C 
HETATM    7  C9  UNL     1      26.380 -35.937 -37.191  1.00  0.00     0.027 C 
HETATM    8  C10 UNL     1      26.532 -33.774 -36.012  1.00  0.00     0.165 C 
HETATM    9  O3  UNL     1      27.553 -33.140 -35.834  1.00  0.00    -0.295 OA
ENDROOT
BRANCH   1  10
HETATM   10  C4  UNL     1      25.115 -31.797 -35.737  1.00  0.00     0.182 C 
HETATM   11  O1  UNL     1      24.901 -31.746 -34.489  1.00  0.00    -0.290 OA
BRANCH  10  12
HETATM   12  C2  UNL     1      25.208 -30.535 -36.437  1.00  0.00    -0.003 C 
HETATM   13  C1  UNL     1      26.494 -29.834 -36.693  1.00  0.00     0.053 C 
HETATM   14  C3  UNL     1      24.084 -29.945 -36.873  1.00  0.00     0.095 C 
HETATM   15 CL1  UNL     1      24.109 -28.421 -37.706  1.00  0.00    -0.096 Cl
ENDBRANCH  10  12
ENDBRANCH   1  10
TORSDOF 2
ENDMDL
