MODEL 1
REMARK VINA RESULT: -4.973841060      0.000      0.000
REMARK  4 active torsions:
REMARK  status: ('A' for Active; 'I' for Inactive)
REMARK    1  A    between atoms: O1_2  and  C2_3 
REMARK    2  A    between atoms: C2_3  and  C3_5 
REMARK    3  A    between atoms: C6_10  and  N1_11 
REMARK    4  A    between atoms: N1_11  and  S2_13 
ROOT
HETATM    1  C3  UNL     1      29.722 -25.276 -31.858  1.00  0.00     0.110 A 
HETATM    2  S1  UNL     1      30.193 -25.800 -33.443  1.00  0.00    -0.052 SA
HETATM    3  C4  UNL     1      29.961 -27.464 -33.258  1.00  0.00     0.160 A 
HETATM    4  F1  UNL     1      30.164 -28.461 -34.181  1.00  0.00    -0.198 F 
HETATM    5  C5  UNL     1      29.523 -27.582 -31.974  1.00  0.00     0.081 A 
HETATM    6  C6  UNL     1      29.399 -26.449 -31.246  1.00  0.00     0.069 A 
ENDROOT
BRANCH   6   7
HETATM    7  N1  UNL     1      28.935 -26.492 -29.858  1.00  0.00    -0.283 N 
ATOM      8  H1  UNL     1      27.985 -26.192 -29.639  1.00  0.00     0.178 HD
BRANCH   7   9
HETATM    9  S2  UNL     1      29.962 -27.039 -28.585  1.00  0.00     0.227 S 
HETATM   10  C7  UNL     1      30.474 -25.633 -27.613  1.00  0.00     0.186 C 
HETATM   11  O3  UNL     1      31.144 -27.713 -29.175  1.00  0.00    -0.206 OA
HETATM   12  O4  UNL     1      29.210 -27.955 -27.645  1.00  0.00    -0.206 OA
ENDBRANCH   7   9
ENDBRANCH   6   7
BRANCH   1  13
HETATM   13  C2  UNL     1      29.706 -23.878 -31.376  1.00  0.00     0.302 C 
HETATM   14  O2  UNL     1      29.884 -23.614 -30.193  1.00  0.00    -0.259 OA
BRANCH  13  15
HETATM   15  O1  UNL     1      29.476 -22.879 -32.345  1.00  0.00    -0.322 OA
HETATM   16  C1  UNL     1      29.877 -21.563 -31.995  1.00  0.00     0.213 C 
ENDBRANCH  13  15
ENDBRANCH   1  13
TORSDOF 4
ENDMDL
MODEL 2
REMARK VINA RESULT: -4.704083494      2.743      3.896
REMARK  4 active torsions:
REMARK  status: ('A' for Active; 'I' for Inactive)
REMARK    1  A    between atoms: O1_2  and  C2_3 
REMARK    2  A    between atoms: C2_3  and  C3_5 
REMARK    3  A    between atoms: C6_10  and  N1_11 
REMARK    4  A    between atoms: N1_11  and  S2_13 
ROOT
HETATM    1  C3  UNL     1      30.074 -26.000 -32.638  1.00  0.00     0.110 A 
HETATM    2  S1  UNL     1      29.447 -24.491 -33.219  1.00  0.00    -0.052 SA
HETATM    3  C4  UNL     1      29.783 -23.523 -31.875  1.00  0.00     0.160 A 
HETATM    4  F1  UNL     1      29.523 -22.185 -31.702  1.00  0.00    -0.198 F 
HETATM    5  C5  UNL     1      30.375 -24.385 -31.003  1.00  0.00     0.081 A 
HETATM    6  C6  UNL     1      30.526 -25.671 -31.396  1.00  0.00     0.069 A 
ENDROOT
BRANCH   6   7
HETATM    7  N1  UNL     1      31.152 -26.659 -30.516  1.00  0.00    -0.283 N 
ATOM      8  H1  UNL     1      32.013 -27.119 -30.812  1.00  0.00     0.178 HD
BRANCH   7   9
HETATM    9  S2  UNL     1      30.463 -27.063 -28.987  1.00  0.00     0.227 S 
HETATM   10  C7  UNL     1      30.897 -25.797 -27.807  1.00  0.00     0.186 C 
HETATM   11  O3  UNL     1      30.996 -28.377 -28.550  1.00  0.00    -0.206 OA
HETATM   12  O4  UNL     1      28.953 -27.073 -29.065  1.00  0.00    -0.206 OA
ENDBRANCH   7   9
ENDBRANCH   6   7
BRANCH   1  13
HETATM   13  C2  UNL     1      30.077 -27.281 -33.377  1.00  0.00     0.302 C 
HETATM   14  O2  UNL     1      31.125 -27.792 -33.756  1.00  0.00    -0.259 OA
BRANCH  13  15
HETATM   15  O1  UNL     1      28.819 -27.873 -33.618  1.00  0.00    -0.322 OA
HETATM   16  C1  UNL     1      28.815 -29.008 -34.472  1.00  0.00     0.213 C 
ENDBRANCH  13  15
ENDBRANCH   1  13
TORSDOF 4
ENDMDL
MODEL 3
REMARK VINA RESULT: -4.681291547      3.709      5.991
REMARK  4 active torsions:
REMARK  status: ('A' for Active; 'I' for Inactive)
REMARK    1  A    between atoms: O1_2  and  C2_3 
REMARK    2  A    between atoms: C2_3  and  C3_5 
REMARK    3  A    between atoms: C6_10  and  N1_11 
REMARK    4  A    between atoms: N1_11  and  S2_13 
ROOT
HETATM    1  C3  UNL     1      28.956 -27.601 -27.566  1.00  0.00     0.110 A 
HETATM    2  S1  UNL     1      29.229 -27.023 -25.953  1.00  0.00    -0.052 SA
HETATM    3  C4  UNL     1      30.861 -26.602 -26.090  1.00  0.00     0.160 A 
HETATM    4  F1  UNL     1      31.687 -26.070 -25.130  1.00  0.00    -0.198 F 
HETATM    5  C5  UNL     1      31.162 -26.915 -27.380  1.00  0.00     0.081 A 
HETATM    6  C6  UNL     1      30.176 -27.435 -28.148  1.00  0.00     0.069 A 
ENDROOT
BRANCH   6   7
HETATM    7  N1  UNL     1      30.421 -27.798 -29.545  1.00  0.00    -0.283 N 
ATOM      8  H1  UNL     1      30.715 -28.749 -29.769  1.00  0.00     0.178 HD
BRANCH   7   9
HETATM    9  S2  UNL     1      30.222 -26.653 -30.818  1.00  0.00     0.227 S 
HETATM   10  C7  UNL     1      30.133 -25.017 -30.113  1.00  0.00     0.186 C 
HETATM   11  O3  UNL     1      28.973 -26.963 -31.555  1.00  0.00    -0.206 OA
HETATM   12  O4  UNL     1      31.425 -26.657 -31.735  1.00  0.00    -0.206 OA
ENDBRANCH   7   9
ENDBRANCH   6   7
BRANCH   1  13
HETATM   13  C2  UNL     1      27.678 -28.127 -28.094  1.00  0.00     0.302 C 
HETATM   14  O2  UNL     1      27.149 -27.632 -29.082  1.00  0.00    -0.259 OA
BRANCH  13  15
HETATM   15  O1  UNL     1      27.111 -29.218 -27.402  1.00  0.00    -0.322 OA
HETATM   16  C1  UNL     1      26.144 -28.897 -26.414  1.00  0.00     0.213 C 
ENDBRANCH  13  15
ENDBRANCH   1  13
TORSDOF 4
ENDMDL
MODEL 4
REMARK VINA RESULT: -4.578628929      3.338      5.503
REMARK  4 active torsions:
REMARK  status: ('A' for Active; 'I' for Inactive)
REMARK    1  A    between atoms: O1_2  and  C2_3 
REMARK    2  A    between atoms: C2_3  and  C3_5 
REMARK    3  A    between atoms: C6_10  and  N1_11 
REMARK    4  A    between atoms: N1_11  and  S2_13 
ROOT
HETATM    1  C3  UNL     1      29.655 -27.114 -26.850  1.00  0.00     0.110 A 
HETATM    2  S1  UNL     1      28.345 -27.630 -25.838  1.00  0.00    -0.052 SA
HETATM    3  C4  UNL     1      27.373 -28.367 -27.008  1.00  0.00     0.160 A 
HETATM    4  F1  UNL     1      26.159 -28.988 -26.840  1.00  0.00    -0.198 F 
HETATM    5  C5  UNL     1      28.080 -28.200 -28.159  1.00  0.00     0.081 A 
HETATM    6  C6  UNL     1      29.264 -27.549 -28.080  1.00  0.00     0.069 A 
ENDROOT
BRANCH   6   7
HETATM    7  N1  UNL     1      30.084 -27.328 -29.273  1.00  0.00    -0.283 N 
ATOM      8  H1  UNL     1      30.842 -27.976 -29.485  1.00  0.00     0.178 HD
BRANCH   7   9
HETATM    9  S2  UNL     1      29.794 -25.994 -30.327  1.00  0.00     0.227 S 
HETATM   10  C7  UNL     1      30.779 -26.199 -31.800  1.00  0.00     0.186 C 
HETATM   11  O3  UNL     1      30.168 -24.739 -29.630  1.00  0.00    -0.206 OA
HETATM   12  O4  UNL     1      28.351 -25.971 -30.779  1.00  0.00    -0.206 OA
ENDBRANCH   7   9
ENDBRANCH   6   7
BRANCH   1  13
HETATM   13  C2  UNL     1      30.862 -26.384 -26.403  1.00  0.00     0.302 C 
HETATM   14  O2  UNL     1      30.945 -25.934 -25.267  1.00  0.00    -0.259 OA
BRANCH  13  15
HETATM   15  O1  UNL     1      31.898 -26.240 -27.349  1.00  0.00    -0.322 OA
HETATM   16  C1  UNL     1      32.748 -27.364 -27.523  1.00  0.00     0.213 C 
ENDBRANCH  13  15
ENDBRANCH   1  13
TORSDOF 4
ENDMDL
MODEL 5
REMARK VINA RESULT: -4.455557105      8.832      9.801
REMARK  4 active torsions:
REMARK  status: ('A' for Active; 'I' for Inactive)
REMARK    1  A    between atoms: O1_2  and  C2_3 
REMARK    2  A    between atoms: C2_3  and  C3_5 
REMARK    3  A    between atoms: C6_10  and  N1_11 
REMARK    4  A    between atoms: N1_11  and  S2_13 
ROOT
HETATM    1  C3  UNL     1      23.840 -30.804 -35.965  1.00  0.00     0.110 A 
HETATM    2  S1  UNL     1      23.407 -29.428 -36.927  1.00  0.00    -0.052 SA
HETATM    3  C4  UNL     1      24.949 -28.789 -37.195  1.00  0.00     0.160 A 
HETATM    4  F1  UNL     1      25.294 -27.667 -37.908  1.00  0.00    -0.198 F 
HETATM    5  C5  UNL     1      25.769 -29.653 -36.535  1.00  0.00     0.081 A 
HETATM    6  C6  UNL     1      25.196 -30.699 -35.896  1.00  0.00     0.069 A 
ENDROOT
BRANCH   6   7
HETATM    7  N1  UNL     1      26.010 -31.671 -35.163  1.00  0.00    -0.283 N 
ATOM      8  H1  UNL     1      26.216 -31.509 -34.178  1.00  0.00     0.178 HD
BRANCH   7   9
HETATM    9  S2  UNL     1      26.627 -33.086 -35.933  1.00  0.00     0.227 S 
HETATM   10  C7  UNL     1      25.605 -34.478 -35.483  1.00  0.00     0.186 C 
HETATM   11  O3  UNL     1      28.023 -33.308 -35.485  1.00  0.00    -0.206 OA
HETATM   12  O4  UNL     1      26.538 -32.960 -37.437  1.00  0.00    -0.206 OA
ENDBRANCH   7   9
ENDBRANCH   6   7
BRANCH   1  13
HETATM   13  C2  UNL     1      22.901 -31.798 -35.399  1.00  0.00     0.302 C 
HETATM   14  O2  UNL     1      21.984 -32.257 -36.071  1.00  0.00    -0.259 OA
BRANCH  13  15
HETATM   15  O1  UNL     1      23.121 -32.182 -34.060  1.00  0.00    -0.322 OA
HETATM   16  C1  UNL     1      22.743 -31.237 -33.069  1.00  0.00     0.213 C 
ENDBRANCH  13  15
ENDBRANCH   1  13
TORSDOF 4
ENDMDL
