MODEL 1
REMARK VINA RESULT: -6.909984596      0.000      0.000
REMARK  4 active torsions:
REMARK  status: ('A' for Active; 'I' for Inactive)
REMARK    1  A    between atoms: C3_4  and  C4_5 
REMARK    2  A    between atoms: C4_5  and  O2_7 
REMARK    3  A    between atoms: O2_7  and  C5_8 
REMARK    4  A    between atoms: C5_8  and  C6_9 
ROOT
HETATM    1  C6  UNL     1      29.956 -26.176 -31.189  1.00  0.00     0.049 A 
HETATM    2  C7  UNL     1      29.705 -26.322 -32.534  1.00  0.00     0.062 A 
HETATM    3  C8  UNL     1      29.680 -27.691 -33.102  1.00  0.00     0.077 C 
HETATM    4  O3  UNL     1      29.480 -25.278 -33.295  1.00  0.00    -0.316 OA
HETATM    5  C9  UNL     1      29.469 -24.057 -32.867  1.00  0.00     0.092 A 
HETATM    6  C10 UNL     1      29.197 -22.926 -33.825  1.00  0.00     0.080 C 
HETATM    7  C11 UNL     1      29.711 -23.818 -31.516  1.00  0.00     0.196 A 
HETATM    8  F1  UNL     1      29.712 -22.560 -31.053  1.00  0.00    -0.199 F 
HETATM    9  C12 UNL     1      29.960 -24.911 -30.663  1.00  0.00     0.223 A 
HETATM   10  O4  UNL     1      30.169 -24.638 -29.470  1.00  0.00    -0.284 OA
ENDROOT
BRANCH   1  11
HETATM   11  C5  UNL     1      30.310 -27.333 -30.331  1.00  0.00     0.224 C 
BRANCH  11  12
HETATM   12  O2  UNL     1      31.439 -27.106 -29.557  1.00  0.00    -0.313 OA
BRANCH  12  13
HETATM   13  C4  UNL     1      31.525 -27.464 -28.239  1.00  0.00     0.284 C 
HETATM   14  O1  UNL     1      32.642 -27.513 -27.718  1.00  0.00    -0.260 OA
BRANCH  13  15
HETATM   15  C3  UNL     1      30.303 -27.790 -27.467  1.00  0.00     0.103 C 
HETATM   16  C2  UNL     1      29.841 -26.977 -26.583  1.00  0.00     0.026 C 
HETATM   17  C1  UNL     1      28.592 -27.326 -25.797  1.00  0.00     0.065 C 
HETATM   18  N1  UNL     1      30.440 -25.742 -26.316  1.00  0.00    -0.107 NA
ENDBRANCH  13  15
ENDBRANCH  12  13
ENDBRANCH  11  12
ENDBRANCH   1  11
TORSDOF 4
ENDMDL
MODEL 2
REMARK VINA RESULT: -6.789018775      1.902      2.830
REMARK  4 active torsions:
REMARK  status: ('A' for Active; 'I' for Inactive)
REMARK    1  A    between atoms: C3_4  and  C4_5 
REMARK    2  A    between atoms: C4_5  and  O2_7 
REMARK    3  A    between atoms: O2_7  and  C5_8 
REMARK    4  A    between atoms: C5_8  and  C6_9 
ROOT
HETATM    1  C6  UNL     1      30.453 -25.843 -29.527  1.00  0.00     0.049 A 
HETATM    2  C7  UNL     1      30.644 -27.159 -29.882  1.00  0.00     0.062 A 
HETATM    3  C8  UNL     1      31.135 -28.104 -28.850  1.00  0.00     0.077 C 
HETATM    4  O3  UNL     1      30.388 -27.572 -31.099  1.00  0.00    -0.316 OA
HETATM    5  C9  UNL     1      29.942 -26.811 -32.046  1.00  0.00     0.092 A 
HETATM    6  C10 UNL     1      29.676 -27.386 -33.413  1.00  0.00     0.080 C 
HETATM    7  C11 UNL     1      29.717 -25.463 -31.772  1.00  0.00     0.196 A 
HETATM    8  F1  UNL     1      29.262 -24.655 -32.740  1.00  0.00    -0.199 F 
HETATM    9  C12 UNL     1      29.982 -24.977 -30.477  1.00  0.00     0.223 A 
HETATM   10  O4  UNL     1      29.762 -23.768 -30.291  1.00  0.00    -0.284 OA
ENDROOT
BRANCH   1  11
HETATM   11  C5  UNL     1      30.830 -25.334 -28.185  1.00  0.00     0.224 C 
BRANCH  11  12
HETATM   12  O2  UNL     1      29.850 -25.557 -27.229  1.00  0.00    -0.313 OA
BRANCH  12  13
HETATM   13  C4  UNL     1      30.025 -26.399 -26.164  1.00  0.00     0.284 C 
HETATM   14  O1  UNL     1      31.177 -26.678 -25.821  1.00  0.00    -0.260 OA
BRANCH  13  15
HETATM   15  C3  UNL     1      28.855 -26.963 -25.451  1.00  0.00     0.103 C 
HETATM   16  C2  UNL     1      28.024 -27.741 -26.053  1.00  0.00     0.026 C 
HETATM   17  C1  UNL     1      26.828 -28.306 -25.312  1.00  0.00     0.065 C 
HETATM   18  N1  UNL     1      28.185 -28.116 -27.390  1.00  0.00    -0.107 NA
ENDBRANCH  13  15
ENDBRANCH  12  13
ENDBRANCH  11  12
ENDBRANCH   1  11
TORSDOF 4
ENDMDL
MODEL 3
REMARK VINA RESULT: -6.357847955      2.954      6.179
REMARK  4 active torsions:
REMARK  status: ('A' for Active; 'I' for Inactive)
REMARK    1  A    between atoms: C3_4  and  C4_5 
REMARK    2  A    between atoms: C4_5  and  O2_7 
REMARK    3  A    between atoms: O2_7  and  C5_8 
REMARK    4  A    between atoms: C5_8  and  C6_9 
ROOT
HETATM    1  C6  UNL     1      29.760 -26.804 -27.639  1.00  0.00     0.049 A 
HETATM    2  C7  UNL     1      29.787 -26.763 -26.264  1.00  0.00     0.062 A 
HETATM    3  C8  UNL     1      30.906 -26.052 -25.601  1.00  0.00     0.077 C 
HETATM    4  O3  UNL     1      28.841 -27.329 -25.555  1.00  0.00    -0.316 OA
HETATM    5  C9  UNL     1      27.827 -27.952 -26.063  1.00  0.00     0.092 A 
HETATM    6  C10 UNL     1      26.791 -28.566 -25.157  1.00  0.00     0.080 C 
HETATM    7  C11 UNL     1      27.719 -28.038 -27.449  1.00  0.00     0.196 A 
HETATM    8  F1  UNL     1      26.680 -28.684 -27.996  1.00  0.00    -0.199 F 
HETATM    9  C12 UNL     1      28.715 -27.446 -28.249  1.00  0.00     0.223 A 
HETATM   10  O4  UNL     1      28.566 -27.554 -29.478  1.00  0.00    -0.284 OA
ENDROOT
BRANCH   1  11
HETATM   11  C5  UNL     1      30.870 -26.257 -28.458  1.00  0.00     0.224 C 
BRANCH  11  12
HETATM   12  O2  UNL     1      30.596 -24.994 -28.964  1.00  0.00    -0.313 OA
BRANCH  12  13
HETATM   13  C4  UNL     1      30.407 -24.749 -30.297  1.00  0.00     0.284 C 
HETATM   14  O1  UNL     1      29.888 -23.680 -30.628  1.00  0.00    -0.260 OA
BRANCH  13  15
HETATM   15  C3  UNL     1      30.811 -25.752 -31.310  1.00  0.00     0.103 C 
HETATM   16  C2  UNL     1      30.136 -25.905 -32.397  1.00  0.00     0.026 C 
HETATM   17  C1  UNL     1      30.559 -26.939 -33.423  1.00  0.00     0.065 C 
HETATM   18  N1  UNL     1      29.012 -25.130 -32.695  1.00  0.00    -0.107 NA
ENDBRANCH  13  15
ENDBRANCH  12  13
ENDBRANCH  11  12
ENDBRANCH   1  11
TORSDOF 4
ENDMDL
MODEL 4
REMARK VINA RESULT: -6.320802912      1.436      2.207
REMARK  4 active torsions:
REMARK  status: ('A' for Active; 'I' for Inactive)
REMARK    1  A    between atoms: C3_4  and  C4_5 
REMARK    2  A    between atoms: C4_5  and  O2_7 
REMARK    3  A    between atoms: O2_7  and  C5_8 
REMARK    4  A    between atoms: C5_8  and  C6_9 
ROOT
HETATM    1  C6  UNL     1      30.308 -26.128 -31.000  1.00  0.00     0.049 A 
HETATM    2  C7  UNL     1      29.863 -24.914 -30.530  1.00  0.00     0.062 A 
HETATM    3  C8  UNL     1      29.747 -24.724 -29.064  1.00  0.00     0.077 C 
HETATM    4  O3  UNL     1      29.560 -23.942 -31.357  1.00  0.00    -0.316 OA
HETATM    5  C9  UNL     1      29.652 -24.029 -32.645  1.00  0.00     0.092 A 
HETATM    6  C10 UNL     1      29.281 -22.850 -33.507  1.00  0.00     0.080 C 
HETATM    7  C11 UNL     1      30.098 -25.224 -33.205  1.00  0.00     0.196 A 
HETATM    8  F1  UNL     1      30.195 -25.338 -34.538  1.00  0.00    -0.199 F 
HETATM    9  C12 UNL     1      30.432 -26.294 -32.354  1.00  0.00     0.223 A 
HETATM   10  O4  UNL     1      30.824 -27.334 -32.910  1.00  0.00    -0.284 OA
ENDROOT
BRANCH   1  11
HETATM   11  C5  UNL     1      30.562 -27.272 -30.089  1.00  0.00     0.224 C 
BRANCH  11  12
HETATM   12  O2  UNL     1      31.631 -27.052 -29.233  1.00  0.00    -0.313 OA
BRANCH  12  13
HETATM   13  C4  UNL     1      31.593 -27.358 -27.899  1.00  0.00     0.284 C 
HETATM   14  O1  UNL     1      32.649 -27.333 -27.263  1.00  0.00    -0.260 OA
BRANCH  13  15
HETATM   15  C3  UNL     1      30.312 -27.716 -27.246  1.00  0.00     0.103 C 
HETATM   16  C2  UNL     1      29.819 -26.984 -26.308  1.00  0.00     0.026 C 
HETATM   17  C1  UNL     1      28.509 -27.366 -25.645  1.00  0.00     0.065 C 
HETATM   18  N1  UNL     1      30.439 -25.809 -25.872  1.00  0.00    -0.107 NA
ENDBRANCH  13  15
ENDBRANCH  12  13
ENDBRANCH  11  12
ENDBRANCH   1  11
TORSDOF 4
ENDMDL
MODEL 5
REMARK VINA RESULT: -6.182762759      1.311      1.482
REMARK  4 active torsions:
REMARK  status: ('A' for Active; 'I' for Inactive)
REMARK    1  A    between atoms: C3_4  and  C4_5 
REMARK    2  A    between atoms: C4_5  and  O2_7 
REMARK    3  A    between atoms: O2_7  and  C5_8 
REMARK    4  A    between atoms: C5_8  and  C6_9 
ROOT
HETATM    1  C6  UNL     1      29.995 -26.151 -30.807  1.00  0.00     0.049 A 
HETATM    2  C7  UNL     1      29.709 -26.446 -32.120  1.00  0.00     0.062 A 
HETATM    3  C8  UNL     1      29.674 -27.869 -32.533  1.00  0.00     0.077 C 
HETATM    4  O3  UNL     1      29.461 -25.492 -32.985  1.00  0.00    -0.316 OA
HETATM    5  C9  UNL     1      29.456 -24.231 -32.695  1.00  0.00     0.092 A 
HETATM    6  C10 UNL     1      29.155 -23.214 -33.765  1.00  0.00     0.080 C 
HETATM    7  C11 UNL     1      29.733 -23.844 -31.386  1.00  0.00     0.196 A 
HETATM    8  F1  UNL     1      29.741 -22.543 -31.065  1.00  0.00    -0.199 F 
HETATM    9  C12 UNL     1      30.008 -24.836 -30.425  1.00  0.00     0.223 A 
HETATM   10  O4  UNL     1      30.247 -24.432 -29.274  1.00  0.00    -0.284 OA
ENDROOT
BRANCH   1  11
HETATM   11  C5  UNL     1      30.376 -27.206 -29.836  1.00  0.00     0.224 C 
BRANCH  11  12
HETATM   12  O2  UNL     1      29.551 -27.236 -28.721  1.00  0.00    -0.313 OA
BRANCH  12  13
HETATM   13  C4  UNL     1      30.029 -27.303 -27.440  1.00  0.00     0.284 C 
HETATM   14  O1  UNL     1      31.249 -27.371 -27.274  1.00  0.00    -0.260 OA
BRANCH  13  15
HETATM   15  C3  UNL     1      29.097 -27.301 -26.288  1.00  0.00     0.103 C 
HETATM   16  C2  UNL     1      27.975 -27.930 -26.343  1.00  0.00     0.026 C 
HETATM   17  C1  UNL     1      27.028 -27.916 -25.158  1.00  0.00     0.065 C 
HETATM   18  N1  UNL     1      27.582 -28.663 -27.467  1.00  0.00    -0.107 NA
ENDBRANCH  13  15
ENDBRANCH  12  13
ENDBRANCH  11  12
ENDBRANCH   1  11
TORSDOF 4
ENDMDL
