MODEL 1
REMARK VINA RESULT: -6.758798134      0.000      0.000
REMARK  3 active torsions:
REMARK  status: ('A' for Active; 'I' for Inactive)
REMARK    1  A    between atoms: C2_2  and  O2_4 
REMARK    2  A    between atoms: O2_4  and  N1_5 
REMARK    3  A    between atoms: N1_5  and  C3_7 
ROOT
HETATM    1  C3  UNL     1      29.740 -26.877 -29.665  1.00  0.00     0.068 C 
HETATM    2  C4  UNL     1      28.289 -27.025 -30.142  1.00  0.00     0.042 C 
HETATM    3  C5  UNL     1      29.942 -27.920 -28.599  1.00  0.00     0.035 C 
HETATM    4  C6  UNL     1      31.340 -27.819 -28.100  1.00  0.00     0.020 C 
HETATM    5  C7  UNL     1      31.596 -26.496 -27.498  1.00  0.00     0.116 C 
HETATM    6  C8  UNL     1      30.858 -26.230 -26.259  1.00  0.00     0.266 C 
HETATM    7  O3  UNL     1      30.679 -26.873 -25.198  1.00  0.00    -0.265 OA
HETATM    8  O4  UNL     1      30.475 -25.012 -26.775  1.00  0.00    -0.313 OA
HETATM    9  C9  UNL     1      30.955 -25.328 -28.095  1.00  0.00     0.166 C 
HETATM   10  C10 UNL     1      29.891 -25.521 -29.088  1.00  0.00     0.142 C 
HETATM   11 CL1  UNL     1      30.080 -24.265 -30.364  1.00  0.00    -0.120 Cl
ENDROOT
BRANCH   1  12
HETATM   12  N1  UNL     1      30.584 -27.184 -30.768  1.00  0.00    -0.282 N 
ATOM     13  H1  UNL     1      31.599 -27.228 -30.676  1.00  0.00     0.189 HD
BRANCH  12  14
HETATM   14  O2  UNL     1      29.964 -27.414 -31.941  1.00  0.00    -0.204 OA
BRANCH  14  15
HETATM   15  C2  UNL     1      30.325 -26.688 -33.055  1.00  0.00     0.277 C 
HETATM   16  C1  UNL     1      29.607 -25.457 -33.500  1.00  0.00     0.128 C 
HETATM   17  O1  UNL     1      31.305 -27.063 -33.746  1.00  0.00    -0.264 OA
ENDBRANCH  14  15
ENDBRANCH  12  14
ENDBRANCH   1  12
TORSDOF 3
ENDMDL
MODEL 2
REMARK VINA RESULT: -5.902039000      2.608      4.915
REMARK  3 active torsions:
REMARK  status: ('A' for Active; 'I' for Inactive)
REMARK    1  A    between atoms: C2_2  and  O2_4 
REMARK    2  A    between atoms: O2_4  and  N1_5 
REMARK    3  A    between atoms: N1_5  and  C3_7 
ROOT
HETATM    1  C3  UNL     1      30.765 -27.220 -28.476  1.00  0.00     0.068 C 
HETATM    2  C4  UNL     1      32.165 -27.628 -27.997  1.00  0.00     0.042 C 
HETATM    3  C5  UNL     1      30.727 -27.500 -29.954  1.00  0.00     0.035 C 
HETATM    4  C6  UNL     1      29.385 -27.120 -30.471  1.00  0.00     0.020 C 
HETATM    5  C7  UNL     1      29.126 -25.681 -30.272  1.00  0.00     0.116 C 
HETATM    6  C8  UNL     1      29.973 -24.787 -31.068  1.00  0.00     0.266 C 
HETATM    7  O3  UNL     1      30.293 -24.742 -32.280  1.00  0.00    -0.265 OA
HETATM    8  O4  UNL     1      30.240 -24.061 -29.929  1.00  0.00    -0.313 OA
HETATM    9  C9  UNL     1      29.643 -25.045 -29.065  1.00  0.00     0.166 C 
HETATM   10  C10 UNL     1      30.607 -25.769 -28.227  1.00  0.00     0.142 C 
HETATM   11 CL1  UNL     1      30.225 -25.421 -26.502  1.00  0.00    -0.120 Cl
ENDROOT
BRANCH   1  12
HETATM   12  N1  UNL     1      29.828 -28.072 -27.827  1.00  0.00    -0.282 N 
ATOM     13  H1  UNL     1      29.779 -29.071 -28.025  1.00  0.00     0.189 HD
BRANCH  12  14
HETATM   14  O2  UNL     1      29.010 -27.481 -26.936  1.00  0.00    -0.204 OA
BRANCH  14  15
HETATM   15  C2  UNL     1      27.806 -28.072 -26.620  1.00  0.00     0.277 C 
HETATM   16  C1  UNL     1      27.229 -28.075 -25.243  1.00  0.00     0.128 C 
HETATM   17  O1  UNL     1      27.143 -28.643 -27.522  1.00  0.00    -0.264 OA
ENDBRANCH  14  15
ENDBRANCH  12  14
ENDBRANCH   1  12
TORSDOF 3
ENDMDL
MODEL 3
REMARK VINA RESULT: -5.899108413      2.875      5.048
REMARK  3 active torsions:
REMARK  status: ('A' for Active; 'I' for Inactive)
REMARK    1  A    between atoms: C2_2  and  O2_4 
REMARK    2  A    between atoms: O2_4  and  N1_5 
REMARK    3  A    between atoms: N1_5  and  C3_7 
ROOT
HETATM    1  C3  UNL     1      29.858 -27.255 -28.748  1.00  0.00     0.068 C 
HETATM    2  C4  UNL     1      30.848 -28.389 -28.452  1.00  0.00     0.042 C 
HETATM    3  C5  UNL     1      29.329 -27.509 -30.134  1.00  0.00     0.035 C 
HETATM    4  C6  UNL     1      28.360 -26.432 -30.473  1.00  0.00     0.020 C 
HETATM    5  C7  UNL     1      29.011 -25.108 -30.468  1.00  0.00     0.116 C 
HETATM    6  C8  UNL     1      30.003 -24.907 -31.529  1.00  0.00     0.266 C 
HETATM    7  O3  UNL     1      30.003 -25.098 -32.768  1.00  0.00    -0.265 OA
HETATM    8  O4  UNL     1      30.887 -24.437 -30.584  1.00  0.00    -0.313 OA
HETATM    9  C9  UNL     1      30.058 -24.856 -29.484  1.00  0.00     0.166 C 
HETATM   10  C10 UNL     1      30.608 -25.979 -28.714  1.00  0.00     0.142 C 
HETATM   11 CL1  UNL     1      30.899 -25.416 -27.029  1.00  0.00    -0.120 Cl
ENDROOT
BRANCH   1  12
HETATM   12  N1  UNL     1      28.784 -27.375 -27.822  1.00  0.00    -0.282 N 
ATOM     13  H1  UNL     1      28.527 -26.615 -27.193  1.00  0.00     0.189 HD
BRANCH  12  14
HETATM   14  O2  UNL     1      28.129 -28.550 -27.826  1.00  0.00    -0.204 OA
BRANCH  14  15
HETATM   15  C2  UNL     1      27.040 -28.726 -27.000  1.00  0.00     0.277 C 
HETATM   16  C1  UNL     1      27.034 -28.342 -25.557  1.00  0.00     0.128 C 
HETATM   17  O1  UNL     1      25.988 -29.233 -27.463  1.00  0.00    -0.264 OA
ENDBRANCH  14  15
ENDBRANCH  12  14
ENDBRANCH   1  12
TORSDOF 3
ENDMDL
MODEL 4
REMARK VINA RESULT: -5.732970007      2.560      4.871
REMARK  3 active torsions:
REMARK  status: ('A' for Active; 'I' for Inactive)
REMARK    1  A    between atoms: C2_2  and  O2_4 
REMARK    2  A    between atoms: O2_4  and  N1_5 
REMARK    3  A    between atoms: N1_5  and  C3_7 
ROOT
HETATM    1  C3  UNL     1      29.370 -26.475 -30.594  1.00  0.00     0.068 C 
HETATM    2  C4  UNL     1      28.055 -27.086 -30.090  1.00  0.00     0.042 C 
HETATM    3  C5  UNL     1      29.521 -25.156 -29.885  1.00  0.00     0.035 C 
HETATM    4  C6  UNL     1      30.786 -24.519 -30.340  1.00  0.00     0.020 C 
HETATM    5  C7  UNL     1      30.758 -24.257 -31.792  1.00  0.00     0.116 C 
HETATM    6  C8  UNL     1      29.789 -23.240 -32.215  1.00  0.00     0.266 C 
HETATM    7  O3  UNL     1      29.516 -22.081 -31.822  1.00  0.00    -0.265 OA
HETATM    8  O4  UNL     1      29.343 -24.103 -33.190  1.00  0.00    -0.313 OA
HETATM    9  C9  UNL     1      30.080 -25.218 -32.656  1.00  0.00     0.166 C 
HETATM   10  C10 UNL     1      29.238 -26.258 -32.053  1.00  0.00     0.142 C 
HETATM   11 CL1  UNL     1      29.476 -27.782 -32.982  1.00  0.00    -0.120 Cl
ENDROOT
BRANCH   1  12
HETATM   12  N1  UNL     1      30.425 -27.337 -30.182  1.00  0.00    -0.282 N 
ATOM     13  H1  UNL     1      31.233 -27.522 -30.775  1.00  0.00     0.189 HD
BRANCH  12  14
HETATM   14  O2  UNL     1      30.291 -27.893 -28.964  1.00  0.00    -0.204 OA
BRANCH  14  15
HETATM   15  C2  UNL     1      31.161 -27.541 -27.955  1.00  0.00     0.277 C 
HETATM   16  C1  UNL     1      30.721 -26.925 -26.669  1.00  0.00     0.128 C 
HETATM   17  O1  UNL     1      32.393 -27.740 -28.105  1.00  0.00    -0.264 OA
ENDBRANCH  14  15
ENDBRANCH  12  14
ENDBRANCH   1  12
TORSDOF 3
ENDMDL
MODEL 5
REMARK VINA RESULT: -5.424231857      2.371      5.116
REMARK  3 active torsions:
REMARK  status: ('A' for Active; 'I' for Inactive)
REMARK    1  A    between atoms: C2_2  and  O2_4 
REMARK    2  A    between atoms: O2_4  and  N1_5 
REMARK    3  A    between atoms: N1_5  and  C3_7 
ROOT
HETATM    1  C3  UNL     1      30.121 -27.119 -29.049  1.00  0.00     0.068 C 
HETATM    2  C4  UNL     1      31.354 -27.791 -28.430  1.00  0.00     0.042 C 
HETATM    3  C5  UNL     1      30.123 -27.495 -30.506  1.00  0.00     0.035 C 
HETATM    4  C6  UNL     1      28.942 -26.865 -31.157  1.00  0.00     0.020 C 
HETATM    5  C7  UNL     1      29.005 -25.394 -31.065  1.00  0.00     0.116 C 
HETATM    6  C8  UNL     1      30.087 -24.774 -31.836  1.00  0.00     0.266 C 
HETATM    7  O3  UNL     1      30.492 -24.893 -33.016  1.00  0.00    -0.265 OA
HETATM    8  O4  UNL     1      30.432 -24.042 -30.723  1.00  0.00    -0.313 OA
HETATM    9  C9  UNL     1      29.567 -24.799 -29.856  1.00  0.00     0.166 C 
HETATM   10  C10 UNL     1      30.280 -25.655 -28.899  1.00  0.00     0.142 C 
HETATM   11 CL1  UNL     1      29.868 -25.101 -27.236  1.00  0.00    -0.120 Cl
ENDROOT
BRANCH   1  12
HETATM   12  N1  UNL     1      28.971 -27.689 -28.434  1.00  0.00    -0.282 N 
ATOM     13  H1  UNL     1      28.181 -28.032 -28.980  1.00  0.00     0.189 HD
BRANCH  12  14
HETATM   14  O2  UNL     1      28.988 -27.748 -27.089  1.00  0.00    -0.204 OA
BRANCH  14  15
HETATM   15  C2  UNL     1      27.837 -28.078 -26.408  1.00  0.00     0.277 C 
HETATM   16  C1  UNL     1      26.704 -28.829 -27.024  1.00  0.00     0.128 C 
HETATM   17  O1  UNL     1      27.714 -27.740 -25.204  1.00  0.00    -0.264 OA
ENDBRANCH  14  15
ENDBRANCH  12  14
ENDBRANCH   1  12
TORSDOF 3
ENDMDL
