MODEL 1
REMARK VINA RESULT: -6.681934837      0.000      0.000
REMARK  4 active torsions:
REMARK  status: ('A' for Active; 'I' for Inactive)
REMARK    1  A    between atoms: C4_4  and  C5_5 
REMARK    2  A    between atoms: C5_5  and  N2_9 
REMARK    3  A    between atoms: N2_9  and  C6_11 
REMARK    4  A    between atoms: C9_16  and  N4_17 
ROOT
HETATM    1  C1  UNL     1      57.336 -11.283 -23.360  1.00  0.00     0.068 C 
HETATM    2  C2  UNL     1      57.548 -12.443 -24.260  1.00  0.00     0.025 A 
HETATM    3  C3  UNL     1      57.451 -12.311 -25.651  1.00  0.00     0.059 A 
HETATM    4  C4  UNL     1      57.643 -13.366 -26.495  1.00  0.00     0.096 A 
HETATM    5  N3  UNL     1      57.935 -14.556 -25.913  1.00  0.00    -0.188 N 
ATOM      6  H3  UNL     1      58.085 -15.363 -26.519  1.00  0.00     0.184 HD
HETATM    7  C9  UNL     1      58.039 -14.732 -24.590  1.00  0.00     0.680 A 
HETATM    8  N5  UNL     1      57.841 -13.667 -23.794  1.00  0.00    -0.196 N 
ATOM      9  H5  UNL     1      57.918 -13.796 -22.785  1.00  0.00     0.184 HD
ENDROOT
BRANCH   4  10
HETATM   10  C5  UNL     1      57.544 -13.184 -27.932  1.00  0.00     0.153 C 
HETATM   11  N1  UNL     1      56.601 -12.503 -28.478  1.00  0.00    -0.206 N 
HETATM   12  F1  UNL     1      55.643 -11.909 -27.783  1.00  0.00    -0.100 F 
ATOM     13  H1  UNL     1      56.591 -12.415 -29.494  1.00  0.00     0.201 HD
BRANCH  10  14
HETATM   14  N2  UNL     1      58.522 -13.777 -28.807  1.00  0.00    -0.369 N 
ATOM     15  H2  UNL     1      59.507 -13.792 -28.538  1.00  0.00     0.161 HD
BRANCH  14  16
HETATM   16  C6  UNL     1      58.107 -14.349 -30.061  1.00  0.00     0.075 C 
HETATM   17  C7  UNL     1      58.473 -13.413 -31.205  1.00  0.00     0.031 C 
HETATM   18  C8  UNL     1      56.619 -14.633 -30.086  1.00  0.00     0.031 C 
ENDBRANCH  14  16
ENDBRANCH  10  14
ENDBRANCH   4  10
BRANCH   7  19
HETATM   19  N4  UNL     1      58.348 -16.006 -24.011  1.00  0.00    -0.226 N 
HETATM   20  C10 UNL     1      58.347 -16.153 -22.570  1.00  0.00     0.168 C 
HETATM   21  C11 UNL     1      58.664 -17.158 -24.826  1.00  0.00     0.168 C 
ENDBRANCH   7  19
TORSDOF 4
ENDMDL
MODEL 2
REMARK VINA RESULT: -6.656181352      1.269      1.645
REMARK  4 active torsions:
REMARK  status: ('A' for Active; 'I' for Inactive)
REMARK    1  A    between atoms: C4_4  and  C5_5 
REMARK    2  A    between atoms: C5_5  and  N2_9 
REMARK    3  A    between atoms: N2_9  and  C6_11 
REMARK    4  A    between atoms: C9_16  and  N4_17 
ROOT
HETATM    1  C1  UNL     1      57.249 -11.477 -23.477  1.00  0.00     0.068 C 
HETATM    2  C2  UNL     1      57.540 -12.675 -24.303  1.00  0.00     0.025 A 
HETATM    3  C3  UNL     1      57.523 -12.617 -25.702  1.00  0.00     0.059 A 
HETATM    4  C4  UNL     1      57.788 -13.708 -26.477  1.00  0.00     0.096 A 
HETATM    5  N3  UNL     1      58.072 -14.859 -25.818  1.00  0.00    -0.188 N 
ATOM      6  H3  UNL     1      58.275 -15.691 -26.372  1.00  0.00     0.184 HD
HETATM    7  C9  UNL     1      58.101 -14.965 -24.484  1.00  0.00     0.680 A 
HETATM    8  N5  UNL     1      57.833 -13.866 -23.757  1.00  0.00    -0.196 N 
ATOM      9  H5  UNL     1      57.853 -13.942 -22.740  1.00  0.00     0.184 HD
ENDROOT
BRANCH   4  10
HETATM   10  C5  UNL     1      57.770 -13.601 -27.925  1.00  0.00     0.153 C 
HETATM   11  N1  UNL     1      58.259 -12.590 -28.549  1.00  0.00    -0.206 N 
HETATM   12  F1  UNL     1      58.820 -11.562 -27.931  1.00  0.00    -0.100 F 
ATOM     13  H1  UNL     1      58.213 -12.579 -29.567  1.00  0.00     0.201 HD
BRANCH  10  14
HETATM   14  N2  UNL     1      57.189 -14.651 -28.721  1.00  0.00    -0.369 N 
ATOM     15  H2  UNL     1      57.670 -15.546 -28.818  1.00  0.00     0.161 HD
BRANCH  14  16
HETATM   16  C6  UNL     1      55.928 -14.434 -29.382  1.00  0.00     0.075 C 
HETATM   17  C7  UNL     1      56.147 -14.275 -30.880  1.00  0.00     0.031 C 
HETATM   18  C8  UNL     1      55.209 -13.217 -28.835  1.00  0.00     0.031 C 
ENDBRANCH  14  16
ENDBRANCH  10  14
ENDBRANCH   4  10
BRANCH   7  19
HETATM   19  N4  UNL     1      58.404 -16.200 -23.823  1.00  0.00    -0.226 N 
HETATM   20  C10 UNL     1      58.642 -17.391 -24.612  1.00  0.00     0.168 C 
HETATM   21  C11 UNL     1      58.478 -16.296 -22.381  1.00  0.00     0.168 C 
ENDBRANCH   7  19
TORSDOF 4
ENDMDL
MODEL 3
REMARK VINA RESULT: -6.330862756      2.389      5.882
REMARK  4 active torsions:
REMARK  status: ('A' for Active; 'I' for Inactive)
REMARK    1  A    between atoms: C4_4  and  C5_5 
REMARK    2  A    between atoms: C5_5  and  N2_9 
REMARK    3  A    between atoms: N2_9  and  C6_11 
REMARK    4  A    between atoms: C9_16  and  N4_17 
ROOT
HETATM    1  C1  UNL     1      54.302 -14.114 -30.776  1.00  0.00     0.068 C 
HETATM    2  C2  UNL     1      55.668 -14.067 -30.199  1.00  0.00     0.025 A 
HETATM    3  C3  UNL     1      55.875 -13.806 -28.838  1.00  0.00     0.059 A 
HETATM    4  C4  UNL     1      57.124 -13.759 -28.291  1.00  0.00     0.096 A 
HETATM    5  N3  UNL     1      58.160 -13.979 -29.136  1.00  0.00    -0.188 N 
ATOM      6  H3  UNL     1      59.106 -13.951 -28.755  1.00  0.00     0.184 HD
HETATM    7  C9  UNL     1      58.014 -14.232 -30.443  1.00  0.00     0.680 A 
HETATM    8  N5  UNL     1      56.766 -14.269 -30.944  1.00  0.00    -0.196 N 
ATOM      9  H5  UNL     1      56.650 -14.460 -31.939  1.00  0.00     0.184 HD
ENDROOT
BRANCH   4  10
HETATM   10  C5  UNL     1      57.293 -13.497 -26.873  1.00  0.00     0.153 C 
HETATM   11  N1  UNL     1      58.020 -14.238 -26.116  1.00  0.00    -0.206 N 
HETATM   12  F1  UNL     1      58.675 -15.300 -26.558  1.00  0.00    -0.100 F 
ATOM     13  H1  UNL     1      58.096 -13.997 -25.128  1.00  0.00     0.201 HD
BRANCH  10  14
HETATM   14  N2  UNL     1      56.635 -12.371 -26.260  1.00  0.00    -0.369 N 
ATOM     15  H2  UNL     1      55.622 -12.273 -26.327  1.00  0.00     0.161 HD
BRANCH  14  16
HETATM   16  C6  UNL     1      57.412 -11.386 -25.554  1.00  0.00     0.075 C 
HETATM   17  C7  UNL     1      58.837 -11.364 -26.092  1.00  0.00     0.031 C 
HETATM   18  C8  UNL     1      57.431 -11.648 -24.061  1.00  0.00     0.031 C 
ENDBRANCH  14  16
ENDBRANCH  10  14
ENDBRANCH   4  10
BRANCH   7  19
HETATM   19  N4  UNL     1      59.135 -14.459 -31.307  1.00  0.00    -0.226 N 
HETATM   20  C10 UNL     1      59.412 -15.801 -31.777  1.00  0.00     0.168 C 
HETATM   21  C11 UNL     1      60.004 -13.382 -31.728  1.00  0.00     0.168 C 
ENDBRANCH   7  19
TORSDOF 4
ENDMDL
MODEL 4
REMARK VINA RESULT: -6.110940304      1.789      5.650
REMARK  4 active torsions:
REMARK  status: ('A' for Active; 'I' for Inactive)
REMARK    1  A    between atoms: C4_4  and  C5_5 
REMARK    2  A    between atoms: C5_5  and  N2_9 
REMARK    3  A    between atoms: N2_9  and  C6_11 
REMARK    4  A    between atoms: C9_16  and  N4_17 
ROOT
HETATM    1  C1  UNL     1      54.439 -13.070 -29.345  1.00  0.00     0.068 C 
HETATM    2  C2  UNL     1      55.892 -13.284 -29.134  1.00  0.00     0.025 A 
HETATM    3  C3  UNL     1      56.482 -13.088 -27.879  1.00  0.00     0.059 A 
HETATM    4  C4  UNL     1      57.815 -13.280 -27.666  1.00  0.00     0.096 A 
HETATM    5  N3  UNL     1      58.545 -13.673 -28.738  1.00  0.00    -0.188 N 
ATOM      6  H3  UNL     1      59.546 -13.826 -28.609  1.00  0.00     0.184 HD
HETATM    7  C9  UNL     1      58.028 -13.874 -29.957  1.00  0.00     0.680 A 
HETATM    8  N5  UNL     1      56.709 -13.673 -30.125  1.00  0.00    -0.196 N 
ATOM      9  H5  UNL     1      56.311 -13.824 -31.052  1.00  0.00     0.184 HD
ENDROOT
BRANCH   4  10
HETATM   10  C5  UNL     1      58.385 -13.075 -26.346  1.00  0.00     0.153 C 
HETATM   11  N1  UNL     1      58.907 -11.958 -25.985  1.00  0.00    -0.206 N 
HETATM   12  F1  UNL     1      58.972 -10.901 -26.779  1.00  0.00    -0.100 F 
ATOM     13  H1  UNL     1      59.290 -11.883 -25.043  1.00  0.00     0.201 HD
BRANCH  10  14
HETATM   14  N2  UNL     1      58.380 -14.145 -25.381  1.00  0.00    -0.369 N 
ATOM     15  H2  UNL     1      58.668 -15.084 -25.657  1.00  0.00     0.161 HD
BRANCH  14  16
HETATM   16  C6  UNL     1      57.968 -13.884 -24.026  1.00  0.00     0.075 C 
HETATM   17  C7  UNL     1      57.828 -15.195 -23.264  1.00  0.00     0.031 C 
HETATM   18  C8  UNL     1      56.661 -13.118 -23.973  1.00  0.00     0.031 C 
ENDBRANCH  14  16
ENDBRANCH  10  14
ENDBRANCH   4  10
BRANCH   7  19
HETATM   19  N4  UNL     1      58.832 -14.289 -31.069  1.00  0.00    -0.226 N 
HETATM   20  C10 UNL     1      58.762 -15.663 -31.525  1.00  0.00     0.168 C 
HETATM   21  C11 UNL     1      59.718 -13.374 -31.754  1.00  0.00     0.168 C 
ENDBRANCH   7  19
TORSDOF 4
ENDMDL
MODEL 5
REMARK VINA RESULT: -5.993780878      1.557      2.040
REMARK  4 active torsions:
REMARK  status: ('A' for Active; 'I' for Inactive)
REMARK    1  A    between atoms: C4_4  and  C5_5 
REMARK    2  A    between atoms: C5_5  and  N2_9 
REMARK    3  A    between atoms: N2_9  and  C6_11 
REMARK    4  A    between atoms: C9_16  and  N4_17 
ROOT
HETATM    1  C1  UNL     1      57.305 -11.600 -23.650  1.00  0.00     0.068 C 
HETATM    2  C2  UNL     1      57.639 -12.868 -24.344  1.00  0.00     0.025 A 
HETATM    3  C3  UNL     1      57.750 -12.927 -25.740  1.00  0.00     0.059 A 
HETATM    4  C4  UNL     1      58.056 -14.083 -26.395  1.00  0.00     0.096 A 
HETATM    5  N3  UNL     1      58.250 -15.180 -25.621  1.00  0.00    -0.188 N 
ATOM      6  H3  UNL     1      58.482 -16.059 -26.084  1.00  0.00     0.184 HD
HETATM    7  C9  UNL     1      58.156 -15.174 -24.286  1.00  0.00     0.680 A 
HETATM    8  N5  UNL     1      57.851 -14.014 -23.679  1.00  0.00    -0.196 N 
ATOM      9  H5  UNL     1      57.777 -14.005 -22.661  1.00  0.00     0.184 HD
ENDROOT
BRANCH   4  10
HETATM   10  C5  UNL     1      58.172 -14.098 -27.842  1.00  0.00     0.153 C 
HETATM   11  N1  UNL     1      58.152 -15.186 -28.525  1.00  0.00    -0.206 N 
HETATM   12  F1  UNL     1      58.025 -16.383 -27.974  1.00  0.00    -0.100 F 
ATOM     13  H1  UNL     1      58.238 -15.125 -29.539  1.00  0.00     0.201 HD
BRANCH  10  14
HETATM   14  N2  UNL     1      58.315 -12.864 -28.571  1.00  0.00    -0.369 N 
ATOM     15  H2  UNL     1      59.008 -12.174 -28.278  1.00  0.00     0.161 HD
BRANCH  14  16
HETATM   16  C6  UNL     1      57.478 -12.606 -29.713  1.00  0.00     0.075 C 
HETATM   17  C7  UNL     1      56.051 -13.052 -29.423  1.00  0.00     0.031 C 
HETATM   18  C8  UNL     1      57.991 -13.304 -30.957  1.00  0.00     0.031 C 
ENDBRANCH  14  16
ENDBRANCH  10  14
ENDBRANCH   4  10
BRANCH   7  19
HETATM   19  N4  UNL     1      58.367 -16.355 -23.501  1.00  0.00    -0.226 N 
HETATM   20  C10 UNL     1      58.407 -17.648 -24.154  1.00  0.00     0.168 C 
HETATM   21  C11 UNL     1      58.541 -16.296 -22.066  1.00  0.00     0.168 C 
ENDBRANCH   7  19
TORSDOF 4
ENDMDL
