MODEL 1
REMARK VINA RESULT: -5.622599413      0.000      0.000
REMARK  4 active torsions:
REMARK  status: ('A' for Active; 'I' for Inactive)
REMARK    1  A    between atoms: N1_2  and  N2_4 
REMARK       I    between atoms: N2_4  and  C3_6 
REMARK    2  A    between atoms: C3_6  and  C4_8 
REMARK    3  A    between atoms: C5_11  and  C6_12 
REMARK    4  A    between atoms: C6_12  and  C7_13 
ROOT
HETATM    1  C4  UNL     1      58.304 -15.162 -24.577  1.00  0.00     0.161 A 
HETATM    2  N3  UNL     1      58.571 -14.742 -25.796  1.00  0.00    -0.334 N 
ATOM      3  H3  UNL     1      58.979 -15.370 -26.488  1.00  0.00     0.168 HD
HETATM    4  C5  UNL     1      58.298 -13.491 -26.099  1.00  0.00     0.089 A 
HETATM    5  N4  UNL     1      57.765 -12.728 -25.145  1.00  0.00    -0.314 N 
ATOM      6  H4  UNL     1      57.490 -11.747 -25.195  1.00  0.00     0.175 HD
HETATM    7  S1  UNL     1      57.656 -13.781 -23.836  1.00  0.00     0.011 SA
ENDROOT
BRANCH   1   8
HETATM    8  C3  UNL     1      58.511 -16.500 -23.989  1.00  0.00     0.291 C 
HETATM    9  N2  UNL     1      57.567 -17.042 -23.079  1.00  0.00    -0.284 N 
ATOM     10  H2  UNL     1      56.751 -16.473 -22.854  1.00  0.00     0.184 HD
HETATM   11  O1  UNL     1      59.522 -17.139 -24.306  1.00  0.00    -0.264 OA
BRANCH   9  12
HETATM   12  N1  UNL     1      57.665 -18.288 -22.469  1.00  0.00    -0.237 NA
HETATM   13  C1  UNL     1      58.346 -18.117 -21.203  1.00  0.00     0.135 C 
HETATM   14  C2  UNL     1      56.404 -18.929 -22.245  1.00  0.00     0.135 C 
ENDBRANCH   9  12
ENDBRANCH   1   8
BRANCH   4  15
HETATM   15  C6  UNL     1      58.598 -12.984 -27.507  1.00  0.00     0.085 C 
BRANCH  15  16
HETATM   16  C7  UNL     1      57.539 -13.443 -28.438  1.00  0.00    -0.045 C 
HETATM   17  C8  UNL     1      57.834 -12.786 -29.791  1.00  0.00     0.015 C 
HETATM   18  C9  UNL     1      56.150 -13.011 -28.033  1.00  0.00     0.015 C 
HETATM   19  C10 UNL     1      57.565 -14.935 -28.682  1.00  0.00     0.015 C 
ENDBRANCH  15  16
ENDBRANCH   4  15
TORSDOF 4
ENDMDL
MODEL 2
REMARK VINA RESULT: -5.452036600      2.203      2.958
REMARK  4 active torsions:
REMARK  status: ('A' for Active; 'I' for Inactive)
REMARK    1  A    between atoms: N1_2  and  N2_4 
REMARK       I    between atoms: N2_4  and  C3_6 
REMARK    2  A    between atoms: C3_6  and  C4_8 
REMARK    3  A    between atoms: C5_11  and  C6_12 
REMARK    4  A    between atoms: C6_12  and  C7_13 
ROOT
HETATM    1  C4  UNL     1      57.854 -16.551 -23.208  1.00  0.00     0.161 A 
HETATM    2  N3  UNL     1      57.623 -15.256 -23.175  1.00  0.00    -0.334 N 
ATOM      3  H3  UNL     1      57.147 -14.829 -22.380  1.00  0.00     0.168 HD
HETATM    4  C5  UNL     1      58.022 -14.524 -24.193  1.00  0.00     0.089 A 
HETATM    5  N4  UNL     1      58.639 -15.149 -25.196  1.00  0.00    -0.314 N 
ATOM      6  H4  UNL     1      59.013 -14.751 -26.058  1.00  0.00     0.175 HD
HETATM    7  S1  UNL     1      58.647 -16.754 -24.693  1.00  0.00     0.011 SA
ENDROOT
BRANCH   1   8
HETATM    8  C3  UNL     1      57.514 -17.581 -22.207  1.00  0.00     0.291 C 
HETATM    9  N2  UNL     1      57.240 -18.915 -22.609  1.00  0.00    -0.284 N 
ATOM     10  H2  UNL     1      57.290 -19.124 -23.606  1.00  0.00     0.184 HD
HETATM   11  O1  UNL     1      57.473 -17.260 -21.013  1.00  0.00    -0.264 OA
BRANCH   9  12
HETATM   12  N1  UNL     1      56.910 -19.958 -21.752  1.00  0.00    -0.237 NA
HETATM   13  C1  UNL     1      55.520 -20.298 -21.969  1.00  0.00     0.135 C 
HETATM   14  C2  UNL     1      57.715 -21.131 -21.922  1.00  0.00     0.135 C 
ENDBRANCH   9  12
ENDBRANCH   1   8
BRANCH   4  15
HETATM   15  C6  UNL     1      57.765 -13.019 -24.174  1.00  0.00     0.085 C 
BRANCH  15  16
HETATM   16  C7  UNL     1      57.659 -12.515 -25.565  1.00  0.00    -0.045 C 
HETATM   17  C8  UNL     1      57.503 -10.994 -25.466  1.00  0.00     0.015 C 
HETATM   18  C9  UNL     1      56.449 -13.034 -26.304  1.00  0.00     0.015 C 
HETATM   19  C10 UNL     1      58.907 -12.756 -26.384  1.00  0.00     0.015 C 
ENDBRANCH  15  16
ENDBRANCH   4  15
TORSDOF 4
ENDMDL
MODEL 3
REMARK VINA RESULT: -5.424719741      2.105      2.778
REMARK  4 active torsions:
REMARK  status: ('A' for Active; 'I' for Inactive)
REMARK    1  A    between atoms: N1_2  and  N2_4 
REMARK       I    between atoms: N2_4  and  C3_6 
REMARK    2  A    between atoms: C3_6  and  C4_8 
REMARK    3  A    between atoms: C5_11  and  C6_12 
REMARK    4  A    between atoms: C6_12  and  C7_13 
ROOT
HETATM    1  C4  UNL     1      57.815 -13.370 -25.598  1.00  0.00     0.161 A 
HETATM    2  N3  UNL     1      56.927 -13.493 -26.562  1.00  0.00    -0.334 N 
ATOM      3  H3  UNL     1      56.080 -14.045 -26.426  1.00  0.00     0.168 HD
HETATM    4  C5  UNL     1      57.159 -12.885 -27.705  1.00  0.00     0.089 A 
HETATM    5  N4  UNL     1      58.286 -12.180 -27.811  1.00  0.00    -0.314 N 
ATOM      6  H4  UNL     1      58.630 -11.649 -28.610  1.00  0.00     0.175 HD
HETATM    7  S1  UNL     1      59.001 -12.384 -26.302  1.00  0.00     0.011 SA
ENDROOT
BRANCH   1   8
HETATM    8  C3  UNL     1      57.794 -13.943 -24.238  1.00  0.00     0.291 C 
HETATM    9  N2  UNL     1      58.070 -15.320 -24.030  1.00  0.00    -0.284 N 
ATOM     10  H2  UNL     1      58.281 -15.885 -24.853  1.00  0.00     0.184 HD
HETATM   11  O1  UNL     1      57.532 -13.201 -23.283  1.00  0.00    -0.264 OA
BRANCH   9  12
HETATM   12  N1  UNL     1      58.077 -15.959 -22.796  1.00  0.00    -0.237 NA
HETATM   13  C1  UNL     1      56.966 -16.886 -22.762  1.00  0.00     0.135 C 
HETATM   14  C2  UNL     1      59.290 -16.664 -22.510  1.00  0.00     0.135 C 
ENDBRANCH   9  12
ENDBRANCH   1   8
BRANCH   4  15
HETATM   15  C6  UNL     1      56.141 -13.013 -28.836  1.00  0.00     0.085 C 
BRANCH  15  16
HETATM   16  C7  UNL     1      56.619 -14.010 -29.825  1.00  0.00    -0.045 C 
HETATM   17  C8  UNL     1      55.371 -14.569 -30.516  1.00  0.00     0.015 C 
HETATM   18  C9  UNL     1      57.337 -15.182 -29.201  1.00  0.00     0.015 C 
HETATM   19  C10 UNL     1      57.469 -13.406 -30.919  1.00  0.00     0.015 C 
ENDBRANCH  15  16
ENDBRANCH   4  15
TORSDOF 4
ENDMDL
MODEL 4
REMARK VINA RESULT: -5.375378026      1.981      2.423
REMARK  4 active torsions:
REMARK  status: ('A' for Active; 'I' for Inactive)
REMARK    1  A    between atoms: N1_2  and  N2_4 
REMARK       I    between atoms: N2_4  and  C3_6 
REMARK    2  A    between atoms: C3_6  and  C4_8 
REMARK    3  A    between atoms: C5_11  and  C6_12 
REMARK    4  A    between atoms: C6_12  and  C7_13 
ROOT
HETATM    1  C4  UNL     1      58.207 -14.070 -25.689  1.00  0.00     0.161 A 
HETATM    2  N3  UNL     1      57.776 -14.689 -26.768  1.00  0.00    -0.334 N 
ATOM      3  H3  UNL     1      57.240 -15.554 -26.696  1.00  0.00     0.168 HD
HETATM    4  C5  UNL     1      58.053 -14.164 -27.942  1.00  0.00     0.089 A 
HETATM    5  N4  UNL     1      58.758 -13.032 -27.960  1.00  0.00    -0.314 N 
ATOM      6  H4  UNL     1      59.063 -12.487 -28.766  1.00  0.00     0.175 HD
HETATM    7  S1  UNL     1      59.018 -12.723 -26.327  1.00  0.00     0.011 SA
ENDROOT
BRANCH   1   8
HETATM    8  C3  UNL     1      58.034 -14.443 -24.272  1.00  0.00     0.291 C 
HETATM    9  N2  UNL     1      58.295 -15.769 -23.838  1.00  0.00    -0.284 N 
ATOM     10  H2  UNL     1      58.605 -16.440 -24.541  1.00  0.00     0.184 HD
HETATM   11  O1  UNL     1      57.656 -13.579 -23.471  1.00  0.00    -0.264 OA
BRANCH   9  12
HETATM   12  N1  UNL     1      58.164 -16.225 -22.531  1.00  0.00    -0.237 NA
HETATM   13  C1  UNL     1      57.020 -17.111 -22.476  1.00  0.00     0.135 C 
HETATM   14  C2  UNL     1      59.318 -16.912 -22.034  1.00  0.00     0.135 C 
ENDBRANCH   9  12
ENDBRANCH   1   8
BRANCH   4  15
HETATM   15  C6  UNL     1      57.562 -14.865 -29.206  1.00  0.00     0.085 C 
BRANCH  15  16
HETATM   16  C7  UNL     1      56.656 -13.961 -29.956  1.00  0.00    -0.045 C 
HETATM   17  C8  UNL     1      57.499 -13.325 -31.066  1.00  0.00     0.015 C 
HETATM   18  C9  UNL     1      56.104 -12.831 -29.121  1.00  0.00     0.015 C 
HETATM   19  C10 UNL     1      55.528 -14.689 -30.651  1.00  0.00     0.015 C 
ENDBRANCH  15  16
ENDBRANCH   4  15
TORSDOF 4
ENDMDL
MODEL 5
REMARK VINA RESULT: -5.336755242      4.612      7.021
REMARK  4 active torsions:
REMARK  status: ('A' for Active; 'I' for Inactive)
REMARK    1  A    between atoms: N1_2  and  N2_4 
REMARK       I    between atoms: N2_4  and  C3_6 
REMARK    2  A    between atoms: C3_6  and  C4_8 
REMARK    3  A    between atoms: C5_11  and  C6_12 
REMARK    4  A    between atoms: C6_12  and  C7_13 
ROOT
HETATM    1  C4  UNL     1      57.233 -13.411 -29.778  1.00  0.00     0.161 A 
HETATM    2  N3  UNL     1      57.356 -12.621 -28.733  1.00  0.00    -0.334 N 
ATOM      3  H3  UNL     1      58.079 -11.902 -28.702  1.00  0.00     0.168 HD
HETATM    4  C5  UNL     1      56.522 -12.780 -27.728  1.00  0.00     0.089 A 
HETATM    5  N4  UNL     1      55.601 -13.739 -27.838  1.00  0.00    -0.314 N 
ATOM      6  H4  UNL     1      54.879 -14.006 -27.169  1.00  0.00     0.175 HD
HETATM    7  S1  UNL     1      55.923 -14.400 -29.351  1.00  0.00     0.011 SA
ENDROOT
BRANCH   1   8
HETATM    8  C3  UNL     1      58.030 -13.439 -31.020  1.00  0.00     0.291 C 
HETATM    9  N2  UNL     1      59.334 -14.001 -31.029  1.00  0.00    -0.284 N 
ATOM     10  H2  UNL     1      59.688 -14.379 -30.150  1.00  0.00     0.184 HD
HETATM   11  O1  UNL     1      57.541 -12.965 -32.053  1.00  0.00    -0.264 OA
BRANCH   9  12
HETATM   12  N1  UNL     1      60.166 -14.078 -32.139  1.00  0.00    -0.237 NA
HETATM   13  C1  UNL     1      61.120 -12.991 -32.063  1.00  0.00     0.135 C 
HETATM   14  C2  UNL     1      60.873 -15.318 -32.255  1.00  0.00     0.135 C 
ENDBRANCH   9  12
ENDBRANCH   1   8
BRANCH   4  15
HETATM   15  C6  UNL     1      56.645 -11.874 -26.506  1.00  0.00     0.085 C 
BRANCH  15  16
HETATM   16  C7  UNL     1      57.856 -12.242 -25.733  1.00  0.00    -0.045 C 
HETATM   17  C8  UNL     1      57.575 -11.860 -24.277  1.00  0.00     0.015 C 
HETATM   18  C9  UNL     1      59.094 -11.487 -26.155  1.00  0.00     0.015 C 
HETATM   19  C10 UNL     1      58.133 -13.728 -25.732  1.00  0.00     0.015 C 
ENDBRANCH  15  16
ENDBRANCH   4  15
TORSDOF 4
ENDMDL
