MODEL 1
REMARK VINA RESULT: -4.001611444      0.000      0.000
REMARK  2 active torsions:
REMARK  status: ('A' for Active; 'I' for Inactive)
REMARK    1  A    between atoms: N1_2  and  C3_4 
REMARK    2  A    between atoms: S1_7  and  N3_8 
ROOT
HETATM    1  C3  UNL     1       3.159  20.857  14.307  1.00  0.00     0.106 C 
HETATM    2  N2  UNL     1       1.943  20.599  14.305  1.00  0.00    -0.308 N 
ATOM      3  H2  UNL     1       1.437  19.720  14.195  1.00  0.00     0.176 HD
HETATM    4  S1  UNL     1       1.207  22.761  14.630  1.00  0.00    -0.005 SA
HETATM    5  C4  UNL     1       2.986  23.298  14.018  1.00  0.00     0.051 C 
HETATM    6  C5  UNL     1       3.489  24.514  14.769  1.00  0.00     0.034 C 
HETATM    7  C6  UNL     1       3.075  23.566  12.553  1.00  0.00     0.034 C 
HETATM    8  C7  UNL     1       3.788  22.115  14.483  1.00  0.00     0.044 C 
ENDROOT
BRANCH   1   9
HETATM    9  N1  UNL     1       3.991  19.650  14.112  1.00  0.00    -0.376 N 
HETATM   10  C1  UNL     1       5.362  19.595  14.497  1.00  0.00     0.150 C 
HETATM   11  C2  UNL     1       3.366  18.517  13.515  1.00  0.00     0.150 C 
ENDBRANCH   1   9
BRANCH   4  12
HETATM   12  N3  UNL     1       0.707  22.913  16.425  1.00  0.00    -0.264 N 
HETATM   13 CL1  UNL     1       2.021  23.017  17.542  1.00  0.00     0.018 Cl
ATOM     14  H3  UNL     1      -0.269  22.934  16.723  1.00  0.00     0.189 HD
ENDBRANCH   4  12
TORSDOF 2
ENDMDL
MODEL 2
REMARK VINA RESULT: -3.742842158      3.411      5.201
REMARK  2 active torsions:
REMARK  status: ('A' for Active; 'I' for Inactive)
REMARK    1  A    between atoms: N1_2  and  C3_4 
REMARK    2  A    between atoms: S1_7  and  N3_8 
ROOT
HETATM    1  C3  UNL     1       2.978  20.173  14.119  1.00  0.00     0.106 C 
HETATM    2  N2  UNL     1       1.968  19.533  14.457  1.00  0.00    -0.308 N 
ATOM      3  H2  UNL     1       1.041  19.838  14.754  1.00  0.00     0.176 HD
HETATM    4  S1  UNL     1       2.878  17.430  14.192  1.00  0.00    -0.005 SA
HETATM    5  C4  UNL     1       4.611  18.334  14.279  1.00  0.00     0.051 C 
HETATM    6  C5  UNL     1       5.617  17.697  13.342  1.00  0.00     0.034 C 
HETATM    7  C6  UNL     1       5.201  18.400  15.648  1.00  0.00     0.034 C 
HETATM    8  C7  UNL     1       4.235  19.669  13.700  1.00  0.00     0.044 C 
ENDROOT
BRANCH   1   9
HETATM    9  N1  UNL     1       2.761  21.635  14.169  1.00  0.00    -0.376 N 
HETATM   10  C1  UNL     1       3.828  22.561  14.352  1.00  0.00     0.150 C 
HETATM   11  C2  UNL     1       1.422  22.100  14.025  1.00  0.00     0.150 C 
ENDBRANCH   1   9
BRANCH   4  12
HETATM   12  N3  UNL     1       2.219  16.737  12.585  1.00  0.00    -0.264 N 
HETATM   13 CL1  UNL     1       0.675  15.972  12.700  1.00  0.00     0.018 Cl
ATOM     14  H3  UNL     1       2.733  16.806  11.706  1.00  0.00     0.189 HD
ENDBRANCH   4  12
TORSDOF 2
ENDMDL
MODEL 3
REMARK VINA RESULT: -3.539429070      2.793      3.193
REMARK  2 active torsions:
REMARK  status: ('A' for Active; 'I' for Inactive)
REMARK    1  A    between atoms: N1_2  and  C3_4 
REMARK    2  A    between atoms: S1_7  and  N3_8 
ROOT
HETATM    1  C3  UNL     1       3.411  20.234  14.399  1.00  0.00     0.106 C 
HETATM    2  N2  UNL     1       4.427  20.813  14.819  1.00  0.00    -0.308 N 
ATOM      3  H2  UNL     1       5.334  20.457  15.121  1.00  0.00     0.176 HD
HETATM    4  S1  UNL     1       3.588  22.958  14.691  1.00  0.00    -0.005 SA
HETATM    5  C4  UNL     1       1.828  22.105  14.649  1.00  0.00     0.051 C 
HETATM    6  C5  UNL     1       0.874  22.844  13.734  1.00  0.00     0.034 C 
HETATM    7  C6  UNL     1       1.189  21.952  15.989  1.00  0.00     0.034 C 
HETATM    8  C7  UNL     1       2.185  20.808  13.980  1.00  0.00     0.044 C 
ENDROOT
BRANCH   1   9
HETATM    9  N1  UNL     1       3.584  18.766  14.341  1.00  0.00    -0.376 N 
HETATM   10  C1  UNL     1       2.480  17.866  14.330  1.00  0.00     0.150 C 
HETATM   11  C2  UNL     1       4.918  18.268  14.295  1.00  0.00     0.150 C 
ENDBRANCH   1   9
BRANCH   4  12
HETATM   12  N3  UNL     1       4.323  23.752  13.165  1.00  0.00    -0.264 N 
HETATM   13 CL1  UNL     1       3.169  24.346  12.025  1.00  0.00     0.018 Cl
ATOM     14  H3  UNL     1       5.330  23.828  13.017  1.00  0.00     0.189 HD
ENDBRANCH   4  12
TORSDOF 2
ENDMDL
MODEL 4
REMARK VINA RESULT: -3.523872060      2.800      3.054
REMARK  2 active torsions:
REMARK  status: ('A' for Active; 'I' for Inactive)
REMARK    1  A    between atoms: N1_2  and  C3_4 
REMARK    2  A    between atoms: S1_7  and  N3_8 
ROOT
HETATM    1  C3  UNL     1       3.443  20.241  14.370  1.00  0.00     0.106 C 
HETATM    2  N2  UNL     1       4.452  20.822  14.804  1.00  0.00    -0.308 N 
ATOM      3  H2  UNL     1       5.361  20.469  15.105  1.00  0.00     0.176 HD
HETATM    4  S1  UNL     1       3.595  22.961  14.708  1.00  0.00    -0.005 SA
HETATM    5  C4  UNL     1       1.843  22.093  14.644  1.00  0.00     0.051 C 
HETATM    6  C5  UNL     1       0.886  22.839  13.737  1.00  0.00     0.034 C 
HETATM    7  C6  UNL     1       1.199  21.913  15.979  1.00  0.00     0.034 C 
HETATM    8  C7  UNL     1       2.213  20.811  13.955  1.00  0.00     0.044 C 
ENDROOT
BRANCH   1   9
HETATM    9  N1  UNL     1       3.629  18.776  14.289  1.00  0.00    -0.376 N 
HETATM   10  C1  UNL     1       4.910  18.175  14.117  1.00  0.00     0.150 C 
HETATM   11  C2  UNL     1       2.463  17.964  14.389  1.00  0.00     0.150 C 
ENDBRANCH   1   9
BRANCH   4  12
HETATM   12  N3  UNL     1       4.329  23.787  13.199  1.00  0.00    -0.264 N 
HETATM   13 CL1  UNL     1       3.177  24.333  12.033  1.00  0.00     0.018 Cl
ATOM     14  H3  UNL     1       5.334  23.905  13.073  1.00  0.00     0.189 HD
ENDBRANCH   4  12
TORSDOF 2
ENDMDL
MODEL 5
REMARK VINA RESULT: -3.283790110      3.307      5.480
REMARK  2 active torsions:
REMARK  status: ('A' for Active; 'I' for Inactive)
REMARK    1  A    between atoms: N1_2  and  C3_4 
REMARK    2  A    between atoms: S1_7  and  N3_8 
ROOT
HETATM    1  C3  UNL     1       3.378  19.782  14.081  1.00  0.00     0.106 C 
HETATM    2  N2  UNL     1       4.515  19.718  13.586  1.00  0.00    -0.308 N 
ATOM      3  H2  UNL     1       5.161  20.444  13.276  1.00  0.00     0.176 HD
HETATM    4  S1  UNL     1       4.688  17.417  13.601  1.00  0.00    -0.005 SA
HETATM    5  C4  UNL     1       2.738  17.424  13.764  1.00  0.00     0.051 C 
HETATM    6  C5  UNL     1       2.252  16.305  14.662  1.00  0.00     0.034 C 
HETATM    7  C6  UNL     1       2.014  17.345  12.462  1.00  0.00     0.034 C 
HETATM    8  C7  UNL     1       2.544  18.716  14.505  1.00  0.00     0.044 C 
ENDROOT
BRANCH   1   9
HETATM    9  N1  UNL     1       2.907  21.176  14.231  1.00  0.00    -0.376 N 
HETATM   10  C1  UNL     1       1.547  21.551  14.029  1.00  0.00     0.150 C 
HETATM   11  C2  UNL     1       3.876  22.156  14.592  1.00  0.00     0.150 C 
ENDBRANCH   1   9
BRANCH   4  12
HETATM   12  N3  UNL     1       5.785  16.952  15.042  1.00  0.00    -0.264 N 
HETATM   13 CL1  UNL     1       6.985  18.124  15.453  1.00  0.00     0.018 Cl
ATOM     14  H3  UNL     1       5.683  16.071  15.547  1.00  0.00     0.189 HD
ENDBRANCH   4  12
TORSDOF 2
ENDMDL
