MODEL 1
REMARK VINA RESULT: -4.402358909      0.000      0.000
REMARK  2 active torsions:
REMARK  status: ('A' for Active; 'I' for Inactive)
REMARK    1  A    between atoms: N2_8  and  C4_9 
REMARK    2  A    between atoms: C4_9  and  C5_10 
ROOT
HETATM    1  N1  UNL     1       5.399  16.378  13.548  1.00  0.00    -0.388 N 
ATOM      2  H11 UNL     1       6.414  16.456  13.488  1.00  0.00     0.157 HD
ATOM      3  H12 UNL     1       4.716  15.711  13.188  1.00  0.00     0.157 HD
HETATM    4  C1  UNL     1       4.869  17.313  14.210  1.00  0.00     0.101 C 
HETATM    5  S1  UNL     1       3.110  17.178  14.314  1.00  0.00    -0.104 SA
HETATM    6  C2  UNL     1       2.402  18.437  13.215  1.00  0.00     0.100 C 
HETATM    7  C3  UNL     1       2.032  19.692  13.969  1.00  0.00     0.127 C 
HETATM    8  N2  UNL     1       3.101  20.636  14.040  1.00  0.00    -0.409 N 
HETATM    9  C6  UNL     1       4.082  20.397  15.046  1.00  0.00     0.127 C 
HETATM   10  C7  UNL     1       5.470  20.147  14.456  1.00  0.00     0.100 C 
HETATM   11  S2  UNL     1       6.051  18.469  14.832  1.00  0.00    -0.104 SA
ENDROOT
BRANCH   8  12
HETATM   12  C4  UNL     1       2.731  22.001  13.856  1.00  0.00     0.148 C 
BRANCH  12  13
HETATM   13  C5  UNL     1       1.266  22.289  13.955  1.00  0.00     0.241 C 
HETATM   14  F1  UNL     1       1.006  22.567  15.306  1.00  0.00    -0.254 F 
ENDBRANCH  12  13
ENDBRANCH   8  12
TORSDOF 2
ENDMDL
MODEL 2
REMARK VINA RESULT: -4.156548708      1.086      1.191
REMARK  2 active torsions:
REMARK  status: ('A' for Active; 'I' for Inactive)
REMARK    1  A    between atoms: N2_8  and  C4_9 
REMARK    2  A    between atoms: C4_9  and  C5_10 
ROOT
HETATM    1  N1  UNL     1       5.399  16.390  13.557  1.00  0.00    -0.388 N 
ATOM      2  H11 UNL     1       6.415  16.457  13.505  1.00  0.00     0.157 HD
ATOM      3  H12 UNL     1       4.711  15.730  13.192  1.00  0.00     0.157 HD
HETATM    4  C1  UNL     1       4.874  17.329  14.217  1.00  0.00     0.101 C 
HETATM    5  S1  UNL     1       3.113  17.213  14.309  1.00  0.00    -0.104 SA
HETATM    6  C2  UNL     1       2.426  18.481  13.206  1.00  0.00     0.100 C 
HETATM    7  C3  UNL     1       2.064  19.739  13.960  1.00  0.00     0.127 C 
HETATM    8  N2  UNL     1       3.142  20.672  14.039  1.00  0.00    -0.409 N 
HETATM    9  C6  UNL     1       4.114  20.421  15.052  1.00  0.00     0.127 C 
HETATM   10  C7  UNL     1       5.503  20.157  14.471  1.00  0.00     0.100 C 
HETATM   11  S2  UNL     1       6.064  18.472  14.849  1.00  0.00    -0.104 SA
ENDROOT
BRANCH   8  12
HETATM   12  C4  UNL     1       2.788  22.040  13.854  1.00  0.00     0.148 C 
BRANCH  12  13
HETATM   13  C5  UNL     1       3.218  22.970  14.945  1.00  0.00     0.241 C 
HETATM   14  F1  UNL     1       3.970  23.983  14.331  1.00  0.00    -0.254 F 
ENDBRANCH  12  13
ENDBRANCH   8  12
TORSDOF 2
ENDMDL
MODEL 3
REMARK VINA RESULT: -3.571429931      0.977      2.406
REMARK  2 active torsions:
REMARK  status: ('A' for Active; 'I' for Inactive)
REMARK    1  A    between atoms: N2_8  and  C4_9 
REMARK    2  A    between atoms: C4_9  and  C5_10 
ROOT
HETATM    1  N1  UNL     1       5.538  16.377  15.045  1.00  0.00    -0.388 N 
ATOM      2  H11 UNL     1       5.021  15.550  15.339  1.00  0.00     0.157 HD
ATOM      3  H12 UNL     1       6.486  16.717  15.207  1.00  0.00     0.157 HD
HETATM    4  C1  UNL     1       4.856  17.155  14.321  1.00  0.00     0.101 C 
HETATM    5  S1  UNL     1       5.753  18.590  13.810  1.00  0.00    -0.104 SA
HETATM    6  C2  UNL     1       5.125  19.995  14.773  1.00  0.00     0.100 C 
HETATM    7  C3  UNL     1       4.076  20.770  14.011  1.00  0.00     0.127 C 
HETATM    8  N2  UNL     1       2.752  20.280  14.230  1.00  0.00    -0.409 N 
HETATM    9  C6  UNL     1       2.373  19.138  13.466  1.00  0.00     0.127 C 
HETATM   10  C7  UNL     1       2.054  17.930  14.348  1.00  0.00     0.100 C 
HETATM   11  S2  UNL     1       3.214  16.569  14.040  1.00  0.00    -0.104 SA
ENDROOT
BRANCH   8  12
HETATM   12  C4  UNL     1       1.745  21.278  14.386  1.00  0.00     0.148 C 
BRANCH  12  13
HETATM   13  C5  UNL     1       2.225  22.604  14.888  1.00  0.00     0.241 C 
HETATM   14  F1  UNL     1       1.129  23.209  15.521  1.00  0.00    -0.254 F 
ENDBRANCH  12  13
ENDBRANCH   8  12
TORSDOF 2
ENDMDL
MODEL 4
REMARK VINA RESULT: -3.448087015      1.437      2.664
REMARK  2 active torsions:
REMARK  status: ('A' for Active; 'I' for Inactive)
REMARK    1  A    between atoms: N2_8  and  C4_9 
REMARK    2  A    between atoms: C4_9  and  C5_10 
ROOT
HETATM    1  N1  UNL     1       4.662  15.963  14.827  1.00  0.00    -0.388 N 
ATOM      2  H11 UNL     1       3.861  15.387  15.086  1.00  0.00     0.157 HD
ATOM      3  H12 UNL     1       5.670  15.874  14.954  1.00  0.00     0.157 HD
HETATM    4  C1  UNL     1       4.335  17.018  14.216  1.00  0.00     0.101 C 
HETATM    5  S1  UNL     1       5.723  18.016  13.766  1.00  0.00    -0.104 SA
HETATM    6  C2  UNL     1       5.746  19.449  14.880  1.00  0.00     0.100 C 
HETATM    7  C3  UNL     1       5.081  20.653  14.255  1.00  0.00     0.127 C 
HETATM    8  N2  UNL     1       3.680  20.717  14.520  1.00  0.00    -0.409 N 
HETATM    9  C6  UNL     1       2.848  19.907  13.692  1.00  0.00     0.127 C 
HETATM   10  C7  UNL     1       2.091  18.846  14.490  1.00  0.00     0.100 C 
HETATM   11  S2  UNL     1       2.590  17.172  13.996  1.00  0.00    -0.104 SA
ENDROOT
BRANCH   8  12
HETATM   12  C4  UNL     1       3.169  22.013  14.823  1.00  0.00     0.148 C 
BRANCH  12  13
HETATM   13  C5  UNL     1       3.823  23.148  14.099  1.00  0.00     0.241 C 
HETATM   14  F1  UNL     1       3.439  24.320  14.768  1.00  0.00    -0.254 F 
ENDBRANCH  12  13
ENDBRANCH   8  12
TORSDOF 2
ENDMDL
MODEL 5
REMARK VINA RESULT: -2.981834197      5.722      7.277
REMARK  2 active torsions:
REMARK  status: ('A' for Active; 'I' for Inactive)
REMARK    1  A    between atoms: N2_8  and  C4_9 
REMARK    2  A    between atoms: C4_9  and  C5_10 
ROOT
HETATM    1  N1  UNL     1      -0.264  12.977   7.559  1.00  0.00    -0.388 N 
ATOM      2  H11 UNL     1      -1.252  12.730   7.526  1.00  0.00     0.157 HD
ATOM      3  H12 UNL     1       0.592  12.526   7.236  1.00  0.00     0.157 HD
HETATM    4  C1  UNL     1      -0.050  14.085   8.125  1.00  0.00     0.101 C 
HETATM    5  S1  UNL     1       1.664  14.514   8.182  1.00  0.00    -0.104 SA
HETATM    6  C2  UNL     1       2.228  14.276   9.891  1.00  0.00     0.100 C 
HETATM    7  C3  UNL     1       2.205  15.569  10.672  1.00  0.00     0.127 C 
HETATM    8  N2  UNL     1       0.957  15.805  11.324  1.00  0.00    -0.409 N 
HETATM    9  C6  UNL     1      -0.080  16.350  10.512  1.00  0.00     0.127 C 
HETATM   10  C7  UNL     1      -1.283  15.412  10.399  1.00  0.00     0.100 C 
HETATM   11  S2  UNL     1      -1.531  14.867   8.686  1.00  0.00    -0.104 SA
ENDROOT
BRANCH   8  12
HETATM   12  C4  UNL     1       1.043  16.330  12.647  1.00  0.00     0.148 C 
BRANCH  12  13
HETATM   13  C5  UNL     1       2.362  16.934  13.015  1.00  0.00     0.241 C 
HETATM   14  F1  UNL     1       2.321  17.167  14.398  1.00  0.00    -0.254 F 
ENDBRANCH  12  13
ENDBRANCH   8  12
TORSDOF 2
ENDMDL
