MODEL 1
REMARK VINA RESULT: -7.645536159      0.000      0.000
REMARK  4 active torsions:
REMARK  status: ('A' for Active; 'I' for Inactive)
REMARK    1  A    between atoms: O1_1  and  N1_3 
REMARK    2  A    between atoms: N1_3  and  N2_5 
REMARK    3  A    between atoms: C3_10  and  N4_11 
REMARK    4  A    between atoms: N4_11  and  C4_13 
ROOT
HETATM    1  N2  UNL     1       4.460  18.220  14.412  1.00  0.00    -0.103 N 
HETATM    2  C1  UNL     1       3.669  17.256  13.632  1.00  0.00     0.190 C 
HETATM    3  C2  UNL     1       2.309  17.459  14.259  1.00  0.00     0.160 C 
HETATM    4  N3  UNL     1       2.335  18.863  14.593  1.00  0.00    -0.223 N 
ATOM      5  H3  UNL     1       1.508  19.443  14.741  1.00  0.00     0.177 HD
HETATM    6  C3  UNL     1       3.533  19.272  14.675  1.00  0.00     0.692 C 
ENDROOT
BRANCH   6   7
HETATM    7  N4  UNL     1       3.888  20.627  14.994  1.00  0.00    -0.220 N 
ATOM      8  H4  UNL     1       4.650  20.811  15.646  1.00  0.00     0.178 HD
BRANCH   7   9
HETATM    9  C4  UNL     1       3.172  21.730  14.396  1.00  0.00     0.099 C 
HETATM   10  C5  UNL     1       2.059  22.112  15.332  1.00  0.00     0.026 C 
HETATM   11  C6  UNL     1       1.526  23.485  15.118  1.00  0.00     0.002 C 
HETATM   12  C7  UNL     1       2.674  24.470  15.124  1.00  0.00     0.000 C 
HETATM   13  C8  UNL     1       3.491  24.164  13.863  1.00  0.00     0.002 C 
HETATM   14  C9  UNL     1       4.126  22.817  14.087  1.00  0.00     0.026 C 
ENDBRANCH   7   9
ENDBRANCH   6   7
BRANCH   1  15
HETATM   15  N1  UNL     1       5.797  18.137  14.809  1.00  0.00    -0.194 N 
ATOM     16  H1  UNL     1       6.208  17.239  15.059  1.00  0.00     0.216 HD
BRANCH  15  17
HETATM   17  O1  UNL     1       6.482  19.184  14.851  1.00  0.00    -0.274 OA
ATOM     18  H1  UNL     1       6.497  19.754  14.091  1.00  0.00     0.246 HD
ENDBRANCH  15  17
ENDBRANCH   1  15
TORSDOF 4
ENDMDL
MODEL 2
REMARK VINA RESULT: -7.563691668      1.728      2.252
REMARK  4 active torsions:
REMARK  status: ('A' for Active; 'I' for Inactive)
REMARK    1  A    between atoms: O1_1  and  N1_3 
REMARK    2  A    between atoms: N1_3  and  N2_5 
REMARK    3  A    between atoms: C3_10  and  N4_11 
REMARK    4  A    between atoms: N4_11  and  C4_13 
ROOT
HETATM    1  N2  UNL     1       3.557  18.050  14.381  1.00  0.00    -0.103 N 
HETATM    2  C1  UNL     1       4.493  16.916  14.375  1.00  0.00     0.190 C 
HETATM    3  C2  UNL     1       5.706  17.577  13.762  1.00  0.00     0.160 C 
HETATM    4  N3  UNL     1       5.601  18.928  14.257  1.00  0.00    -0.223 N 
ATOM      5  H3  UNL     1       6.377  19.587  14.325  1.00  0.00     0.177 HD
HETATM    6  C3  UNL     1       4.404  19.178  14.597  1.00  0.00     0.692 C 
ENDROOT
BRANCH   6   7
HETATM    7  N4  UNL     1       3.978  20.442  15.129  1.00  0.00    -0.220 N 
ATOM      8  H4  UNL     1       4.069  20.629  16.127  1.00  0.00     0.178 HD
BRANCH   7   9
HETATM    9  C4  UNL     1       3.424  21.452  14.257  1.00  0.00     0.099 C 
HETATM   10  C5  UNL     1       1.999  21.685  14.676  1.00  0.00     0.026 C 
HETATM   11  C6  UNL     1       1.432  22.982  14.219  1.00  0.00     0.002 C 
HETATM   12  C7  UNL     1       2.362  24.103  14.625  1.00  0.00     0.000 C 
HETATM   13  C8  UNL     1       3.634  23.912  13.790  1.00  0.00     0.002 C 
HETATM   14  C9  UNL     1       4.287  22.653  14.295  1.00  0.00     0.026 C 
ENDBRANCH   7   9
ENDBRANCH   6   7
BRANCH   1  15
HETATM   15  N1  UNL     1       2.170  18.041  14.215  1.00  0.00    -0.194 N 
ATOM     16  H1  UNL     1       1.685  18.863  13.856  1.00  0.00     0.216 HD
BRANCH  15  17
HETATM   17  O1  UNL     1       1.531  17.007  14.514  1.00  0.00    -0.274 OA
ATOM     18  H1  UNL     1       0.650  16.897  14.177  1.00  0.00     0.246 HD
ENDBRANCH  15  17
ENDBRANCH   1  15
TORSDOF 4
ENDMDL
MODEL 3
REMARK VINA RESULT: -7.191714417      0.833      1.556
REMARK  4 active torsions:
REMARK  status: ('A' for Active; 'I' for Inactive)
REMARK    1  A    between atoms: O1_1  and  N1_3 
REMARK    2  A    between atoms: N1_3  and  N2_5 
REMARK    3  A    between atoms: C3_10  and  N4_11 
REMARK    4  A    between atoms: N4_11  and  C4_13 
ROOT
HETATM    1  N2  UNL     1       4.233  18.735  14.207  1.00  0.00    -0.103 N 
HETATM    2  C1  UNL     1       4.070  17.294  13.960  1.00  0.00     0.190 C 
HETATM    3  C2  UNL     1       2.640  17.107  14.412  1.00  0.00     0.160 C 
HETATM    4  N3  UNL     1       2.040  18.370  14.055  1.00  0.00    -0.223 N 
ATOM      5  H3  UNL     1       1.041  18.522  13.913  1.00  0.00     0.177 HD
HETATM    6  C3  UNL     1       2.934  19.264  13.945  1.00  0.00     0.692 C 
ENDROOT
BRANCH   6   7
HETATM    7  N4  UNL     1       2.652  20.629  13.600  1.00  0.00    -0.220 N 
ATOM      8  H4  UNL     1       2.275  20.852  12.679  1.00  0.00     0.178 HD
BRANCH   7   9
HETATM    9  C4  UNL     1       2.897  21.689  14.550  1.00  0.00     0.099 C 
HETATM   10  C5  UNL     1       3.828  22.677  13.903  1.00  0.00     0.026 C 
HETATM   11  C6  UNL     1       3.817  24.026  14.530  1.00  0.00     0.002 C 
HETATM   12  C7  UNL     1       2.391  24.522  14.620  1.00  0.00     0.000 C 
HETATM   13  C8  UNL     1       1.697  23.610  15.638  1.00  0.00     0.002 C 
HETATM   14  C9  UNL     1       1.603  22.252  14.994  1.00  0.00     0.026 C 
ENDBRANCH   7   9
ENDBRANCH   6   7
BRANCH   1  15
HETATM   15  N1  UNL     1       5.377  19.430  14.603  1.00  0.00    -0.194 N 
ATOM     16  H1  UNL     1       5.356  20.444  14.713  1.00  0.00     0.216 HD
BRANCH  15  17
HETATM   17  O1  UNL     1       6.430  18.790  14.822  1.00  0.00    -0.274 OA
ATOM     18  H1  UNL     1       7.183  19.250  15.175  1.00  0.00     0.246 HD
ENDBRANCH  15  17
ENDBRANCH   1  15
TORSDOF 4
ENDMDL
MODEL 4
REMARK VINA RESULT: -7.089533502      2.586      5.515
REMARK  4 active torsions:
REMARK  status: ('A' for Active; 'I' for Inactive)
REMARK    1  A    between atoms: O1_1  and  N1_3 
REMARK    2  A    between atoms: N1_3  and  N2_5 
REMARK    3  A    between atoms: C3_10  and  N4_11 
REMARK    4  A    between atoms: N4_11  and  C4_13 
ROOT
HETATM    1  N2  UNL     1       2.439  23.220  15.624  1.00  0.00    -0.103 N 
HETATM    2  C1  UNL     1       2.555  24.510  14.926  1.00  0.00     0.190 C 
HETATM    3  C2  UNL     1       3.657  24.183  13.945  1.00  0.00     0.160 C 
HETATM    4  N3  UNL     1       3.413  22.788  13.668  1.00  0.00    -0.223 N 
ATOM      5  H3  UNL     1       3.738  22.293  12.837  1.00  0.00     0.177 HD
HETATM    6  C3  UNL     1       2.737  22.266  14.606  1.00  0.00     0.692 C 
ENDROOT
BRANCH   6   7
HETATM    7  N4  UNL     1       2.335  20.887  14.622  1.00  0.00    -0.220 N 
ATOM      8  H4  UNL     1       1.506  20.606  15.145  1.00  0.00     0.178 HD
BRANCH   7   9
HETATM    9  C4  UNL     1       3.098  19.896  13.899  1.00  0.00     0.099 C 
HETATM   10  C5  UNL     1       4.436  19.770  14.572  1.00  0.00     0.026 C 
HETATM   11  C6  UNL     1       5.155  18.502  14.270  1.00  0.00     0.002 C 
HETATM   12  C7  UNL     1       4.237  17.332  14.545  1.00  0.00     0.000 C 
HETATM   13  C8  UNL     1       3.127  17.417  13.491  1.00  0.00     0.002 C 
HETATM   14  C9  UNL     1       2.317  18.641  13.827  1.00  0.00     0.026 C 
ENDBRANCH   7   9
ENDBRANCH   6   7
BRANCH   1  15
HETATM   15  N1  UNL     1       2.116  22.974  16.960  1.00  0.00    -0.194 N 
ATOM     16  H1  UNL     1       2.793  23.159  17.700  1.00  0.00     0.216 HD
BRANCH  15  17
HETATM   17  O1  UNL     1       0.982  22.524  17.237  1.00  0.00    -0.274 OA
ATOM     18  H1  UNL     1       0.330  23.112  17.601  1.00  0.00     0.246 HD
ENDBRANCH  15  17
ENDBRANCH   1  15
TORSDOF 4
ENDMDL
MODEL 5
REMARK VINA RESULT: -7.039443026      2.359      5.556
REMARK  4 active torsions:
REMARK  status: ('A' for Active; 'I' for Inactive)
REMARK    1  A    between atoms: O1_1  and  N1_3 
REMARK    2  A    between atoms: N1_3  and  N2_5 
REMARK    3  A    between atoms: C3_10  and  N4_11 
REMARK    4  A    between atoms: N4_11  and  C4_13 
ROOT
HETATM    1  N2  UNL     1       2.365  22.530  14.697  1.00  0.00    -0.103 N 
HETATM    2  C1  UNL     1       2.431  23.563  13.652  1.00  0.00     0.190 C 
HETATM    3  C2  UNL     1       3.887  23.954  13.757  1.00  0.00     0.160 C 
HETATM    4  N3  UNL     1       4.511  22.706  14.126  1.00  0.00    -0.223 N 
ATOM      5  H3  UNL     1       5.497  22.483  13.989  1.00  0.00     0.177 HD
HETATM    6  C3  UNL     1       3.656  21.926  14.647  1.00  0.00     0.692 C 
ENDROOT
BRANCH   6   7
HETATM    7  N4  UNL     1       3.971  20.607  15.119  1.00  0.00    -0.220 N 
ATOM      8  H4  UNL     1       4.074  20.438  16.120  1.00  0.00     0.178 HD
BRANCH   7   9
HETATM    9  C4  UNL     1       4.141  19.518  14.186  1.00  0.00     0.099 C 
HETATM   10  C5  UNL     1       5.536  18.983  14.356  1.00  0.00     0.026 C 
HETATM   11  C6  UNL     1       5.730  17.604  13.834  1.00  0.00     0.002 C 
HETATM   12  C7  UNL     1       4.669  16.697  14.418  1.00  0.00     0.000 C 
HETATM   13  C8  UNL     1       3.341  17.166  13.811  1.00  0.00     0.002 C 
HETATM   14  C9  UNL     1       3.065  18.525  14.396  1.00  0.00     0.026 C 
ENDBRANCH   7   9
ENDBRANCH   6   7
BRANCH   1  15
HETATM   15  N1  UNL     1       1.301  22.209  15.543  1.00  0.00    -0.194 N 
ATOM     16  H1  UNL     1       0.546  21.604  15.219  1.00  0.00     0.216 HD
BRANCH  15  17
HETATM   17  O1  UNL     1       1.288  22.673  16.705  1.00  0.00    -0.274 OA
ATOM     18  H1  UNL     1       1.516  22.103  17.430  1.00  0.00     0.246 HD
ENDBRANCH  15  17
ENDBRANCH   1  15
TORSDOF 4
ENDMDL
