MODEL 1
REMARK VINA RESULT: -4.700751977      0.000      0.000
REMARK  2 active torsions:
REMARK  status: ('A' for Active; 'I' for Inactive)
REMARK       I    between atoms: C2_2  and  N1_4 
REMARK    1  A    between atoms: N1_4  and  N2_6 
REMARK    2  A    between atoms: C3_8  and  C5_10 
ROOT
HETATM    1  N2  UNL     1     -20.986  -1.413  23.957  1.00  0.00    -0.300 N 
ATOM      2  H2  UNL     1     -20.257  -1.479  23.247  1.00  0.00     0.186 HD
HETATM    3  C3  UNL     1     -21.968  -2.229  23.881  1.00  0.00     0.050 C 
HETATM    4  C4  UNL     1     -23.029  -2.144  24.902  1.00  0.00     0.072 C 
ENDROOT
BRANCH   1   5
HETATM    5  N1  UNL     1     -20.845  -0.445  24.941  1.00  0.00    -0.270 N 
HETATM    6  C2  UNL     1     -21.073   0.928  24.682  1.00  0.00     0.232 C 
HETATM    7  C1  UNL     1     -20.918   1.953  25.742  1.00  0.00     0.119 C 
HETATM    8  O1  UNL     1     -21.414   1.319  23.540  1.00  0.00    -0.272 OA
ATOM      9  H1  UNL     1     -20.567  -0.731  25.880  1.00  0.00     0.190 HD
ENDBRANCH   1   5
BRANCH   3  10
HETATM   10  C5  UNL     1     -22.010  -3.207  22.799  1.00  0.00     0.071 A 
HETATM   11  C6  UNL     1     -21.789  -3.009  21.451  1.00  0.00     0.100 A 
HETATM   12  S1  UNL     1     -22.066  -4.646  21.173  1.00  0.00    -0.022 SA
HETATM   13  N3  UNL     1     -22.270  -4.544  22.820  1.00  0.00    -0.320 N 
HETATM   14  C7  UNL     1     -22.601  -5.532  23.865  1.00  0.00     0.165 C 
ENDBRANCH   3  10
TORSDOF 2
ENDMDL
MODEL 2
REMARK VINA RESULT: -4.604253405      1.493      2.108
REMARK  2 active torsions:
REMARK  status: ('A' for Active; 'I' for Inactive)
REMARK       I    between atoms: C2_2  and  N1_4 
REMARK    1  A    between atoms: N1_4  and  N2_6 
REMARK    2  A    between atoms: C3_8  and  C5_10 
ROOT
HETATM    1  N2  UNL     1     -22.190  -1.556  24.778  1.00  0.00    -0.300 N 
ATOM      2  H2  UNL     1     -22.553  -2.189  25.490  1.00  0.00     0.186 HD
HETATM    3  C3  UNL     1     -21.850  -2.057  23.652  1.00  0.00     0.050 C 
HETATM    4  C4  UNL     1     -21.323  -1.151  22.614  1.00  0.00     0.072 C 
ENDROOT
BRANCH   1   5
HETATM    5  N1  UNL     1     -22.099  -0.208  25.097  1.00  0.00    -0.270 N 
HETATM    6  C2  UNL     1     -20.903   0.368  25.588  1.00  0.00     0.232 C 
HETATM    7  C1  UNL     1     -20.818   1.809  25.927  1.00  0.00     0.119 C 
HETATM    8  O1  UNL     1     -19.873  -0.330  25.753  1.00  0.00    -0.272 OA
ATOM      9  H1  UNL     1     -22.919   0.386  24.975  1.00  0.00     0.190 HD
ENDBRANCH   1   5
BRANCH   3  10
HETATM   10  C5  UNL     1     -21.990  -3.492  23.429  1.00  0.00     0.071 A 
HETATM   11  C6  UNL     1     -22.240  -4.485  24.354  1.00  0.00     0.100 A 
HETATM   12  S1  UNL     1     -22.204  -5.631  23.122  1.00  0.00    -0.022 SA
HETATM   13  N3  UNL     1     -21.916  -4.224  22.283  1.00  0.00    -0.320 N 
HETATM   14  C7  UNL     1     -21.679  -3.923  20.859  1.00  0.00     0.165 C 
ENDBRANCH   3  10
TORSDOF 2
ENDMDL
MODEL 3
REMARK VINA RESULT: -4.324817216      2.954      5.159
REMARK  2 active torsions:
REMARK  status: ('A' for Active; 'I' for Inactive)
REMARK       I    between atoms: C2_2  and  N1_4 
REMARK    1  A    between atoms: N1_4  and  N2_6 
REMARK    2  A    between atoms: C3_8  and  C5_10 
ROOT
HETATM    1  N2  UNL     1     -21.198  -2.075  23.663  1.00  0.00    -0.300 N 
ATOM      2  H2  UNL     1     -20.372  -1.582  23.323  1.00  0.00     0.186 HD
HETATM    3  C3  UNL     1     -21.937  -1.478  24.518  1.00  0.00     0.050 C 
HETATM    4  C4  UNL     1     -23.134  -2.179  25.019  1.00  0.00     0.072 C 
ENDROOT
BRANCH   1   5
HETATM    5  N1  UNL     1     -21.442  -3.348  23.167  1.00  0.00    -0.270 N 
HETATM    6  C2  UNL     1     -21.690  -3.583  21.793  1.00  0.00     0.232 C 
HETATM    7  C1  UNL     1     -21.951  -4.947  21.276  1.00  0.00     0.119 C 
HETATM    8  O1  UNL     1     -21.697  -2.637  20.969  1.00  0.00    -0.272 OA
ATOM      9  H1  UNL     1     -21.444  -4.138  23.812  1.00  0.00     0.190 HD
ENDBRANCH   1   5
BRANCH   3  10
HETATM   10  C5  UNL     1     -21.580  -0.137  24.969  1.00  0.00     0.071 A 
HETATM   11  C6  UNL     1     -22.389   0.976  25.083  1.00  0.00     0.100 A 
HETATM   12  S1  UNL     1     -21.073   1.867  25.636  1.00  0.00    -0.022 SA
HETATM   13  N3  UNL     1     -20.388   0.371  25.388  1.00  0.00    -0.320 N 
HETATM   14  C7  UNL     1     -19.024  -0.161  25.563  1.00  0.00     0.165 C 
ENDBRANCH   3  10
TORSDOF 2
ENDMDL
MODEL 4
REMARK VINA RESULT: -4.310357533      1.406      2.015
REMARK  2 active torsions:
REMARK  status: ('A' for Active; 'I' for Inactive)
REMARK       I    between atoms: C2_2  and  N1_4 
REMARK    1  A    between atoms: N1_4  and  N2_6 
REMARK    2  A    between atoms: C3_8  and  C5_10 
ROOT
HETATM    1  N2  UNL     1     -21.096  -1.789  24.733  1.00  0.00    -0.300 N 
ATOM      2  H2  UNL     1     -21.192  -2.486  25.470  1.00  0.00     0.186 HD
HETATM    3  C3  UNL     1     -21.484  -2.107  23.556  1.00  0.00     0.050 C 
HETATM    4  C4  UNL     1     -21.351  -1.107  22.481  1.00  0.00     0.072 C 
ENDROOT
BRANCH   1   5
HETATM    5  N1  UNL     1     -20.554  -0.557  25.073  1.00  0.00    -0.270 N 
HETATM    6  C2  UNL     1     -21.324   0.456  25.693  1.00  0.00     0.232 C 
HETATM    7  C1  UNL     1     -20.733   1.768  26.052  1.00  0.00     0.119 C 
HETATM    8  O1  UNL     1     -22.536   0.272  25.958  1.00  0.00    -0.272 OA
ATOM      9  H1  UNL     1     -19.571  -0.376  24.870  1.00  0.00     0.190 HD
ENDBRANCH   1   5
BRANCH   3  10
HETATM   10  C5  UNL     1     -22.040  -3.434  23.315  1.00  0.00     0.071 A 
HETATM   11  C6  UNL     1     -22.686  -4.270  24.203  1.00  0.00     0.100 A 
HETATM   12  S1  UNL     1     -22.875  -5.411  22.981  1.00  0.00    -0.022 SA
HETATM   13  N3  UNL     1     -22.073  -4.192  22.184  1.00  0.00    -0.320 N 
HETATM   14  C7  UNL     1     -21.599  -4.026  20.796  1.00  0.00     0.165 C 
ENDBRANCH   3  10
TORSDOF 2
ENDMDL
MODEL 5
REMARK VINA RESULT: -4.295677134      1.204      1.918
REMARK  2 active torsions:
REMARK  status: ('A' for Active; 'I' for Inactive)
REMARK       I    between atoms: C2_2  and  N1_4 
REMARK    1  A    between atoms: N1_4  and  N2_6 
REMARK    2  A    between atoms: C3_8  and  C5_10 
ROOT
HETATM    1  N2  UNL     1     -21.435  -2.667  24.029  1.00  0.00    -0.300 N 
ATOM      2  H2  UNL     1     -20.600  -2.867  23.478  1.00  0.00     0.186 HD
HETATM    3  C3  UNL     1     -22.469  -3.392  23.830  1.00  0.00     0.050 C 
HETATM    4  C4  UNL     1     -23.682  -3.113  24.620  1.00  0.00     0.072 C 
ENDROOT
BRANCH   1   5
HETATM    5  N1  UNL     1     -21.371  -1.626  24.945  1.00  0.00    -0.270 N 
HETATM    6  C2  UNL     1     -21.146  -0.287  24.545  1.00  0.00     0.232 C 
HETATM    7  C1  UNL     1     -21.079   0.816  25.533  1.00  0.00     0.119 C 
HETATM    8  O1  UNL     1     -20.994   0.006  23.335  1.00  0.00    -0.272 OA
ATOM      9  H1  UNL     1     -21.490  -1.832  25.937  1.00  0.00     0.190 HD
ENDBRANCH   1   5
BRANCH   3  10
HETATM   10  C5  UNL     1     -22.419  -4.462  22.838  1.00  0.00     0.071 A 
HETATM   11  C6  UNL     1     -22.811  -5.778  22.973  1.00  0.00     0.100 A 
HETATM   12  S1  UNL     1     -22.354  -6.069  21.379  1.00  0.00    -0.022 SA
HETATM   13  N3  UNL     1     -21.984  -4.456  21.547  1.00  0.00    -0.320 N 
HETATM   14  C7  UNL     1     -21.412  -3.446  20.637  1.00  0.00     0.165 C 
ENDBRANCH   3  10
TORSDOF 2
ENDMDL
