MODEL 1
REMARK VINA RESULT: -5.220080631      0.000      0.000
REMARK  3 active torsions:
REMARK  status: ('A' for Active; 'I' for Inactive)
REMARK    1  A    between atoms: C2_2  and  C3_4 
REMARK    2  A    between atoms: C4_7  and  C5_8 
REMARK    3  A    between atoms: C5_8  and  O2_10 
ROOT
HETATM    1  C3  UNL     1     -21.970  -2.145  24.029  1.00  0.00     0.119 C 
HETATM    2  N1  UNL     1     -23.140  -2.651  24.130  1.00  0.00    -0.360 N 
ATOM      3  H1  UNL     1     -23.965  -2.148  24.455  1.00  0.00     0.162 HD
HETATM    4  C4  UNL     1     -23.127  -4.050  23.714  1.00  0.00     0.205 C 
HETATM    5  C7  UNL     1     -21.875  -4.112  22.872  1.00  0.00     0.111 C 
HETATM    6  C8  UNL     1     -22.101  -3.619  21.466  1.00  0.00     0.034 C 
HETATM    7  N2  UNL     1     -21.061  -3.116  23.551  1.00  0.00    -0.368 N 
ATOM      8  H2  UNL     1     -20.046  -3.117  23.661  1.00  0.00     0.161 HD
ENDROOT
BRANCH   4   9
HETATM    9  C5  UNL     1     -23.002  -4.881  24.919  1.00  0.00     0.283 C 
HETATM   10  O1  UNL     1     -21.920  -5.454  25.201  1.00  0.00    -0.263 OA
BRANCH   9  11
HETATM   11  O2  UNL     1     -24.066  -5.065  25.783  1.00  0.00    -0.325 OA
HETATM   12  C6  UNL     1     -24.339  -6.323  26.399  1.00  0.00     0.213 C 
ENDBRANCH   9  11
ENDBRANCH   4   9
BRANCH   1  13
HETATM   13  C2  UNL     1     -21.614  -0.772  24.357  1.00  0.00     0.068 C 
HETATM   14  C1  UNL     1     -20.890  -0.014  23.559  1.00  0.00     0.041 C 
HETATM   15 CL1  UNL     1     -22.157  -0.074  25.870  1.00  0.00    -0.081 Cl
ENDBRANCH   1  13
TORSDOF 3
ENDMDL
MODEL 2
REMARK VINA RESULT: -5.148188092      0.893      1.042
REMARK  3 active torsions:
REMARK  status: ('A' for Active; 'I' for Inactive)
REMARK    1  A    between atoms: C2_2  and  C3_4 
REMARK    2  A    between atoms: C4_7  and  C5_8 
REMARK    3  A    between atoms: C5_8  and  O2_10 
ROOT
HETATM    1  C3  UNL     1     -22.035  -2.027  24.152  1.00  0.00     0.119 C 
HETATM    2  N1  UNL     1     -23.177  -2.603  24.172  1.00  0.00    -0.360 N 
ATOM      3  H1  UNL     1     -24.045  -2.162  24.473  1.00  0.00     0.162 HD
HETATM    4  C4  UNL     1     -23.060  -3.980  23.701  1.00  0.00     0.205 C 
HETATM    5  C7  UNL     1     -21.766  -3.934  22.924  1.00  0.00     0.111 C 
HETATM    6  C8  UNL     1     -21.951  -3.395  21.529  1.00  0.00     0.034 C 
HETATM    7  N2  UNL     1     -21.047  -2.923  23.684  1.00  0.00    -0.368 N 
ATOM      8  H2  UNL     1     -20.041  -2.872  23.846  1.00  0.00     0.161 HD
ENDROOT
BRANCH   4   9
HETATM    9  C5  UNL     1     -22.946  -4.854  24.876  1.00  0.00     0.283 C 
HETATM   10  O1  UNL     1     -21.868  -5.439  25.146  1.00  0.00    -0.263 OA
BRANCH   9  11
HETATM   11  O2  UNL     1     -24.017  -5.065  25.726  1.00  0.00    -0.325 OA
HETATM   12  C6  UNL     1     -24.267  -6.331  26.338  1.00  0.00     0.213 C 
ENDBRANCH   9  11
ENDBRANCH   4   9
BRANCH   1  13
HETATM   13  C2  UNL     1     -21.777  -0.652  24.554  1.00  0.00     0.068 C 
HETATM   14  C1  UNL     1     -22.070  -0.194  25.754  1.00  0.00     0.041 C 
HETATM   15 CL1  UNL     1     -21.049   0.463  23.415  1.00  0.00    -0.081 Cl
ENDBRANCH   1  13
TORSDOF 3
ENDMDL
MODEL 3
REMARK VINA RESULT: -4.921582096      2.290      3.781
REMARK  3 active torsions:
REMARK  status: ('A' for Active; 'I' for Inactive)
REMARK    1  A    between atoms: C2_2  and  C3_4 
REMARK    2  A    between atoms: C4_7  and  C5_8 
REMARK    3  A    between atoms: C5_8  and  O2_10 
ROOT
HETATM    1  C3  UNL     1     -22.055  -2.598  23.679  1.00  0.00     0.119 C 
HETATM    2  N1  UNL     1     -21.185  -3.306  23.066  1.00  0.00    -0.360 N 
ATOM      3  H1  UNL     1     -20.225  -3.018  22.881  1.00  0.00     0.162 HD
HETATM    4  C4  UNL     1     -21.763  -4.586  22.666  1.00  0.00     0.205 C 
HETATM    5  C7  UNL     1     -22.941  -4.702  23.603  1.00  0.00     0.111 C 
HETATM    6  C8  UNL     1     -22.549  -5.218  24.963  1.00  0.00     0.034 C 
HETATM    7  N2  UNL     1     -23.282  -3.295  23.759  1.00  0.00    -0.368 N 
ATOM      8  H2  UNL     1     -24.211  -2.896  23.896  1.00  0.00     0.161 HD
ENDROOT
BRANCH   4   9
HETATM    9  C5  UNL     1     -22.200  -4.472  21.269  1.00  0.00     0.283 C 
HETATM   10  O1  UNL     1     -23.317  -4.914  20.901  1.00  0.00    -0.263 OA
BRANCH   9  11
HETATM   11  O2  UNL     1     -21.402  -3.877  20.309  1.00  0.00    -0.325 OA
HETATM   12  C6  UNL     1     -20.897  -4.597  19.184  1.00  0.00     0.213 C 
ENDBRANCH   9  11
ENDBRANCH   4   9
BRANCH   1  13
HETATM   13  C2  UNL     1     -21.828  -1.265  24.218  1.00  0.00     0.068 C 
HETATM   14  C1  UNL     1     -22.297  -0.881  25.388  1.00  0.00     0.041 C 
HETATM   15 CL1  UNL     1     -20.895  -0.103  23.295  1.00  0.00    -0.081 Cl
ENDBRANCH   1  13
TORSDOF 3
ENDMDL
MODEL 4
REMARK VINA RESULT: -4.566260757      2.230      3.268
REMARK  3 active torsions:
REMARK  status: ('A' for Active; 'I' for Inactive)
REMARK    1  A    between atoms: C2_2  and  C3_4 
REMARK    2  A    between atoms: C4_7  and  C5_8 
REMARK    3  A    between atoms: C5_8  and  O2_10 
ROOT
HETATM    1  C3  UNL     1     -21.940  -1.867  24.404  1.00  0.00     0.119 C 
HETATM    2  N1  UNL     1     -21.199  -2.822  23.989  1.00  0.00    -0.360 N 
ATOM      3  H1  UNL     1     -20.188  -2.870  24.111  1.00  0.00     0.162 HD
HETATM    4  C4  UNL     1     -22.006  -3.835  23.313  1.00  0.00     0.205 C 
HETATM    5  C7  UNL     1     -23.383  -3.554  23.866  1.00  0.00     0.111 C 
HETATM    6  C8  UNL     1     -23.600  -4.178  25.220  1.00  0.00     0.034 C 
HETATM    7  N2  UNL     1     -23.289  -2.115  24.064  1.00  0.00    -0.368 N 
ATOM      8  H2  UNL     1     -24.039  -1.429  23.977  1.00  0.00     0.161 HD
ENDROOT
BRANCH   4   9
HETATM    9  C5  UNL     1     -21.946  -3.575  21.869  1.00  0.00     0.283 C 
HETATM   10  O1  UNL     1     -21.392  -2.541  21.419  1.00  0.00    -0.263 OA
BRANCH   9  11
HETATM   11  O2  UNL     1     -22.494  -4.455  20.954  1.00  0.00    -0.325 OA
HETATM   12  C6  UNL     1     -22.330  -5.869  21.063  1.00  0.00     0.213 C 
ENDBRANCH   9  11
ENDBRANCH   4   9
BRANCH   1  13
HETATM   13  C2  UNL     1     -21.473  -0.689  25.121  1.00  0.00     0.068 C 
HETATM   14  C1  UNL     1     -22.291   0.242  25.570  1.00  0.00     0.041 C 
HETATM   15 CL1  UNL     1     -19.759  -0.474  25.412  1.00  0.00    -0.081 Cl
ENDBRANCH   1  13
TORSDOF 3
ENDMDL
MODEL 5
REMARK VINA RESULT: -4.470163374      3.013      4.592
REMARK  3 active torsions:
REMARK  status: ('A' for Active; 'I' for Inactive)
REMARK    1  A    between atoms: C2_2  and  C3_4 
REMARK    2  A    between atoms: C4_7  and  C5_8 
REMARK    3  A    between atoms: C5_8  and  O2_10 
ROOT
HETATM    1  C3  UNL     1     -22.162  -4.273  22.359  1.00  0.00     0.119 C 
HETATM    2  N1  UNL     1     -22.913  -3.261  22.576  1.00  0.00    -0.360 N 
ATOM      3  H1  UNL     1     -23.526  -2.831  21.884  1.00  0.00     0.162 HD
HETATM    4  C4  UNL     1     -22.769  -2.808  23.957  1.00  0.00     0.205 C 
HETATM    5  C7  UNL     1     -22.209  -4.038  24.630  1.00  0.00     0.111 C 
HETATM    6  C8  UNL     1     -23.279  -5.036  24.991  1.00  0.00     0.034 C 
HETATM    7  N2  UNL     1     -21.445  -4.606  23.530  1.00  0.00    -0.368 N 
ATOM      8  H2  UNL     1     -20.574  -5.134  23.590  1.00  0.00     0.161 HD
ENDROOT
BRANCH   4   9
HETATM    9  C5  UNL     1     -21.803  -1.703  23.975  1.00  0.00     0.283 C 
HETATM   10  O1  UNL     1     -21.255  -1.304  22.917  1.00  0.00    -0.263 OA
BRANCH   9  11
HETATM   11  O2  UNL     1     -21.461  -1.062  25.151  1.00  0.00    -0.325 OA
HETATM   12  C6  UNL     1     -21.919   0.255  25.463  1.00  0.00     0.213 C 
ENDBRANCH   9  11
ENDBRANCH   4   9
BRANCH   1  13
HETATM   13  C2  UNL     1     -22.051  -4.983  21.093  1.00  0.00     0.068 C 
HETATM   14  C1  UNL     1     -22.631  -6.147  20.877  1.00  0.00     0.041 C 
HETATM   15 CL1  UNL     1     -21.115  -4.286  19.786  1.00  0.00    -0.081 Cl
ENDBRANCH   1  13
TORSDOF 3
ENDMDL
