MODEL 1
REMARK VINA RESULT: -5.836184203      0.000      0.000
REMARK  2 active torsions:
REMARK  status: ('A' for Active; 'I' for Inactive)
REMARK    1  A    between atoms: O1_2  and  C2_3 
REMARK    2  A    between atoms: C3_4  and  O2_5 
ROOT
HETATM    1  C2  UNL     1     -22.448  -4.071  22.434  1.00  0.00     0.143 A 
HETATM    2  C3  UNL     1     -21.795  -3.333  21.460  1.00  0.00     0.104 A 
HETATM    3  C4  UNL     1     -21.311  -2.057  21.718  1.00  0.00     0.079 A 
HETATM    4  C5  UNL     1     -21.482  -1.504  22.973  1.00  0.00     0.108 A 
HETATM    5  C6  UNL     1     -22.125  -2.215  23.950  1.00  0.00     0.143 A 
HETATM    6  C7  UNL     1     -22.588  -3.466  23.667  1.00  0.00     0.188 A 
HETATM    7  F1  UNL     1     -23.222  -4.158  24.640  1.00  0.00    -0.200 F 
HETATM    8  O3  UNL     1     -22.277  -1.615  25.210  1.00  0.00    -0.343 OA
HETATM    9  C8  UNL     1     -21.349  -0.596  25.535  1.00  0.00     0.202 C 
HETATM   10  C9  UNL     1     -21.452   0.436  24.408  1.00  0.00     0.202 C 
HETATM   11  O4  UNL     1     -20.995  -0.214  23.240  1.00  0.00    -0.346 OA
ENDROOT
BRANCH   1  12
HETATM   12  O1  UNL     1     -22.905  -5.322  22.131  1.00  0.00    -0.350 OA
HETATM   13  C1  UNL     1     -22.176  -6.374  21.596  1.00  0.00     0.210 C 
ENDBRANCH   1  12
BRANCH   2  14
HETATM   14  O2  UNL     1     -21.632  -3.895  20.219  1.00  0.00    -0.358 OA
ATOM     15  H2  UNL     1     -22.024  -3.458  19.472  1.00  0.00     0.217 HD
ENDBRANCH   2  14
TORSDOF 2
ENDMDL
MODEL 2
REMARK VINA RESULT: -5.382875010      1.579      2.612
REMARK  2 active torsions:
REMARK  status: ('A' for Active; 'I' for Inactive)
REMARK    1  A    between atoms: O1_2  and  C2_3 
REMARK    2  A    between atoms: C3_4  and  O2_5 
ROOT
HETATM    1  C2  UNL     1     -22.143  -4.064  23.092  1.00  0.00     0.143 A 
HETATM    2  C3  UNL     1     -22.771  -4.031  24.326  1.00  0.00     0.104 A 
HETATM    3  C4  UNL     1     -22.795  -2.877  25.098  1.00  0.00     0.079 A 
HETATM    4  C5  UNL     1     -22.180  -1.731  24.631  1.00  0.00     0.108 A 
HETATM    5  C6  UNL     1     -21.552  -1.741  23.415  1.00  0.00     0.143 A 
HETATM    6  C7  UNL     1     -21.546  -2.890  22.679  1.00  0.00     0.188 A 
HETATM    7  F1  UNL     1     -20.923  -2.888  21.480  1.00  0.00    -0.200 F 
HETATM    8  O3  UNL     1     -20.940  -0.556  22.978  1.00  0.00    -0.343 OA
HETATM    9  C8  UNL     1     -21.434   0.647  23.539  1.00  0.00     0.202 C 
HETATM   10  C9  UNL     1     -21.313   0.481  25.056  1.00  0.00     0.202 C 
HETATM   11  O4  UNL     1     -22.201  -0.560  25.406  1.00  0.00    -0.346 OA
ENDROOT
BRANCH   1  12
HETATM   12  O1  UNL     1     -22.146  -5.224  22.371  1.00  0.00    -0.350 OA
HETATM   13  C1  UNL     1     -22.854  -5.484  21.206  1.00  0.00     0.210 C 
ENDBRANCH   1  12
BRANCH   2  14
HETATM   14  O2  UNL     1     -23.378  -5.176  24.778  1.00  0.00    -0.358 OA
ATOM     15  H2  UNL     1     -24.173  -5.465  24.344  1.00  0.00     0.217 HD
ENDBRANCH   2  14
TORSDOF 2
ENDMDL
MODEL 3
REMARK VINA RESULT: -5.349897432      1.301      1.492
REMARK  2 active torsions:
REMARK  status: ('A' for Active; 'I' for Inactive)
REMARK    1  A    between atoms: O1_2  and  C2_3 
REMARK    2  A    between atoms: C3_4  and  O2_5 
ROOT
HETATM    1  C2  UNL     1     -22.360  -2.904  23.298  1.00  0.00     0.143 A 
HETATM    2  C3  UNL     1     -21.608  -2.301  22.304  1.00  0.00     0.104 A 
HETATM    3  C4  UNL     1     -21.031  -1.051  22.486  1.00  0.00     0.079 A 
HETATM    4  C5  UNL     1     -21.208  -0.387  23.685  1.00  0.00     0.108 A 
HETATM    5  C6  UNL     1     -21.948  -0.964  24.682  1.00  0.00     0.143 A 
HETATM    6  C7  UNL     1     -22.502  -2.193  24.472  1.00  0.00     0.188 A 
HETATM    7  F1  UNL     1     -23.230  -2.753  25.464  1.00  0.00    -0.200 F 
HETATM    8  O3  UNL     1     -22.103  -0.256  25.883  1.00  0.00    -0.343 OA
HETATM    9  C8  UNL     1     -21.108   0.710  26.174  1.00  0.00     0.202 C 
HETATM   10  C9  UNL     1     -21.078   1.653  24.968  1.00  0.00     0.202 C 
HETATM   11  O4  UNL     1     -20.628   0.877  23.877  1.00  0.00    -0.346 OA
ENDROOT
BRANCH   1  12
HETATM   12  O1  UNL     1     -22.907  -4.135  23.070  1.00  0.00    -0.350 OA
HETATM   13  C1  UNL     1     -22.393  -5.365  23.456  1.00  0.00     0.210 C 
ENDBRANCH   1  12
BRANCH   2  14
HETATM   14  O2  UNL     1     -21.440  -2.972  21.118  1.00  0.00    -0.358 OA
ATOM     15  H2  UNL     1     -21.740  -2.555  20.319  1.00  0.00     0.217 HD
ENDBRANCH   2  14
TORSDOF 2
ENDMDL
MODEL 4
REMARK VINA RESULT: -5.334358154      1.651      4.904
REMARK  2 active torsions:
REMARK  status: ('A' for Active; 'I' for Inactive)
REMARK    1  A    between atoms: O1_2  and  C2_3 
REMARK    2  A    between atoms: C3_4  and  O2_5 
ROOT
HETATM    1  C2  UNL     1     -22.459  -2.544  23.972  1.00  0.00     0.143 A 
HETATM    2  C3  UNL     1     -23.072  -3.725  24.358  1.00  0.00     0.104 A 
HETATM    3  C4  UNL     1     -23.108  -4.832  23.520  1.00  0.00     0.079 A 
HETATM    4  C5  UNL     1     -22.522  -4.760  22.271  1.00  0.00     0.108 A 
HETATM    5  C6  UNL     1     -21.911  -3.603  21.869  1.00  0.00     0.143 A 
HETATM    6  C7  UNL     1     -21.892  -2.533  22.715  1.00  0.00     0.188 A 
HETATM    7  F1  UNL     1     -21.286  -1.395  22.307  1.00  0.00    -0.200 F 
HETATM    8  O3  UNL     1     -21.328  -3.573  20.592  1.00  0.00    -0.343 OA
HETATM    9  C8  UNL     1     -20.961  -4.825  20.042  1.00  0.00     0.202 C 
HETATM   10  C9  UNL     1     -22.233  -5.677  20.057  1.00  0.00     0.202 C 
HETATM   11  O4  UNL     1     -22.555  -5.875  21.418  1.00  0.00    -0.346 OA
ENDROOT
BRANCH   1  12
HETATM   12  O1  UNL     1     -22.450  -1.483  24.834  1.00  0.00    -0.350 OA
HETATM   13  C1  UNL     1     -21.359  -0.705  25.194  1.00  0.00     0.210 C 
ENDBRANCH   1  12
BRANCH   2  14
HETATM   14  O2  UNL     1     -23.650  -3.782  25.601  1.00  0.00    -0.358 OA
ATOM     15  H2  UNL     1     -23.816  -2.966  26.059  1.00  0.00     0.217 HD
ENDBRANCH   2  14
TORSDOF 2
ENDMDL
MODEL 5
REMARK VINA RESULT: -5.133466689      0.655      4.395
REMARK  2 active torsions:
REMARK  status: ('A' for Active; 'I' for Inactive)
REMARK    1  A    between atoms: O1_2  and  C2_3 
REMARK    2  A    between atoms: C3_4  and  O2_5 
ROOT
HETATM    1  C2  UNL     1     -22.015  -2.055  24.194  1.00  0.00     0.143 A 
HETATM    2  C3  UNL     1     -21.406  -1.419  23.124  1.00  0.00     0.104 A 
HETATM    3  C4  UNL     1     -21.260  -2.047  21.894  1.00  0.00     0.079 A 
HETATM    4  C5  UNL     1     -21.731  -3.335  21.726  1.00  0.00     0.108 A 
HETATM    5  C6  UNL     1     -22.335  -3.982  22.770  1.00  0.00     0.143 A 
HETATM    6  C7  UNL     1     -22.464  -3.339  23.966  1.00  0.00     0.188 A 
HETATM    7  F1  UNL     1     -23.063  -3.988  24.989  1.00  0.00    -0.200 F 
HETATM    8  O3  UNL     1     -22.799  -5.290  22.556  1.00  0.00    -0.343 OA
HETATM    9  C8  UNL     1     -23.077  -5.644  21.213  1.00  0.00     0.202 C 
HETATM   10  C9  UNL     1     -21.787  -5.373  20.434  1.00  0.00     0.202 C 
HETATM   11  O4  UNL     1     -21.587  -3.976  20.485  1.00  0.00    -0.346 OA
ENDROOT
BRANCH   1  12
HETATM   12  O1  UNL     1     -22.134  -1.394  25.384  1.00  0.00    -0.350 OA
HETATM   13  C1  UNL     1     -22.136  -0.021  25.584  1.00  0.00     0.210 C 
ENDBRANCH   1  12
BRANCH   2  14
HETATM   14  O2  UNL     1     -20.944  -0.140  23.305  1.00  0.00    -0.358 OA
ATOM     15  H2  UNL     1     -20.246   0.171  22.740  1.00  0.00     0.217 HD
ENDBRANCH   2  14
TORSDOF 2
ENDMDL
