MODEL 1
REMARK VINA RESULT: -6.133246315      0.000      0.000
REMARK  10 active torsions:
REMARK  status: ('A' for Active; 'I' for Inactive)
REMARK    1  A    between atoms: N1_1  and  C1_4 
REMARK    2  A    between atoms: C2_5  and  N2_6 
REMARK    3  A    between atoms: N2_6  and  N3_8 
REMARK    4  A    between atoms: N3_8  and  N4_10 
REMARK    5  A    between atoms: N4_10  and  O1_12 
REMARK    6  A    between atoms: O1_12  and  C3_13 
REMARK    7  A    between atoms: C4_17  and  N6_18 
REMARK    8  A    between atoms: C5_22  and  O2_23 
REMARK    9  A    between atoms: C6_25  and  O3_26 
REMARK   10  A    between atoms: N9_36  and  C9_37 
ROOT
HETATM    1  N3  UNL     1       1.529 -23.794 -18.507  1.00  0.00    -0.221 N 
ATOM      2  H3  UNL     1       0.651 -23.277 -18.465  1.00  0.00     0.210 HD
ENDROOT
BRANCH   1   3
HETATM    3  N2  UNL     1       1.620 -25.147 -18.164  1.00  0.00    -0.265 N 
ATOM      4  H2  UNL     1       1.772 -25.869 -18.867  1.00  0.00     0.190 HD
BRANCH   3   5
HETATM    5  C2  UNL     1       1.503 -25.434 -16.911  1.00  0.00     0.181 C 
HETATM    6  C1  UNL     1       0.566 -26.414 -16.678  1.00  0.00     0.158 C 
HETATM    7  N9  UNL     1       0.023 -26.782 -15.504  1.00  0.00    -0.233 N 
HETATM    8  C8  UNL     1       0.197 -26.178 -14.319  1.00  0.00     0.325 C 
HETATM    9  C7  UNL     1       1.060 -25.140 -13.974  1.00  0.00     0.328 C 
HETATM   10  O5  UNL     1      -0.519 -26.604 -13.370  1.00  0.00    -0.261 OA
HETATM   11  N8  UNL     1       2.071 -24.632 -14.706  1.00  0.00    -0.260 N 
HETATM   12  O4  UNL     1       0.892 -24.605 -12.858  1.00  0.00    -0.261 OA
HETATM   13  N7  UNL     1       2.268 -24.780 -16.020  1.00  0.00    -0.278 N 
ATOM     14  H8  UNL     1       2.760 -24.073 -14.204  1.00  0.00     0.190 HD
ATOM     15  H7  UNL     1       3.108 -24.340 -16.395  1.00  0.00     0.189 HD
BRANCH   6  16
HETATM   16  N1  UNL     1       0.136 -27.081 -17.694  1.00  0.00    -0.382 N 
ATOM     17  H12 UNL     1      -0.529 -26.573 -18.278  1.00  0.00     0.157 HD
ATOM     18  H11 UNL     1       0.488 -28.029 -17.819  1.00  0.00     0.157 HD
ENDBRANCH   6  16
BRANCH   7  19
HETATM   19  C9  UNL     1      -0.810 -27.918 -15.545  1.00  0.00     0.364 C 
HETATM   20  O6  UNL     1      -0.324 -29.075 -15.584  1.00  0.00    -0.283 OA
ENDBRANCH   7  19
ENDBRANCH   3   5
ENDBRANCH   1   3
BRANCH   1  21
HETATM   21  N4  UNL     1       2.636 -23.247 -18.879  1.00  0.00    -0.191 N 
ATOM     22  H4  UNL     1       2.994 -23.428 -19.817  1.00  0.00     0.217 HD
BRANCH  21  23
HETATM   23  O1  UNL     1       3.330 -22.436 -18.047  1.00  0.00    -0.227 OA
BRANCH  23  24
HETATM   24  C3  UNL     1       4.571 -22.755 -17.458  1.00  0.00     0.385 C 
HETATM   25  N5  UNL     1       5.566 -21.727 -17.681  1.00  0.00    -0.012 N 
HETATM   26  C4  UNL     1       6.797 -22.494 -17.592  1.00  0.00     0.414 C 
ATOM     27  H52 UNL     1       5.451 -21.187 -18.539  1.00  0.00     0.283 HD
ATOM     28  H51 UNL     1       5.508 -20.922 -17.058  1.00  0.00     0.283 HD
HETATM   29  C5  UNL     1       6.500 -23.631 -18.571  1.00  0.00     0.209 C 
HETATM   30  C6  UNL     1       5.088 -24.007 -18.134  1.00  0.00     0.209 C 
BRANCH  26  31
HETATM   31  N6  UNL     1       6.901 -23.103 -16.286  1.00  0.00    -0.047 N 
ATOM     32  H63 UNL     1       5.997 -23.420 -15.938  1.00  0.00     0.276 HD
ATOM     33  H62 UNL     1       7.372 -24.007 -16.321  1.00  0.00     0.276 HD
ATOM     34  H61 UNL     1       7.355 -22.458 -15.639  1.00  0.00     0.276 HD
ENDBRANCH  26  31
BRANCH  29  35
HETATM   35  O2  UNL     1       6.524 -23.114 -19.860  1.00  0.00    -0.389 OA
ATOM     36  H2  UNL     1       5.771 -23.451 -20.330  1.00  0.00     0.210 HD
ENDBRANCH  29  35
BRANCH  30  37
HETATM   37  O3  UNL     1       5.093 -25.014 -17.177  1.00  0.00    -0.388 OA
ATOM     38  H3  UNL     1       5.949 -25.423 -17.207  1.00  0.00     0.210 HD
ENDBRANCH  30  37
ENDBRANCH  23  24
ENDBRANCH  21  23
ENDBRANCH   1  21
TORSDOF 10
ENDMDL
MODEL 2
REMARK VINA RESULT: -6.090206737      3.441      5.688
REMARK  10 active torsions:
REMARK  status: ('A' for Active; 'I' for Inactive)
REMARK    1  A    between atoms: N1_1  and  C1_4 
REMARK    2  A    between atoms: C2_5  and  N2_6 
REMARK    3  A    between atoms: N2_6  and  N3_8 
REMARK    4  A    between atoms: N3_8  and  N4_10 
REMARK    5  A    between atoms: N4_10  and  O1_12 
REMARK    6  A    between atoms: O1_12  and  C3_13 
REMARK    7  A    between atoms: C4_17  and  N6_18 
REMARK    8  A    between atoms: C5_22  and  O2_23 
REMARK    9  A    between atoms: C6_25  and  O3_26 
REMARK   10  A    between atoms: N9_36  and  C9_37 
ROOT
HETATM    1  N3  UNL     1       1.254 -24.264 -19.131  1.00  0.00    -0.221 N 
ATOM      2  H3  UNL     1       1.555 -23.359 -18.770  1.00  0.00     0.210 HD
ENDROOT
BRANCH   1   3
HETATM    3  N2  UNL     1       1.676 -25.474 -18.569  1.00  0.00    -0.265 N 
ATOM      4  H2  UNL     1       2.088 -26.214 -19.137  1.00  0.00     0.190 HD
BRANCH   3   5
HETATM    5  C2  UNL     1       1.518 -25.604 -17.295  1.00  0.00     0.181 C 
HETATM    6  C1  UNL     1       0.555 -26.533 -16.974  1.00  0.00     0.158 C 
HETATM    7  N9  UNL     1      -0.028 -26.746 -15.781  1.00  0.00    -0.233 N 
HETATM    8  C8  UNL     1       0.126 -26.005 -14.673  1.00  0.00     0.325 C 
HETATM    9  C7  UNL     1       0.999 -24.949 -14.430  1.00  0.00     0.328 C 
HETATM   10  O5  UNL     1      -0.626 -26.300 -13.701  1.00  0.00    -0.261 OA
HETATM   11  N8  UNL     1       2.041 -24.551 -15.187  1.00  0.00    -0.260 N 
HETATM   12  O4  UNL     1       0.812 -24.279 -13.392  1.00  0.00    -0.261 OA
HETATM   13  N7  UNL     1       2.271 -24.861 -16.467  1.00  0.00    -0.278 N 
ATOM     14  H8  UNL     1       2.728 -23.948 -14.735  1.00  0.00     0.190 HD
ATOM     15  H7  UNL     1       3.131 -24.484 -16.867  1.00  0.00     0.189 HD
BRANCH   6  16
HETATM   16  N1  UNL     1       0.139 -27.310 -17.914  1.00  0.00    -0.382 N 
ATOM     17  H12 UNL     1       0.406 -28.287 -17.799  1.00  0.00     0.157 HD
ATOM     18  H11 UNL     1      -0.404 -26.889 -18.668  1.00  0.00     0.157 HD
ENDBRANCH   6  16
BRANCH   7  19
HETATM   19  C9  UNL     1      -0.883 -27.863 -15.710  1.00  0.00     0.364 C 
HETATM   20  O6  UNL     1      -0.421 -29.025 -15.598  1.00  0.00    -0.283 OA
ENDBRANCH   7  19
ENDBRANCH   3   5
ENDBRANCH   1   3
BRANCH   1  21
HETATM   21  N4  UNL     1       0.457 -24.376 -20.138  1.00  0.00    -0.191 N 
ATOM     22  H4  UNL     1       0.727 -23.977 -21.038  1.00  0.00     0.217 HD
BRANCH  21  23
HETATM   23  O1  UNL     1      -0.732 -25.012 -20.023  1.00  0.00    -0.227 OA
BRANCH  23  24
HETATM   24  C3  UNL     1      -1.433 -25.613 -21.088  1.00  0.00     0.385 C 
HETATM   25  N5  UNL     1      -2.647 -26.269 -20.647  1.00  0.00    -0.012 N 
HETATM   26  C4  UNL     1      -2.818 -27.280 -21.677  1.00  0.00     0.414 C 
ATOM     27  H52 UNL     1      -2.629 -26.621 -19.690  1.00  0.00     0.283 HD
ATOM     28  H51 UNL     1      -3.447 -25.653 -20.504  1.00  0.00     0.283 HD
HETATM   29  C5  UNL     1      -1.434 -27.934 -21.671  1.00  0.00     0.209 C 
HETATM   30  C6  UNL     1      -0.546 -26.695 -21.665  1.00  0.00     0.209 C 
BRANCH  26  31
HETATM   31  N6  UNL     1      -2.958 -26.646 -22.968  1.00  0.00    -0.047 N 
ATOM     32  H63 UNL     1      -2.862 -25.632 -22.909  1.00  0.00     0.276 HD
ATOM     33  H62 UNL     1      -2.162 -26.835 -23.576  1.00  0.00     0.276 HD
ATOM     34  H61 UNL     1      -3.842 -26.922 -23.395  1.00  0.00     0.276 HD
ENDBRANCH  26  31
BRANCH  29  35
HETATM   35  O2  UNL     1      -1.307 -28.671 -20.501  1.00  0.00    -0.389 OA
ATOM     36  H2  UNL     1      -1.605 -28.133 -19.777  1.00  0.00     0.210 HD
ENDBRANCH  29  35
BRANCH  30  37
HETATM   37  O3  UNL     1      -0.202 -26.298 -22.950  1.00  0.00    -0.388 OA
ATOM     38  H3  UNL     1      -0.925 -25.780 -23.285  1.00  0.00     0.210 HD
ENDBRANCH  30  37
ENDBRANCH  23  24
ENDBRANCH  21  23
ENDBRANCH   1  21
TORSDOF 10
ENDMDL
MODEL 3
REMARK VINA RESULT: -5.855451278      5.465      7.071
REMARK  10 active torsions:
REMARK  status: ('A' for Active; 'I' for Inactive)
REMARK    1  A    between atoms: N1_1  and  C1_4 
REMARK    2  A    between atoms: C2_5  and  N2_6 
REMARK    3  A    between atoms: N2_6  and  N3_8 
REMARK    4  A    between atoms: N3_8  and  N4_10 
REMARK    5  A    between atoms: N4_10  and  O1_12 
REMARK    6  A    between atoms: O1_12  and  C3_13 
REMARK    7  A    between atoms: C4_17  and  N6_18 
REMARK    8  A    between atoms: C5_22  and  O2_23 
REMARK    9  A    between atoms: C6_25  and  O3_26 
REMARK   10  A    between atoms: N9_36  and  C9_37 
ROOT
HETATM    1  N3  UNL     1       0.810 -27.781 -22.052  1.00  0.00    -0.221 N 
ATOM      2  H3  UNL     1       0.998 -28.208 -22.958  1.00  0.00     0.210 HD
ENDROOT
BRANCH   1   3
HETATM    3  N2  UNL     1      -0.376 -28.013 -21.346  1.00  0.00    -0.265 N 
ATOM      4  H2  UNL     1      -0.371 -28.271 -20.359  1.00  0.00     0.190 HD
BRANCH   3   5
HETATM    5  C2  UNL     1      -1.476 -27.884 -22.008  1.00  0.00     0.181 C 
HETATM    6  C1  UNL     1      -2.320 -26.950 -21.454  1.00  0.00     0.158 C 
HETATM    7  N9  UNL     1      -3.618 -26.735 -21.732  1.00  0.00    -0.233 N 
HETATM    8  C8  UNL     1      -4.398 -27.480 -22.532  1.00  0.00     0.325 C 
HETATM    9  C7  UNL     1      -4.053 -28.542 -23.363  1.00  0.00     0.328 C 
HETATM   10  O5  UNL     1      -5.625 -27.182 -22.542  1.00  0.00    -0.261 OA
HETATM   11  N8  UNL     1      -2.815 -28.946 -23.713  1.00  0.00    -0.260 N 
HETATM   12  O4  UNL     1      -4.987 -29.213 -23.850  1.00  0.00    -0.261 OA
HETATM   13  N7  UNL     1      -1.665 -28.635 -23.107  1.00  0.00    -0.278 N 
ATOM     14  H8  UNL     1      -2.749 -29.555 -24.528  1.00  0.00     0.190 HD
ATOM     15  H7  UNL     1      -0.821 -29.017 -23.534  1.00  0.00     0.189 HD
BRANCH   6  16
HETATM   16  N1  UNL     1      -1.835 -26.168 -20.552  1.00  0.00    -0.382 N 
ATOM     17  H12 UNL     1      -1.013 -26.537 -20.075  1.00  0.00     0.157 HD
ATOM     18  H11 UNL     1      -2.303 -25.275 -20.401  1.00  0.00     0.157 HD
ENDBRANCH   6  16
BRANCH   7  19
HETATM   19  C9  UNL     1      -4.199 -25.613 -21.111  1.00  0.00     0.364 C 
HETATM   20  O6  UNL     1      -3.931 -24.448 -21.497  1.00  0.00    -0.283 OA
ENDBRANCH   7  19
ENDBRANCH   3   5
ENDBRANCH   1   3
BRANCH   1  21
HETATM   21  N4  UNL     1       1.647 -26.989 -21.473  1.00  0.00    -0.191 N 
ATOM     22  H4  UNL     1       2.631 -27.251 -21.421  1.00  0.00     0.217 HD
BRANCH  21  23
HETATM   23  O1  UNL     1       1.241 -25.817 -20.933  1.00  0.00    -0.227 OA
BRANCH  23  24
HETATM   24  C3  UNL     1       1.415 -25.446 -19.584  1.00  0.00     0.385 C 
HETATM   25  N5  UNL     1       1.244 -24.023 -19.377  1.00  0.00    -0.012 N 
HETATM   26  C4  UNL     1       2.051 -23.805 -18.189  1.00  0.00     0.414 C 
ATOM     27  H52 UNL     1       1.478 -23.435 -20.177  1.00  0.00     0.283 HD
ATOM     28  H51 UNL     1       0.276 -23.706 -19.311  1.00  0.00     0.283 HD
HETATM   29  C5  UNL     1       3.367 -24.461 -18.611  1.00  0.00     0.209 C 
HETATM   30  C6  UNL     1       2.845 -25.765 -19.204  1.00  0.00     0.209 C 
BRANCH  26  31
HETATM   31  N6  UNL     1       1.538 -24.597 -17.096  1.00  0.00    -0.047 N 
ATOM     32  H63 UNL     1       1.691 -25.595 -17.240  1.00  0.00     0.276 HD
ATOM     33  H62 UNL     1       2.092 -24.484 -16.247  1.00  0.00     0.276 HD
ATOM     34  H61 UNL     1       0.553 -24.380 -16.943  1.00  0.00     0.276 HD
ENDBRANCH  26  31
BRANCH  29  35
HETATM   35  O2  UNL     1       3.966 -23.657 -19.571  1.00  0.00    -0.389 OA
ATOM     36  H2  UNL     1       4.826 -24.011 -19.762  1.00  0.00     0.210 HD
ENDBRANCH  29  35
BRANCH  30  37
HETATM   37  O3  UNL     1       2.799 -26.782 -18.259  1.00  0.00    -0.388 OA
ATOM     38  H3  UNL     1       3.470 -27.412 -18.493  1.00  0.00     0.210 HD
ENDBRANCH  30  37
ENDBRANCH  23  24
ENDBRANCH  21  23
ENDBRANCH   1  21
TORSDOF 10
ENDMDL
MODEL 4
REMARK VINA RESULT: -5.842124828      2.216      6.903
REMARK  10 active torsions:
REMARK  status: ('A' for Active; 'I' for Inactive)
REMARK    1  A    between atoms: N1_1  and  C1_4 
REMARK    2  A    between atoms: C2_5  and  N2_6 
REMARK    3  A    between atoms: N2_6  and  N3_8 
REMARK    4  A    between atoms: N3_8  and  N4_10 
REMARK    5  A    between atoms: N4_10  and  O1_12 
REMARK    6  A    between atoms: O1_12  and  C3_13 
REMARK    7  A    between atoms: C4_17  and  N6_18 
REMARK    8  A    between atoms: C5_22  and  O2_23 
REMARK    9  A    between atoms: C6_25  and  O3_26 
REMARK   10  A    between atoms: N9_36  and  C9_37 
ROOT
HETATM    1  N3  UNL     1       1.163 -26.203 -14.276  1.00  0.00    -0.221 N 
ATOM      2  H3  UNL     1       1.784 -25.789 -13.580  1.00  0.00     0.210 HD
ENDROOT
BRANCH   1   3
HETATM    3  N2  UNL     1       1.528 -26.339 -15.620  1.00  0.00    -0.265 N 
ATOM      4  H2  UNL     1       1.587 -27.252 -16.070  1.00  0.00     0.190 HD
BRANCH   3   5
HETATM    5  C2  UNL     1       1.786 -25.249 -16.261  1.00  0.00     0.181 C 
HETATM    6  C1  UNL     1       1.347 -25.285 -17.564  1.00  0.00     0.158 C 
HETATM    7  N9  UNL     1       1.651 -24.442 -18.566  1.00  0.00    -0.233 N 
HETATM    8  C8  UNL     1       2.553 -23.449 -18.529  1.00  0.00     0.325 C 
HETATM    9  C7  UNL     1       3.282 -22.957 -17.450  1.00  0.00     0.328 C 
HETATM   10  O5  UNL     1       2.784 -22.869 -19.628  1.00  0.00    -0.261 OA
HETATM   11  N8  UNL     1       3.103 -23.229 -16.142  1.00  0.00    -0.260 N 
HETATM   12  O4  UNL     1       4.216 -22.167 -17.704  1.00  0.00    -0.261 OA
HETATM   13  N7  UNL     1       2.419 -24.252 -15.619  1.00  0.00    -0.278 N 
ATOM     14  H8  UNL     1       3.535 -22.586 -15.480  1.00  0.00     0.190 HD
ATOM     15  H7  UNL     1       2.373 -24.279 -14.601  1.00  0.00     0.189 HD
BRANCH   6  16
HETATM   16  N1  UNL     1       0.542 -26.235 -17.895  1.00  0.00    -0.382 N 
ATOM     17  H12 UNL     1      -0.202 -25.951 -18.533  1.00  0.00     0.157 HD
ATOM     18  H11 UNL     1       0.715 -27.159 -17.501  1.00  0.00     0.157 HD
ENDBRANCH   6  16
BRANCH   7  19
HETATM   19  C9  UNL     1       0.941 -24.639 -19.767  1.00  0.00     0.364 C 
HETATM   20  O6  UNL     1       1.299 -25.514 -20.594  1.00  0.00    -0.283 OA
ENDBRANCH   7  19
ENDBRANCH   3   5
ENDBRANCH   1   3
BRANCH   1  21
HETATM   21  N4  UNL     1      -0.013 -26.639 -13.980  1.00  0.00    -0.191 N 
ATOM     22  H4  UNL     1      -0.834 -26.140 -14.324  1.00  0.00     0.217 HD
BRANCH  21  23
HETATM   23  O1  UNL     1      -0.179 -27.746 -13.220  1.00  0.00    -0.227 OA
BRANCH  23  24
HETATM   24  C3  UNL     1      -0.389 -29.046 -13.723  1.00  0.00     0.385 C 
HETATM   25  N5  UNL     1       0.847 -29.689 -14.119  1.00  0.00    -0.012 N 
HETATM   26  C4  UNL     1       0.373 -30.628 -15.122  1.00  0.00     0.414 C 
ATOM     27  H52 UNL     1       1.587 -29.059 -14.428  1.00  0.00     0.283 HD
ATOM     28  H51 UNL     1       1.387 -30.101 -13.358  1.00  0.00     0.283 HD
HETATM   29  C5  UNL     1      -0.442 -29.699 -16.025  1.00  0.00     0.209 C 
HETATM   30  C6  UNL     1      -1.229 -28.921 -14.976  1.00  0.00     0.209 C 
BRANCH  26  31
HETATM   31  N6  UNL     1      -0.572 -31.545 -14.528  1.00  0.00    -0.047 N 
ATOM     32  H63 UNL     1      -0.509 -32.478 -14.936  1.00  0.00     0.276 HD
ATOM     33  H62 UNL     1      -0.321 -31.786 -13.569  1.00  0.00     0.276 HD
ATOM     34  H61 UNL     1      -1.514 -31.162 -14.594  1.00  0.00     0.276 HD
ENDBRANCH  26  31
BRANCH  29  35
HETATM   35  O2  UNL     1       0.440 -28.885 -16.722  1.00  0.00    -0.389 OA
ATOM     36  H2  UNL     1      -0.036 -28.468 -17.430  1.00  0.00     0.210 HD
ENDBRANCH  29  35
BRANCH  30  37
HETATM   37  O3  UNL     1      -2.456 -29.511 -14.704  1.00  0.00    -0.388 OA
ATOM     38  H3  UNL     1      -2.290 -30.429 -14.521  1.00  0.00     0.210 HD
ENDBRANCH  30  37
ENDBRANCH  23  24
ENDBRANCH  21  23
ENDBRANCH   1  21
TORSDOF 10
ENDMDL
MODEL 5
REMARK VINA RESULT: -5.815569050      5.629      6.870
REMARK  10 active torsions:
REMARK  status: ('A' for Active; 'I' for Inactive)
REMARK    1  A    between atoms: N1_1  and  C1_4 
REMARK    2  A    between atoms: C2_5  and  N2_6 
REMARK    3  A    between atoms: N2_6  and  N3_8 
REMARK    4  A    between atoms: N3_8  and  N4_10 
REMARK    5  A    between atoms: N4_10  and  O1_12 
REMARK    6  A    between atoms: O1_12  and  C3_13 
REMARK    7  A    between atoms: C4_17  and  N6_18 
REMARK    8  A    between atoms: C5_22  and  O2_23 
REMARK    9  A    between atoms: C6_25  and  O3_26 
REMARK   10  A    between atoms: N9_36  and  C9_37 
ROOT
HETATM    1  N3  UNL     1       0.737 -27.780 -21.913  1.00  0.00    -0.221 N 
ATOM      2  H3  UNL     1       0.725 -28.747 -21.591  1.00  0.00     0.210 HD
ENDROOT
BRANCH   1   3
HETATM    3  N2  UNL     1      -0.225 -27.270 -22.791  1.00  0.00    -0.265 N 
ATOM      4  H2  UNL     1       0.027 -26.908 -23.711  1.00  0.00     0.190 HD
BRANCH   3   5
HETATM    5  C2  UNL     1      -1.447 -27.281 -22.378  1.00  0.00     0.181 C 
HETATM    6  C1  UNL     1      -2.269 -28.042 -23.176  1.00  0.00     0.158 C 
HETATM    7  N9  UNL     1      -3.613 -28.082 -23.184  1.00  0.00    -0.233 N 
HETATM    8  C8  UNL     1      -4.441 -27.288 -22.489  1.00  0.00     0.325 C 
HETATM    9  C7  UNL     1      -4.145 -26.345 -21.508  1.00  0.00     0.328 C 
HETATM   10  O5  UNL     1      -5.671 -27.403 -22.753  1.00  0.00    -0.261 OA
HETATM   11  N8  UNL     1      -2.968 -26.152 -20.880  1.00  0.00    -0.260 N 
HETATM   12  O4  UNL     1      -5.066 -25.579 -21.154  1.00  0.00    -0.261 OA
HETATM   13  N7  UNL     1      -1.765 -26.586 -21.272  1.00  0.00    -0.278 N 
ATOM     14  H8  UNL     1      -2.997 -25.615 -20.013  1.00  0.00     0.190 HD
ATOM     15  H7  UNL     1      -0.989 -26.362 -20.650  1.00  0.00     0.189 HD
BRANCH   6  16
HETATM   16  N1  UNL     1      -1.709 -28.824 -24.034  1.00  0.00    -0.382 N 
ATOM     17  H12 UNL     1      -0.690 -28.801 -24.020  1.00  0.00     0.157 HD
ATOM     18  H11 UNL     1      -2.319 -29.380 -24.633  1.00  0.00     0.157 HD
ENDBRANCH   6  16
BRANCH   7  19
HETATM   19  C9  UNL     1      -4.190 -29.064 -24.015  1.00  0.00     0.364 C 
HETATM   20  O6  UNL     1      -4.234 -30.267 -23.658  1.00  0.00    -0.283 OA
ENDBRANCH   7  19
ENDBRANCH   3   5
ENDBRANCH   1   3
BRANCH   1  21
HETATM   21  N4  UNL     1       1.641 -26.939 -21.540  1.00  0.00    -0.191 N 
ATOM     22  H4  UNL     1       2.626 -27.177 -21.656  1.00  0.00     0.217 HD
BRANCH  21  23
HETATM   23  O1  UNL     1       1.305 -25.746 -20.997  1.00  0.00    -0.227 OA
BRANCH  23  24
HETATM   24  C3  UNL     1       1.455 -25.406 -19.638  1.00  0.00     0.385 C 
HETATM   25  N5  UNL     1       1.310 -23.984 -19.406  1.00  0.00    -0.012 N 
HETATM   26  C4  UNL     1       2.093 -23.808 -18.195  1.00  0.00     0.414 C 
ATOM     27  H52 UNL     1       1.577 -23.386 -20.188  1.00  0.00     0.283 HD
ATOM     28  H51 UNL     1       0.348 -23.647 -19.356  1.00  0.00     0.283 HD
HETATM   29  C5  UNL     1       3.404 -24.486 -18.599  1.00  0.00     0.209 C 
HETATM   30  C6  UNL     1       2.868 -25.766 -19.231  1.00  0.00     0.209 C 
BRANCH  26  31
HETATM   31  N6  UNL     1       1.536 -24.611 -17.130  1.00  0.00    -0.047 N 
ATOM     32  H63 UNL     1       0.629 -25.004 -17.381  1.00  0.00     0.276 HD
ATOM     33  H62 UNL     1       2.046 -25.484 -17.002  1.00  0.00     0.276 HD
ATOM     34  H61 UNL     1       1.491 -24.063 -16.271  1.00  0.00     0.276 HD
ENDBRANCH  26  31
BRANCH  29  35
HETATM   35  O2  UNL     1       4.044 -23.676 -19.529  1.00  0.00    -0.389 OA
ATOM     36  H2  UNL     1       4.859 -24.095 -19.776  1.00  0.00     0.210 HD
ENDBRANCH  29  35
BRANCH  30  37
HETATM   37  O3  UNL     1       2.776 -26.800 -18.309  1.00  0.00    -0.388 OA
ATOM     38  H3  UNL     1       2.682 -26.402 -17.451  1.00  0.00     0.210 HD
ENDBRANCH  30  37
ENDBRANCH  23  24
ENDBRANCH  21  23
ENDBRANCH   1  21
TORSDOF 10
ENDMDL
