MODEL 1
REMARK VINA RESULT: -6.402210468      0.000      0.000
REMARK  8 active torsions:
REMARK  status: ('A' for Active; 'I' for Inactive)
REMARK    1  A    between atoms: C2_3  and  N2_4 
REMARK    2  A    between atoms: N7_16  and  C4_17 
REMARK    3  A    between atoms: C4_17  and  C5_18 
REMARK    4  A    between atoms: C6_19  and  N8_20 
REMARK    5  A    between atoms: N8_20  and  O1_21 
REMARK    6  A    between atoms: N8_20  and  N9_23 
REMARK    7  A    between atoms: N9_23  and  N10_25 
REMARK    8  A    between atoms: C9_35  and  O3_36 
ROOT
HETATM    1  C5  UNL     1      -0.390 -27.194 -20.727  1.00  0.00     0.063 A 
HETATM    2  C6  UNL     1      -1.436 -26.711 -21.482  1.00  0.00     0.104 A 
HETATM    3  C7  UNL     1      -1.594 -27.240 -22.767  1.00  0.00     0.109 A 
HETATM    4  C8  UNL     1      -0.781 -28.199 -23.324  1.00  0.00     0.249 A 
HETATM    5  O2  UNL     1      -0.955 -28.651 -24.476  1.00  0.00    -0.268 OA
HETATM    6  N12 UNL     1       0.222 -28.640 -22.571  1.00  0.00    -0.303 N 
ATOM      7  H12 UNL     1       0.852 -29.350 -22.942  1.00  0.00     0.171 HD
HETATM    8  C9  UNL     1       0.416 -28.172 -21.349  1.00  0.00     0.157 A 
ENDROOT
BRANCH   1   9
HETATM    9  C4  UNL     1      -0.055 -26.701 -19.418  1.00  0.00     0.138 C 
BRANCH   9  10
HETATM   10  N7  UNL     1       0.696 -25.590 -19.023  1.00  0.00    -0.232 N 
HETATM   11  N6  UNL     1       1.041 -24.574 -19.911  1.00  0.00    -0.233 N 
HETATM   12  N5  UNL     1       1.774 -23.680 -19.387  1.00  0.00    -0.266 N 
ATOM     13  H6  UNL     1       0.735 -24.550 -20.884  1.00  0.00     0.209 HD
HETATM   14  C3  UNL     1       1.977 -24.034 -18.103  1.00  0.00     0.184 A 
ATOM     15  H5  UNL     1       2.141 -22.849 -19.851  1.00  0.00     0.190 HD
HETATM   16  N4  UNL     1       2.680 -23.445 -17.119  1.00  0.00    -0.267 N 
HETATM   17  C10 UNL     1       1.300 -25.226 -17.893  1.00  0.00     0.192 A 
HETATM   18  N3  UNL     1       2.736 -24.014 -15.907  1.00  0.00    -0.131 N 
ATOM     19  H4  UNL     1       3.170 -22.567 -17.296  1.00  0.00     0.189 HD
HETATM   20  C2  UNL     1       2.082 -25.167 -15.707  1.00  0.00     0.694 A 
ATOM     21  H3  UNL     1       3.266 -23.579 -15.152  1.00  0.00     0.205 HD
HETATM   22  N1  UNL     1       1.359 -25.805 -16.657  1.00  0.00    -0.166 N 
HETATM   23  C1  UNL     1       0.722 -27.039 -16.384  1.00  0.00     0.177 C 
BRANCH  20  24
HETATM   24  N2  UNL     1       2.144 -25.704 -14.534  1.00  0.00    -0.233 N 
ATOM     25  H22 UNL     1       2.563 -26.631 -14.453  1.00  0.00     0.174 HD
ATOM     26  H21 UNL     1       1.769 -25.175 -13.747  1.00  0.00     0.174 HD
ENDBRANCH  20  24
ENDBRANCH   9  10
ENDBRANCH   1   9
BRANCH   2  27
HETATM   27  N8  UNL     1      -2.329 -25.697 -21.115  1.00  0.00    -0.147 N 
BRANCH  27  28
HETATM   28  O1  UNL     1      -1.842 -24.495 -20.798  1.00  0.00    -0.266 OA
ATOM     29  H1  UNL     1      -1.428 -24.378 -19.951  1.00  0.00     0.247 HD
ENDBRANCH  27  28
BRANCH  27  30
HETATM   30  N9  UNL     1      -3.523 -26.090 -20.526  1.00  0.00    -0.202 N 
ATOM     31  H9  UNL     1      -3.559 -26.523 -19.602  1.00  0.00     0.212 HD
BRANCH  30  32
HETATM   32  N10 UNL     1      -4.689 -25.849 -21.297  1.00  0.00    -0.233 N 
HETATM   33  N11 UNL     1      -4.818 -24.705 -21.828  1.00  0.00    -0.330 N 
ATOM     34 2H11 UNL     1      -4.099 -23.994 -21.696  1.00  0.00     0.178 HD
ATOM     35 1H11 UNL     1      -5.656 -24.531 -22.382  1.00  0.00     0.178 HD
ATOM     36  H10 UNL     1      -5.400 -26.570 -21.420  1.00  0.00     0.209 HD
ENDBRANCH  30  32
ENDBRANCH  27  30
ENDBRANCH   2  27
BRANCH   8  37
HETATM   37  O3  UNL     1       1.527 -28.713 -20.665  1.00  0.00    -0.345 OA
ATOM     38  H3  UNL     1       2.387 -28.325 -20.773  1.00  0.00     0.219 HD
ENDBRANCH   8  37
TORSDOF 8
ENDMDL
MODEL 2
REMARK VINA RESULT: -6.291102099      2.925      5.177
REMARK  8 active torsions:
REMARK  status: ('A' for Active; 'I' for Inactive)
REMARK    1  A    between atoms: C2_3  and  N2_4 
REMARK    2  A    between atoms: N7_16  and  C4_17 
REMARK    3  A    between atoms: C4_17  and  C5_18 
REMARK    4  A    between atoms: C6_19  and  N8_20 
REMARK    5  A    between atoms: N8_20  and  O1_21 
REMARK    6  A    between atoms: N8_20  and  N9_23 
REMARK    7  A    between atoms: N9_23  and  N10_25 
REMARK    8  A    between atoms: C9_35  and  O3_36 
ROOT
HETATM    1  C5  UNL     1       1.584 -25.320 -18.285  1.00  0.00     0.063 A 
HETATM    2  C6  UNL     1       0.675 -26.351 -18.199  1.00  0.00     0.104 A 
HETATM    3  C7  UNL     1      -0.338 -26.392 -19.162  1.00  0.00     0.109 A 
HETATM    4  C8  UNL     1      -0.488 -25.479 -20.179  1.00  0.00     0.249 A 
HETATM    5  O2  UNL     1      -1.405 -25.548 -21.025  1.00  0.00    -0.268 OA
HETATM    6  N12 UNL     1       0.403 -24.493 -20.231  1.00  0.00    -0.303 N 
ATOM      7  H12 UNL     1       0.331 -23.791 -20.967  1.00  0.00     0.171 HD
HETATM    8  C9  UNL     1       1.380 -24.408 -19.343  1.00  0.00     0.157 A 
ENDROOT
BRANCH   1   9
HETATM    9  C4  UNL     1       2.638 -25.101 -17.331  1.00  0.00     0.138 C 
BRANCH   9  10
HETATM   10  N7  UNL     1       3.469 -23.996 -17.122  1.00  0.00    -0.232 N 
HETATM   11  N6  UNL     1       3.147 -22.986 -16.219  1.00  0.00    -0.233 N 
HETATM   12  N5  UNL     1       3.989 -22.037 -16.209  1.00  0.00    -0.266 N 
ATOM     13  H6  UNL     1       2.318 -23.008 -15.624  1.00  0.00     0.209 HD
HETATM   14  C3  UNL     1       4.942 -22.342 -17.112  1.00  0.00     0.184 A 
ATOM     15  H5  UNL     1       3.952 -21.200 -15.628  1.00  0.00     0.190 HD
HETATM   16  N4  UNL     1       6.047 -21.678 -17.495  1.00  0.00    -0.267 N 
HETATM   17  C10 UNL     1       4.602 -23.564 -17.672  1.00  0.00     0.192 A 
HETATM   18  N3  UNL     1       6.844 -22.199 -18.440  1.00  0.00    -0.131 N 
ATOM     19  H4  UNL     1       6.279 -20.781 -17.069  1.00  0.00     0.189 HD
HETATM   20  C2  UNL     1       6.512 -23.380 -18.981  1.00  0.00     0.694 A 
ATOM     21  H3  UNL     1       7.685 -21.707 -18.741  1.00  0.00     0.205 HD
HETATM   22  N1  UNL     1       5.414 -24.093 -18.635  1.00  0.00    -0.166 N 
HETATM   23  C1  UNL     1       5.108 -25.318 -19.274  1.00  0.00     0.177 C 
BRANCH  20  24
HETATM   24  N2  UNL     1       7.289 -23.872 -19.889  1.00  0.00    -0.233 N 
ATOM     25  H22 UNL     1       6.969 -24.697 -20.397  1.00  0.00     0.174 HD
ATOM     26  H21 UNL     1       8.183 -23.410 -20.052  1.00  0.00     0.174 HD
ENDBRANCH  20  24
ENDBRANCH   9  10
ENDBRANCH   1   9
BRANCH   2  27
HETATM   27  N8  UNL     1       0.626 -27.336 -17.205  1.00  0.00    -0.147 N 
BRANCH  27  28
HETATM   28  O1  UNL     1       1.130 -28.543 -17.471  1.00  0.00    -0.266 OA
ATOM     29  H1  UNL     1       1.848 -28.614 -18.089  1.00  0.00     0.247 HD
ENDBRANCH  27  28
BRANCH  27  30
HETATM   30  N9  UNL     1      -0.412 -27.253 -16.286  1.00  0.00    -0.202 N 
ATOM     31  H9  UNL     1      -1.321 -27.686 -16.450  1.00  0.00     0.212 HD
BRANCH  30  32
HETATM   32  N10 UNL     1      -0.119 -26.524 -15.104  1.00  0.00    -0.233 N 
HETATM   33  N11 UNL     1      -0.687 -26.890 -14.031  1.00  0.00    -0.330 N 
ATOM     34 2H11 UNL     1      -1.330 -27.681 -14.035  1.00  0.00     0.178 HD
ATOM     35 1H11 UNL     1      -0.478 -26.366 -13.182  1.00  0.00     0.178 HD
ATOM     36  H10 UNL     1       0.526 -25.734 -15.117  1.00  0.00     0.209 HD
ENDBRANCH  30  32
ENDBRANCH  27  30
ENDBRANCH   2  27
BRANCH   8  37
HETATM   37  O3  UNL     1       2.246 -23.304 -19.503  1.00  0.00    -0.345 OA
ATOM     38  H3  UNL     1       3.182 -23.412 -19.379  1.00  0.00     0.219 HD
ENDBRANCH   8  37
TORSDOF 8
ENDMDL
MODEL 3
REMARK VINA RESULT: -6.158041900      1.324      3.458
REMARK  8 active torsions:
REMARK  status: ('A' for Active; 'I' for Inactive)
REMARK    1  A    between atoms: C2_3  and  N2_4 
REMARK    2  A    between atoms: N7_16  and  C4_17 
REMARK    3  A    between atoms: C4_17  and  C5_18 
REMARK    4  A    between atoms: C6_19  and  N8_20 
REMARK    5  A    between atoms: N8_20  and  O1_21 
REMARK    6  A    between atoms: N8_20  and  N9_23 
REMARK    7  A    between atoms: N9_23  and  N10_25 
REMARK    8  A    between atoms: C9_35  and  O3_36 
ROOT
HETATM    1  C5  UNL     1      -0.996 -26.627 -20.861  1.00  0.00     0.063 A 
HETATM    2  C6  UNL     1      -0.254 -27.279 -21.820  1.00  0.00     0.104 A 
HETATM    3  C7  UNL     1      -0.905 -27.617 -23.011  1.00  0.00     0.109 A 
HETATM    4  C8  UNL     1      -2.225 -27.348 -23.284  1.00  0.00     0.249 A 
HETATM    5  O2  UNL     1      -2.774 -27.663 -24.362  1.00  0.00    -0.268 OA
HETATM    6  N12 UNL     1      -2.915 -26.722 -22.336  1.00  0.00    -0.303 N 
ATOM      7  H12 UNL     1      -3.898 -26.502 -22.493  1.00  0.00     0.171 HD
HETATM    8  C9  UNL     1      -2.346 -26.380 -21.191  1.00  0.00     0.157 A 
ENDROOT
BRANCH   1   9
HETATM    9  C4  UNL     1      -0.490 -26.275 -19.560  1.00  0.00     0.138 C 
BRANCH   9  10
HETATM   10  N7  UNL     1       0.456 -25.322 -19.174  1.00  0.00    -0.232 N 
HETATM   11  N6  UNL     1       0.946 -24.363 -20.057  1.00  0.00    -0.233 N 
HETATM   12  N5  UNL     1       1.842 -23.623 -19.545  1.00  0.00    -0.266 N 
ATOM     13  H6  UNL     1       0.619 -24.265 -21.018  1.00  0.00     0.209 HD
HETATM   14  C3  UNL     1       2.019 -24.036 -18.274  1.00  0.00     0.184 A 
ATOM     15  H5  UNL     1       2.334 -22.860 -20.008  1.00  0.00     0.190 HD
HETATM   16  N4  UNL     1       2.846 -23.600 -17.306  1.00  0.00    -0.267 N 
HETATM   17  C10 UNL     1       1.150 -25.094 -18.060  1.00  0.00     0.192 A 
HETATM   18  N3  UNL     1       2.839 -24.197 -16.106  1.00  0.00    -0.131 N 
ATOM     19  H4  UNL     1       3.476 -22.819 -17.485  1.00  0.00     0.189 HD
HETATM   20  C2  UNL     1       1.998 -25.222 -15.902  1.00  0.00     0.694 A 
ATOM     21  H3  UNL     1       3.460 -23.879 -15.363  1.00  0.00     0.205 HD
HETATM   22  N1  UNL     1       1.145 -25.702 -16.837  1.00  0.00    -0.166 N 
HETATM   23  C1  UNL     1       0.309 -26.811 -16.561  1.00  0.00     0.177 C 
BRANCH  20  24
HETATM   24  N2  UNL     1       2.001 -25.787 -14.740  1.00  0.00    -0.233 N 
ATOM     25  H22 UNL     1       2.191 -26.788 -14.695  1.00  0.00     0.174 HD
ATOM     26  H21 UNL     1       1.812 -25.203 -13.926  1.00  0.00     0.174 HD
ENDBRANCH  20  24
ENDBRANCH   9  10
ENDBRANCH   1   9
BRANCH   2  27
HETATM   27  N8  UNL     1       1.079 -27.692 -21.703  1.00  0.00    -0.147 N 
BRANCH  27  28
HETATM   28  O1  UNL     1       2.045 -26.773 -21.757  1.00  0.00    -0.266 OA
ATOM     29  H1  UNL     1       2.424 -26.556 -22.601  1.00  0.00     0.247 HD
ENDBRANCH  27  28
BRANCH  27  30
HETATM   30  N9  UNL     1       1.380 -28.977 -22.134  1.00  0.00    -0.202 N 
ATOM     31  H9  UNL     1       0.672 -29.604 -22.517  1.00  0.00     0.212 HD
BRANCH  30  32
HETATM   32  N10 UNL     1       2.741 -29.358 -22.005  1.00  0.00    -0.233 N 
HETATM   33  N11 UNL     1       3.465 -29.319 -23.045  1.00  0.00    -0.330 N 
ATOM     34 2H11 UNL     1       3.067 -29.021 -23.935  1.00  0.00     0.178 HD
ATOM     35 1H11 UNL     1       4.443 -29.593 -22.952  1.00  0.00     0.178 HD
ATOM     36  H10 UNL     1       3.124 -29.653 -21.107  1.00  0.00     0.209 HD
ENDBRANCH  30  32
ENDBRANCH  27  30
ENDBRANCH   2  27
BRANCH   8  37
HETATM   37  O3  UNL     1      -3.196 -25.737 -20.264  1.00  0.00    -0.345 OA
ATOM     38  H3  UNL     1      -4.137 -25.846 -20.326  1.00  0.00     0.219 HD
ENDBRANCH   8  37
TORSDOF 8
ENDMDL
MODEL 4
REMARK VINA RESULT: -6.116363174      3.124      5.059
REMARK  8 active torsions:
REMARK  status: ('A' for Active; 'I' for Inactive)
REMARK    1  A    between atoms: C2_3  and  N2_4 
REMARK    2  A    between atoms: N7_16  and  C4_17 
REMARK    3  A    between atoms: C4_17  and  C5_18 
REMARK    4  A    between atoms: C6_19  and  N8_20 
REMARK    5  A    between atoms: N8_20  and  O1_21 
REMARK    6  A    between atoms: N8_20  and  N9_23 
REMARK    7  A    between atoms: N9_23  and  N10_25 
REMARK    8  A    between atoms: C9_35  and  O3_36 
ROOT
HETATM    1  C5  UNL     1       1.336 -24.787 -17.794  1.00  0.00     0.063 A 
HETATM    2  C6  UNL     1       0.551 -25.573 -18.608  1.00  0.00     0.104 A 
HETATM    3  C7  UNL     1      -0.069 -26.681 -18.022  1.00  0.00     0.109 A 
HETATM    4  C8  UNL     1       0.054 -27.037 -16.700  1.00  0.00     0.249 A 
HETATM    5  O2  UNL     1      -0.517 -28.034 -16.209  1.00  0.00    -0.268 OA
HETATM    6  N12 UNL     1       0.822 -26.261 -15.942  1.00  0.00    -0.303 N 
ATOM      7  H12 UNL     1       0.944 -26.486 -14.955  1.00  0.00     0.171 HD
HETATM    8  C9  UNL     1       1.431 -25.201 -16.448  1.00  0.00     0.157 A 
ENDROOT
BRANCH   1   9
HETATM    9  C4  UNL     1       2.092 -23.656 -18.262  1.00  0.00     0.138 C 
BRANCH   9  10
HETATM   10  N7  UNL     1       3.388 -23.231 -17.952  1.00  0.00    -0.232 N 
HETATM   11  N6  UNL     1       3.637 -22.020 -17.310  1.00  0.00    -0.233 N 
HETATM   12  N5  UNL     1       4.875 -21.776 -17.167  1.00  0.00    -0.266 N 
ATOM     13  H6  UNL     1       2.900 -21.394 -16.986  1.00  0.00     0.209 HD
HETATM   14  C3  UNL     1       5.549 -22.810 -17.708  1.00  0.00     0.184 A 
ATOM     15  H5  UNL     1       5.282 -20.952 -16.726  1.00  0.00     0.190 HD
HETATM   16  N4  UNL     1       6.868 -23.045 -17.828  1.00  0.00    -0.267 N 
HETATM   17  C10 UNL     1       4.608 -23.706 -18.194  1.00  0.00     0.192 A 
HETATM   18  N3  UNL     1       7.293 -24.166 -18.429  1.00  0.00    -0.131 N 
ATOM     19  H4  UNL     1       7.542 -22.373 -17.462  1.00  0.00     0.189 HD
HETATM   20  C2  UNL     1       6.381 -25.029 -18.898  1.00  0.00     0.694 A 
ATOM     21  H3  UNL     1       8.290 -24.357 -18.527  1.00  0.00     0.205 HD
HETATM   22  N1  UNL     1       5.043 -24.846 -18.807  1.00  0.00    -0.166 N 
HETATM   23  C1  UNL     1       4.139 -25.786 -19.357  1.00  0.00     0.177 C 
BRANCH  20  24
HETATM   24  N2  UNL     1       6.805 -26.106 -19.474  1.00  0.00    -0.233 N 
ATOM     25  H22 UNL     1       7.772 -26.127 -19.797  1.00  0.00     0.174 HD
ATOM     26  H21 UNL     1       6.150 -26.881 -19.576  1.00  0.00     0.174 HD
ENDBRANCH  20  24
ENDBRANCH   9  10
ENDBRANCH   1   9
BRANCH   2  27
HETATM   27  N8  UNL     1       0.355 -25.409 -19.985  1.00  0.00    -0.147 N 
BRANCH  27  28
HETATM   28  O1  UNL     1      -0.672 -24.666 -20.405  1.00  0.00    -0.266 OA
ATOM     29  H1  UNL     1      -1.195 -24.979 -21.133  1.00  0.00     0.247 HD
ENDBRANCH  27  28
BRANCH  27  30
HETATM   30  N9  UNL     1       0.794 -26.435 -20.810  1.00  0.00    -0.202 N 
ATOM     31  H9  UNL     1       1.243 -27.276 -20.445  1.00  0.00     0.212 HD
BRANCH  30  32
HETATM   32  N10 UNL     1       0.577 -26.234 -22.199  1.00  0.00    -0.233 N 
HETATM   33  N11 UNL     1      -0.319 -26.932 -22.762  1.00  0.00    -0.330 N 
ATOM     34 2H11 UNL     1      -0.855 -27.610 -22.222  1.00  0.00     0.178 HD
ATOM     35 1H11 UNL     1      -0.475 -26.788 -23.759  1.00  0.00     0.178 HD
ATOM     36  H10 UNL     1       1.122 -25.551 -22.725  1.00  0.00     0.209 HD
ENDBRANCH  30  32
ENDBRANCH  27  30
ENDBRANCH   2  27
BRANCH   8  37
HETATM   37  O3  UNL     1       2.230 -24.473 -15.538  1.00  0.00    -0.345 OA
ATOM     38  H3  UNL     1       2.069 -24.539 -14.605  1.00  0.00     0.219 HD
ENDBRANCH   8  37
TORSDOF 8
ENDMDL
MODEL 5
REMARK VINA RESULT: -5.983689651      3.347      5.960
REMARK  8 active torsions:
REMARK  status: ('A' for Active; 'I' for Inactive)
REMARK    1  A    between atoms: C2_3  and  N2_4 
REMARK    2  A    between atoms: N7_16  and  C4_17 
REMARK    3  A    between atoms: C4_17  and  C5_18 
REMARK    4  A    between atoms: C6_19  and  N8_20 
REMARK    5  A    between atoms: N8_20  and  O1_21 
REMARK    6  A    between atoms: N8_20  and  N9_23 
REMARK    7  A    between atoms: N9_23  and  N10_25 
REMARK    8  A    between atoms: C9_35  and  O3_36 
ROOT
HETATM    1  C5  UNL     1       1.923 -25.493 -17.402  1.00  0.00     0.063 A 
HETATM    2  C6  UNL     1       1.862 -24.897 -18.642  1.00  0.00     0.104 A 
HETATM    3  C7  UNL     1       2.383 -23.603 -18.756  1.00  0.00     0.109 A 
HETATM    4  C8  UNL     1       2.943 -22.892 -17.721  1.00  0.00     0.249 A 
HETATM    5  O2  UNL     1       3.401 -21.738 -17.860  1.00  0.00    -0.268 OA
HETATM    6  N12 UNL     1       2.982 -23.494 -16.536  1.00  0.00    -0.303 N 
ATOM      7  H12 UNL     1       3.387 -23.005 -15.739  1.00  0.00     0.171 HD
HETATM    8  C9  UNL     1       2.503 -24.716 -16.376  1.00  0.00     0.157 A 
ENDROOT
BRANCH   1   9
HETATM    9  C4  UNL     1       1.369 -26.788 -17.110  1.00  0.00     0.138 C 
BRANCH   9  10
HETATM   10  N7  UNL     1       0.356 -27.171 -16.226  1.00  0.00    -0.232 N 
HETATM   11  N6  UNL     1      -0.097 -26.334 -15.209  1.00  0.00    -0.233 N 
HETATM   12  N5  UNL     1      -0.977 -26.875 -14.471  1.00  0.00    -0.266 N 
ATOM     13  H6  UNL     1       0.243 -25.382 -15.071  1.00  0.00     0.209 HD
HETATM   14  C3  UNL     1      -1.178 -28.122 -14.942  1.00  0.00     0.184 A 
ATOM     15  H5  UNL     1      -1.444 -26.447 -13.672  1.00  0.00     0.190 HD
HETATM   16  N4  UNL     1      -1.991 -29.109 -14.523  1.00  0.00    -0.267 N 
HETATM   17  C10 UNL     1      -0.339 -28.291 -16.033  1.00  0.00     0.192 A 
HETATM   18  N3  UNL     1      -1.998 -30.285 -15.167  1.00  0.00    -0.131 N 
ATOM     19  H4  UNL     1      -2.600 -28.963 -13.718  1.00  0.00     0.189 HD
HETATM   20  C2  UNL     1      -1.185 -30.445 -16.221  1.00  0.00     0.694 A 
ATOM     21  H3  UNL     1      -2.608 -31.042 -14.861  1.00  0.00     0.205 HD
HETATM   22  N1  UNL     1      -0.347 -29.489 -16.687  1.00  0.00    -0.166 N 
HETATM   23  C1  UNL     1       0.509 -29.741 -17.786  1.00  0.00     0.177 C 
BRANCH  20  24
HETATM   24  N2  UNL     1      -1.203 -31.582 -16.834  1.00  0.00    -0.233 N 
ATOM     25  H22 UNL     1      -1.701 -31.640 -17.722  1.00  0.00     0.174 HD
ATOM     26  H21 UNL     1      -0.717 -32.366 -16.398  1.00  0.00     0.174 HD
ENDBRANCH  20  24
ENDBRANCH   9  10
ENDBRANCH   1   9
BRANCH   2  27
HETATM   27  N8  UNL     1       1.277 -25.432 -19.796  1.00  0.00    -0.147 N 
BRANCH  27  28
HETATM   28  O1  UNL     1       2.044 -26.116 -20.648  1.00  0.00    -0.266 OA
ATOM     29  H1  UNL     1       2.014 -25.892 -21.571  1.00  0.00     0.247 HD
ENDBRANCH  27  28
BRANCH  27  30
HETATM   30  N9  UNL     1       0.169 -24.769 -20.307  1.00  0.00    -0.202 N 
ATOM     31  H9  UNL     1       0.167 -23.763 -20.479  1.00  0.00     0.212 HD
BRANCH  30  32
HETATM   32  N10 UNL     1      -0.960 -25.588 -20.572  1.00  0.00    -0.233 N 
HETATM   33  N11 UNL     1      -1.022 -26.712 -19.990  1.00  0.00    -0.330 N 
ATOM     34 2H11 UNL     1      -0.279 -27.003 -19.355  1.00  0.00     0.178 HD
ATOM     35 1H11 UNL     1      -1.833 -27.300 -20.181  1.00  0.00     0.178 HD
ATOM     36  H10 UNL     1      -1.696 -25.282 -21.209  1.00  0.00     0.209 HD
ENDBRANCH  30  32
ENDBRANCH  27  30
ENDBRANCH   2  27
BRANCH   8  37
HETATM   37  O3  UNL     1       2.591 -25.232 -15.063  1.00  0.00    -0.345 OA
ATOM     38  H3  UNL     1       1.988 -25.907 -14.776  1.00  0.00     0.219 HD
ENDBRANCH   8  37
TORSDOF 8
ENDMDL
