MODEL 1
REMARK VINA RESULT: -7.006597109      0.000      0.000
REMARK  11 active torsions:
REMARK  status: ('A' for Active; 'I' for Inactive)
REMARK    1  A    between atoms: C2_2  and  C9_31 
REMARK    2  A    between atoms: N1_3  and  N2_5 
REMARK    3  A    between atoms: N2_5  and  C3_7 
REMARK    4  A    between atoms: C5_14  and  N6_15 
REMARK    5  A    between atoms: N6_15  and  C6_17 
REMARK    6  A    between atoms: C7_21  and  O1_22 
REMARK    7  A    between atoms: C7_21  and  O2_24 
REMARK    8  A    between atoms: C8_26  and  O3_27 
REMARK    9  A    between atoms: C9_31  and  O4_32 
REMARK   10  A    between atoms: C9_31  and  C10_34 
REMARK   11  A    between atoms: C10_34  and  O5_36 
ROOT
HETATM    1  C3  UNL     1       0.444 -26.470 -16.964  1.00  0.00     0.713 A 
HETATM    2  N3  UNL     1      -0.256 -26.798 -15.856  1.00  0.00    -0.161 N 
ATOM      3  H3  UNL     1      -1.012 -27.481 -15.903  1.00  0.00     0.187 HD
HETATM    4  C4  UNL     1       0.064 -26.206 -14.687  1.00  0.00     0.221 A 
HETATM    5  N4  UNL     1      -0.683 -26.562 -13.526  1.00  0.00    -0.062 NA
HETATM    6  N5  UNL     1       1.063 -25.311 -14.651  1.00  0.00    -0.162 N 
ATOM      7  H5  UNL     1       1.296 -24.870 -13.761  1.00  0.00     0.187 HD
HETATM    8  C5  UNL     1       1.766 -24.975 -15.745  1.00  0.00     0.697 A 
HETATM    9  N8  UNL     1       1.452 -25.560 -16.902  1.00  0.00    -0.021 N 
ATOM     10  H8  UNL     1       1.971 -25.321 -17.748  1.00  0.00     0.203 HD
ENDROOT
BRANCH   8  11
HETATM   11  N6  UNL     1       2.721 -24.119 -15.708  1.00  0.00    -0.193 N 
ATOM     12  H6  UNL     1       3.089 -23.787 -14.817  1.00  0.00     0.180 HD
BRANCH  11  13
HETATM   13  C6  UNL     1       3.262 -23.636 -16.957  1.00  0.00     0.342 C 
HETATM   14  N7  UNL     1       4.682 -23.903 -17.072  1.00  0.00     0.009 N 
HETATM   15  C7  UNL     1       4.996 -22.495 -16.952  1.00  0.00     0.366 C 
ATOM     16  H72 UNL     1       5.119 -24.569 -16.435  1.00  0.00     0.286 HD
ATOM     17  H71 UNL     1       5.029 -24.425 -17.877  1.00  0.00     0.286 HD
HETATM   18  C8  UNL     1       3.521 -22.163 -16.996  1.00  0.00     0.261 C 
BRANCH  15  19
HETATM   19  O1  UNL     1       5.680 -22.038 -18.084  1.00  0.00    -0.342 OA
ATOM     20  H1  UNL     1       6.482 -22.528 -18.216  1.00  0.00     0.215 HD
ENDBRANCH  15  19
BRANCH  15  21
HETATM   21  O2  UNL     1       5.630 -22.144 -15.763  1.00  0.00    -0.342 OA
ATOM     22  H2  UNL     1       6.491 -22.529 -15.648  1.00  0.00     0.215 HD
ENDBRANCH  15  21
BRANCH  18  23
HETATM   23  O3  UNL     1       3.130 -21.558 -18.184  1.00  0.00    -0.384 OA
ATOM     24  H3  UNL     1       2.355 -21.014 -18.100  1.00  0.00     0.210 HD
ENDBRANCH  18  23
ENDBRANCH  11  13
ENDBRANCH   8  11
BRANCH   1  25
HETATM   25  N2  UNL     1       0.117 -27.047 -18.054  1.00  0.00    -0.131 N 
ATOM     26  H2  UNL     1       0.263 -28.052 -18.159  1.00  0.00     0.205 HD
BRANCH  25  27
HETATM   27  N1  UNL     1      -0.433 -26.325 -19.091  1.00  0.00    -0.292 N 
HETATM   28  C2  UNL     1      -0.881 -26.840 -20.187  1.00  0.00     0.031 C 
HETATM   29  C1  UNL     1      -0.795 -28.302 -20.332  1.00  0.00     0.068 C 
ATOM     30  H1  UNL     1      -0.491 -25.312 -18.986  1.00  0.00     0.187 HD
BRANCH  28  31
HETATM   31  C9  UNL     1      -1.443 -25.960 -21.212  1.00  0.00     0.193 C 
BRANCH  31  32
HETATM   32  O4  UNL     1      -1.562 -24.656 -20.735  1.00  0.00    -0.387 OA
ATOM     33  H4  UNL     1      -2.395 -24.278 -20.991  1.00  0.00     0.210 HD
ENDBRANCH  31  32
BRANCH  31  34
HETATM   34  C10 UNL     1      -2.814 -26.376 -21.691  1.00  0.00     0.148 C 
HETATM   35  C11 UNL     1      -3.935 -25.806 -20.885  1.00  0.00     0.042 C 
BRANCH  34  36
HETATM   36  O5  UNL     1      -3.016 -26.162 -23.033  1.00  0.00    -0.393 OA
ATOM     37  H5  UNL     1      -3.263 -26.945 -23.510  1.00  0.00     0.210 HD
ENDBRANCH  34  36
ENDBRANCH  31  34
ENDBRANCH  28  31
ENDBRANCH  25  27
ENDBRANCH   1  25
TORSDOF 11
ENDMDL
MODEL 2
REMARK VINA RESULT: -6.858052374      2.815      4.481
REMARK  11 active torsions:
REMARK  status: ('A' for Active; 'I' for Inactive)
REMARK    1  A    between atoms: C2_2  and  C9_31 
REMARK    2  A    between atoms: N1_3  and  N2_5 
REMARK    3  A    between atoms: N2_5  and  C3_7 
REMARK    4  A    between atoms: C5_14  and  N6_15 
REMARK    5  A    between atoms: N6_15  and  C6_17 
REMARK    6  A    between atoms: C7_21  and  O1_22 
REMARK    7  A    between atoms: C7_21  and  O2_24 
REMARK    8  A    between atoms: C8_26  and  O3_27 
REMARK    9  A    between atoms: C9_31  and  O4_32 
REMARK   10  A    between atoms: C9_31  and  C10_34 
REMARK   11  A    between atoms: C10_34  and  O5_36 
ROOT
HETATM    1  C3  UNL     1       1.722 -24.319 -18.936  1.00  0.00     0.713 A 
HETATM    2  N3  UNL     1       2.490 -23.228 -18.723  1.00  0.00    -0.161 N 
ATOM      3  H3  UNL     1       2.486 -22.453 -19.385  1.00  0.00     0.187 HD
HETATM    4  C4  UNL     1       3.263 -23.185 -17.618  1.00  0.00     0.221 A 
HETATM    5  N4  UNL     1       4.068 -22.028 -17.407  1.00  0.00    -0.062 NA
HETATM    6  N5  UNL     1       3.252 -24.218 -16.762  1.00  0.00    -0.162 N 
ATOM      7  H5  UNL     1       3.840 -24.173 -15.930  1.00  0.00     0.187 HD
HETATM    8  C5  UNL     1       2.493 -25.308 -16.962  1.00  0.00     0.697 A 
HETATM    9  N8  UNL     1       1.728 -25.354 -18.054  1.00  0.00    -0.021 N 
ATOM     10  H8  UNL     1       1.143 -26.171 -18.229  1.00  0.00     0.203 HD
ENDROOT
BRANCH   8  11
HETATM   11  N6  UNL     1       2.484 -26.294 -16.143  1.00  0.00    -0.193 N 
ATOM     12  H6  UNL     1       2.835 -27.209 -16.425  1.00  0.00     0.180 HD
BRANCH  11  13
HETATM   13  C6  UNL     1       1.965 -26.081 -14.813  1.00  0.00     0.342 C 
HETATM   14  N7  UNL     1       1.249 -27.240 -14.317  1.00  0.00     0.009 N 
HETATM   15  C7  UNL     1      -0.017 -26.541 -14.396  1.00  0.00     0.366 C 
ATOM     16  H72 UNL     1       1.357 -28.135 -14.794  1.00  0.00     0.286 HD
ATOM     17  H71 UNL     1       1.532 -27.661 -13.432  1.00  0.00     0.286 HD
HETATM   18  C8  UNL     1       0.712 -25.265 -14.755  1.00  0.00     0.261 C 
BRANCH  15  19
HETATM   19  O1  UNL     1      -0.628 -26.471 -13.140  1.00  0.00    -0.342 OA
ATOM     20  H1  UNL     1      -1.530 -26.764 -13.185  1.00  0.00     0.215 HD
ENDBRANCH  15  19
BRANCH  15  21
HETATM   21  O2  UNL     1      -0.875 -27.013 -15.386  1.00  0.00    -0.342 OA
ATOM     22  H2  UNL     1      -1.076 -27.939 -15.324  1.00  0.00     0.215 HD
ENDBRANCH  15  21
BRANCH  18  23
HETATM   23  O3  UNL     1       0.704 -24.323 -13.733  1.00  0.00    -0.384 OA
ATOM     24  H3  UNL     1       0.570 -24.696 -12.870  1.00  0.00     0.210 HD
ENDBRANCH  18  23
ENDBRANCH  11  13
ENDBRANCH   8  11
BRANCH   1  25
HETATM   25  N2  UNL     1       1.002 -24.330 -19.990  1.00  0.00    -0.131 N 
ATOM     26  H2  UNL     1       1.356 -23.907 -20.849  1.00  0.00     0.205 HD
BRANCH  25  27
HETATM   27  N1  UNL     1      -0.249 -24.909 -19.978  1.00  0.00    -0.292 N 
HETATM   28  C2  UNL     1      -0.613 -25.883 -20.742  1.00  0.00     0.031 C 
HETATM   29  C1  UNL     1       0.382 -26.408 -21.691  1.00  0.00     0.068 C 
ATOM     30  H1  UNL     1      -0.935 -24.542 -19.318  1.00  0.00     0.187 HD
BRANCH  28  31
HETATM   31  C9  UNL     1      -1.974 -26.409 -20.629  1.00  0.00     0.193 C 
BRANCH  31  32
HETATM   32  O4  UNL     1      -2.023 -27.745 -21.023  1.00  0.00    -0.387 OA
ATOM     33  H4  UNL     1      -2.292 -28.301 -20.301  1.00  0.00     0.210 HD
ENDBRANCH  31  32
BRANCH  31  34
HETATM   34  C10 UNL     1      -2.988 -25.669 -21.470  1.00  0.00     0.148 C 
HETATM   35  C11 UNL     1      -4.354 -26.272 -21.440  1.00  0.00     0.042 C 
BRANCH  34  36
HETATM   36  O5  UNL     1      -3.040 -24.321 -21.208  1.00  0.00    -0.393 OA
ATOM     37  H5  UNL     1      -3.248 -23.793 -21.970  1.00  0.00     0.210 HD
ENDBRANCH  34  36
ENDBRANCH  31  34
ENDBRANCH  28  31
ENDBRANCH  25  27
ENDBRANCH   1  25
TORSDOF 11
ENDMDL
MODEL 3
REMARK VINA RESULT: -6.759380766      3.119      4.845
REMARK  11 active torsions:
REMARK  status: ('A' for Active; 'I' for Inactive)
REMARK    1  A    between atoms: C2_2  and  C9_31 
REMARK    2  A    between atoms: N1_3  and  N2_5 
REMARK    3  A    between atoms: N2_5  and  C3_7 
REMARK    4  A    between atoms: C5_14  and  N6_15 
REMARK    5  A    between atoms: N6_15  and  C6_17 
REMARK    6  A    between atoms: C7_21  and  O1_22 
REMARK    7  A    between atoms: C7_21  and  O2_24 
REMARK    8  A    between atoms: C8_26  and  O3_27 
REMARK    9  A    between atoms: C9_31  and  O4_32 
REMARK   10  A    between atoms: C9_31  and  C10_34 
REMARK   11  A    between atoms: C10_34  and  O5_36 
ROOT
HETATM    1  C3  UNL     1       1.674 -24.102 -18.818  1.00  0.00     0.713 A 
HETATM    2  N3  UNL     1       2.682 -23.203 -18.819  1.00  0.00    -0.161 N 
ATOM      3  H3  UNL     1       2.938 -22.710 -19.675  1.00  0.00     0.187 HD
HETATM    4  C4  UNL     1       3.344 -22.969 -17.667  1.00  0.00     0.221 A 
HETATM    5  N4  UNL     1       4.405 -22.018 -17.682  1.00  0.00    -0.062 NA
HETATM    6  N5  UNL     1       2.989 -23.631 -16.555  1.00  0.00    -0.162 N 
ATOM      7  H5  UNL     1       3.497 -23.445 -15.690  1.00  0.00     0.187 HD
HETATM    8  C5  UNL     1       1.989 -24.527 -16.541  1.00  0.00     0.697 A 
HETATM    9  N8  UNL     1       1.333 -24.760 -17.679  1.00  0.00    -0.021 N 
ATOM     10  H8  UNL     1       0.570 -25.436 -17.694  1.00  0.00     0.203 HD
ENDROOT
BRANCH   8  11
HETATM   11  N6  UNL     1       1.651 -25.158 -15.477  1.00  0.00    -0.193 N 
ATOM     12  H6  UNL     1       1.867 -24.779 -14.555  1.00  0.00     0.180 HD
BRANCH  11  13
HETATM   13  C6  UNL     1       0.958 -26.418 -15.612  1.00  0.00     0.342 C 
HETATM   14  N7  UNL     1      -0.431 -26.319 -15.212  1.00  0.00     0.009 N 
HETATM   15  C7  UNL     1      -0.192 -27.132 -14.038  1.00  0.00     0.366 C 
ATOM     16  H72 UNL     1      -0.856 -25.397 -15.103  1.00  0.00     0.286 HD
ATOM     17  H71 UNL     1      -1.161 -26.593 -15.870  1.00  0.00     0.286 HD
HETATM   18  C8  UNL     1       1.221 -27.396 -14.511  1.00  0.00     0.261 C 
BRANCH  15  19
HETATM   19  O1  UNL     1      -0.985 -28.285 -14.060  1.00  0.00    -0.342 OA
ATOM     20  H1  UNL     1      -0.629 -28.952 -13.486  1.00  0.00     0.215 HD
ENDBRANCH  15  19
BRANCH  15  21
HETATM   21  O2  UNL     1      -0.277 -26.444 -12.831  1.00  0.00    -0.342 OA
ATOM     22  H2  UNL     1       0.466 -25.882 -12.645  1.00  0.00     0.215 HD
ENDBRANCH  15  21
BRANCH  18  23
HETATM   23  O3  UNL     1       1.418 -28.698 -14.954  1.00  0.00    -0.384 OA
ATOM     24  H3  UNL     1       0.902 -29.344 -14.485  1.00  0.00     0.210 HD
ENDBRANCH  18  23
ENDBRANCH  11  13
ENDBRANCH   8  11
BRANCH   1  25
HETATM   25  N2  UNL     1       1.068 -24.301 -19.924  1.00  0.00    -0.131 N 
ATOM     26  H2  UNL     1       1.517 -24.038 -20.802  1.00  0.00     0.205 HD
BRANCH  25  27
HETATM   27  N1  UNL     1      -0.188 -24.868 -19.942  1.00  0.00    -0.292 N 
HETATM   28  C2  UNL     1      -0.528 -25.873 -20.678  1.00  0.00     0.031 C 
HETATM   29  C1  UNL     1       0.502 -26.447 -21.557  1.00  0.00     0.068 C 
ATOM     30  H1  UNL     1      -0.899 -24.466 -19.331  1.00  0.00     0.187 HD
BRANCH  28  31
HETATM   31  C9  UNL     1      -1.898 -26.382 -20.602  1.00  0.00     0.193 C 
BRANCH  31  32
HETATM   32  O4  UNL     1      -1.989 -27.647 -21.179  1.00  0.00    -0.387 OA
ATOM     33  H4  UNL     1      -2.160 -28.309 -20.519  1.00  0.00     0.210 HD
ENDBRANCH  31  32
BRANCH  31  34
HETATM   34  C10 UNL     1      -2.915 -25.510 -21.302  1.00  0.00     0.148 C 
HETATM   35  C11 UNL     1      -4.330 -25.924 -21.067  1.00  0.00     0.042 C 
BRANCH  34  36
HETATM   36  O5  UNL     1      -2.749 -24.168 -21.057  1.00  0.00    -0.393 OA
ATOM     37  H5  UNL     1      -3.548 -23.663 -21.149  1.00  0.00     0.210 HD
ENDBRANCH  34  36
ENDBRANCH  31  34
ENDBRANCH  28  31
ENDBRANCH  25  27
ENDBRANCH   1  25
TORSDOF 11
ENDMDL
MODEL 4
REMARK VINA RESULT: -6.514032296      1.767      6.418
REMARK  11 active torsions:
REMARK  status: ('A' for Active; 'I' for Inactive)
REMARK    1  A    between atoms: C2_2  and  C9_31 
REMARK    2  A    between atoms: N1_3  and  N2_5 
REMARK    3  A    between atoms: N2_5  and  C3_7 
REMARK    4  A    between atoms: C5_14  and  N6_15 
REMARK    5  A    between atoms: N6_15  and  C6_17 
REMARK    6  A    between atoms: C7_21  and  O1_22 
REMARK    7  A    between atoms: C7_21  and  O2_24 
REMARK    8  A    between atoms: C8_26  and  O3_27 
REMARK    9  A    between atoms: C9_31  and  O4_32 
REMARK   10  A    between atoms: C9_31  and  C10_34 
REMARK   11  A    between atoms: C10_34  and  O5_36 
ROOT
HETATM    1  C3  UNL     1       1.913 -24.875 -16.243  1.00  0.00     0.713 A 
HETATM    2  N3  UNL     1       1.081 -25.050 -15.193  1.00  0.00    -0.161 N 
ATOM      3  H3  UNL     1       1.202 -24.508 -14.338  1.00  0.00     0.187 HD
HETATM    4  C4  UNL     1       0.086 -25.955 -15.298  1.00  0.00     0.221 A 
HETATM    5  N4  UNL     1      -0.785 -26.130 -14.183  1.00  0.00    -0.062 NA
HETATM    6  N5  UNL     1      -0.054 -26.656 -16.434  1.00  0.00    -0.162 N 
ATOM      7  H5  UNL     1      -0.810 -27.337 -16.501  1.00  0.00     0.187 HD
HETATM    8  C5  UNL     1       0.767 -26.492 -17.484  1.00  0.00     0.697 A 
HETATM    9  N8  UNL     1       1.751 -25.597 -17.383  1.00  0.00    -0.021 N 
ATOM     10  H8  UNL     1       2.388 -25.454 -18.167  1.00  0.00     0.203 HD
ENDROOT
BRANCH   8  11
HETATM   11  N6  UNL     1       0.632 -27.163 -18.569  1.00  0.00    -0.193 N 
ATOM     12  H6  UNL     1       1.169 -28.015 -18.724  1.00  0.00     0.180 HD
BRANCH  11  13
HETATM   13  C6  UNL     1      -0.297 -26.684 -19.565  1.00  0.00     0.342 C 
HETATM   14  N7  UNL     1      -0.263 -27.488 -20.770  1.00  0.00     0.009 N 
HETATM   15  C7  UNL     1       0.344 -26.408 -21.520  1.00  0.00     0.366 C 
ATOM     16  H72 UNL     1       0.193 -28.400 -20.750  1.00  0.00     0.286 HD
ATOM     17  H71 UNL     1      -1.126 -27.911 -21.113  1.00  0.00     0.286 HD
HETATM   18  C8  UNL     1       0.172 -25.488 -20.332  1.00  0.00     0.261 C 
BRANCH  15  19
HETATM   19  O1  UNL     1      -0.462 -26.038 -22.603  1.00  0.00    -0.342 OA
ATOM     20  H1  UNL     1      -0.306 -26.603 -23.350  1.00  0.00     0.215 HD
ENDBRANCH  15  19
BRANCH  15  21
HETATM   21  O2  UNL     1       1.667 -26.634 -21.888  1.00  0.00    -0.342 OA
ATOM     22  H2  UNL     1       2.271 -25.948 -21.626  1.00  0.00     0.215 HD
ENDBRANCH  15  21
BRANCH  18  23
HETATM   23  O3  UNL     1      -0.811 -24.524 -20.522  1.00  0.00    -0.384 OA
ATOM     24  H3  UNL     1      -0.489 -23.720 -20.911  1.00  0.00     0.210 HD
ENDBRANCH  18  23
ENDBRANCH  11  13
ENDBRANCH   8  11
BRANCH   1  25
HETATM   25  N2  UNL     1       2.844 -24.011 -16.113  1.00  0.00    -0.131 N 
ATOM     26  H2  UNL     1       2.750 -23.267 -15.422  1.00  0.00     0.205 HD
BRANCH  25  27
HETATM   27  N1  UNL     1       3.975 -24.078 -16.897  1.00  0.00    -0.292 N 
HETATM   28  C2  UNL     1       4.740 -23.073 -17.166  1.00  0.00     0.031 C 
HETATM   29  C1  UNL     1       4.373 -21.769 -16.590  1.00  0.00     0.068 C 
ATOM     30  H1  UNL     1       4.225 -24.983 -17.294  1.00  0.00     0.187 HD
BRANCH  28  31
HETATM   31  C9  UNL     1       5.915 -23.278 -18.014  1.00  0.00     0.193 C 
BRANCH  31  32
HETATM   32  O4  UNL     1       6.558 -22.068 -18.271  1.00  0.00    -0.387 OA
ATOM     33  H4  UNL     1       7.489 -22.136 -18.093  1.00  0.00     0.210 HD
ENDBRANCH  31  32
BRANCH  31  34
HETATM   34  C10 UNL     1       5.600 -23.896 -19.356  1.00  0.00     0.148 C 
HETATM   35  C11 UNL     1       6.142 -25.277 -19.528  1.00  0.00     0.042 C 
BRANCH  34  36
HETATM   36  O5  UNL     1       4.266 -23.849 -19.684  1.00  0.00    -0.393 OA
ATOM     37  H5  UNL     1       4.076 -24.186 -20.552  1.00  0.00     0.210 HD
ENDBRANCH  34  36
ENDBRANCH  31  34
ENDBRANCH  28  31
ENDBRANCH  25  27
ENDBRANCH   1  25
TORSDOF 11
ENDMDL
MODEL 5
REMARK VINA RESULT: -6.411883159      3.665      5.626
REMARK  11 active torsions:
REMARK  status: ('A' for Active; 'I' for Inactive)
REMARK    1  A    between atoms: C2_2  and  C9_31 
REMARK    2  A    between atoms: N1_3  and  N2_5 
REMARK    3  A    between atoms: N2_5  and  C3_7 
REMARK    4  A    between atoms: C5_14  and  N6_15 
REMARK    5  A    between atoms: N6_15  and  C6_17 
REMARK    6  A    between atoms: C7_21  and  O1_22 
REMARK    7  A    between atoms: C7_21  and  O2_24 
REMARK    8  A    between atoms: C8_26  and  O3_27 
REMARK    9  A    between atoms: C9_31  and  O4_32 
REMARK   10  A    between atoms: C9_31  and  C10_34 
REMARK   11  A    between atoms: C10_34  and  O5_36 
ROOT
HETATM    1  C3  UNL     1       1.083 -25.404 -17.714  1.00  0.00     0.713 A 
HETATM    2  N3  UNL     1       0.618 -25.558 -18.973  1.00  0.00    -0.161 N 
ATOM      3  H3  UNL     1      -0.054 -26.292 -19.193  1.00  0.00     0.187 HD
HETATM    4  C4  UNL     1       1.062 -24.722 -19.935  1.00  0.00     0.221 A 
HETATM    5  N4  UNL     1       0.564 -24.895 -21.259  1.00  0.00    -0.062 NA
HETATM    6  N5  UNL     1       1.947 -23.764 -19.621  1.00  0.00    -0.162 N 
ATOM      7  H5  UNL     1       2.275 -23.137 -20.356  1.00  0.00     0.187 HD
HETATM    8  C5  UNL     1       2.417 -23.601 -18.373  1.00  0.00     0.697 A 
HETATM    9  N8  UNL     1       1.980 -24.427 -17.421  1.00  0.00    -0.021 N 
ATOM     10  H8  UNL     1       2.322 -24.324 -16.465  1.00  0.00     0.203 HD
ENDROOT
BRANCH   8  11
HETATM   11  N6  UNL     1       3.263 -22.685 -18.075  1.00  0.00    -0.193 N 
ATOM     12  H6  UNL     1       3.233 -21.777 -18.539  1.00  0.00     0.180 HD
BRANCH  11  13
HETATM   13  C6  UNL     1       4.259 -22.967 -17.069  1.00  0.00     0.342 C 
HETATM   14  N7  UNL     1       5.023 -21.787 -16.715  1.00  0.00     0.009 N 
HETATM   15  C7  UNL     1       6.212 -22.319 -17.346  1.00  0.00     0.366 C 
ATOM     16  H72 UNL     1       4.679 -20.867 -16.992  1.00  0.00     0.286 HD
ATOM     17  H71 UNL     1       5.064 -21.492 -15.739  1.00  0.00     0.286 HD
HETATM   18  C8  UNL     1       5.497 -23.631 -17.584  1.00  0.00     0.261 C 
BRANCH  15  19
HETATM   19  O1  UNL     1       7.255 -22.441 -16.421  1.00  0.00    -0.342 OA
ATOM     20  H1  UNL     1       7.823 -21.680 -16.448  1.00  0.00     0.215 HD
ENDBRANCH  15  19
BRANCH  15  21
HETATM   21  O2  UNL     1       6.598 -21.654 -18.506  1.00  0.00    -0.342 OA
ATOM     22  H2  UNL     1       7.165 -20.906 -18.361  1.00  0.00     0.215 HD
ENDBRANCH  15  21
BRANCH  18  23
HETATM   23  O3  UNL     1       5.957 -24.662 -16.775  1.00  0.00    -0.384 OA
ATOM     24  H3  UNL     1       5.284 -25.287 -16.531  1.00  0.00     0.210 HD
ENDBRANCH  18  23
ENDBRANCH  11  13
ENDBRANCH   8  11
BRANCH   1  25
HETATM   25  N2  UNL     1       0.644 -26.212 -16.827  1.00  0.00    -0.131 N 
ATOM     26  H2  UNL     1       0.003 -26.959 -17.096  1.00  0.00     0.205 HD
BRANCH  25  27
HETATM   27  N1  UNL     1       1.029 -26.082 -15.511  1.00  0.00    -0.292 N 
HETATM   28  C2  UNL     1       0.287 -26.380 -14.497  1.00  0.00     0.031 C 
HETATM   29  C1  UNL     1      -1.064 -26.893 -14.775  1.00  0.00     0.068 C 
ATOM     30  H1  UNL     1       1.967 -25.725 -15.323  1.00  0.00     0.187 HD
BRANCH  28  31
HETATM   31  C9  UNL     1       0.817 -26.195 -13.146  1.00  0.00     0.193 C 
BRANCH  31  32
HETATM   32  O4  UNL     1       1.080 -24.850 -12.896  1.00  0.00    -0.387 OA
ATOM     33  H4  UNL     1       2.015 -24.693 -12.840  1.00  0.00     0.210 HD
ENDBRANCH  31  32
BRANCH  31  34
HETATM   34  C10 UNL     1       2.103 -26.946 -12.885  1.00  0.00     0.148 C 
HETATM   35  C11 UNL     1       1.949 -28.432 -12.903  1.00  0.00     0.042 C 
BRANCH  34  36
HETATM   36  O5  UNL     1       3.143 -26.550 -13.690  1.00  0.00    -0.393 OA
ATOM     37  H5  UNL     1       3.262 -27.100 -14.456  1.00  0.00     0.210 HD
ENDBRANCH  34  36
ENDBRANCH  31  34
ENDBRANCH  28  31
ENDBRANCH  25  27
ENDBRANCH   1  25
TORSDOF 11
ENDMDL
