MODEL 1
REMARK VINA RESULT: -5.506057137      0.000      0.000
REMARK  10 active torsions:
REMARK  status: ('A' for Active; 'I' for Inactive)
REMARK    1  A    between atoms: N1_1  and  C1_4 
REMARK    2  A    between atoms: N3_8  and  O1_10 
REMARK    3  A    between atoms: N5_16  and  C5_17 
REMARK    4  A    between atoms: C6_19  and  O3_20 
REMARK    5  A    between atoms: C6_19  and  C7_22 
REMARK    6  A    between atoms: C7_22  and  O4_23 
REMARK    7  A    between atoms: C8_25  and  O5_26 
REMARK    8  A    between atoms: C9_28  and  N6_29 
REMARK    9  A    between atoms: C10_31  and  C11_32 
REMARK   10  A    between atoms: C11_32  and  N7_33 
ROOT
HETATM    1  C1  UNL     1       2.232 -25.739 -15.472  1.00  0.00     0.678 A 
HETATM    2  N2  UNL     1       2.645 -24.479 -15.753  1.00  0.00    -0.173 N 
ATOM      3  H2  UNL     1       3.068 -23.931 -15.005  1.00  0.00     0.186 HD
HETATM    4  C2  UNL     1       2.527 -23.912 -16.973  1.00  0.00     0.170 A 
HETATM    5  N3  UNL     1       2.927 -22.707 -17.222  1.00  0.00    -0.251 N 
ATOM      6  H3  UNL     1       2.828 -22.297 -18.150  1.00  0.00     0.196 HD
HETATM    7  C3  UNL     1       1.941 -24.698 -17.968  1.00  0.00     0.111 A 
HETATM    8  N4  UNL     1       1.776 -24.228 -19.216  1.00  0.00    -0.347 N 
ATOM      9  H4  UNL     1       2.083 -23.281 -19.437  1.00  0.00     0.167 HD
HETATM   10  C4  UNL     1       1.215 -24.974 -20.179  1.00  0.00     0.188 A 
HETATM   11  N5  UNL     1       0.776 -26.253 -19.966  1.00  0.00    -0.297 N 
HETATM   12  C9  UNL     1       0.923 -26.754 -18.738  1.00  0.00     0.140 A 
HETATM   13  C12 UNL     1       1.519 -25.965 -17.707  1.00  0.00     0.124 A 
HETATM   14  N8  UNL     1       1.677 -26.449 -16.466  1.00  0.00    -0.186 N 
ATOM     15  H8  UNL     1       1.361 -27.399 -16.269  1.00  0.00     0.184 HD
ENDROOT
BRANCH  11  16
HETATM   16  C5  UNL     1       0.190 -26.957 -21.082  1.00  0.00     0.268 C 
HETATM   17  O2  UNL     1      -0.320 -26.024 -22.054  1.00  0.00    -0.323 OA
HETATM   18  C6  UNL     1      -1.183 -27.046 -22.425  1.00  0.00     0.216 C 
HETATM   19  C8  UNL     1      -1.213 -27.413 -20.932  1.00  0.00     0.232 C 
BRANCH  18  20
HETATM   20  O3  UNL     1      -0.543 -27.998 -23.204  1.00  0.00    -0.361 OA
ATOM     21  H3  UNL     1      -1.093 -28.759 -23.349  1.00  0.00     0.213 HD
ENDBRANCH  18  20
BRANCH  18  22
HETATM   22  C7  UNL     1      -2.517 -26.613 -22.975  1.00  0.00     0.235 C 
BRANCH  22  23
HETATM   23  O4  UNL     1      -2.275 -26.117 -24.267  1.00  0.00    -0.395 OA
ATOM     24  H4  UNL     1      -1.644 -25.413 -24.172  1.00  0.00     0.209 HD
ENDBRANCH  22  23
ENDBRANCH  18  22
BRANCH  19  25
HETATM   25  O5  UNL     1      -1.483 -28.759 -20.847  1.00  0.00    -0.386 OA
ATOM     26  H5  UNL     1      -2.385 -29.057 -20.850  1.00  0.00     0.210 HD
ENDBRANCH  19  25
ENDBRANCH  11  16
BRANCH  12  27
HETATM   27  N6  UNL     1       0.576 -27.885 -18.397  1.00  0.00    -0.352 N 
HETATM   28  C10 UNL     1       0.927 -29.198 -18.331  1.00  0.00     0.089 C 
ATOM     29  H6  UNL     1      -0.360 -27.805 -18.000  1.00  0.00     0.166 HD
BRANCH  28  30
HETATM   30  C11 UNL     1      -0.188 -30.139 -17.857  1.00  0.00     0.274 C 
BRANCH  30  31
HETATM   31  N7  UNL     1      -0.563 -30.942 -19.006  1.00  0.00    -0.075 N 
ATOM     32  H73 UNL     1      -1.564 -30.928 -19.200  1.00  0.00     0.274 HD
ATOM     33  H72 UNL     1      -0.257 -30.545 -19.894  1.00  0.00     0.274 HD
ATOM     34  H71 UNL     1      -0.197 -31.879 -18.835  1.00  0.00     0.274 HD
ENDBRANCH  30  31
ENDBRANCH  28  30
ENDBRANCH  12  27
BRANCH   1  35
HETATM   35  N1  UNL     1       2.379 -26.213 -14.281  1.00  0.00    -0.234 N 
ATOM     36  H12 UNL     1       2.157 -25.672 -13.446  1.00  0.00     0.174 HD
ATOM     37  H11 UNL     1       2.730 -27.162 -14.151  1.00  0.00     0.174 HD
ENDBRANCH   1  35
BRANCH   5  38
HETATM   38  O1  UNL     1       3.489 -22.006 -16.191  1.00  0.00    -0.288 OA
ATOM     39  H1  UNL     1       4.008 -21.243 -16.414  1.00  0.00     0.244 HD
ENDBRANCH   5  38
TORSDOF 10
ENDMDL
MODEL 2
REMARK VINA RESULT: -5.486061915      2.204      2.424
REMARK  10 active torsions:
REMARK  status: ('A' for Active; 'I' for Inactive)
REMARK    1  A    between atoms: N1_1  and  C1_4 
REMARK    2  A    between atoms: N3_8  and  O1_10 
REMARK    3  A    between atoms: N5_16  and  C5_17 
REMARK    4  A    between atoms: C6_19  and  O3_20 
REMARK    5  A    between atoms: C6_19  and  C7_22 
REMARK    6  A    between atoms: C7_22  and  O4_23 
REMARK    7  A    between atoms: C8_25  and  O5_26 
REMARK    8  A    between atoms: C9_28  and  N6_29 
REMARK    9  A    between atoms: C10_31  and  C11_32 
REMARK   10  A    between atoms: C11_32  and  N7_33 
ROOT
HETATM    1  C1  UNL     1       5.199 -25.675 -17.711  1.00  0.00     0.678 A 
HETATM    2  N2  UNL     1       4.954 -24.451 -17.183  1.00  0.00    -0.173 N 
ATOM      3  H2  UNL     1       5.658 -24.039 -16.571  1.00  0.00     0.186 HD
HETATM    4  C2  UNL     1       3.827 -23.748 -17.425  1.00  0.00     0.170 A 
HETATM    5  N3  UNL     1       3.611 -22.580 -16.911  1.00  0.00    -0.251 N 
ATOM      6  H3  UNL     1       2.753 -22.065 -17.106  1.00  0.00     0.196 HD
HETATM    7  C3  UNL     1       2.890 -24.349 -18.268  1.00  0.00     0.111 A 
HETATM    8  N4  UNL     1       1.734 -23.734 -18.572  1.00  0.00    -0.347 N 
ATOM      9  H4  UNL     1       1.542 -22.813 -18.179  1.00  0.00     0.167 HD
HETATM   10  C4  UNL     1       0.828 -24.303 -19.380  1.00  0.00     0.188 A 
HETATM   11  N5  UNL     1       1.009 -25.535 -19.948  1.00  0.00    -0.297 N 
HETATM   12  C9  UNL     1       2.145 -26.177 -19.669  1.00  0.00     0.140 A 
HETATM   13  C12 UNL     1       3.114 -25.578 -18.808  1.00  0.00     0.124 A 
HETATM   14  N8  UNL     1       4.264 -26.205 -18.514  1.00  0.00    -0.186 N 
ATOM     15  H8  UNL     1       4.434 -27.126 -18.920  1.00  0.00     0.184 HD
ENDROOT
BRANCH  11  16
HETATM   16  C5  UNL     1      -0.040 -26.041 -20.802  1.00  0.00     0.268 C 
HETATM   17  O2  UNL     1      -1.052 -25.037 -21.006  1.00  0.00    -0.323 OA
HETATM   18  C6  UNL     1      -1.911 -26.104 -21.240  1.00  0.00     0.216 C 
HETATM   19  C8  UNL     1      -1.107 -26.844 -20.158  1.00  0.00     0.232 C 
BRANCH  18  20
HETATM   20  O3  UNL     1      -1.732 -26.636 -22.507  1.00  0.00    -0.361 OA
ATOM     21  H3  UNL     1      -0.857 -26.992 -22.617  1.00  0.00     0.213 HD
ENDBRANCH  18  20
BRANCH  18  22
HETATM   22  C7  UNL     1      -3.356 -25.875 -20.879  1.00  0.00     0.235 C 
BRANCH  22  23
HETATM   23  O4  UNL     1      -3.891 -25.046 -21.879  1.00  0.00    -0.395 OA
ATOM     24  H4  UNL     1      -4.824 -25.223 -21.906  1.00  0.00     0.209 HD
ENDBRANCH  22  23
ENDBRANCH  18  22
BRANCH  19  25
HETATM   25  O5  UNL     1      -1.201 -28.189 -20.428  1.00  0.00    -0.386 OA
ATOM     26  H5  UNL     1      -1.135 -28.816 -19.717  1.00  0.00     0.210 HD
ENDBRANCH  19  25
ENDBRANCH  11  16
BRANCH  12  27
HETATM   27  N6  UNL     1       2.446 -27.289 -20.103  1.00  0.00    -0.352 N 
HETATM   28  C10 UNL     1       3.001 -27.981 -21.135  1.00  0.00     0.089 C 
ATOM     29  H6  UNL     1       2.163 -27.972 -19.402  1.00  0.00     0.166 HD
BRANCH  28  30
HETATM   30  C11 UNL     1       2.896 -29.507 -21.016  1.00  0.00     0.274 C 
BRANCH  30  31
HETATM   31  N7  UNL     1       1.514 -29.798 -20.683  1.00  0.00    -0.075 N 
ATOM     32  H73 UNL     1       1.375 -30.741 -20.321  1.00  0.00     0.274 HD
ATOM     33  H72 UNL     1       1.183 -29.297 -19.859  1.00  0.00     0.274 HD
ATOM     34  H71 UNL     1       0.968 -29.602 -21.522  1.00  0.00     0.274 HD
ENDBRANCH  30  31
ENDBRANCH  28  30
ENDBRANCH  12  27
BRANCH   1  35
HETATM   35  N1  UNL     1       6.300 -26.287 -17.434  1.00  0.00    -0.234 N 
ATOM     36  H12 UNL     1       6.683 -27.020 -18.031  1.00  0.00     0.174 HD
ATOM     37  H11 UNL     1       6.819 -26.044 -16.591  1.00  0.00     0.174 HD
ENDBRANCH   1  35
BRANCH   5  38
HETATM   38  O1  UNL     1       4.581 -22.063 -16.096  1.00  0.00    -0.288 OA
ATOM     39  H1  UNL     1       4.445 -22.131 -15.159  1.00  0.00     0.244 HD
ENDBRANCH   5  38
TORSDOF 10
ENDMDL
MODEL 3
REMARK VINA RESULT: -5.365403701      2.580      6.674
REMARK  10 active torsions:
REMARK  status: ('A' for Active; 'I' for Inactive)
REMARK    1  A    between atoms: N1_1  and  C1_4 
REMARK    2  A    between atoms: N3_8  and  O1_10 
REMARK    3  A    between atoms: N5_16  and  C5_17 
REMARK    4  A    between atoms: C6_19  and  O3_20 
REMARK    5  A    between atoms: C6_19  and  C7_22 
REMARK    6  A    between atoms: C7_22  and  O4_23 
REMARK    7  A    between atoms: C8_25  and  O5_26 
REMARK    8  A    between atoms: C9_28  and  N6_29 
REMARK    9  A    between atoms: C10_31  and  C11_32 
REMARK   10  A    between atoms: C11_32  and  N7_33 
ROOT
HETATM    1  C1  UNL     1       0.134 -27.903 -18.885  1.00  0.00     0.678 A 
HETATM    2  N2  UNL     1      -0.573 -27.074 -19.692  1.00  0.00    -0.173 N 
ATOM      3  H2  UNL     1      -1.411 -27.438 -20.144  1.00  0.00     0.186 HD
HETATM    4  C2  UNL     1      -0.225 -25.790 -19.927  1.00  0.00     0.170 A 
HETATM    5  N3  UNL     1      -0.912 -25.014 -20.701  1.00  0.00    -0.251 N 
ATOM      6  H3  UNL     1      -0.633 -24.047 -20.866  1.00  0.00     0.196 HD
HETATM    7  C3  UNL     1       0.929 -25.333 -19.287  1.00  0.00     0.111 A 
HETATM    8  N4  UNL     1       1.362 -24.072 -19.455  1.00  0.00    -0.347 N 
ATOM      9  H4  UNL     1       0.838 -23.441 -20.060  1.00  0.00     0.167 HD
HETATM   10  C4  UNL     1       2.469 -23.623 -18.845  1.00  0.00     0.188 A 
HETATM   11  N5  UNL     1       3.230 -24.404 -18.018  1.00  0.00    -0.297 N 
HETATM   12  C9  UNL     1       2.831 -25.663 -17.827  1.00  0.00     0.140 A 
HETATM   13  C12 UNL     1       1.654 -26.148 -18.474  1.00  0.00     0.124 A 
HETATM   14  N8  UNL     1       1.234 -27.411 -18.296  1.00  0.00    -0.186 N 
ATOM     15  H8  UNL     1       1.776 -28.023 -17.686  1.00  0.00     0.184 HD
ENDROOT
BRANCH  11  16
HETATM   16  C5  UNL     1       4.400 -23.807 -17.418  1.00  0.00     0.268 C 
HETATM   17  O2  UNL     1       4.859 -22.694 -18.210  1.00  0.00    -0.323 OA
HETATM   18  C6  UNL     1       6.105 -22.949 -17.652  1.00  0.00     0.216 C 
HETATM   19  C8  UNL     1       5.709 -24.433 -17.722  1.00  0.00     0.232 C 
BRANCH  18  20
HETATM   20  O3  UNL     1       6.190 -22.472 -16.353  1.00  0.00    -0.361 OA
ATOM     21  H3  UNL     1       7.025 -22.047 -16.190  1.00  0.00     0.213 HD
ENDBRANCH  18  20
BRANCH  18  22
HETATM   22  C7  UNL     1       7.293 -22.591 -18.506  1.00  0.00     0.235 C 
BRANCH  22  23
HETATM   23  O4  UNL     1       7.109 -21.258 -18.909  1.00  0.00    -0.395 OA
ATOM     24  H4  UNL     1       7.312 -21.225 -19.837  1.00  0.00     0.209 HD
ENDBRANCH  22  23
ENDBRANCH  18  22
BRANCH  19  25
HETATM   25  O5  UNL     1       6.396 -25.086 -16.725  1.00  0.00    -0.386 OA
ATOM     26  H5  UNL     1       7.338 -25.190 -16.795  1.00  0.00     0.210 HD
ENDBRANCH  19  25
ENDBRANCH  11  16
BRANCH  12  27
HETATM   27  N6  UNL     1       3.412 -26.482 -17.114  1.00  0.00    -0.352 N 
HETATM   28  C10 UNL     1       3.429 -27.111 -15.908  1.00  0.00     0.089 C 
ATOM     29  H6  UNL     1       4.208 -26.832 -17.647  1.00  0.00     0.166 HD
BRANCH  28  30
HETATM   30  C11 UNL     1       4.662 -27.990 -15.658  1.00  0.00     0.274 C 
BRANCH  30  31
HETATM   31  N7  UNL     1       5.520 -27.245 -14.756  1.00  0.00    -0.075 N 
ATOM     32  H73 UNL     1       5.094 -27.067 -13.847  1.00  0.00     0.274 HD
ATOM     33  H72 UNL     1       6.317 -27.784 -14.418  1.00  0.00     0.274 HD
ATOM     34  H71 UNL     1       5.789 -26.394 -15.250  1.00  0.00     0.274 HD
ENDBRANCH  30  31
ENDBRANCH  28  30
ENDBRANCH  12  27
BRANCH   1  35
HETATM   35  N1  UNL     1      -0.260 -29.118 -18.708  1.00  0.00    -0.234 N 
ATOM     36  H12 UNL     1      -1.232 -29.354 -18.505  1.00  0.00     0.174 HD
ATOM     37  H11 UNL     1       0.410 -29.885 -18.769  1.00  0.00     0.174 HD
ENDBRANCH   1  35
BRANCH   5  38
HETATM   38  O1  UNL     1      -2.030 -25.541 -21.288  1.00  0.00    -0.288 OA
ATOM     39  H1  UNL     1      -2.337 -25.131 -22.088  1.00  0.00     0.244 HD
ENDBRANCH   5  38
TORSDOF 10
ENDMDL
MODEL 4
REMARK VINA RESULT: -5.359861384      2.455      3.073
REMARK  10 active torsions:
REMARK  status: ('A' for Active; 'I' for Inactive)
REMARK    1  A    between atoms: N1_1  and  C1_4 
REMARK    2  A    between atoms: N3_8  and  O1_10 
REMARK    3  A    between atoms: N5_16  and  C5_17 
REMARK    4  A    between atoms: C6_19  and  O3_20 
REMARK    5  A    between atoms: C6_19  and  C7_22 
REMARK    6  A    between atoms: C7_22  and  O4_23 
REMARK    7  A    between atoms: C8_25  and  O5_26 
REMARK    8  A    between atoms: C9_28  and  N6_29 
REMARK    9  A    between atoms: C10_31  and  C11_32 
REMARK   10  A    between atoms: C11_32  and  N7_33 
ROOT
HETATM    1  C1  UNL     1       6.238 -25.333 -16.796  1.00  0.00     0.678 A 
HETATM    2  N2  UNL     1       6.365 -23.993 -16.957  1.00  0.00    -0.173 N 
ATOM      3  H2  UNL     1       7.212 -23.543 -16.611  1.00  0.00     0.186 HD
HETATM    4  C2  UNL     1       5.429 -23.223 -17.551  1.00  0.00     0.170 A 
HETATM    5  N3  UNL     1       5.568 -21.944 -17.695  1.00  0.00    -0.251 N 
ATOM      6  H3  UNL     1       4.848 -21.380 -18.147  1.00  0.00     0.196 HD
HETATM    7  C3  UNL     1       4.285 -23.880 -18.010  1.00  0.00     0.111 A 
HETATM    8  N4  UNL     1       3.292 -23.206 -18.615  1.00  0.00    -0.347 N 
ATOM      9  H4  UNL     1       3.379 -22.198 -18.740  1.00  0.00     0.167 HD
HETATM   10  C4  UNL     1       2.190 -23.827 -19.059  1.00  0.00     0.188 A 
HETATM   11  N5  UNL     1       1.996 -25.176 -18.931  1.00  0.00    -0.297 N 
HETATM   12  C9  UNL     1       2.960 -25.879 -18.334  1.00  0.00     0.140 A 
HETATM   13  C12 UNL     1       4.137 -25.224 -17.858  1.00  0.00     0.124 A 
HETATM   14  N8  UNL     1       5.119 -25.912 -17.256  1.00  0.00    -0.186 N 
ATOM     15  H8  UNL     1       5.010 -26.920 -17.142  1.00  0.00     0.184 HD
ENDROOT
BRANCH  11  16
HETATM   16  C5  UNL     1       0.768 -25.730 -19.450  1.00  0.00     0.268 C 
HETATM   17  O2  UNL     1       1.044 -26.860 -20.299  1.00  0.00    -0.323 OA
HETATM   18  C6  UNL     1      -0.168 -26.562 -20.909  1.00  0.00     0.216 C 
HETATM   19  C8  UNL     1       0.195 -25.089 -20.658  1.00  0.00     0.232 C 
BRANCH  18  20
HETATM   20  O3  UNL     1      -1.243 -26.993 -20.147  1.00  0.00    -0.361 OA
ATOM     21  H3  UNL     1      -1.801 -26.268 -19.887  1.00  0.00     0.213 HD
ENDBRANCH  18  20
BRANCH  18  22
HETATM   22  C7  UNL     1      -0.277 -26.926 -22.367  1.00  0.00     0.235 C 
BRANCH  22  23
HETATM   23  O4  UNL     1       0.246 -28.223 -22.496  1.00  0.00    -0.395 OA
ATOM     24  H4  UNL     1      -0.490 -28.820 -22.422  1.00  0.00     0.209 HD
ENDBRANCH  22  23
ENDBRANCH  18  22
BRANCH  19  25
HETATM   25  O5  UNL     1      -0.986 -24.389 -20.559  1.00  0.00    -0.386 OA
ATOM     26  H5  UNL     1      -1.703 -24.596 -21.147  1.00  0.00     0.210 HD
ENDBRANCH  19  25
ENDBRANCH  11  16
BRANCH  12  27
HETATM   27  N6  UNL     1       2.926 -27.096 -18.147  1.00  0.00    -0.352 N 
HETATM   28  C10 UNL     1       2.638 -28.090 -17.265  1.00  0.00     0.089 C 
ATOM     29  H6  UNL     1       3.246 -27.541 -19.007  1.00  0.00     0.166 HD
BRANCH  28  30
HETATM   30  C11 UNL     1       3.011 -29.501 -17.740  1.00  0.00     0.274 C 
BRANCH  30  31
HETATM   31  N7  UNL     1       2.547 -29.607 -19.111  1.00  0.00    -0.075 N 
ATOM     32  H73 UNL     1       2.036 -30.469 -19.299  1.00  0.00     0.274 HD
ATOM     33  H72 UNL     1       1.790 -28.961 -19.333  1.00  0.00     0.274 HD
ATOM     34  H71 UNL     1       3.369 -29.487 -19.703  1.00  0.00     0.274 HD
ENDBRANCH  30  31
ENDBRANCH  28  30
ENDBRANCH  12  27
BRANCH   1  35
HETATM   35  N1  UNL     1       7.176 -26.003 -16.217  1.00  0.00    -0.234 N 
ATOM     36  H12 UNL     1       8.164 -25.849 -16.422  1.00  0.00     0.174 HD
ATOM     37  H11 UNL     1       6.941 -26.717 -15.529  1.00  0.00     0.174 HD
ENDBRANCH   1  35
BRANCH   5  38
HETATM   38  O1  UNL     1       6.719 -21.380 -17.218  1.00  0.00    -0.288 OA
ATOM     39  H1  UNL     1       6.874 -20.466 -17.424  1.00  0.00     0.244 HD
ENDBRANCH   5  38
TORSDOF 10
ENDMDL
MODEL 5
REMARK VINA RESULT: -5.330203144      3.063      6.040
REMARK  10 active torsions:
REMARK  status: ('A' for Active; 'I' for Inactive)
REMARK    1  A    between atoms: N1_1  and  C1_4 
REMARK    2  A    between atoms: N3_8  and  O1_10 
REMARK    3  A    between atoms: N5_16  and  C5_17 
REMARK    4  A    between atoms: C6_19  and  O3_20 
REMARK    5  A    between atoms: C6_19  and  C7_22 
REMARK    6  A    between atoms: C7_22  and  O4_23 
REMARK    7  A    between atoms: C8_25  and  O5_26 
REMARK    8  A    between atoms: C9_28  and  N6_29 
REMARK    9  A    between atoms: C10_31  and  C11_32 
REMARK   10  A    between atoms: C11_32  and  N7_33 
ROOT
HETATM    1  C1  UNL     1      -0.703 -30.334 -17.248  1.00  0.00     0.678 A 
HETATM    2  N2  UNL     1      -1.068 -30.054 -15.973  1.00  0.00    -0.173 N 
ATOM      3  H2  UNL     1      -1.658 -30.724 -15.481  1.00  0.00     0.186 HD
HETATM    4  C2  UNL     1      -0.691 -28.934 -15.320  1.00  0.00     0.170 A 
HETATM    5  N3  UNL     1      -1.049 -28.684 -14.102  1.00  0.00    -0.251 N 
ATOM      6  H3  UNL     1      -0.753 -27.831 -13.627  1.00  0.00     0.196 HD
HETATM    7  C3  UNL     1       0.116 -28.044 -16.032  1.00  0.00     0.111 A 
HETATM    8  N4  UNL     1       0.546 -26.898 -15.475  1.00  0.00    -0.347 N 
ATOM      9  H4  UNL     1       0.277 -26.679 -14.516  1.00  0.00     0.167 HD
HETATM   10  C4  UNL     1       1.321 -26.037 -16.149  1.00  0.00     0.188 A 
HETATM   11  N5  UNL     1       1.728 -26.256 -17.438  1.00  0.00    -0.297 N 
HETATM   12  C9  UNL     1       1.320 -27.382 -18.025  1.00  0.00     0.140 A 
HETATM   13  C12 UNL     1       0.494 -28.304 -17.313  1.00  0.00     0.124 A 
HETATM   14  N8  UNL     1       0.073 -29.444 -17.884  1.00  0.00    -0.186 N 
ATOM     15  H8  UNL     1       0.355 -29.641 -18.844  1.00  0.00     0.184 HD
ENDROOT
BRANCH  11  16
HETATM   16  C5  UNL     1       2.562 -25.254 -18.058  1.00  0.00     0.268 C 
HETATM   17  O2  UNL     1       3.316 -24.538 -17.061  1.00  0.00    -0.323 OA
HETATM   18  C6  UNL     1       3.350 -23.501 -17.984  1.00  0.00     0.216 C 
HETATM   19  C8  UNL     1       1.931 -23.950 -18.373  1.00  0.00     0.232 C 
BRANCH  18  20
HETATM   20  O3  UNL     1       4.284 -23.735 -18.982  1.00  0.00    -0.361 OA
ATOM     21  H3  UNL     1       4.713 -22.932 -19.255  1.00  0.00     0.213 HD
ENDBRANCH  18  20
BRANCH  18  22
HETATM   22  C7  UNL     1       3.416 -22.110 -17.409  1.00  0.00     0.235 C 
BRANCH  22  23
HETATM   23  O4  UNL     1       4.776 -21.762 -17.361  1.00  0.00    -0.395 OA
ATOM     24  H4  UNL     1       5.098 -22.047 -16.513  1.00  0.00     0.209 HD
ENDBRANCH  22  23
ENDBRANCH  18  22
BRANCH  19  25
HETATM   25  O5  UNL     1       1.735 -23.590 -19.686  1.00  0.00    -0.386 OA
ATOM     26  H5  UNL     1       0.850 -23.524 -20.026  1.00  0.00     0.210 HD
ENDBRANCH  19  25
ENDBRANCH  11  16
BRANCH  12  27
HETATM   27  N6  UNL     1       1.602 -27.714 -19.177  1.00  0.00    -0.352 N 
HETATM   28  C10 UNL     1       1.360 -27.504 -20.499  1.00  0.00     0.089 C 
ATOM     29  H6  UNL     1       2.309 -28.446 -19.114  1.00  0.00     0.166 HD
BRANCH  28  30
HETATM   30  C11 UNL     1       2.061 -28.488 -21.445  1.00  0.00     0.274 C 
BRANCH  30  31
HETATM   31  N7  UNL     1       3.322 -27.872 -21.816  1.00  0.00    -0.075 N 
ATOM     32  H73 UNL     1       3.274 -27.347 -22.689  1.00  0.00     0.274 HD
ATOM     33  H72 UNL     1       3.583 -27.091 -21.214  1.00  0.00     0.274 HD
ATOM     34  H71 UNL     1       4.015 -28.620 -21.832  1.00  0.00     0.274 HD
ENDBRANCH  30  31
ENDBRANCH  28  30
ENDBRANCH  12  27
BRANCH   1  35
HETATM   35  N1  UNL     1      -1.104 -31.426 -17.806  1.00  0.00    -0.234 N 
ATOM     36  H12 UNL     1      -1.309 -32.270 -17.272  1.00  0.00     0.174 HD
ATOM     37  H11 UNL     1      -1.223 -31.466 -18.818  1.00  0.00     0.174 HD
ENDBRANCH   1  35
BRANCH   5  38
HETATM   38  O1  UNL     1      -1.840 -29.609 -13.478  1.00  0.00    -0.288 OA
ATOM     39  H1  UNL     1      -2.719 -29.731 -13.816  1.00  0.00     0.244 HD
ENDBRANCH   5  38
TORSDOF 10
ENDMDL
