MODEL 1
REMARK VINA RESULT: -7.253890955      0.000      0.000
REMARK  9 active torsions:
REMARK  status: ('A' for Active; 'I' for Inactive)
REMARK    1  A    between atoms: O1_2  and  C2_3 
REMARK    2  A    between atoms: C9_10  and  C10_11 
REMARK    3  A    between atoms: C10_11  and  C11_12 
REMARK    4  A    between atoms: C11_12  and  C12_13 
REMARK    5  A    between atoms: C12_13  and  C13_14 
REMARK    6  A    between atoms: C13_14  and  C14_15 
REMARK    7  A    between atoms: C14_15  and  C15_16 
REMARK    8  A    between atoms: C15_16  and  C16_17 
REMARK    9  A    between atoms: C16_17  and  O2_20 
ROOT
HETATM    1  C10 UNL     1       7.596 -18.642  -1.526  1.00  0.00     0.041 C 
ENDROOT
BRANCH   1   2
HETATM    2  C9  UNL     1       7.527 -19.806  -0.598  1.00  0.00    -0.024 A 
HETATM    3  C2  UNL     1       8.639 -20.425  -0.090  1.00  0.00     0.075 A 
HETATM    4  C3  UNL     1       8.480 -21.490   0.762  1.00  0.00     0.044 A 
HETATM    5  C4  UNL     1       7.241 -21.980   1.141  1.00  0.00    -0.053 A 
HETATM    6  C5  UNL     1       7.086 -23.133   2.061  1.00  0.00     0.049 C 
HETATM    7  C6  UNL     1       6.145 -21.340   0.616  1.00  0.00    -0.055 A 
HETATM    8  C7  UNL     1       4.788 -21.841   1.002  1.00  0.00     0.049 C 
HETATM    9  C8  UNL     1       6.287 -20.275  -0.236  1.00  0.00     0.017 A 
BRANCH   3  10
HETATM   10  O1  UNL     1       9.903 -19.979  -0.433  1.00  0.00    -0.355 OA
HETATM   11  C1  UNL     1      11.002 -20.203   0.441  1.00  0.00     0.210 C 
ENDBRANCH   3  10
ENDBRANCH   1   2
BRANCH   1  12
HETATM   12  C11 UNL     1       6.617 -18.796  -2.650  1.00  0.00     0.005 C 
BRANCH  12  13
HETATM   13  C12 UNL     1       7.272 -19.045  -3.974  1.00  0.00     0.000 C 
BRANCH  13  14
HETATM   14  C13 UNL     1       6.299 -19.477  -5.062  1.00  0.00     0.000 C 
BRANCH  14  15
HETATM   15  C14 UNL     1       6.718 -20.695  -5.796  1.00  0.00     0.003 C 
BRANCH  15  16
HETATM   16  C15 UNL     1       6.237 -22.010  -5.344  1.00  0.00     0.037 C 
BRANCH  16  17
HETATM   17  C16 UNL     1       7.103 -22.873  -4.523  1.00  0.00     0.051 C 
HETATM   18  C17 UNL     1       6.553 -24.313  -4.688  1.00  0.00     0.045 C 
HETATM   19  C18 UNL     1       7.163 -22.652  -3.053  1.00  0.00     0.045 C 
BRANCH  17  20
HETATM   20  O2  UNL     1       8.422 -22.934  -4.994  1.00  0.00    -0.391 OA
ATOM     21  H2  UNL     1       9.068 -22.801  -4.310  1.00  0.00     0.210 HD
ENDBRANCH  17  20
ENDBRANCH  16  17
ENDBRANCH  15  16
ENDBRANCH  14  15
ENDBRANCH  13  14
ENDBRANCH  12  13
ENDBRANCH   1  12
TORSDOF 9
ENDMDL
MODEL 2
REMARK VINA RESULT: -7.241955556      0.913      1.275
REMARK  9 active torsions:
REMARK  status: ('A' for Active; 'I' for Inactive)
REMARK    1  A    between atoms: O1_2  and  C2_3 
REMARK    2  A    between atoms: C9_10  and  C10_11 
REMARK    3  A    between atoms: C10_11  and  C11_12 
REMARK    4  A    between atoms: C11_12  and  C12_13 
REMARK    5  A    between atoms: C12_13  and  C13_14 
REMARK    6  A    between atoms: C13_14  and  C14_15 
REMARK    7  A    between atoms: C14_15  and  C15_16 
REMARK    8  A    between atoms: C15_16  and  C16_17 
REMARK    9  A    between atoms: C16_17  and  O2_20 
ROOT
HETATM    1  C10 UNL     1       7.426 -18.574  -1.468  1.00  0.00     0.041 C 
ENDROOT
BRANCH   1   2
HETATM    2  C9  UNL     1       7.403 -19.749  -0.553  1.00  0.00    -0.024 A 
HETATM    3  C2  UNL     1       8.539 -20.353  -0.081  1.00  0.00     0.075 A 
HETATM    4  C3  UNL     1       8.424 -21.430   0.762  1.00  0.00     0.044 A 
HETATM    5  C4  UNL     1       7.205 -21.949   1.166  1.00  0.00    -0.053 A 
HETATM    6  C5  UNL     1       7.096 -23.115   2.077  1.00  0.00     0.049 C 
HETATM    7  C6  UNL     1       6.083 -21.324   0.677  1.00  0.00    -0.055 A 
HETATM    8  C7  UNL     1       4.747 -21.857   1.092  1.00  0.00     0.049 C 
HETATM    9  C8  UNL     1       6.183 -20.247  -0.165  1.00  0.00     0.017 A 
BRANCH   3  10
HETATM   10  O1  UNL     1       9.785 -19.878  -0.451  1.00  0.00    -0.355 OA
HETATM   11  C1  UNL     1      10.933 -20.199   0.324  1.00  0.00     0.210 C 
ENDBRANCH   3  10
ENDBRANCH   1   2
BRANCH   1  12
HETATM   12  C11 UNL     1       6.082 -17.911  -1.520  1.00  0.00     0.005 C 
BRANCH  12  13
HETATM   13  C12 UNL     1       5.515 -17.832  -2.904  1.00  0.00     0.000 C 
BRANCH  13  14
HETATM   14  C13 UNL     1       6.559 -18.001  -3.999  1.00  0.00     0.000 C 
BRANCH  14  15
HETATM   15  C14 UNL     1       6.209 -19.026  -5.012  1.00  0.00     0.003 C 
BRANCH  15  16
HETATM   16  C15 UNL     1       7.253 -19.937  -5.507  1.00  0.00     0.037 C 
BRANCH  16  17
HETATM   17  C16 UNL     1       7.259 -21.351  -5.092  1.00  0.00     0.051 C 
HETATM   18  C17 UNL     1       5.976 -21.979  -5.695  1.00  0.00     0.045 C 
HETATM   19  C18 UNL     1       7.204 -21.682  -3.642  1.00  0.00     0.045 C 
BRANCH  17  20
HETATM   20  O2  UNL     1       8.317 -22.082  -5.651  1.00  0.00    -0.391 OA
ATOM     21  H2  UNL     1       9.096 -22.083  -5.108  1.00  0.00     0.210 HD
ENDBRANCH  17  20
ENDBRANCH  16  17
ENDBRANCH  15  16
ENDBRANCH  14  15
ENDBRANCH  13  14
ENDBRANCH  12  13
ENDBRANCH   1  12
TORSDOF 9
ENDMDL
MODEL 3
REMARK VINA RESULT: -7.219945094      2.200      4.509
REMARK  9 active torsions:
REMARK  status: ('A' for Active; 'I' for Inactive)
REMARK    1  A    between atoms: O1_2  and  C2_3 
REMARK    2  A    between atoms: C9_10  and  C10_11 
REMARK    3  A    between atoms: C10_11  and  C11_12 
REMARK    4  A    between atoms: C11_12  and  C12_13 
REMARK    5  A    between atoms: C12_13  and  C13_14 
REMARK    6  A    between atoms: C13_14  and  C14_15 
REMARK    7  A    between atoms: C14_15  and  C15_16 
REMARK    8  A    between atoms: C15_16  and  C16_17 
REMARK    9  A    between atoms: C16_17  and  O2_20 
ROOT
HETATM    1  C10 UNL     1       7.398 -21.178  -3.362  1.00  0.00     0.041 C 
ENDROOT
BRANCH   1   2
HETATM    2  C9  UNL     1       7.382 -21.742  -1.983  1.00  0.00    -0.024 A 
HETATM    3  C2  UNL     1       6.780 -22.931  -1.667  1.00  0.00     0.075 A 
HETATM    4  C3  UNL     1       6.817 -23.376  -0.369  1.00  0.00     0.044 A 
HETATM    5  C4  UNL     1       7.439 -22.678   0.654  1.00  0.00    -0.053 A 
HETATM    6  C5  UNL     1       7.470 -23.171   2.053  1.00  0.00     0.049 C 
HETATM    7  C6  UNL     1       8.034 -21.489   0.308  1.00  0.00    -0.055 A 
HETATM    8  C7  UNL     1       8.715 -20.706   1.386  1.00  0.00     0.049 C 
HETATM    9  C8  UNL     1       8.005 -21.033  -0.984  1.00  0.00     0.017 A 
BRANCH   3  10
HETATM   10  O1  UNL     1       6.144 -23.672  -2.647  1.00  0.00    -0.355 OA
HETATM   11  C1  UNL     1       6.737 -24.868  -3.139  1.00  0.00     0.210 C 
ENDBRANCH   3  10
ENDBRANCH   1   2
BRANCH   1  12
HETATM   12  C11 UNL     1       8.237 -19.938  -3.423  1.00  0.00     0.005 C 
BRANCH  12  13
HETATM   13  C12 UNL     1       7.987 -19.115  -4.650  1.00  0.00     0.000 C 
BRANCH  13  14
HETATM   14  C13 UNL     1       6.518 -18.784  -4.871  1.00  0.00     0.000 C 
BRANCH  14  15
HETATM   15  C14 UNL     1       6.058 -17.573  -4.152  1.00  0.00     0.003 C 
BRANCH  15  16
HETATM   16  C15 UNL     1       5.339 -17.721  -2.877  1.00  0.00     0.037 C 
BRANCH  16  17
HETATM   17  C16 UNL     1       5.884 -17.122  -1.646  1.00  0.00     0.051 C 
HETATM   18  C17 UNL     1       7.022 -16.172  -2.099  1.00  0.00     0.045 C 
HETATM   19  C18 UNL     1       6.507 -18.006  -0.623  1.00  0.00     0.045 C 
BRANCH  17  20
HETATM   20  O2  UNL     1       4.965 -16.296  -0.984  1.00  0.00    -0.391 OA
ATOM     21  H2  UNL     1       4.769 -16.589  -0.102  1.00  0.00     0.210 HD
ENDBRANCH  17  20
ENDBRANCH  16  17
ENDBRANCH  15  16
ENDBRANCH  14  15
ENDBRANCH  13  14
ENDBRANCH  12  13
ENDBRANCH   1  12
TORSDOF 9
ENDMDL
MODEL 4
REMARK VINA RESULT: -7.210850796      1.113      3.773
REMARK  9 active torsions:
REMARK  status: ('A' for Active; 'I' for Inactive)
REMARK    1  A    between atoms: O1_2  and  C2_3 
REMARK    2  A    between atoms: C9_10  and  C10_11 
REMARK    3  A    between atoms: C10_11  and  C11_12 
REMARK    4  A    between atoms: C11_12  and  C12_13 
REMARK    5  A    between atoms: C12_13  and  C13_14 
REMARK    6  A    between atoms: C13_14  and  C14_15 
REMARK    7  A    between atoms: C14_15  and  C15_16 
REMARK    8  A    between atoms: C15_16  and  C16_17 
REMARK    9  A    between atoms: C16_17  and  O2_20 
ROOT
HETATM    1  C10 UNL     1       6.905 -21.351   0.981  1.00  0.00     0.041 C 
ENDROOT
BRANCH   1   2
HETATM    2  C9  UNL     1       7.307 -20.399  -0.092  1.00  0.00    -0.024 A 
HETATM    3  C2  UNL     1       8.607 -20.221  -0.486  1.00  0.00     0.075 A 
HETATM    4  C3  UNL     1       8.886 -19.323  -1.487  1.00  0.00     0.044 A 
HETATM    5  C4  UNL     1       7.911 -18.577  -2.129  1.00  0.00    -0.053 A 
HETATM    6  C5  UNL     1       8.227 -17.610  -3.209  1.00  0.00     0.049 C 
HETATM    7  C6  UNL     1       6.617 -18.777  -1.714  1.00  0.00    -0.055 A 
HETATM    8  C7  UNL     1       5.536 -17.988  -2.384  1.00  0.00     0.049 C 
HETATM    9  C8  UNL     1       6.324 -19.670  -0.715  1.00  0.00     0.017 A 
BRANCH   3  10
HETATM   10  O1  UNL     1       9.624 -20.938   0.119  1.00  0.00    -0.355 OA
HETATM   11  C1  UNL     1      10.847 -20.299   0.460  1.00  0.00     0.210 C 
ENDBRANCH   3  10
ENDBRANCH   1   2
BRANCH   1  12
HETATM   12  C11 UNL     1       6.313 -22.597   0.396  1.00  0.00     0.005 C 
BRANCH  12  13
HETATM   13  C12 UNL     1       7.326 -23.672   0.148  1.00  0.00     0.000 C 
BRANCH  13  14
HETATM   14  C13 UNL     1       7.683 -23.844  -1.322  1.00  0.00     0.000 C 
BRANCH  14  15
HETATM   15  C14 UNL     1       6.684 -23.272  -2.255  1.00  0.00     0.003 C 
BRANCH  15  16
HETATM   16  C15 UNL     1       7.116 -22.285  -3.258  1.00  0.00     0.037 C 
BRANCH  16  17
HETATM   17  C16 UNL     1       7.211 -22.666  -4.678  1.00  0.00     0.051 C 
HETATM   18  C17 UNL     1       6.552 -21.511  -5.476  1.00  0.00     0.045 C 
HETATM   19  C18 UNL     1       6.520 -23.898  -5.146  1.00  0.00     0.045 C 
BRANCH  17  20
HETATM   20  O2  UNL     1       8.532 -22.721  -5.144  1.00  0.00    -0.391 OA
ATOM     21  H2  UNL     1       8.595 -22.998  -6.050  1.00  0.00     0.210 HD
ENDBRANCH  17  20
ENDBRANCH  16  17
ENDBRANCH  15  16
ENDBRANCH  14  15
ENDBRANCH  13  14
ENDBRANCH  12  13
ENDBRANCH   1  12
TORSDOF 9
ENDMDL
MODEL 5
REMARK VINA RESULT: -7.179952037      1.897      2.391
REMARK  9 active torsions:
REMARK  status: ('A' for Active; 'I' for Inactive)
REMARK    1  A    between atoms: O1_2  and  C2_3 
REMARK    2  A    between atoms: C9_10  and  C10_11 
REMARK    3  A    between atoms: C10_11  and  C11_12 
REMARK    4  A    between atoms: C11_12  and  C12_13 
REMARK    5  A    between atoms: C12_13  and  C13_14 
REMARK    6  A    between atoms: C13_14  and  C14_15 
REMARK    7  A    between atoms: C14_15  and  C15_16 
REMARK    8  A    between atoms: C15_16  and  C16_17 
REMARK    9  A    between atoms: C16_17  and  O2_20 
ROOT
HETATM    1  C10 UNL     1       7.517 -18.557  -1.353  1.00  0.00     0.041 C 
ENDROOT
BRANCH   1   2
HETATM    2  C9  UNL     1       7.473 -19.762  -0.478  1.00  0.00    -0.024 A 
HETATM    3  C2  UNL     1       8.599 -20.409  -0.038  1.00  0.00     0.075 A 
HETATM    4  C3  UNL     1       8.464 -21.512   0.769  1.00  0.00     0.044 A 
HETATM    5  C4  UNL     1       7.236 -22.015   1.166  1.00  0.00    -0.053 A 
HETATM    6  C5  UNL     1       7.106 -23.209   2.037  1.00  0.00     0.049 C 
HETATM    7  C6  UNL     1       6.126 -21.347   0.709  1.00  0.00    -0.055 A 
HETATM    8  C7  UNL     1       4.781 -21.861   1.117  1.00  0.00     0.049 C 
HETATM    9  C8  UNL     1       6.245 -20.244  -0.096  1.00  0.00     0.017 A 
BRANCH   3  10
HETATM   10  O1  UNL     1       9.853 -19.952  -0.402  1.00  0.00    -0.355 OA
HETATM   11  C1  UNL     1      10.973 -20.183   0.443  1.00  0.00     0.210 C 
ENDBRANCH   3  10
ENDBRANCH   1   2
BRANCH   1  12
HETATM   12  C11 UNL     1       6.220 -17.809  -1.296  1.00  0.00     0.005 C 
BRANCH  12  13
HETATM   13  C12 UNL     1       5.482 -17.806  -2.599  1.00  0.00     0.000 C 
BRANCH  13  14
HETATM   14  C13 UNL     1       6.391 -17.679  -3.813  1.00  0.00     0.000 C 
BRANCH  14  15
HETATM   15  C14 UNL     1       6.224 -18.765  -4.808  1.00  0.00     0.003 C 
BRANCH  15  16
HETATM   16  C15 UNL     1       6.676 -18.551  -6.192  1.00  0.00     0.037 C 
BRANCH  16  17
HETATM   17  C16 UNL     1       7.742 -19.394  -6.761  1.00  0.00     0.051 C 
HETATM   18  C17 UNL     1       7.315 -20.861  -6.498  1.00  0.00     0.045 C 
HETATM   19  C18 UNL     1       9.120 -19.291  -6.209  1.00  0.00     0.045 C 
BRANCH  17  20
HETATM   20  O2  UNL     1       7.839 -19.289  -8.156  1.00  0.00    -0.391 OA
ATOM     21  H2  UNL     1       7.621 -20.096  -8.605  1.00  0.00     0.210 HD
ENDBRANCH  17  20
ENDBRANCH  16  17
ENDBRANCH  15  16
ENDBRANCH  14  15
ENDBRANCH  13  14
ENDBRANCH  12  13
ENDBRANCH   1  12
TORSDOF 9
ENDMDL
