MODEL 1
REMARK VINA RESULT: -6.983263108      0.000      0.000
REMARK  10 active torsions:
REMARK  status: ('A' for Active; 'I' for Inactive)
REMARK    1  A    between atoms: C2_2  and  C3_3 
REMARK    2  A    between atoms: C3_3  and  C4_4 
REMARK    3  A    between atoms: C6_6  and  C7_7 
REMARK    4  A    between atoms: C10_10  and  C11_11 
REMARK    5  A    between atoms: C11_11  and  O1_12 
REMARK    6  A    between atoms: O1_12  and  C12_13 
REMARK    7  A    between atoms: C12_13  and  C14_15 
REMARK    8  A    between atoms: C14_15  and  O2_16 
REMARK    9  A    between atoms: C14_15  and  C15_18 
REMARK   10  A    between atoms: C15_18  and  C16_19 
ROOT
HETATM    1  C4  UNL     1       7.273 -21.185  -3.771  1.00  0.00    -0.057 A 
HETATM    2  C5  UNL     1       7.089 -20.028  -4.518  1.00  0.00     0.014 A 
HETATM    3  C6  UNL     1       6.716 -18.829  -3.962  1.00  0.00    -0.057 A 
HETATM    4  C9  UNL     1       6.522 -18.804  -2.595  1.00  0.00     0.016 A 
HETATM    5  C10 UNL     1       6.687 -19.911  -1.789  1.00  0.00    -0.034 A 
HETATM    6  C18 UNL     1       7.067 -21.100  -2.410  1.00  0.00     0.016 A 
ENDROOT
BRANCH   5   7
HETATM    7  C11 UNL     1       6.467 -19.835  -0.321  1.00  0.00     0.207 C 
BRANCH   7   8
HETATM    8  O1  UNL     1       7.475 -20.526   0.311  1.00  0.00    -0.379 OA
BRANCH   8   9
HETATM    9  C12 UNL     1       7.047 -21.350   1.324  1.00  0.00     0.146 C 
HETATM   10  C13 UNL     1       5.577 -21.689   1.233  1.00  0.00     0.042 C 
BRANCH   9  11
HETATM   11  C14 UNL     1       7.804 -22.675   1.181  1.00  0.00     0.146 C 
BRANCH  11  12
HETATM   12  O2  UNL     1       7.964 -23.191   2.449  1.00  0.00    -0.393 OA
ATOM     13  H2  UNL     1       8.878 -23.430   2.540  1.00  0.00     0.210 HD
ENDBRANCH  11  12
BRANCH  11  14
HETATM   14  C15 UNL     1       6.904 -23.600   0.382  1.00  0.00     0.034 C 
BRANCH  14  15
HETATM   15  C16 UNL     1       7.716 -24.187  -0.751  1.00  0.00    -0.002 C 
HETATM   16  C17 UNL     1       6.900 -25.121  -1.605  1.00  0.00     0.005 C 
ENDBRANCH  14  15
ENDBRANCH  11  14
ENDBRANCH   9  11
ENDBRANCH   8   9
ENDBRANCH   7   8
ENDBRANCH   5   7
BRANCH   3  17
HETATM   17  C7  UNL     1       6.527 -17.621  -4.777  1.00  0.00     0.034 C 
HETATM   18  C8  UNL     1       6.875 -16.353  -4.077  1.00  0.00     0.010 C 
ENDBRANCH   3  17
BRANCH   1  19
HETATM   19  C3  UNL     1       7.675 -22.436  -4.447  1.00  0.00     0.038 C 
BRANCH  19  20
HETATM   20  C2  UNL     1       6.471 -23.313  -4.757  1.00  0.00     0.000 C 
HETATM   21  C1  UNL     1       6.143 -23.268  -6.243  1.00  0.00     0.005 C 
ENDBRANCH  19  20
ENDBRANCH   1  19
TORSDOF 10
ENDMDL
MODEL 2
REMARK VINA RESULT: -6.807842354      1.897      3.571
REMARK  10 active torsions:
REMARK  status: ('A' for Active; 'I' for Inactive)
REMARK    1  A    between atoms: C2_2  and  C3_3 
REMARK    2  A    between atoms: C3_3  and  C4_4 
REMARK    3  A    between atoms: C6_6  and  C7_7 
REMARK    4  A    between atoms: C10_10  and  C11_11 
REMARK    5  A    between atoms: C11_11  and  O1_12 
REMARK    6  A    between atoms: O1_12  and  C12_13 
REMARK    7  A    between atoms: C12_13  and  C14_15 
REMARK    8  A    between atoms: C14_15  and  O2_16 
REMARK    9  A    between atoms: C14_15  and  C15_18 
REMARK   10  A    between atoms: C15_18  and  C16_19 
ROOT
HETATM    1  C4  UNL     1       6.688 -23.421  -2.689  1.00  0.00    -0.057 A 
HETATM    2  C5  UNL     1       6.309 -23.338  -4.023  1.00  0.00     0.014 A 
HETATM    3  C6  UNL     1       6.483 -22.208  -4.783  1.00  0.00    -0.057 A 
HETATM    4  C9  UNL     1       7.065 -21.118  -4.165  1.00  0.00     0.016 A 
HETATM    5  C10 UNL     1       7.469 -21.126  -2.845  1.00  0.00    -0.034 A 
HETATM    6  C18 UNL     1       7.266 -22.302  -2.124  1.00  0.00     0.016 A 
ENDROOT
BRANCH   5   7
HETATM    7  C11 UNL     1       8.092 -19.929  -2.223  1.00  0.00     0.207 C 
BRANCH   7   8
HETATM    8  O1  UNL     1       8.936 -20.344  -1.219  1.00  0.00    -0.379 OA
BRANCH   8   9
HETATM    9  C12 UNL     1       8.691 -19.763   0.002  1.00  0.00     0.146 C 
HETATM   10  C13 UNL     1       7.243 -19.377   0.196  1.00  0.00     0.042 C 
BRANCH   9  11
HETATM   11  C14 UNL     1       9.004 -20.813   1.074  1.00  0.00     0.146 C 
BRANCH  11  12
HETATM   12  O2  UNL     1       9.733 -20.182   2.059  1.00  0.00    -0.393 OA
ATOM     13  H2  UNL     1       9.936 -20.835   2.718  1.00  0.00     0.210 HD
ENDBRANCH  11  12
BRANCH  11  14
HETATM   14  C15 UNL     1       7.671 -21.250   1.650  1.00  0.00     0.034 C 
BRANCH  14  15
HETATM   15  C16 UNL     1       7.627 -22.762   1.648  1.00  0.00    -0.002 C 
HETATM   16  C17 UNL     1       6.222 -23.286   1.512  1.00  0.00     0.005 C 
ENDBRANCH  14  15
ENDBRANCH  11  14
ENDBRANCH   9  11
ENDBRANCH   8   9
ENDBRANCH   7   8
ENDBRANCH   5   7
BRANCH   3  17
HETATM   17  C7  UNL     1       6.071 -22.148  -6.192  1.00  0.00     0.034 C 
HETATM   18  C8  UNL     1       5.900 -23.481  -6.834  1.00  0.00     0.010 C 
ENDBRANCH   3  17
BRANCH   1  19
HETATM   19  C3  UNL     1       6.465 -24.675  -1.941  1.00  0.00     0.038 C 
BRANCH  19  20
HETATM   20  C2  UNL     1       7.761 -25.207  -1.348  1.00  0.00     0.000 C 
HETATM   21  C1  UNL     1       8.703 -25.673  -2.449  1.00  0.00     0.005 C 
ENDBRANCH  19  20
ENDBRANCH   1  19
TORSDOF 10
ENDMDL
MODEL 3
REMARK VINA RESULT: -6.793827204      1.319      3.184
REMARK  10 active torsions:
REMARK  status: ('A' for Active; 'I' for Inactive)
REMARK    1  A    between atoms: C2_2  and  C3_3 
REMARK    2  A    between atoms: C3_3  and  C4_4 
REMARK    3  A    between atoms: C6_6  and  C7_7 
REMARK    4  A    between atoms: C10_10  and  C11_11 
REMARK    5  A    between atoms: C11_11  and  O1_12 
REMARK    6  A    between atoms: O1_12  and  C12_13 
REMARK    7  A    between atoms: C12_13  and  C14_15 
REMARK    8  A    between atoms: C14_15  and  O2_16 
REMARK    9  A    between atoms: C14_15  and  C15_18 
REMARK   10  A    between atoms: C15_18  and  C16_19 
ROOT
HETATM    1  C4  UNL     1       7.007 -19.722  -4.867  1.00  0.00    -0.057 A 
HETATM    2  C5  UNL     1       6.824 -21.032  -5.291  1.00  0.00     0.014 A 
HETATM    3  C6  UNL     1       6.813 -22.103  -4.432  1.00  0.00    -0.057 A 
HETATM    4  C9  UNL     1       6.997 -21.834  -3.090  1.00  0.00     0.016 A 
HETATM    5  C10 UNL     1       7.184 -20.560  -2.595  1.00  0.00    -0.034 A 
HETATM    6  C18 UNL     1       7.185 -19.512  -3.515  1.00  0.00     0.016 A 
ENDROOT
BRANCH   5   7
HETATM    7  C11 UNL     1       7.377 -20.319  -1.141  1.00  0.00     0.207 C 
BRANCH   7   8
HETATM    8  O1  UNL     1       6.208 -20.628  -0.485  1.00  0.00    -0.379 OA
BRANCH   8   9
HETATM    9  C12 UNL     1       6.388 -21.172   0.765  1.00  0.00     0.146 C 
HETATM   10  C13 UNL     1       5.216 -22.012   1.220  1.00  0.00     0.042 C 
BRANCH   9  11
HETATM   11  C14 UNL     1       7.589 -22.119   0.679  1.00  0.00     0.146 C 
BRANCH  11  12
HETATM   12  O2  UNL     1       8.232 -22.071   1.897  1.00  0.00    -0.393 OA
ATOM     13  H2  UNL     1       7.932 -22.817   2.402  1.00  0.00     0.210 HD
ENDBRANCH  11  12
BRANCH  11  14
HETATM   14  C15 UNL     1       7.025 -23.513   0.474  1.00  0.00     0.034 C 
BRANCH  14  15
HETATM   15  C16 UNL     1       7.780 -24.166  -0.662  1.00  0.00    -0.002 C 
HETATM   16  C17 UNL     1       6.919 -25.135  -1.428  1.00  0.00     0.005 C 
ENDBRANCH  14  15
ENDBRANCH  11  14
ENDBRANCH   9  11
ENDBRANCH   8   9
ENDBRANCH   7   8
ENDBRANCH   5   7
BRANCH   3  17
HETATM   17  C7  UNL     1       6.617 -23.479  -4.909  1.00  0.00     0.034 C 
HETATM   18  C8  UNL     1       6.245 -23.579  -6.347  1.00  0.00     0.010 C 
ENDBRANCH   3  17
BRANCH   1  19
HETATM   19  C3  UNL     1       7.006 -18.625  -5.857  1.00  0.00     0.038 C 
BRANCH  19  20
HETATM   20  C2  UNL     1       7.708 -19.035  -7.143  1.00  0.00     0.000 C 
HETATM   21  C1  UNL     1       9.206 -18.783  -7.039  1.00  0.00     0.005 C 
ENDBRANCH  19  20
ENDBRANCH   1  19
TORSDOF 10
ENDMDL
MODEL 4
REMARK VINA RESULT: -6.774150434      1.887      2.075
REMARK  10 active torsions:
REMARK  status: ('A' for Active; 'I' for Inactive)
REMARK    1  A    between atoms: C2_2  and  C3_3 
REMARK    2  A    between atoms: C3_3  and  C4_4 
REMARK    3  A    between atoms: C6_6  and  C7_7 
REMARK    4  A    between atoms: C10_10  and  C11_11 
REMARK    5  A    between atoms: C11_11  and  O1_12 
REMARK    6  A    between atoms: O1_12  and  C12_13 
REMARK    7  A    between atoms: C12_13  and  C14_15 
REMARK    8  A    between atoms: C14_15  and  O2_16 
REMARK    9  A    between atoms: C14_15  and  C15_18 
REMARK   10  A    between atoms: C15_18  and  C16_19 
ROOT
HETATM    1  C4  UNL     1       7.668 -20.247  -3.728  1.00  0.00    -0.057 A 
HETATM    2  C5  UNL     1       8.795 -19.515  -4.078  1.00  0.00     0.014 A 
HETATM    3  C6  UNL     1       9.650 -18.968  -3.153  1.00  0.00    -0.057 A 
HETATM    4  C9  UNL     1       9.349 -19.174  -1.821  1.00  0.00     0.016 A 
HETATM    5  C10 UNL     1       8.249 -19.891  -1.398  1.00  0.00    -0.034 A 
HETATM    6  C18 UNL     1       7.417 -20.421  -2.383  1.00  0.00     0.016 A 
ENDROOT
BRANCH   5   7
HETATM    7  C11 UNL     1       7.965 -20.085   0.048  1.00  0.00     0.207 C 
BRANCH   7   8
HETATM    8  O1  UNL     1       6.718 -20.650   0.179  1.00  0.00    -0.379 OA
BRANCH   8   9
HETATM    9  C12 UNL     1       6.596 -21.511   1.244  1.00  0.00     0.146 C 
HETATM   10  C13 UNL     1       5.262 -22.221   1.283  1.00  0.00     0.042 C 
BRANCH   9  11
HETATM   11  C14 UNL     1       7.659 -22.601   1.070  1.00  0.00     0.146 C 
BRANCH  11  12
HETATM   12  O2  UNL     1       8.009 -23.032   2.331  1.00  0.00    -0.393 OA
ATOM     13  H2  UNL     1       8.037 -23.981   2.305  1.00  0.00     0.210 HD
ENDBRANCH  11  12
BRANCH  11  14
HETATM   14  C15 UNL     1       6.987 -23.742   0.328  1.00  0.00     0.034 C 
BRANCH  14  15
HETATM   15  C16 UNL     1       7.631 -23.864  -1.035  1.00  0.00    -0.002 C 
HETATM   16  C17 UNL     1       6.610 -24.009  -2.132  1.00  0.00     0.005 C 
ENDBRANCH  14  15
ENDBRANCH  11  14
ENDBRANCH   9  11
ENDBRANCH   8   9
ENDBRANCH   7   8
ENDBRANCH   5   7
BRANCH   3  17
HETATM   17  C7  UNL     1      10.835 -18.198  -3.552  1.00  0.00     0.034 C 
HETATM   18  C8  UNL     1      11.539 -18.735  -4.749  1.00  0.00     0.010 C 
ENDBRANCH   3  17
BRANCH   1  19
HETATM   19  C3  UNL     1       6.798 -20.802  -4.786  1.00  0.00     0.038 C 
BRANCH  19  20
HETATM   20  C2  UNL     1       7.401 -22.055  -5.403  1.00  0.00     0.000 C 
HETATM   21  C1  UNL     1       6.306 -22.997  -5.883  1.00  0.00     0.005 C 
ENDBRANCH  19  20
ENDBRANCH   1  19
TORSDOF 10
ENDMDL
MODEL 5
REMARK VINA RESULT: -6.756172383      0.729      3.416
REMARK  10 active torsions:
REMARK  status: ('A' for Active; 'I' for Inactive)
REMARK    1  A    between atoms: C2_2  and  C3_3 
REMARK    2  A    between atoms: C3_3  and  C4_4 
REMARK    3  A    between atoms: C6_6  and  C7_7 
REMARK    4  A    between atoms: C10_10  and  C11_11 
REMARK    5  A    between atoms: C11_11  and  O1_12 
REMARK    6  A    between atoms: O1_12  and  C12_13 
REMARK    7  A    between atoms: C12_13  and  C14_15 
REMARK    8  A    between atoms: C14_15  and  O2_16 
REMARK    9  A    between atoms: C14_15  and  C15_18 
REMARK   10  A    between atoms: C15_18  and  C16_19 
ROOT
HETATM    1  C4  UNL     1       6.847 -19.300  -4.216  1.00  0.00    -0.057 A 
HETATM    2  C5  UNL     1       6.857 -20.502  -4.914  1.00  0.00     0.014 A 
HETATM    3  C6  UNL     1       7.104 -21.713  -4.317  1.00  0.00    -0.057 A 
HETATM    4  C9  UNL     1       7.350 -21.705  -2.958  1.00  0.00     0.016 A 
HETATM    5  C10 UNL     1       7.355 -20.553  -2.199  1.00  0.00    -0.034 A 
HETATM    6  C18 UNL     1       7.099 -19.353  -2.861  1.00  0.00     0.016 A 
ENDROOT
BRANCH   5   7
HETATM    7  C11 UNL     1       7.626 -20.594  -0.738  1.00  0.00     0.207 C 
BRANCH   7   8
HETATM    8  O1  UNL     1       6.425 -20.674  -0.071  1.00  0.00    -0.379 OA
BRANCH   8   9
HETATM    9  C12 UNL     1       6.462 -21.438   1.071  1.00  0.00     0.146 C 
HETATM   10  C13 UNL     1       5.170 -22.177   1.331  1.00  0.00     0.042 C 
BRANCH   9  11
HETATM   11  C14 UNL     1       7.537 -22.510   0.864  1.00  0.00     0.146 C 
BRANCH  11  12
HETATM   12  O2  UNL     1       8.121 -22.741   2.091  1.00  0.00    -0.393 OA
ATOM     13  H2  UNL     1       8.625 -23.543   2.014  1.00  0.00     0.210 HD
ENDBRANCH  11  12
BRANCH  11  14
HETATM   14  C15 UNL     1       6.812 -23.767   0.419  1.00  0.00     0.034 C 
BRANCH  14  15
HETATM   15  C16 UNL     1       7.613 -24.407  -0.693  1.00  0.00    -0.002 C 
HETATM   16  C17 UNL     1       6.727 -25.028  -1.741  1.00  0.00     0.005 C 
ENDBRANCH  14  15
ENDBRANCH  11  14
ENDBRANCH   9  11
ENDBRANCH   8   9
ENDBRANCH   7   8
ENDBRANCH   5   7
BRANCH   3  17
HETATM   17  C7  UNL     1       7.108 -22.968  -5.080  1.00  0.00     0.034 C 
HETATM   18  C8  UNL     1       6.109 -23.015  -6.183  1.00  0.00     0.010 C 
ENDBRANCH   3  17
BRANCH   1  19
HETATM   19  C3  UNL     1       6.574 -18.038  -4.935  1.00  0.00     0.038 C 
BRANCH  19  20
HETATM   20  C2  UNL     1       6.207 -16.918  -3.973  1.00  0.00     0.000 C 
HETATM   21  C1  UNL     1       7.338 -15.904  -3.875  1.00  0.00     0.005 C 
ENDBRANCH  19  20
ENDBRANCH   1  19
TORSDOF 10
ENDMDL
