MODEL 1
REMARK VINA RESULT: -9.734770552      0.000      0.000
REMARK  5 active torsions:
REMARK  status: ('A' for Active; 'I' for Inactive)
REMARK    1  A    between atoms: C2_2  and  C5_5 
REMARK    2  A    between atoms: C6_10  and  O1_11 
REMARK    3  A    between atoms: C7_13  and  C8_14 
REMARK    4  A    between atoms: C8_14  and  C9_15 
REMARK    5  A    between atoms: C9_15  and  C10_16 
ROOT
HETATM    1  C10 UNL     1       8.834 -18.788  -2.770  1.00  0.00     0.123 A 
HETATM    2  N3  UNL     1       9.033 -17.637  -2.045  1.00  0.00    -0.284 N 
ATOM      3  H3  UNL     1       8.552 -17.395  -1.179  1.00  0.00     0.188 HD
HETATM    4  N4  UNL     1       9.934 -16.902  -2.639  1.00  0.00    -0.285 N 
ATOM      5  H4  UNL     1      10.264 -15.996  -2.305  1.00  0.00     0.188 HD
HETATM    6  C11 UNL     1      10.362 -17.512  -3.750  1.00  0.00     0.136 A 
HETATM    7  N5  UNL     1       9.687 -18.663  -3.830  1.00  0.00    -0.317 N 
HETATM    8  C12 UNL     1       9.899 -19.542  -4.944  1.00  0.00     0.159 C 
HETATM    9  C13 UNL     1      10.766 -18.939  -5.985  1.00  0.00     0.254 C 
HETATM   10  N6  UNL     1      11.854 -18.162  -5.519  1.00  0.00    -0.058 N 
ATOM     11  H61 UNL     1      12.445 -17.849  -6.289  1.00  0.00     0.278 HD
ATOM     12  H62 UNL     1      12.534 -18.735  -5.021  1.00  0.00     0.278 HD
HETATM   13  C14 UNL     1      11.399 -17.038  -4.702  1.00  0.00     0.184 C 
HETATM   14  C15 UNL     1      12.600 -16.559  -3.924  1.00  0.00     0.047 C 
HETATM   15  C16 UNL     1      13.030 -15.187  -4.452  1.00  0.00     0.003 C 
HETATM   16  C17 UNL     1      11.875 -14.251  -4.188  1.00  0.00     0.000 C 
HETATM   17  C18 UNL     1      10.732 -14.645  -5.066  1.00  0.00     0.003 C 
HETATM   18  C19 UNL     1      10.849 -16.011  -5.659  1.00  0.00     0.047 C 
ENDROOT
BRANCH   1  19
HETATM   19  C9  UNL     1       7.896 -19.831  -2.391  1.00  0.00     0.051 C 
BRANCH  19  20
HETATM   20  C8  UNL     1       8.092 -20.898  -1.699  1.00  0.00     0.022 C 
BRANCH  20  21
HETATM   21  C7  UNL     1       8.545 -20.964  -0.317  1.00  0.00     0.041 A 
HETATM   22  C5  UNL     1       7.858 -21.602   0.725  1.00  0.00     0.048 A 
HETATM   23  N1  UNL     1       8.597 -21.437   1.822  1.00  0.00    -0.301 N 
HETATM   24  N2  UNL     1       9.671 -20.759   1.547  1.00  0.00    -0.279 N 
ATOM     25  H1  UNL     1       8.355 -21.793   2.746  1.00  0.00     0.186 HD
HETATM   26  C6  UNL     1       9.690 -20.434   0.215  1.00  0.00     0.167 A 
ATOM     27  H2  UNL     1      10.392 -20.506   2.222  1.00  0.00     0.189 HD
BRANCH  22  28
HETATM   28  C2  UNL     1       6.587 -22.295   0.580  1.00  0.00    -0.006 C 
HETATM   29  C1  UNL     1       6.396 -23.206   1.797  1.00  0.00     0.021 C 
HETATM   30  C3  UNL     1       6.588 -23.226  -0.636  1.00  0.00     0.021 C 
HETATM   31  C4  UNL     1       5.388 -21.372   0.560  1.00  0.00     0.021 C 
ENDBRANCH  22  28
BRANCH  26  32
HETATM   32  O1  UNL     1      10.718 -19.704  -0.392  1.00  0.00    -0.344 OA
ATOM     33  H1  UNL     1      10.644 -19.303  -1.250  1.00  0.00     0.219 HD
ENDBRANCH  26  32
ENDBRANCH  20  21
ENDBRANCH  19  20
ENDBRANCH   1  19
TORSDOF 5
ENDMDL
MODEL 2
REMARK VINA RESULT: -9.108359682      2.161      2.637
REMARK  5 active torsions:
REMARK  status: ('A' for Active; 'I' for Inactive)
REMARK    1  A    between atoms: C2_2  and  C5_5 
REMARK    2  A    between atoms: C6_10  and  O1_11 
REMARK    3  A    between atoms: C7_13  and  C8_14 
REMARK    4  A    between atoms: C8_14  and  C9_15 
REMARK    5  A    between atoms: C9_15  and  C10_16 
ROOT
HETATM    1  C10 UNL     1       8.834 -19.714  -3.395  1.00  0.00     0.123 A 
HETATM    2  N3  UNL     1       9.359 -19.083  -2.293  1.00  0.00    -0.284 N 
ATOM      3  H3  UNL     1       9.050 -19.220  -1.331  1.00  0.00     0.188 HD
HETATM    4  N4  UNL     1      10.318 -18.280  -2.671  1.00  0.00    -0.285 N 
ATOM      5  H4  UNL     1      10.872 -17.695  -2.045  1.00  0.00     0.188 HD
HETATM    6  C11 UNL     1      10.468 -18.340  -3.999  1.00  0.00     0.136 A 
HETATM    7  N5  UNL     1       9.559 -19.215  -4.440  1.00  0.00    -0.317 N 
HETATM    8  C12 UNL     1       9.442 -19.478  -5.846  1.00  0.00     0.159 C 
HETATM    9  C13 UNL     1      10.284 -18.574  -6.664  1.00  0.00     0.254 C 
HETATM   10  N6  UNL     1      11.561 -18.263  -6.139  1.00  0.00    -0.058 N 
ATOM     11  H61 UNL     1      12.107 -17.702  -6.792  1.00  0.00     0.278 HD
ATOM     12  H62 UNL     1      12.159 -19.087  -6.099  1.00  0.00     0.278 HD
HETATM   13  C14 UNL     1      11.458 -17.613  -4.833  1.00  0.00     0.184 C 
HETATM   14  C15 UNL     1      12.819 -17.724  -4.190  1.00  0.00     0.047 C 
HETATM   15  C16 UNL     1      13.465 -16.336  -4.130  1.00  0.00     0.003 C 
HETATM   16  C17 UNL     1      12.577 -15.495  -3.244  1.00  0.00     0.000 C 
HETATM   17  C18 UNL     1      11.279 -15.269  -3.949  1.00  0.00     0.003 C 
HETATM   18  C19 UNL     1      11.028 -16.191  -5.097  1.00  0.00     0.047 C 
ENDROOT
BRANCH   1  19
HETATM   19  C9  UNL     1       7.748 -20.678  -3.334  1.00  0.00     0.051 C 
BRANCH  19  20
HETATM   20  C8  UNL     1       7.111 -21.130  -2.312  1.00  0.00     0.022 C 
BRANCH  20  21
HETATM   21  C7  UNL     1       7.000 -22.524  -1.907  1.00  0.00     0.041 A 
HETATM   22  C5  UNL     1       7.173 -22.998  -0.600  1.00  0.00     0.048 A 
HETATM   23  N1  UNL     1       6.991 -24.318  -0.649  1.00  0.00    -0.301 N 
HETATM   24  N2  UNL     1       6.723 -24.693  -1.863  1.00  0.00    -0.279 N 
ATOM     25  H1  UNL     1       7.053 -24.944   0.154  1.00  0.00     0.186 HD
HETATM   26  C6  UNL     1       6.716 -23.605  -2.698  1.00  0.00     0.167 A 
ATOM     27  H2  UNL     1       6.544 -25.655  -2.152  1.00  0.00     0.189 HD
BRANCH  22  28
HETATM   28  C2  UNL     1       7.489 -22.166   0.551  1.00  0.00    -0.006 C 
HETATM   29  C1  UNL     1       7.587 -23.068   1.785  1.00  0.00     0.021 C 
HETATM   30  C3  UNL     1       6.363 -21.173   0.855  1.00  0.00     0.021 C 
HETATM   31  C4  UNL     1       8.824 -21.460   0.445  1.00  0.00     0.021 C 
ENDBRANCH  22  28
BRANCH  26  32
HETATM   32  O1  UNL     1       6.459 -23.681  -4.071  1.00  0.00    -0.344 OA
ATOM     33  H1  UNL     1       5.830 -23.130  -4.520  1.00  0.00     0.219 HD
ENDBRANCH  26  32
ENDBRANCH  20  21
ENDBRANCH  19  20
ENDBRANCH   1  19
TORSDOF 5
ENDMDL
MODEL 3
REMARK VINA RESULT: -8.999281433      2.388      7.172
REMARK  5 active torsions:
REMARK  status: ('A' for Active; 'I' for Inactive)
REMARK    1  A    between atoms: C2_2  and  C5_5 
REMARK    2  A    between atoms: C6_10  and  O1_11 
REMARK    3  A    between atoms: C7_13  and  C8_14 
REMARK    4  A    between atoms: C8_14  and  C9_15 
REMARK    5  A    between atoms: C9_15  and  C10_16 
ROOT
HETATM    1  C10 UNL     1       6.745 -18.975  -2.784  1.00  0.00     0.123 A 
HETATM    2  N3  UNL     1       6.604 -18.519  -1.495  1.00  0.00    -0.284 N 
ATOM      3  H3  UNL     1       6.493 -17.542  -1.224  1.00  0.00     0.188 HD
HETATM    4  N4  UNL     1       6.635 -19.532  -0.671  1.00  0.00    -0.285 N 
ATOM      5  H4  UNL     1       6.550 -19.465   0.343  1.00  0.00     0.188 HD
HETATM    6  C11 UNL     1       6.792 -20.672  -1.355  1.00  0.00     0.136 A 
HETATM    7  N5  UNL     1       6.861 -20.329  -2.644  1.00  0.00    -0.317 N 
HETATM    8  C12 UNL     1       7.065 -21.339  -3.644  1.00  0.00     0.159 C 
HETATM    9  C13 UNL     1       7.345 -22.671  -3.055  1.00  0.00     0.254 C 
HETATM   10  N6  UNL     1       6.609 -23.007  -1.894  1.00  0.00    -0.058 N 
ATOM     11  H61 UNL     1       6.799 -23.964  -1.596  1.00  0.00     0.278 HD
ATOM     12  H62 UNL     1       5.614 -23.099  -2.096  1.00  0.00     0.278 HD
HETATM   13  C14 UNL     1       6.849 -22.053  -0.812  1.00  0.00     0.184 C 
HETATM   14  C15 UNL     1       5.729 -22.239   0.182  1.00  0.00     0.047 C 
HETATM   15  C16 UNL     1       6.287 -22.871   1.461  1.00  0.00     0.003 C 
HETATM   16  C17 UNL     1       7.277 -21.879   2.025  1.00  0.00     0.000 C 
HETATM   17  C18 UNL     1       8.452 -21.805   1.105  1.00  0.00     0.003 C 
HETATM   18  C19 UNL     1       8.213 -22.376  -0.254  1.00  0.00     0.047 C 
ENDROOT
BRANCH   1  19
HETATM   19  C9  UNL     1       6.754 -18.110  -3.951  1.00  0.00     0.051 C 
BRANCH  19  20
HETATM   20  C8  UNL     1       7.738 -17.496  -4.508  1.00  0.00     0.022 C 
BRANCH  20  21
HETATM   21  C7  UNL     1       8.825 -16.805  -3.829  1.00  0.00     0.041 A 
HETATM   22  C5  UNL     1      10.186 -17.101  -3.981  1.00  0.00     0.048 A 
HETATM   23  N1  UNL     1      10.848 -16.251  -3.197  1.00  0.00    -0.301 N 
HETATM   24  N2  UNL     1      10.019 -15.464  -2.581  1.00  0.00    -0.279 N 
ATOM     25  H1  UNL     1      11.863 -16.223  -3.095  1.00  0.00     0.186 HD
HETATM   26  C6  UNL     1       8.731 -15.768  -2.941  1.00  0.00     0.167 A 
ATOM     27  H2  UNL     1      10.287 -14.728  -1.927  1.00  0.00     0.189 HD
BRANCH  22  28
HETATM   28  C2  UNL     1      10.717 -18.146  -4.843  1.00  0.00    -0.006 C 
HETATM   29  C1  UNL     1      12.209 -18.308  -4.538  1.00  0.00     0.021 C 
HETATM   30  C3  UNL     1      10.638 -17.753  -6.321  1.00  0.00     0.021 C 
HETATM   31  C4  UNL     1      10.095 -19.506  -4.607  1.00  0.00     0.021 C 
ENDBRANCH  22  28
BRANCH  26  32
HETATM   32  O1  UNL     1       7.608 -15.095  -2.447  1.00  0.00    -0.344 OA
ATOM     33  H1  UNL     1       7.252 -15.232  -1.577  1.00  0.00     0.219 HD
ENDBRANCH  26  32
ENDBRANCH  20  21
ENDBRANCH  19  20
ENDBRANCH   1  19
TORSDOF 5
ENDMDL
MODEL 4
REMARK VINA RESULT: -8.952176599      2.492      7.428
REMARK  5 active torsions:
REMARK  status: ('A' for Active; 'I' for Inactive)
REMARK    1  A    between atoms: C2_2  and  C5_5 
REMARK    2  A    between atoms: C6_10  and  O1_11 
REMARK    3  A    between atoms: C7_13  and  C8_14 
REMARK    4  A    between atoms: C8_14  and  C9_15 
REMARK    5  A    between atoms: C9_15  and  C10_16 
ROOT
HETATM    1  C10 UNL     1       7.320 -20.028  -3.598  1.00  0.00     0.123 A 
HETATM    2  N3  UNL     1       7.113 -19.257  -2.478  1.00  0.00    -0.284 N 
ATOM      3  H3  UNL     1       7.091 -18.238  -2.459  1.00  0.00     0.188 HD
HETATM    4  N4  UNL     1       6.947 -20.035  -1.442  1.00  0.00    -0.285 N 
ATOM      5  H4  UNL     1       6.776 -19.713  -0.489  1.00  0.00     0.188 HD
HETATM    6  C11 UNL     1       7.034 -21.318  -1.815  1.00  0.00     0.136 A 
HETATM    7  N5  UNL     1       7.264 -21.311  -3.131  1.00  0.00    -0.317 N 
HETATM    8  C12 UNL     1       7.443 -22.550  -3.834  1.00  0.00     0.159 C 
HETATM    9  C13 UNL     1       7.508 -23.715  -2.919  1.00  0.00     0.254 C 
HETATM   10  N6  UNL     1       6.632 -23.688  -1.808  1.00  0.00    -0.058 N 
ATOM     11  H61 UNL     1       6.680 -24.555  -1.273  1.00  0.00     0.278 HD
ATOM     12  H62 UNL     1       5.657 -23.736  -2.100  1.00  0.00     0.278 HD
HETATM   13  C14 UNL     1       6.879 -22.522  -0.960  1.00  0.00     0.184 C 
HETATM   14  C15 UNL     1       5.656 -22.356  -0.092  1.00  0.00     0.047 C 
HETATM   15  C16 UNL     1       6.013 -22.701   1.357  1.00  0.00     0.003 C 
HETATM   16  C17 UNL     1       7.054 -21.695   1.787  1.00  0.00     0.000 C 
HETATM   17  C18 UNL     1       8.312 -21.955   1.023  1.00  0.00     0.003 C 
HETATM   18  C19 UNL     1       8.137 -22.820  -0.182  1.00  0.00     0.047 C 
ENDROOT
BRANCH   1  19
HETATM   19  C9  UNL     1       7.540 -19.481  -4.925  1.00  0.00     0.051 C 
BRANCH  19  20
HETATM   20  C8  UNL     1       8.066 -18.360  -5.273  1.00  0.00     0.022 C 
BRANCH  20  21
HETATM   21  C7  UNL     1       9.467 -18.120  -5.591  1.00  0.00     0.041 A 
HETATM   22  C5  UNL     1      10.373 -17.441  -4.766  1.00  0.00     0.048 A 
HETATM   23  N1  UNL     1      11.539 -17.434  -5.412  1.00  0.00    -0.301 N 
HETATM   24  N2  UNL     1      11.430 -18.045  -6.552  1.00  0.00    -0.279 N 
ATOM     25  H1  UNL     1      12.397 -17.009  -5.060  1.00  0.00     0.186 HD
HETATM   26  C6  UNL     1      10.145 -18.498  -6.718  1.00  0.00     0.167 A 
ATOM     27  H2  UNL     1      12.186 -18.171  -7.225  1.00  0.00     0.189 HD
BRANCH  22  28
HETATM   28  C2  UNL     1      10.050 -16.873  -3.466  1.00  0.00    -0.006 C 
HETATM   29  C1  UNL     1      11.106 -15.817  -3.127  1.00  0.00     0.021 C 
HETATM   30  C3  UNL     1      10.144 -17.922  -2.354  1.00  0.00     0.021 C 
HETATM   31  C4  UNL     1       8.717 -16.156  -3.428  1.00  0.00     0.021 C 
ENDBRANCH  22  28
BRANCH  26  32
HETATM   32  O1  UNL     1       9.708 -19.197  -7.848  1.00  0.00    -0.344 OA
ATOM     33  H1  UNL     1       8.831 -19.549  -7.943  1.00  0.00     0.219 HD
ENDBRANCH  26  32
ENDBRANCH  20  21
ENDBRANCH  19  20
ENDBRANCH   1  19
TORSDOF 5
ENDMDL
MODEL 5
REMARK VINA RESULT: -8.934153568      2.673      7.557
REMARK  5 active torsions:
REMARK  status: ('A' for Active; 'I' for Inactive)
REMARK    1  A    between atoms: C2_2  and  C5_5 
REMARK    2  A    between atoms: C6_10  and  O1_11 
REMARK    3  A    between atoms: C7_13  and  C8_14 
REMARK    4  A    between atoms: C8_14  and  C9_15 
REMARK    5  A    between atoms: C9_15  and  C10_16 
ROOT
HETATM    1  C10 UNL     1       6.837 -20.192  -3.592  1.00  0.00     0.123 A 
HETATM    2  N3  UNL     1       7.004 -21.555  -3.518  1.00  0.00    -0.284 N 
ATOM      3  H3  UNL     1       7.020 -22.191  -4.315  1.00  0.00     0.188 HD
HETATM    4  N4  UNL     1       7.138 -21.908  -2.267  1.00  0.00    -0.285 N 
ATOM      5  H4  UNL     1       7.276 -22.864  -1.940  1.00  0.00     0.188 HD
HETATM    6  C11 UNL     1       7.069 -20.828  -1.478  1.00  0.00     0.136 A 
HETATM    7  N5  UNL     1       6.883 -19.783  -2.289  1.00  0.00    -0.317 N 
HETATM    8  C12 UNL     1       6.734 -18.466  -1.737  1.00  0.00     0.159 C 
HETATM    9  C13 UNL     1       6.643 -18.480  -0.257  1.00  0.00     0.254 C 
HETATM   10  N6  UNL     1       7.481 -19.403   0.413  1.00  0.00    -0.058 N 
ATOM     11  H61 UNL     1       7.418 -19.298   1.425  1.00  0.00     0.278 HD
ATOM     12  H62 UNL     1       8.466 -19.170   0.290  1.00  0.00     0.278 HD
HETATM   13  C14 UNL     1       7.201 -20.778  -0.000  1.00  0.00     0.184 C 
HETATM   14  C15 UNL     1       8.393 -21.603   0.417  1.00  0.00     0.047 C 
HETATM   15  C16 UNL     1       7.989 -22.531   1.567  1.00  0.00     0.003 C 
HETATM   16  C17 UNL     1       6.930 -23.454   1.012  1.00  0.00     0.000 C 
HETATM   17  C18 UNL     1       5.700 -22.653   0.732  1.00  0.00     0.003 C 
HETATM   18  C19 UNL     1       5.919 -21.176   0.688  1.00  0.00     0.047 C 
ENDROOT
BRANCH   1  19
HETATM   19  C9  UNL     1       6.660 -19.466  -4.837  1.00  0.00     0.051 C 
BRANCH  19  20
HETATM   20  C8  UNL     1       7.314 -18.459  -5.299  1.00  0.00     0.022 C 
BRANCH  20  21
HETATM   21  C7  UNL     1       8.563 -18.506  -6.046  1.00  0.00     0.041 A 
HETATM   22  C5  UNL     1       9.813 -18.113  -5.549  1.00  0.00     0.048 A 
HETATM   23  N1  UNL     1      10.690 -18.307  -6.533  1.00  0.00    -0.301 N 
HETATM   24  N2  UNL     1      10.093 -18.781  -7.585  1.00  0.00    -0.279 N 
ATOM     25  H1  UNL     1      11.689 -18.112  -6.470  1.00  0.00     0.186 HD
HETATM   26  C6  UNL     1       8.752 -18.926  -7.335  1.00  0.00     0.167 A 
ATOM     27  H2  UNL     1      10.552 -19.012  -8.466  1.00  0.00     0.189 HD
BRANCH  22  28
HETATM   28  C2  UNL     1      10.050 -17.601  -4.208  1.00  0.00    -0.006 C 
HETATM   29  C1  UNL     1      11.423 -16.923  -4.188  1.00  0.00     0.021 C 
HETATM   30  C3  UNL     1      10.133 -18.732  -3.178  1.00  0.00     0.021 C 
HETATM   31  C4  UNL     1       9.058 -16.542  -3.776  1.00  0.00     0.021 C 
ENDBRANCH  22  28
BRANCH  26  32
HETATM   32  O1  UNL     1       7.835 -19.415  -8.273  1.00  0.00    -0.344 OA
ATOM     33  H1  UNL     1       7.716 -19.041  -9.137  1.00  0.00     0.219 HD
ENDBRANCH  26  32
ENDBRANCH  20  21
ENDBRANCH  19  20
ENDBRANCH   1  19
TORSDOF 5
ENDMDL
