MODEL 1
REMARK VINA RESULT: -7.560032452      0.000      0.000
REMARK  10 active torsions:
REMARK  status: ('A' for Active; 'I' for Inactive)
REMARK    1  A    between atoms: C2_2  and  C3_3 
REMARK    2  A    between atoms: C5_5  and  C6_6 
REMARK    3  A    between atoms: C6_6  and  C7_7 
REMARK    4  A    between atoms: C7_7  and  C8_8 
REMARK    5  A    between atoms: C14_14  and  O1_15 
REMARK    6  A    between atoms: O1_15  and  C15_16 
REMARK    7  A    between atoms: C15_16  and  C16_17 
REMARK    8  A    between atoms: C16_17  and  C17_18 
REMARK    9  A    between atoms: C17_18  and  C18_19 
REMARK   10  A    between atoms: C18_19  and  O2_20 
ROOT
HETATM    1  C8  UNL     1       7.234 -23.164  -3.741  1.00  0.00    -0.024 A 
HETATM    2  C9  UNL     1       6.815 -23.921  -4.808  1.00  0.00     0.010 A 
HETATM    3  C10 UNL     1       6.306 -23.387  -5.958  1.00  0.00     0.001 A 
HETATM    4  C11 UNL     1       6.210 -22.035  -6.056  1.00  0.00     0.009 A 
HETATM    5  C12 UNL     1       6.629 -21.236  -4.979  1.00  0.00    -0.028 A 
HETATM    6  C13 UNL     1       6.472 -19.786  -5.204  1.00  0.00     0.051 C 
HETATM    7  C14 UNL     1       7.141 -21.755  -3.813  1.00  0.00     0.081 A 
ENDROOT
BRANCH   1   8
HETATM    8  C7  UNL     1       7.817 -23.902  -2.610  1.00  0.00     0.045 C 
BRANCH   8   9
HETATM    9  C6  UNL     1       6.749 -24.447  -1.676  1.00  0.00     0.032 C 
BRANCH   9  10
HETATM   10  C5  UNL     1       7.165 -24.174  -0.276  1.00  0.00    -0.024 C 
HETATM   11  C3  UNL     1       6.713 -23.207   0.488  1.00  0.00    -0.088 C 
HETATM   12  C4  UNL     1       7.263 -23.088   1.896  1.00  0.00     0.043 C 
BRANCH  11  13
HETATM   13  C2  UNL     1       5.702 -22.193   0.124  1.00  0.00     0.029 C 
HETATM   14  C1  UNL     1       4.801 -21.805   1.288  1.00  0.00     0.010 C 
ENDBRANCH  11  13
ENDBRANCH   9  10
ENDBRANCH   8   9
ENDBRANCH   1   8
BRANCH   7  15
HETATM   15  O1  UNL     1       7.541 -21.064  -2.774  1.00  0.00    -0.350 OA
BRANCH  15  16
HETATM   16  C15 UNL     1       8.244 -20.128  -2.181  1.00  0.00     0.176 C 
BRANCH  16  17
HETATM   17  C16 UNL     1       8.427 -19.893  -0.740  1.00  0.00     0.029 C 
BRANCH  17  18
HETATM   18  C17 UNL     1       9.351 -20.804   0.004  1.00  0.00     0.028 C 
BRANCH  18  19
HETATM   19  C18 UNL     1      10.778 -20.262   0.030  1.00  0.00     0.164 C 
BRANCH  19  20
HETATM   20  O2  UNL     1      11.179 -19.905   1.306  1.00  0.00    -0.401 OA
ATOM     21  H2  UNL     1      12.072 -20.173   1.490  1.00  0.00     0.209 HD
ENDBRANCH  19  20
ENDBRANCH  18  19
ENDBRANCH  17  18
ENDBRANCH  16  17
ENDBRANCH  15  16
ENDBRANCH   7  15
TORSDOF 10
ENDMDL
MODEL 2
REMARK VINA RESULT: -7.510121913      1.588      2.185
REMARK  10 active torsions:
REMARK  status: ('A' for Active; 'I' for Inactive)
REMARK    1  A    between atoms: C2_2  and  C3_3 
REMARK    2  A    between atoms: C5_5  and  C6_6 
REMARK    3  A    between atoms: C6_6  and  C7_7 
REMARK    4  A    between atoms: C7_7  and  C8_8 
REMARK    5  A    between atoms: C14_14  and  O1_15 
REMARK    6  A    between atoms: O1_15  and  C15_16 
REMARK    7  A    between atoms: C15_16  and  C16_17 
REMARK    8  A    between atoms: C16_17  and  C17_18 
REMARK    9  A    between atoms: C17_18  and  C18_19 
REMARK   10  A    between atoms: C18_19  and  O2_20 
ROOT
HETATM    1  C8  UNL     1       7.168 -23.250  -3.902  1.00  0.00    -0.024 A 
HETATM    2  C9  UNL     1       6.778 -23.927  -5.032  1.00  0.00     0.010 A 
HETATM    3  C10 UNL     1       6.282 -23.312  -6.147  1.00  0.00     0.001 A 
HETATM    4  C11 UNL     1       6.168 -21.958  -6.141  1.00  0.00     0.009 A 
HETATM    5  C12 UNL     1       6.558 -21.240  -4.999  1.00  0.00    -0.028 A 
HETATM    6  C13 UNL     1       6.385 -19.780  -5.113  1.00  0.00     0.051 C 
HETATM    7  C14 UNL     1       7.058 -21.842  -3.867  1.00  0.00     0.081 A 
ENDROOT
BRANCH   1   8
HETATM    8  C7  UNL     1       7.743 -24.067  -2.821  1.00  0.00     0.045 C 
BRANCH   8   9
HETATM    9  C6  UNL     1       6.704 -24.437  -1.775  1.00  0.00     0.032 C 
BRANCH   9  10
HETATM   10  C5  UNL     1       7.255 -24.119  -0.433  1.00  0.00    -0.024 C 
HETATM   11  C3  UNL     1       6.826 -23.174   0.372  1.00  0.00    -0.088 C 
HETATM   12  C4  UNL     1       7.521 -23.001   1.708  1.00  0.00     0.043 C 
BRANCH  11  13
HETATM   13  C2  UNL     1       5.715 -22.235   0.119  1.00  0.00     0.029 C 
HETATM   14  C1  UNL     1       4.972 -21.834   1.386  1.00  0.00     0.010 C 
ENDBRANCH  11  13
ENDBRANCH   9  10
ENDBRANCH   8   9
ENDBRANCH   1   8
BRANCH   7  15
HETATM   15  O1  UNL     1       7.431 -21.228  -2.770  1.00  0.00    -0.350 OA
BRANCH  15  16
HETATM   16  C15 UNL     1       8.175 -20.396  -2.080  1.00  0.00     0.176 C 
BRANCH  16  17
HETATM   17  C16 UNL     1       7.755 -19.421  -1.061  1.00  0.00     0.029 C 
BRANCH  17  18
HETATM   18  C17 UNL     1       6.401 -18.802  -1.203  1.00  0.00     0.028 C 
BRANCH  18  19
HETATM   19  C18 UNL     1       6.442 -17.294  -0.969  1.00  0.00     0.164 C 
BRANCH  19  20
HETATM   20  O2  UNL     1       5.179 -16.729  -0.978  1.00  0.00    -0.401 OA
ATOM     21  H2  UNL     1       5.000 -16.263  -1.786  1.00  0.00     0.209 HD
ENDBRANCH  19  20
ENDBRANCH  18  19
ENDBRANCH  17  18
ENDBRANCH  16  17
ENDBRANCH  15  16
ENDBRANCH   7  15
TORSDOF 10
ENDMDL
MODEL 3
REMARK VINA RESULT: -7.346377576      1.773      2.666
REMARK  10 active torsions:
REMARK  status: ('A' for Active; 'I' for Inactive)
REMARK    1  A    between atoms: C2_2  and  C3_3 
REMARK    2  A    between atoms: C5_5  and  C6_6 
REMARK    3  A    between atoms: C6_6  and  C7_7 
REMARK    4  A    between atoms: C7_7  and  C8_8 
REMARK    5  A    between atoms: C14_14  and  O1_15 
REMARK    6  A    between atoms: O1_15  and  C15_16 
REMARK    7  A    between atoms: C15_16  and  C16_17 
REMARK    8  A    between atoms: C16_17  and  C17_18 
REMARK    9  A    between atoms: C17_18  and  C18_19 
REMARK   10  A    between atoms: C18_19  and  O2_20 
ROOT
HETATM    1  C8  UNL     1       7.482 -23.402  -2.900  1.00  0.00    -0.024 A 
HETATM    2  C9  UNL     1       7.011 -24.499  -3.579  1.00  0.00     0.010 A 
HETATM    3  C10 UNL     1       6.408 -24.429  -4.803  1.00  0.00     0.001 A 
HETATM    4  C11 UNL     1       6.266 -23.208  -5.384  1.00  0.00     0.009 A 
HETATM    5  C12 UNL     1       6.737 -22.068  -4.712  1.00  0.00    -0.028 A 
HETATM    6  C13 UNL     1       6.524 -20.804  -5.442  1.00  0.00     0.051 C 
HETATM    7  C14 UNL     1       7.344 -22.119  -3.479  1.00  0.00     0.081 A 
ENDROOT
BRANCH   1   8
HETATM    8  C7  UNL     1       8.164 -23.669  -1.624  1.00  0.00     0.045 C 
BRANCH   8   9
HETATM    9  C6  UNL     1       7.273 -24.425  -0.652  1.00  0.00     0.032 C 
BRANCH   9  10
HETATM   10  C5  UNL     1       6.240 -23.490  -0.138  1.00  0.00    -0.024 C 
HETATM   11  C3  UNL     1       6.357 -22.715   0.916  1.00  0.00    -0.088 C 
HETATM   12  C4  UNL     1       5.186 -21.826   1.286  1.00  0.00     0.043 C 
BRANCH  11  13
HETATM   13  C2  UNL     1       7.530 -22.607   1.807  1.00  0.00     0.029 C 
HETATM   14  C1  UNL     1       8.423 -21.419   1.476  1.00  0.00     0.010 C 
ENDBRANCH  11  13
ENDBRANCH   9  10
ENDBRANCH   8   9
ENDBRANCH   1   8
BRANCH   7  15
HETATM   15  O1  UNL     1       7.796 -21.093  -2.801  1.00  0.00    -0.350 OA
BRANCH  15  16
HETATM   16  C15 UNL     1       7.661 -20.025  -2.049  1.00  0.00     0.176 C 
BRANCH  16  17
HETATM   17  C16 UNL     1       6.493 -19.602  -1.262  1.00  0.00     0.029 C 
BRANCH  17  18
HETATM   18  C17 UNL     1       6.621 -18.362  -0.434  1.00  0.00     0.028 C 
BRANCH  18  19
HETATM   19  C18 UNL     1       6.354 -17.104  -1.256  1.00  0.00     0.164 C 
BRANCH  19  20
HETATM   20  O2  UNL     1       5.100 -16.574  -1.009  1.00  0.00    -0.401 OA
ATOM     21  H2  UNL     1       4.434 -17.247  -0.931  1.00  0.00     0.209 HD
ENDBRANCH  19  20
ENDBRANCH  18  19
ENDBRANCH  17  18
ENDBRANCH  16  17
ENDBRANCH  15  16
ENDBRANCH   7  15
TORSDOF 10
ENDMDL
MODEL 4
REMARK VINA RESULT: -7.169013372      1.267      1.378
REMARK  10 active torsions:
REMARK  status: ('A' for Active; 'I' for Inactive)
REMARK    1  A    between atoms: C2_2  and  C3_3 
REMARK    2  A    between atoms: C5_5  and  C6_6 
REMARK    3  A    between atoms: C6_6  and  C7_7 
REMARK    4  A    between atoms: C7_7  and  C8_8 
REMARK    5  A    between atoms: C14_14  and  O1_15 
REMARK    6  A    between atoms: O1_15  and  C15_16 
REMARK    7  A    between atoms: C15_16  and  C16_17 
REMARK    8  A    between atoms: C16_17  and  C17_18 
REMARK    9  A    between atoms: C17_18  and  C18_19 
REMARK   10  A    between atoms: C18_19  and  O2_20 
ROOT
HETATM    1  C8  UNL     1       7.153 -23.271  -3.877  1.00  0.00    -0.024 A 
HETATM    2  C9  UNL     1       6.719 -24.008  -4.953  1.00  0.00     0.010 A 
HETATM    3  C10 UNL     1       6.201 -23.453  -6.088  1.00  0.00     0.001 A 
HETATM    4  C11 UNL     1       6.109 -22.099  -6.161  1.00  0.00     0.009 A 
HETATM    5  C12 UNL     1       6.543 -21.320  -5.076  1.00  0.00    -0.028 A 
HETATM    6  C13 UNL     1       6.390 -19.867  -5.274  1.00  0.00     0.051 C 
HETATM    7  C14 UNL     1       7.066 -21.862  -3.924  1.00  0.00     0.081 A 
ENDROOT
BRANCH   1   8
HETATM    8  C7  UNL     1       7.745 -24.031  -2.765  1.00  0.00     0.045 C 
BRANCH   8   9
HETATM    9  C6  UNL     1       6.707 -24.416  -1.723  1.00  0.00     0.032 C 
BRANCH   9  10
HETATM   10  C5  UNL     1       7.262 -24.122  -0.377  1.00  0.00    -0.024 C 
HETATM   11  C3  UNL     1       6.896 -23.136   0.409  1.00  0.00    -0.088 C 
HETATM   12  C4  UNL     1       7.583 -22.997   1.753  1.00  0.00     0.043 C 
BRANCH  11  13
HETATM   13  C2  UNL     1       5.863 -22.118   0.127  1.00  0.00     0.029 C 
HETATM   14  C1  UNL     1       4.856 -21.960   1.258  1.00  0.00     0.010 C 
ENDBRANCH  11  13
ENDBRANCH   9  10
ENDBRANCH   8   9
ENDBRANCH   1   8
BRANCH   7  15
HETATM   15  O1  UNL     1       7.480 -21.190  -2.878  1.00  0.00    -0.350 OA
BRANCH  15  16
HETATM   16  C15 UNL     1       7.826 -20.096  -2.241  1.00  0.00     0.176 C 
BRANCH  16  17
HETATM   17  C16 UNL     1       8.767 -19.947  -1.120  1.00  0.00     0.029 C 
BRANCH  17  18
HETATM   18  C17 UNL     1      10.064 -19.251  -1.384  1.00  0.00     0.028 C 
BRANCH  18  19
HETATM   19  C18 UNL     1       9.915 -18.166  -2.448  1.00  0.00     0.164 C 
BRANCH  19  20
HETATM   20  O2  UNL     1      10.949 -17.246  -2.405  1.00  0.00    -0.401 OA
ATOM     21  H2  UNL     1      11.276 -17.114  -1.523  1.00  0.00     0.209 HD
ENDBRANCH  19  20
ENDBRANCH  18  19
ENDBRANCH  17  18
ENDBRANCH  16  17
ENDBRANCH  15  16
ENDBRANCH   7  15
TORSDOF 10
ENDMDL
MODEL 5
REMARK VINA RESULT: -7.099261780      1.943      4.305
REMARK  10 active torsions:
REMARK  status: ('A' for Active; 'I' for Inactive)
REMARK    1  A    between atoms: C2_2  and  C3_3 
REMARK    2  A    between atoms: C5_5  and  C6_6 
REMARK    3  A    between atoms: C6_6  and  C7_7 
REMARK    4  A    between atoms: C7_7  and  C8_8 
REMARK    5  A    between atoms: C14_14  and  O1_15 
REMARK    6  A    between atoms: O1_15  and  C15_16 
REMARK    7  A    between atoms: C15_16  and  C16_17 
REMARK    8  A    between atoms: C16_17  and  C17_18 
REMARK    9  A    between atoms: C17_18  and  C18_19 
REMARK   10  A    between atoms: C18_19  and  O2_20 
ROOT
HETATM    1  C8  UNL     1       7.297 -21.511  -3.102  1.00  0.00    -0.024 A 
HETATM    2  C9  UNL     1       6.882 -20.928  -4.275  1.00  0.00     0.010 A 
HETATM    3  C10 UNL     1       6.407 -21.636  -5.343  1.00  0.00     0.001 A 
HETATM    4  C11 UNL     1       6.340 -22.990  -5.241  1.00  0.00     0.009 A 
HETATM    5  C12 UNL     1       6.759 -23.613  -4.055  1.00  0.00    -0.028 A 
HETATM    6  C13 UNL     1       6.640 -25.083  -4.067  1.00  0.00     0.051 C 
HETATM    7  C14 UNL     1       7.242 -22.917  -2.970  1.00  0.00     0.081 A 
ENDROOT
BRANCH   1   8
HETATM    8  C7  UNL     1       7.715 -20.591  -2.033  1.00  0.00     0.045 C 
BRANCH   8   9
HETATM    9  C6  UNL     1       6.526 -20.016  -1.281  1.00  0.00     0.032 C 
BRANCH   9  10
HETATM   10  C5  UNL     1       6.785 -18.576  -1.022  1.00  0.00    -0.024 C 
HETATM   11  C3  UNL     1       6.362 -17.572  -1.755  1.00  0.00    -0.088 C 
HETATM   12  C4  UNL     1       6.733 -16.166  -1.327  1.00  0.00     0.043 C 
BRANCH  11  13
HETATM   13  C2  UNL     1       5.544 -17.657  -2.982  1.00  0.00     0.029 C 
HETATM   14  C1  UNL     1       6.316 -17.287  -4.241  1.00  0.00     0.010 C 
ENDBRANCH  11  13
ENDBRANCH   9  10
ENDBRANCH   8   9
ENDBRANCH   1   8
BRANCH   7  15
HETATM   15  O1  UNL     1       7.654 -23.440  -1.842  1.00  0.00    -0.350 OA
BRANCH  15  16
HETATM   16  C15 UNL     1       7.476 -23.975  -0.657  1.00  0.00     0.176 C 
BRANCH  16  17
HETATM   17  C16 UNL     1       6.729 -23.433   0.490  1.00  0.00     0.029 C 
BRANCH  17  18
HETATM   18  C17 UNL     1       7.508 -23.016   1.696  1.00  0.00     0.028 C 
BRANCH  18  19
HETATM   19  C18 UNL     1       7.695 -21.502   1.753  1.00  0.00     0.164 C 
BRANCH  19  20
HETATM   20  O2  UNL     1       9.005 -21.146   2.024  1.00  0.00    -0.401 OA
ATOM     21  H2  UNL     1       9.611 -21.862   1.873  1.00  0.00     0.209 HD
ENDBRANCH  19  20
ENDBRANCH  18  19
ENDBRANCH  17  18
ENDBRANCH  16  17
ENDBRANCH  15  16
ENDBRANCH   7  15
TORSDOF 10
ENDMDL
