MODEL 1
REMARK VINA RESULT: -7.632291200      0.000      0.000
REMARK  9 active torsions:
REMARK  status: ('A' for Active; 'I' for Inactive)
REMARK    1  A    between atoms: C2_2  and  C3_3 
REMARK    2  A    between atoms: C3_3  and  C6_6 
REMARK    3  A    between atoms: C6_6  and  C7_7 
REMARK    4  A    between atoms: C7_7  and  O1_8 
REMARK    5  A    between atoms: C7_7  and  C8_10 
REMARK    6  A    between atoms: C8_10  and  C9_11 
REMARK    7  A    between atoms: C9_11  and  C10_12 
REMARK    8  A    between atoms: C10_12  and  O2_13 
REMARK    9  A    between atoms: O2_13  and  C11_14 
ROOT
HETATM    1  C9  UNL     1       8.256 -19.950  -1.011  1.00  0.00     0.029 C 
ENDROOT
BRANCH   1   2
HETATM    2  C8  UNL     1       7.944 -19.728   0.450  1.00  0.00     0.034 C 
BRANCH   2   3
HETATM    3  C7  UNL     1       8.593 -20.762   1.341  1.00  0.00     0.122 C 
BRANCH   3   4
HETATM    4  C6  UNL     1       7.497 -21.649   1.864  1.00  0.00     0.070 C 
BRANCH   4   5
HETATM    5  C3  UNL     1       6.920 -22.590   0.914  1.00  0.00    -0.061 C 
HETATM    6  C4  UNL     1       7.602 -23.549   0.336  1.00  0.00    -0.024 C 
HETATM    7  C5  UNL     1       6.897 -24.471  -0.615  1.00  0.00     0.036 C 
BRANCH   5   8
HETATM    8  C2  UNL     1       5.495 -22.452   0.609  1.00  0.00    -0.004 C 
HETATM    9  C1  UNL     1       4.724 -21.653   1.314  1.00  0.00     0.012 C 
ENDBRANCH   5   8
ENDBRANCH   4   5
ENDBRANCH   3   4
BRANCH   3  10
HETATM   10  O1  UNL     1       9.242 -20.181   2.422  1.00  0.00    -0.395 OA
ATOM     11  H1  UNL     1       9.259 -19.240   2.293  1.00  0.00     0.210 HD
ENDBRANCH   3  10
ENDBRANCH   2   3
ENDBRANCH   1   2
BRANCH   1  12
HETATM   12  C10 UNL     1       7.054 -19.958  -1.883  1.00  0.00     0.175 C 
BRANCH  12  13
HETATM   13  O2  UNL     1       7.369 -20.346  -3.165  1.00  0.00    -0.351 OA
BRANCH  13  14
HETATM   14  C11 UNL     1       7.024 -21.364  -3.983  1.00  0.00     0.075 A 
HETATM   15  C12 UNL     1       7.094 -22.704  -3.699  1.00  0.00     0.044 A 
HETATM   16  C13 UNL     1       6.723 -23.708  -4.593  1.00  0.00    -0.059 A 
HETATM   17  C14 UNL     1       6.817 -25.149  -4.233  1.00  0.00     0.048 C 
HETATM   18  C15 UNL     1       6.265 -23.302  -5.827  1.00  0.00     0.007 A 
HETATM   19  C16 UNL     1       6.192 -21.963  -6.128  1.00  0.00     0.010 A 
HETATM   20  C17 UNL     1       6.554 -20.977  -5.251  1.00  0.00    -0.029 A 
HETATM   21  C18 UNL     1       6.453 -19.532  -5.631  1.00  0.00     0.051 C 
ENDBRANCH  13  14
ENDBRANCH  12  13
ENDBRANCH   1  12
TORSDOF 9
ENDMDL
MODEL 2
REMARK VINA RESULT: -7.484221488      1.635      2.735
REMARK  9 active torsions:
REMARK  status: ('A' for Active; 'I' for Inactive)
REMARK    1  A    between atoms: C2_2  and  C3_3 
REMARK    2  A    between atoms: C3_3  and  C6_6 
REMARK    3  A    between atoms: C6_6  and  C7_7 
REMARK    4  A    between atoms: C7_7  and  O1_8 
REMARK    5  A    between atoms: C7_7  and  C8_10 
REMARK    6  A    between atoms: C8_10  and  C9_11 
REMARK    7  A    between atoms: C9_11  and  C10_12 
REMARK    8  A    between atoms: C10_12  and  O2_13 
REMARK    9  A    between atoms: O2_13  and  C11_14 
ROOT
HETATM    1  C9  UNL     1       6.704 -19.137  -2.982  1.00  0.00     0.029 C 
ENDROOT
BRANCH   1   2
HETATM    2  C8  UNL     1       7.478 -18.412  -1.907  1.00  0.00     0.034 C 
BRANCH   2   3
HETATM    3  C7  UNL     1       6.851 -18.567  -0.541  1.00  0.00     0.122 C 
BRANCH   3   4
HETATM    4  C6  UNL     1       6.075 -19.855  -0.552  1.00  0.00     0.070 C 
BRANCH   4   5
HETATM    5  C3  UNL     1       6.556 -20.906   0.335  1.00  0.00    -0.061 C 
HETATM    6  C4  UNL     1       7.794 -20.989   0.758  1.00  0.00    -0.024 C 
HETATM    7  C5  UNL     1       8.173 -22.108   1.683  1.00  0.00     0.036 C 
BRANCH   5   8
HETATM    8  C2  UNL     1       5.588 -21.910   0.778  1.00  0.00    -0.004 C 
HETATM    9  C1  UNL     1       4.488 -21.560   1.410  1.00  0.00     0.012 C 
ENDBRANCH   5   8
ENDBRANCH   4   5
ENDBRANCH   3   4
BRANCH   3  10
HETATM   10  O1  UNL     1       5.976 -17.529  -0.250  1.00  0.00    -0.395 OA
ATOM     11  H1  UNL     1       5.732 -17.104  -1.064  1.00  0.00     0.210 HD
ENDBRANCH   3  10
ENDBRANCH   2   3
ENDBRANCH   1   2
BRANCH   1  12
HETATM   12  C10 UNL     1       7.552 -19.990  -3.855  1.00  0.00     0.175 C 
BRANCH  12  13
HETATM   13  O2  UNL     1       6.888 -21.133  -4.233  1.00  0.00    -0.351 OA
BRANCH  13  14
HETATM   14  C11 UNL     1       6.876 -22.424  -3.836  1.00  0.00     0.075 A 
HETATM   15  C12 UNL     1       7.119 -22.895  -2.571  1.00  0.00     0.044 A 
HETATM   16  C13 UNL     1       7.091 -24.247  -2.227  1.00  0.00    -0.059 A 
HETATM   17  C14 UNL     1       7.361 -24.705  -0.837  1.00  0.00     0.048 C 
HETATM   18  C15 UNL     1       6.803 -25.139  -3.236  1.00  0.00     0.007 A 
HETATM   19  C16 UNL     1       6.559 -24.682  -4.509  1.00  0.00     0.010 A 
HETATM   20  C17 UNL     1       6.585 -23.357  -4.848  1.00  0.00    -0.029 A 
HETATM   21  C18 UNL     1       6.311 -22.914  -6.252  1.00  0.00     0.051 C 
ENDBRANCH  13  14
ENDBRANCH  12  13
ENDBRANCH   1  12
TORSDOF 9
ENDMDL
MODEL 3
REMARK VINA RESULT: -7.278869916      1.670      2.893
REMARK  9 active torsions:
REMARK  status: ('A' for Active; 'I' for Inactive)
REMARK    1  A    between atoms: C2_2  and  C3_3 
REMARK    2  A    between atoms: C3_3  and  C6_6 
REMARK    3  A    between atoms: C6_6  and  C7_7 
REMARK    4  A    between atoms: C7_7  and  O1_8 
REMARK    5  A    between atoms: C7_7  and  C8_10 
REMARK    6  A    between atoms: C8_10  and  C9_11 
REMARK    7  A    between atoms: C9_11  and  C10_12 
REMARK    8  A    between atoms: C10_12  and  O2_13 
REMARK    9  A    between atoms: O2_13  and  C11_14 
ROOT
HETATM    1  C9  UNL     1       6.759 -19.098  -2.922  1.00  0.00     0.029 C 
ENDROOT
BRANCH   1   2
HETATM    2  C8  UNL     1       7.504 -18.372  -1.827  1.00  0.00     0.034 C 
BRANCH   2   3
HETATM    3  C7  UNL     1       6.871 -18.569  -0.470  1.00  0.00     0.122 C 
BRANCH   3   4
HETATM    4  C6  UNL     1       6.237 -19.932  -0.469  1.00  0.00     0.070 C 
BRANCH   4   5
HETATM    5  C3  UNL     1       6.803 -20.908   0.454  1.00  0.00    -0.061 C 
HETATM    6  C4  UNL     1       6.118 -21.897   0.974  1.00  0.00    -0.024 C 
HETATM    7  C5  UNL     1       6.810 -22.852   1.902  1.00  0.00     0.036 C 
BRANCH   5   8
HETATM    8  C2  UNL     1       8.218 -20.768   0.798  1.00  0.00    -0.004 C 
HETATM    9  C1  UNL     1       9.159 -21.201  -0.012  1.00  0.00     0.012 C 
ENDBRANCH   5   8
ENDBRANCH   4   5
ENDBRANCH   3   4
BRANCH   3  10
HETATM   10  O1  UNL     1       5.886 -17.625  -0.214  1.00  0.00    -0.395 OA
ATOM     11  H1  UNL     1       5.103 -18.079   0.075  1.00  0.00     0.210 HD
ENDBRANCH   3  10
ENDBRANCH   2   3
ENDBRANCH   1   2
BRANCH   1  12
HETATM   12  C10 UNL     1       7.630 -19.949  -3.774  1.00  0.00     0.175 C 
BRANCH  12  13
HETATM   13  O2  UNL     1       6.958 -21.063  -4.219  1.00  0.00    -0.351 OA
BRANCH  13  14
HETATM   14  C11 UNL     1       6.920 -22.372  -3.886  1.00  0.00     0.075 A 
HETATM   15  C12 UNL     1       7.195 -22.913  -2.656  1.00  0.00     0.044 A 
HETATM   16  C13 UNL     1       7.139 -24.279  -2.379  1.00  0.00    -0.059 A 
HETATM   17  C14 UNL     1       7.446 -24.814  -1.024  1.00  0.00     0.048 C 
HETATM   18  C15 UNL     1       6.786 -25.110  -3.419  1.00  0.00     0.007 A 
HETATM   19  C16 UNL     1       6.510 -24.583  -4.657  1.00  0.00     0.010 A 
HETATM   20  C17 UNL     1       6.564 -23.243  -4.931  1.00  0.00    -0.029 A 
HETATM   21  C18 UNL     1       6.252 -22.722  -6.300  1.00  0.00     0.051 C 
ENDBRANCH  13  14
ENDBRANCH  12  13
ENDBRANCH   1  12
TORSDOF 9
ENDMDL
MODEL 4
REMARK VINA RESULT: -7.270376981      1.281      3.887
REMARK  9 active torsions:
REMARK  status: ('A' for Active; 'I' for Inactive)
REMARK    1  A    between atoms: C2_2  and  C3_3 
REMARK    2  A    between atoms: C3_3  and  C6_6 
REMARK    3  A    between atoms: C6_6  and  C7_7 
REMARK    4  A    between atoms: C7_7  and  O1_8 
REMARK    5  A    between atoms: C7_7  and  C8_10 
REMARK    6  A    between atoms: C8_10  and  C9_11 
REMARK    7  A    between atoms: C9_11  and  C10_12 
REMARK    8  A    between atoms: C10_12  and  O2_13 
REMARK    9  A    between atoms: O2_13  and  C11_14 
ROOT
HETATM    1  C9  UNL     1       6.564 -22.914  -0.140  1.00  0.00     0.029 C 
ENDROOT
BRANCH   1   2
HETATM    2  C8  UNL     1       7.753 -22.682   0.761  1.00  0.00     0.034 C 
BRANCH   2   3
HETATM    3  C7  UNL     1       8.005 -21.214   1.017  1.00  0.00     0.122 C 
BRANCH   3   4
HETATM    4  C6  UNL     1       8.649 -20.652  -0.220  1.00  0.00     0.070 C 
BRANCH   4   5
HETATM    5  C3  UNL     1       7.979 -19.514  -0.836  1.00  0.00    -0.061 C 
HETATM    6  C4  UNL     1       6.732 -19.188  -0.596  1.00  0.00    -0.024 C 
HETATM    7  C5  UNL     1       6.150 -17.984  -1.277  1.00  0.00     0.036 C 
BRANCH   5   8
HETATM    8  C2  UNL     1       8.758 -18.692  -1.762  1.00  0.00    -0.004 C 
HETATM    9  C1  UNL     1      10.037 -18.927  -1.967  1.00  0.00     0.012 C 
ENDBRANCH   5   8
ENDBRANCH   4   5
ENDBRANCH   3   4
BRANCH   3  10
HETATM   10  O1  UNL     1       8.863 -21.014   2.089  1.00  0.00    -0.395 OA
ATOM     11  H1  UNL     1       9.065 -21.859   2.474  1.00  0.00     0.210 HD
ENDBRANCH   3  10
ENDBRANCH   2   3
ENDBRANCH   1   2
BRANCH   1  12
HETATM   12  C10 UNL     1       6.786 -23.968  -1.163  1.00  0.00     0.175 C 
BRANCH  12  13
HETATM   13  O2  UNL     1       7.442 -23.466  -2.263  1.00  0.00    -0.351 OA
BRANCH  13  14
HETATM   14  C11 UNL     1       7.087 -22.813  -3.390  1.00  0.00     0.075 A 
HETATM   15  C12 UNL     1       7.059 -21.453  -3.575  1.00  0.00     0.044 A 
HETATM   16  C13 UNL     1       6.679 -20.841  -4.769  1.00  0.00    -0.059 A 
HETATM   17  C14 UNL     1       6.667 -19.359  -4.918  1.00  0.00     0.048 C 
HETATM   18  C15 UNL     1       6.313 -21.671  -5.805  1.00  0.00     0.007 A 
HETATM   19  C16 UNL     1       6.335 -23.035  -5.635  1.00  0.00     0.010 A 
HETATM   20  C17 UNL     1       6.708 -23.638  -4.465  1.00  0.00    -0.029 A 
HETATM   21  C18 UNL     1       6.714 -25.129  -4.333  1.00  0.00     0.051 C 
ENDBRANCH  13  14
ENDBRANCH  12  13
ENDBRANCH   1  12
TORSDOF 9
ENDMDL
MODEL 5
REMARK VINA RESULT: -7.178339292      2.208      6.257
REMARK  9 active torsions:
REMARK  status: ('A' for Active; 'I' for Inactive)
REMARK    1  A    between atoms: C2_2  and  C3_3 
REMARK    2  A    between atoms: C3_3  and  C6_6 
REMARK    3  A    between atoms: C6_6  and  C7_7 
REMARK    4  A    between atoms: C7_7  and  O1_8 
REMARK    5  A    between atoms: C7_7  and  C8_10 
REMARK    6  A    between atoms: C8_10  and  C9_11 
REMARK    7  A    between atoms: C9_11  and  C10_12 
REMARK    8  A    between atoms: C10_12  and  O2_13 
REMARK    9  A    between atoms: O2_13  and  C11_14 
ROOT
HETATM    1  C9  UNL     1       6.584 -23.268  -5.705  1.00  0.00     0.029 C 
ENDROOT
BRANCH   1   2
HETATM    2  C8  UNL     1       5.964 -21.894  -5.781  1.00  0.00     0.034 C 
BRANCH   2   3
HETATM    3  C7  UNL     1       7.000 -20.795  -5.815  1.00  0.00     0.122 C 
BRANCH   3   4
HETATM    4  C6  UNL     1       6.320 -19.528  -5.377  1.00  0.00     0.070 C 
BRANCH   4   5
HETATM    5  C3  UNL     1       7.075 -18.667  -4.475  1.00  0.00    -0.061 C 
HETATM    6  C4  UNL     1       8.347 -18.835  -4.207  1.00  0.00    -0.024 C 
HETATM    7  C5  UNL     1       9.026 -17.876  -3.275  1.00  0.00     0.036 C 
BRANCH   5   8
HETATM    8  C2  UNL     1       6.362 -17.550  -3.855  1.00  0.00    -0.004 C 
HETATM    9  C1  UNL     1       5.325 -17.758  -3.072  1.00  0.00     0.012 C 
ENDBRANCH   5   8
ENDBRANCH   4   5
ENDBRANCH   3   4
BRANCH   3  10
HETATM   10  O1  UNL     1       7.510 -20.601  -7.091  1.00  0.00    -0.395 OA
ATOM     11  H1  UNL     1       8.229 -21.209  -7.223  1.00  0.00     0.210 HD
ENDBRANCH   3  10
ENDBRANCH   2   3
ENDBRANCH   1   2
BRANCH   1  12
HETATM   12  C10 UNL     1       7.580 -23.414  -4.611  1.00  0.00     0.175 C 
BRANCH  12  13
HETATM   13  O2  UNL     1       6.969 -23.449  -3.380  1.00  0.00    -0.351 OA
BRANCH  13  14
HETATM   14  C11 UNL     1       7.155 -22.846  -2.186  1.00  0.00     0.075 A 
HETATM   15  C12 UNL     1       7.088 -21.500  -1.929  1.00  0.00     0.044 A 
HETATM   16  C13 UNL     1       7.295 -20.940  -0.668  1.00  0.00    -0.059 A 
HETATM   17  C14 UNL     1       7.209 -19.470  -0.442  1.00  0.00     0.048 C 
HETATM   18  C15 UNL     1       7.582 -21.810   0.359  1.00  0.00     0.007 A 
HETATM   19  C16 UNL     1       7.654 -23.161   0.117  1.00  0.00     0.010 A 
HETATM   20  C17 UNL     1       7.452 -23.713  -1.119  1.00  0.00    -0.029 A 
HETATM   21  C18 UNL     1       7.542 -25.193  -1.328  1.00  0.00     0.051 C 
ENDBRANCH  13  14
ENDBRANCH  12  13
ENDBRANCH   1  12
TORSDOF 9
ENDMDL
