MODEL 1
REMARK VINA RESULT: -8.848548845      0.000      0.000
REMARK  11 active torsions:
REMARK  status: ('A' for Active; 'I' for Inactive)
REMARK    1  A    between atoms: C4_4  and  N1_5 
REMARK    2  A    between atoms: N1_5  and  C5_7 
REMARK    3  A    between atoms: C5_7  and  C6_8 
REMARK    4  A    between atoms: C6_8  and  C7_9 
REMARK    5  A    between atoms: C7_9  and  C8_10 
REMARK       I    between atoms: C8_10  and  N2_12 
REMARK    6  A    between atoms: N2_12  and  C9_14 
REMARK    7  A    between atoms: C9_14  and  C10_15 
REMARK    8  A    between atoms: C22_29  and  N4_30 
REMARK    9  A    between atoms: N4_30  and  C23_32 
REMARK   10  A    between atoms: C23_32  and  C24_33 
REMARK   11  A    between atoms: C24_33  and  C25_34 
ROOT
HETATM    1  C5  UNL     1      42.333   5.642   8.165  1.00  0.00     0.121 C 
ENDROOT
BRANCH   1   2
HETATM    2  N1  UNL     1      43.681   5.322   7.820  1.00  0.00    -0.376 N 
ATOM      3  H1  UNL     1      43.993   5.519   6.870  1.00  0.00     0.161 HD
BRANCH   2   4
HETATM    4  C4  UNL     1      44.537   4.792   8.654  1.00  0.00     0.118 A 
HETATM    5  C3  UNL     1      44.289   3.626   9.337  1.00  0.00     0.073 A 
HETATM    6  C2  UNL     1      45.205   3.104  10.217  1.00  0.00     0.026 A 
HETATM    7  C1  UNL     1      44.950   1.828  10.971  1.00  0.00     0.069 C 
HETATM    8  N5  UNL     1      46.382   3.750  10.421  1.00  0.00    -0.196 N 
HETATM    9  C22 UNL     1      46.611   4.880   9.755  1.00  0.00     0.679 A 
ATOM     10  H5  UNL     1      47.075   3.379  11.070  1.00  0.00     0.184 HD
HETATM   11  N3  UNL     1      45.707   5.403   8.878  1.00  0.00    -0.177 N 
ATOM     12  H3  UNL     1      45.925   6.270   8.387  1.00  0.00     0.185 HD
BRANCH   9  13
HETATM   13  N4  UNL     1      47.714   5.523   9.929  1.00  0.00    -0.226 N 
ATOM     14  H4  UNL     1      48.604   5.033   9.834  1.00  0.00     0.177 HD
BRANCH  13  15
HETATM   15  C23 UNL     1      47.704   6.925  10.255  1.00  0.00     0.138 C 
BRANCH  15  16
HETATM   16  C24 UNL     1      48.547   7.737   9.313  1.00  0.00     0.024 C 
BRANCH  16  17
HETATM   17  C25 UNL     1      47.761   8.781   8.594  1.00  0.00    -0.021 C 
HETATM   18  C26 UNL     1      48.393  10.142   8.605  1.00  0.00     0.009 C 
HETATM   19  C27 UNL     1      46.392   8.898   9.275  1.00  0.00     0.009 C 
ENDBRANCH  16  17
ENDBRANCH  15  16
ENDBRANCH  13  15
ENDBRANCH   9  13
ENDBRANCH   2   4
ENDBRANCH   1   2
BRANCH   1  20
HETATM   20  C6  UNL     1      41.290   5.170   7.210  1.00  0.00     0.029 C 
BRANCH  20  21
HETATM   21  C7  UNL     1      41.771   4.314   6.094  1.00  0.00     0.104 C 
BRANCH  21  22
HETATM   22  C8  UNL     1      41.530   2.865   6.242  1.00  0.00     0.217 C 
HETATM   23  O1  UNL     1      42.268   2.082   5.564  1.00  0.00    -0.274 OA
HETATM   24  N2  UNL     1      40.526   2.327   7.093  1.00  0.00    -0.360 N 
ATOM     25  H2  UNL     1      39.926   2.944   7.641  1.00  0.00     0.162 HD
BRANCH  24  26
HETATM   26  C9  UNL     1      40.370   0.907   7.169  1.00  0.00     0.132 C 
BRANCH  26  27
HETATM   27  C10 UNL     1      40.508   0.350   8.548  1.00  0.00    -0.023 C 
HETATM   28  C11 UNL     1      41.579  -0.719   8.635  1.00  0.00     0.015 C 
HETATM   29  C12 UNL     1      41.685  -1.173  10.070  1.00  0.00    -0.012 C 
HETATM   30  C13 UNL     1      42.101  -0.052  10.979  1.00  0.00     0.014 C 
HETATM   31  C19 UNL     1      40.394  -1.752  10.580  1.00  0.00     0.014 C 
HETATM   32  C14 UNL     1      41.024   1.018  10.909  1.00  0.00    -0.042 C 
HETATM   33  C15 UNL     1      41.491   2.176  11.747  1.00  0.00     0.015 C 
HETATM   34  C16 UNL     1      39.674   0.500  11.325  1.00  0.00     0.018 C 
HETATM   35  C21 UNL     1      40.924   1.480   9.470  1.00  0.00     0.020 C 
HETATM   36  C17 UNL     1      39.322  -0.682  10.460  1.00  0.00    -0.042 C 
HETATM   37  C18 UNL     1      37.991  -1.229  10.905  1.00  0.00     0.015 C 
HETATM   38  C20 UNL     1      39.220  -0.292   9.010  1.00  0.00     0.020 C 
ENDBRANCH  26  27
ENDBRANCH  24  26
ENDBRANCH  21  22
ENDBRANCH  20  21
ENDBRANCH   1  20
TORSDOF 11
ENDMDL
MODEL 2
REMARK VINA RESULT: -8.591519893      1.232      4.173
REMARK  11 active torsions:
REMARK  status: ('A' for Active; 'I' for Inactive)
REMARK    1  A    between atoms: C4_4  and  N1_5 
REMARK    2  A    between atoms: N1_5  and  C5_7 
REMARK    3  A    between atoms: C5_7  and  C6_8 
REMARK    4  A    between atoms: C6_8  and  C7_9 
REMARK    5  A    between atoms: C7_9  and  C8_10 
REMARK       I    between atoms: C8_10  and  N2_12 
REMARK    6  A    between atoms: N2_12  and  C9_14 
REMARK    7  A    between atoms: C9_14  and  C10_15 
REMARK    8  A    between atoms: C22_29  and  N4_30 
REMARK    9  A    between atoms: N4_30  and  C23_32 
REMARK   10  A    between atoms: C23_32  and  C24_33 
REMARK   11  A    between atoms: C24_33  and  C25_34 
ROOT
HETATM    1  C5  UNL     1      42.720   6.557   8.220  1.00  0.00     0.121 C 
ENDROOT
BRANCH   1   2
HETATM    2  N1  UNL     1      44.045   6.764   7.730  1.00  0.00    -0.376 N 
ATOM      3  H1  UNL     1      44.156   7.125   6.783  1.00  0.00     0.161 HD
BRANCH   2   4
HETATM    4  C4  UNL     1      45.123   6.517   8.426  1.00  0.00     0.118 A 
HETATM    5  C3  UNL     1      46.052   7.482   8.731  1.00  0.00     0.073 A 
HETATM    6  C2  UNL     1      47.182   7.185   9.453  1.00  0.00     0.026 A 
HETATM    7  C1  UNL     1      48.208   8.230   9.796  1.00  0.00     0.069 C 
HETATM    8  N5  UNL     1      47.392   5.911   9.875  1.00  0.00    -0.196 N 
HETATM    9  C22 UNL     1      46.486   4.984   9.574  1.00  0.00     0.679 A 
ATOM     10  H5  UNL     1      48.225   5.671  10.413  1.00  0.00     0.184 HD
HETATM   11  N3  UNL     1      45.360   5.272   8.860  1.00  0.00    -0.177 N 
ATOM     12  H3  UNL     1      44.692   4.530   8.653  1.00  0.00     0.185 HD
BRANCH   9  13
HETATM   13  N4  UNL     1      46.655   3.764   9.953  1.00  0.00    -0.226 N 
ATOM     14  H4  UNL     1      47.531   3.491  10.399  1.00  0.00     0.177 HD
BRANCH  13  15
HETATM   15  C23 UNL     1      45.620   2.783   9.756  1.00  0.00     0.138 C 
BRANCH  15  16
HETATM   16  C24 UNL     1      44.987   2.352  11.049  1.00  0.00     0.024 C 
BRANCH  16  17
HETATM   17  C25 UNL     1      43.581   1.887  10.873  1.00  0.00    -0.021 C 
HETATM   18  C26 UNL     1      42.589   2.993  10.663  1.00  0.00     0.009 C 
HETATM   19  C27 UNL     1      43.169   1.129  12.141  1.00  0.00     0.009 C 
ENDBRANCH  16  17
ENDBRANCH  15  16
ENDBRANCH  13  15
ENDBRANCH   9  13
ENDBRANCH   2   4
ENDBRANCH   1   2
BRANCH   1  20
HETATM   20  C6  UNL     1      42.075   5.273   7.824  1.00  0.00     0.029 C 
BRANCH  20  21
HETATM   21  C7  UNL     1      42.503   4.708   6.516  1.00  0.00     0.104 C 
BRANCH  21  22
HETATM   22  C8  UNL     1      42.103   3.310   6.257  1.00  0.00     0.217 C 
HETATM   23  O1  UNL     1      41.697   3.032   5.085  1.00  0.00    -0.274 OA
HETATM   24  N2  UNL     1      42.154   2.291   7.247  1.00  0.00    -0.360 N 
ATOM     25  H2  UNL     1      42.476   2.501   8.191  1.00  0.00     0.162 HD
BRANCH  24  26
HETATM   26  C9  UNL     1      41.745   0.965   6.897  1.00  0.00     0.132 C 
BRANCH  26  27
HETATM   27  C10 UNL     1      40.910   0.289   7.936  1.00  0.00    -0.023 C 
HETATM   28  C11 UNL     1      40.028   1.261   8.692  1.00  0.00     0.015 C 
HETATM   29  C12 UNL     1      39.184   0.481   9.668  1.00  0.00    -0.012 C 
HETATM   30  C13 UNL     1      38.277  -0.491   8.967  1.00  0.00     0.014 C 
HETATM   31  C19 UNL     1      40.019  -0.276  10.664  1.00  0.00     0.014 C 
HETATM   32  C14 UNL     1      39.156  -1.479   8.218  1.00  0.00    -0.042 C 
HETATM   33  C15 UNL     1      38.242  -2.390   7.444  1.00  0.00     0.015 C 
HETATM   34  C16 UNL     1      40.088  -2.224   9.134  1.00  0.00     0.018 C 
HETATM   35  C21 UNL     1      39.997  -0.696   7.232  1.00  0.00     0.020 C 
HETATM   36  C17 UNL     1      40.921  -1.225   9.894  1.00  0.00    -0.042 C 
HETATM   37  C18 UNL     1      41.823  -1.968  10.843  1.00  0.00     0.015 C 
HETATM   38  C20 UNL     1      41.774  -0.401   8.967  1.00  0.00     0.020 C 
ENDBRANCH  26  27
ENDBRANCH  24  26
ENDBRANCH  21  22
ENDBRANCH  20  21
ENDBRANCH   1  20
TORSDOF 11
ENDMDL
MODEL 3
REMARK VINA RESULT: -8.586814039      1.486      3.978
REMARK  11 active torsions:
REMARK  status: ('A' for Active; 'I' for Inactive)
REMARK    1  A    between atoms: C4_4  and  N1_5 
REMARK    2  A    between atoms: N1_5  and  C5_7 
REMARK    3  A    between atoms: C5_7  and  C6_8 
REMARK    4  A    between atoms: C6_8  and  C7_9 
REMARK    5  A    between atoms: C7_9  and  C8_10 
REMARK       I    between atoms: C8_10  and  N2_12 
REMARK    6  A    between atoms: N2_12  and  C9_14 
REMARK    7  A    between atoms: C9_14  and  C10_15 
REMARK    8  A    between atoms: C22_29  and  N4_30 
REMARK    9  A    between atoms: N4_30  and  C23_32 
REMARK   10  A    between atoms: C23_32  and  C24_33 
REMARK   11  A    between atoms: C24_33  and  C25_34 
ROOT
HETATM    1  C5  UNL     1      42.768   7.213   8.248  1.00  0.00     0.121 C 
ENDROOT
BRANCH   1   2
HETATM    2  N1  UNL     1      43.935   6.547   7.766  1.00  0.00    -0.376 N 
ATOM      3  H1  UNL     1      44.037   6.422   6.760  1.00  0.00     0.161 HD
BRANCH   2   4
HETATM    4  C4  UNL     1      44.882   6.089   8.543  1.00  0.00     0.118 A 
HETATM    5  C3  UNL     1      45.766   6.907   9.204  1.00  0.00     0.073 A 
HETATM    6  C2  UNL     1      46.759   6.392  10.001  1.00  0.00     0.026 A 
HETATM    7  C1  UNL     1      47.733   7.274  10.733  1.00  0.00     0.069 C 
HETATM    8  N5  UNL     1      46.875   5.046  10.142  1.00  0.00    -0.196 N 
HETATM    9  C22 UNL     1      46.014   4.263   9.496  1.00  0.00     0.679 A 
ATOM     10  H5  UNL     1      47.605   4.644  10.729  1.00  0.00     0.184 HD
HETATM   11  N3  UNL     1      45.024   4.768   8.704  1.00  0.00    -0.177 N 
ATOM     12  H3  UNL     1      44.385   4.130   8.230  1.00  0.00     0.185 HD
BRANCH   9  13
HETATM   13  N4  UNL     1      46.098   2.982   9.601  1.00  0.00    -0.226 N 
ATOM     14  H4  UNL     1      46.767   2.470   9.026  1.00  0.00     0.177 HD
BRANCH  13  15
HETATM   15  C23 UNL     1      45.256   2.264  10.523  1.00  0.00     0.138 C 
BRANCH  15  16
HETATM   16  C24 UNL     1      43.900   2.894  10.669  1.00  0.00     0.024 C 
BRANCH  16  17
HETATM   17  C25 UNL     1      42.838   1.900  10.999  1.00  0.00    -0.021 C 
HETATM   18  C26 UNL     1      41.560   2.509  11.497  1.00  0.00     0.009 C 
HETATM   19  C27 UNL     1      43.375   0.981  12.103  1.00  0.00     0.009 C 
ENDBRANCH  16  17
ENDBRANCH  15  16
ENDBRANCH  13  15
ENDBRANCH   9  13
ENDBRANCH   2   4
ENDBRANCH   1   2
BRANCH   1  20
HETATM   20  C6  UNL     1      41.487   6.465   8.099  1.00  0.00     0.029 C 
BRANCH  20  21
HETATM   21  C7  UNL     1      41.393   5.184   8.847  1.00  0.00     0.104 C 
BRANCH  21  22
HETATM   22  C8  UNL     1      41.423   3.956   8.028  1.00  0.00     0.217 C 
HETATM   23  O1  UNL     1      42.478   3.736   7.352  1.00  0.00    -0.274 OA
HETATM   24  N2  UNL     1      40.342   3.035   7.967  1.00  0.00    -0.360 N 
ATOM     25  H2  UNL     1      39.490   3.200   8.503  1.00  0.00     0.162 HD
BRANCH  24  26
HETATM   26  C9  UNL     1      40.468   1.872   7.143  1.00  0.00     0.132 C 
BRANCH  26  27
HETATM   27  C10 UNL     1      40.348   0.581   7.885  1.00  0.00    -0.023 C 
HETATM   28  C11 UNL     1      41.697  -0.001   8.255  1.00  0.00     0.015 C 
HETATM   29  C12 UNL     1      41.471  -1.264   9.049  1.00  0.00    -0.012 C 
HETATM   30  C13 UNL     1      40.737  -0.991  10.331  1.00  0.00     0.014 C 
HETATM   31  C19 UNL     1      40.705  -2.297   8.269  1.00  0.00     0.014 C 
HETATM   32  C14 UNL     1      39.376  -0.420   9.968  1.00  0.00    -0.042 C 
HETATM   33  C15 UNL     1      38.686  -0.062  11.256  1.00  0.00     0.015 C 
HETATM   34  C16 UNL     1      38.571  -1.360   9.112  1.00  0.00     0.018 C 
HETATM   35  C21 UNL     1      39.604   0.852   9.178  1.00  0.00     0.020 C 
HETATM   36  C17 UNL     1      39.368  -1.692   7.878  1.00  0.00    -0.042 C 
HETATM   37  C18 UNL     1      38.582  -2.668   7.042  1.00  0.00     0.015 C 
HETATM   38  C20 UNL     1      39.641  -0.464   7.052  1.00  0.00     0.020 C 
ENDBRANCH  26  27
ENDBRANCH  24  26
ENDBRANCH  21  22
ENDBRANCH  20  21
ENDBRANCH   1  20
TORSDOF 11
ENDMDL
MODEL 4
REMARK VINA RESULT: -8.559054171      0.856      2.026
REMARK  11 active torsions:
REMARK  status: ('A' for Active; 'I' for Inactive)
REMARK    1  A    between atoms: C4_4  and  N1_5 
REMARK    2  A    between atoms: N1_5  and  C5_7 
REMARK    3  A    between atoms: C5_7  and  C6_8 
REMARK    4  A    between atoms: C6_8  and  C7_9 
REMARK    5  A    between atoms: C7_9  and  C8_10 
REMARK       I    between atoms: C8_10  and  N2_12 
REMARK    6  A    between atoms: N2_12  and  C9_14 
REMARK    7  A    between atoms: C9_14  and  C10_15 
REMARK    8  A    between atoms: C22_29  and  N4_30 
REMARK    9  A    between atoms: N4_30  and  C23_32 
REMARK   10  A    between atoms: C23_32  and  C24_33 
REMARK   11  A    between atoms: C24_33  and  C25_34 
ROOT
HETATM    1  C5  UNL     1      42.261   5.281   7.889  1.00  0.00     0.121 C 
ENDROOT
BRANCH   1   2
HETATM    2  N1  UNL     1      43.679   5.250   7.726  1.00  0.00    -0.376 N 
ATOM      3  H1  UNL     1      44.075   5.658   6.879  1.00  0.00     0.161 HD
BRANCH   2   4
HETATM    4  C4  UNL     1      44.499   4.728   8.599  1.00  0.00     0.118 A 
HETATM    5  C3  UNL     1      44.193   3.607   9.333  1.00  0.00     0.073 A 
HETATM    6  C2  UNL     1      45.073   3.093  10.255  1.00  0.00     0.026 A 
HETATM    7  C1  UNL     1      44.753   1.866  11.064  1.00  0.00     0.069 C 
HETATM    8  N5  UNL     1      46.271   3.701  10.449  1.00  0.00    -0.196 N 
HETATM    9  C22 UNL     1      46.557   4.786   9.734  1.00  0.00     0.679 A 
ATOM     10  H5  UNL     1      46.937   3.334  11.128  1.00  0.00     0.184 HD
HETATM   11  N3  UNL     1      45.690   5.301   8.815  1.00  0.00    -0.177 N 
ATOM     12  H3  UNL     1      45.951   6.134   8.287  1.00  0.00     0.185 HD
BRANCH   9  13
HETATM   13  N4  UNL     1      47.682   5.392   9.896  1.00  0.00    -0.226 N 
ATOM     14  H4  UNL     1      48.555   4.887   9.741  1.00  0.00     0.177 HD
BRANCH  13  15
HETATM   15  C23 UNL     1      47.721   6.776  10.294  1.00  0.00     0.138 C 
BRANCH  15  16
HETATM   16  C24 UNL     1      48.547   7.616   9.361  1.00  0.00     0.024 C 
BRANCH  16  17
HETATM   17  C25 UNL     1      47.748   8.681   8.689  1.00  0.00    -0.021 C 
HETATM   18  C26 UNL     1      48.409  10.028   8.674  1.00  0.00     0.009 C 
HETATM   19  C27 UNL     1      46.420   8.825   9.442  1.00  0.00     0.009 C 
ENDBRANCH  16  17
ENDBRANCH  15  16
ENDBRANCH  13  15
ENDBRANCH   9  13
ENDBRANCH   2   4
ENDBRANCH   1   2
BRANCH   1  20
HETATM   20  C6  UNL     1      41.465   5.345   6.631  1.00  0.00     0.029 C 
BRANCH  20  21
HETATM   21  C7  UNL     1      41.845   4.374   5.571  1.00  0.00     0.104 C 
BRANCH  21  22
HETATM   22  C8  UNL     1      41.459   2.970   5.815  1.00  0.00     0.217 C 
HETATM   23  O1  UNL     1      40.398   2.555   5.251  1.00  0.00    -0.274 OA
HETATM   24  N2  UNL     1      42.211   2.089   6.639  1.00  0.00    -0.360 N 
ATOM     25  H2  UNL     1      43.063   2.410   7.099  1.00  0.00     0.162 HD
BRANCH  24  26
HETATM   26  C9  UNL     1      41.754   0.745   6.814  1.00  0.00     0.132 C 
BRANCH  26  27
HETATM   27  C10 UNL     1      41.240   0.447   8.185  1.00  0.00    -0.023 C 
HETATM   28  C11 UNL     1      40.758   1.689   8.904  1.00  0.00     0.015 C 
HETATM   29  C12 UNL     1      40.205   1.280  10.247  1.00  0.00    -0.012 C 
HETATM   30  C13 UNL     1      39.025   0.361  10.105  1.00  0.00     0.014 C 
HETATM   31  C19 UNL     1      41.239   0.604  11.106  1.00  0.00     0.014 C 
HETATM   32  C14 UNL     1      39.504  -0.895   9.397  1.00  0.00    -0.042 C 
HETATM   33  C15 UNL     1      38.300  -1.769   9.175  1.00  0.00     0.015 C 
HETATM   34  C16 UNL     1      40.604  -1.593  10.150  1.00  0.00     0.018 C 
HETATM   35  C21 UNL     1      40.052  -0.484   8.046  1.00  0.00     0.020 C 
HETATM   36  C17 UNL     1      41.737  -0.622  10.361  1.00  0.00    -0.042 C 
HETATM   37  C18 UNL     1      42.819  -1.306  11.154  1.00  0.00     0.015 C 
HETATM   38  C20 UNL     1      42.318  -0.162   9.051  1.00  0.00     0.020 C 
ENDBRANCH  26  27
ENDBRANCH  24  26
ENDBRANCH  21  22
ENDBRANCH  20  21
ENDBRANCH   1  20
TORSDOF 11
ENDMDL
MODEL 5
REMARK VINA RESULT: -8.539773130      0.553      1.957
REMARK  11 active torsions:
REMARK  status: ('A' for Active; 'I' for Inactive)
REMARK    1  A    between atoms: C4_4  and  N1_5 
REMARK    2  A    between atoms: N1_5  and  C5_7 
REMARK    3  A    between atoms: C5_7  and  C6_8 
REMARK    4  A    between atoms: C6_8  and  C7_9 
REMARK    5  A    between atoms: C7_9  and  C8_10 
REMARK       I    between atoms: C8_10  and  N2_12 
REMARK    6  A    between atoms: N2_12  and  C9_14 
REMARK    7  A    between atoms: C9_14  and  C10_15 
REMARK    8  A    between atoms: C22_29  and  N4_30 
REMARK    9  A    between atoms: N4_30  and  C23_32 
REMARK   10  A    between atoms: C23_32  and  C24_33 
REMARK   11  A    between atoms: C24_33  and  C25_34 
ROOT
HETATM    1  C5  UNL     1      42.417   4.915   7.554  1.00  0.00     0.121 C 
ENDROOT
BRANCH   1   2
HETATM    2  N1  UNL     1      43.635   5.528   7.977  1.00  0.00    -0.376 N 
ATOM      3  H1  UNL     1      43.829   6.478   7.663  1.00  0.00     0.161 HD
BRANCH   2   4
HETATM    4  C4  UNL     1      44.515   4.939   8.743  1.00  0.00     0.118 A 
HETATM    5  C3  UNL     1      44.265   3.757   9.397  1.00  0.00     0.073 A 
HETATM    6  C2  UNL     1      45.208   3.173  10.207  1.00  0.00     0.026 A 
HETATM    7  C1  UNL     1      44.950   1.878  10.927  1.00  0.00     0.069 C 
HETATM    8  N5  UNL     1      46.415   3.773  10.370  1.00  0.00    -0.196 N 
HETATM    9  C22 UNL     1      46.647   4.919   9.733  1.00  0.00     0.679 A 
ATOM     10  H5  UNL     1      47.128   3.355  10.967  1.00  0.00     0.184 HD
HETATM   11  N3  UNL     1      45.716   5.503   8.925  1.00  0.00    -0.177 N 
ATOM     12  H3  UNL     1      45.938   6.381   8.455  1.00  0.00     0.185 HD
BRANCH   9  13
HETATM   13  N4  UNL     1      47.779   5.519   9.869  1.00  0.00    -0.226 N 
ATOM     14  H4  UNL     1      48.642   5.030   9.631  1.00  0.00     0.177 HD
BRANCH  13  15
HETATM   15  C23 UNL     1      47.839   6.873  10.355  1.00  0.00     0.138 C 
BRANCH  15  16
HETATM   16  C24 UNL     1      48.388   7.824   9.329  1.00  0.00     0.024 C 
BRANCH  16  17
HETATM   17  C25 UNL     1      47.748   9.169   9.393  1.00  0.00    -0.021 C 
HETATM   18  C26 UNL     1      46.362   9.218   8.821  1.00  0.00     0.009 C 
HETATM   19  C27 UNL     1      48.616  10.147   8.591  1.00  0.00     0.009 C 
ENDBRANCH  16  17
ENDBRANCH  15  16
ENDBRANCH  13  15
ENDBRANCH   9  13
ENDBRANCH   2   4
ENDBRANCH   1   2
BRANCH   1  20
HETATM   20  C6  UNL     1      42.220   4.810   6.080  1.00  0.00     0.029 C 
BRANCH  20  21
HETATM   21  C7  UNL     1      41.106   3.933   5.634  1.00  0.00     0.104 C 
BRANCH  21  22
HETATM   22  C8  UNL     1      41.166   2.531   6.093  1.00  0.00     0.217 C 
HETATM   23  O1  UNL     1      42.215   1.872   5.804  1.00  0.00    -0.274 OA
HETATM   24  N2  UNL     1      40.121   1.907   6.827  1.00  0.00    -0.360 N 
ATOM     25  H2  UNL     1      39.275   2.425   7.064  1.00  0.00     0.162 HD
BRANCH  24  26
HETATM   26  C9  UNL     1      40.274   0.543   7.228  1.00  0.00     0.132 C 
BRANCH  26  27
HETATM   27  C10 UNL     1      40.238   0.332   8.707  1.00  0.00    -0.023 C 
HETATM   28  C11 UNL     1      38.843   0.028   9.214  1.00  0.00     0.015 C 
HETATM   29  C12 UNL     1      38.919  -0.229  10.698  1.00  0.00    -0.012 C 
HETATM   30  C13 UNL     1      39.777  -1.421  11.013  1.00  0.00     0.014 C 
HETATM   31  C19 UNL     1      39.451   0.958  11.454  1.00  0.00     0.014 C 
HETATM   32  C14 UNL     1      41.183  -1.117  10.521  1.00  0.00    -0.042 C 
HETATM   33  C15 UNL     1      42.013  -2.350  10.755  1.00  0.00     0.015 C 
HETATM   34  C16 UNL     1      41.763   0.111  11.167  1.00  0.00     0.018 C 
HETATM   35  C21 UNL     1      41.107  -0.868   9.029  1.00  0.00     0.020 C 
HETATM   36  C17 UNL     1      40.836   1.273  10.917  1.00  0.00    -0.042 C 
HETATM   37  C18 UNL     1      41.394   2.493  11.601  1.00  0.00     0.015 C 
HETATM   38  C20 UNL     1      40.706   1.565   9.446  1.00  0.00     0.020 C 
ENDBRANCH  26  27
ENDBRANCH  24  26
ENDBRANCH  21  22
ENDBRANCH  20  21
ENDBRANCH   1  20
TORSDOF 11
ENDMDL
