MODEL 1
REMARK VINA RESULT: -8.623372035      0.000      0.000
REMARK  8 active torsions:
REMARK  status: ('A' for Active; 'I' for Inactive)
REMARK    1  A    between atoms: C2_2  and  C4_4 
REMARK    2  A    between atoms: C4_4  and  C5_5 
REMARK    3  A    between atoms: C5_5  and  N1_6 
REMARK       I    between atoms: N1_6  and  C6_8 
REMARK    4  A    between atoms: C6_8  and  C7_10 
REMARK    5  A    between atoms: C7_10  and  C9_12 
REMARK       I    between atoms: C9_12  and  N2_14 
REMARK       I    between atoms: N2_14  and  C10_16 
REMARK    6  A    between atoms: C10_16  and  C11_18 
REMARK    7  A    between atoms: C11_18  and  N3_19 
REMARK       I    between atoms: N3_19  and  C12_21 
REMARK    8  A    between atoms: C12_21  and  C13_23 
ROOT
HETATM    1  C11 UNL     1      43.238   2.799  10.066  1.00  0.00     0.114 C 
HETATM    2  C23 UNL     1      44.087   1.596   9.840  1.00  0.00     0.041 C 
HETATM    3  C24 UNL     1      43.670   0.543  10.806  1.00  0.00     0.003 C 
HETATM    4  C25 UNL     1      43.150   1.339  11.983  1.00  0.00     0.003 C 
HETATM    5  C26 UNL     1      42.374   2.433  11.280  1.00  0.00     0.041 C 
ENDROOT
BRANCH   1   6
HETATM    6  C10 UNL     1      42.289   3.046   8.953  1.00  0.00     0.252 C 
HETATM    7  N2  UNL     1      42.471   2.568   7.650  1.00  0.00    -0.295 N 
HETATM    8  C9  UNL     1      41.637   2.745   6.535  1.00  0.00     0.237 C 
ATOM      9  H2  UNL     1      43.318   2.022   7.490  1.00  0.00     0.171 HD
HETATM   10  O2  UNL     1      42.033   2.235   5.443  1.00  0.00    -0.272 OA
HETATM   11  O3  UNL     1      41.275   3.727   9.229  1.00  0.00    -0.270 OA
BRANCH   8  12
HETATM   12  C7  UNL     1      40.354   3.463   6.526  1.00  0.00     0.166 C 
HETATM   13  C8  UNL     1      39.422   2.956   5.442  1.00  0.00     0.030 C 
BRANCH  12  14
HETATM   14  C6  UNL     1      40.573   4.903   6.246  1.00  0.00     0.230 C 
HETATM   15  N1  UNL     1      40.756   5.834   7.324  1.00  0.00    -0.360 N 
ATOM     16  H1  UNL     1      40.733   5.496   8.286  1.00  0.00     0.162 HD
HETATM   17  O1  UNL     1      40.611   5.392   5.093  1.00  0.00    -0.273 OA
BRANCH  15  18
HETATM   18  C5  UNL     1      40.969   7.231   7.073  1.00  0.00     0.123 C 
BRANCH  18  19
HETATM   19  C4  UNL     1      42.242   7.670   7.790  1.00  0.00     0.023 C 
BRANCH  19  20
HETATM   20  C2  UNL     1      43.147   8.371   6.798  1.00  0.00    -0.021 C 
HETATM   21  C1  UNL     1      43.534   9.700   7.431  1.00  0.00     0.009 C 
HETATM   22  C3  UNL     1      42.417   8.565   5.502  1.00  0.00     0.009 C 
ENDBRANCH  19  20
ENDBRANCH  18  19
ENDBRANCH  15  18
ENDBRANCH  12  14
ENDBRANCH   8  12
ENDBRANCH   1   6
BRANCH   1  23
HETATM   23  N3  UNL     1      44.058   3.929  10.372  1.00  0.00    -0.342 N 
HETATM   24  C12 UNL     1      44.702   4.748   9.433  1.00  0.00     0.227 C 
HETATM   25  O4  UNL     1      44.602   4.530   8.201  1.00  0.00    -0.273 OA
ATOM     26  H3  UNL     1      44.185   4.160  11.358  1.00  0.00     0.163 HD
BRANCH  24  27
HETATM   27  C13 UNL     1      45.534   5.910   9.840  1.00  0.00     0.042 C 
HETATM   28  C14 UNL     1      46.821   5.392  10.449  1.00  0.00     0.024 C 
HETATM   29  C15 UNL     1      47.637   6.519  10.996  1.00  0.00    -0.013 C 
HETATM   30  C16 UNL     1      46.835   7.306  11.994  1.00  0.00     0.009 C 
HETATM   31  C20 UNL     1      48.068   7.386   9.824  1.00  0.00     0.009 C 
HETATM   32  C17 UNL     1      45.634   7.872  11.297  1.00  0.00    -0.013 C 
HETATM   33  C18 UNL     1      46.024   8.718  10.102  1.00  0.00     0.009 C 
HETATM   34  C22 UNL     1      44.741   6.760  10.788  1.00  0.00     0.024 C 
HETATM   35  C19 UNL     1      46.824   7.868   9.143  1.00  0.00    -0.013 C 
HETATM   36  C21 UNL     1      45.936   6.756   8.653  1.00  0.00     0.024 C 
ENDBRANCH  24  27
ENDBRANCH   1  23
TORSDOF 8
ENDMDL
MODEL 2
REMARK VINA RESULT: -8.553271717      3.194      5.976
REMARK  8 active torsions:
REMARK  status: ('A' for Active; 'I' for Inactive)
REMARK    1  A    between atoms: C2_2  and  C4_4 
REMARK    2  A    between atoms: C4_4  and  C5_5 
REMARK    3  A    between atoms: C5_5  and  N1_6 
REMARK       I    between atoms: N1_6  and  C6_8 
REMARK    4  A    between atoms: C6_8  and  C7_10 
REMARK    5  A    between atoms: C7_10  and  C9_12 
REMARK       I    between atoms: C9_12  and  N2_14 
REMARK       I    between atoms: N2_14  and  C10_16 
REMARK    6  A    between atoms: C10_16  and  C11_18 
REMARK    7  A    between atoms: C11_18  and  N3_19 
REMARK       I    between atoms: N3_19  and  C12_21 
REMARK    8  A    between atoms: C12_21  and  C13_23 
ROOT
HETATM    1  C11 UNL     1      46.882   8.904  10.218  1.00  0.00     0.114 C 
HETATM    2  C23 UNL     1      46.314  10.180   9.702  1.00  0.00     0.041 C 
HETATM    3  C24 UNL     1      47.017  10.526   8.437  1.00  0.00     0.003 C 
HETATM    4  C25 UNL     1      48.384   9.904   8.619  1.00  0.00     0.003 C 
HETATM    5  C26 UNL     1      48.022   8.574   9.246  1.00  0.00     0.041 C 
ENDROOT
BRANCH   1   6
HETATM    6  C10 UNL     1      45.926   7.773  10.122  1.00  0.00     0.252 C 
HETATM    7  N2  UNL     1      46.209   6.564   9.476  1.00  0.00    -0.295 N 
HETATM    8  C9  UNL     1      45.379   5.441   9.333  1.00  0.00     0.237 C 
ATOM      9  H2  UNL     1      47.136   6.490   9.055  1.00  0.00     0.171 HD
HETATM   10  O2  UNL     1      45.853   4.465   8.675  1.00  0.00    -0.272 OA
HETATM   11  O3  UNL     1      44.809   7.943  10.662  1.00  0.00    -0.270 OA
BRANCH   8  12
HETATM   12  C7  UNL     1      44.022   5.299   9.877  1.00  0.00     0.166 C 
HETATM   13  C8  UNL     1      43.669   3.853  10.169  1.00  0.00     0.030 C 
BRANCH  12  14
HETATM   14  C6  UNL     1      43.021   5.781   8.895  1.00  0.00     0.230 C 
HETATM   15  N1  UNL     1      43.268   5.658   7.485  1.00  0.00    -0.360 N 
ATOM     16  H1  UNL     1      44.140   5.237   7.165  1.00  0.00     0.162 HD
HETATM   17  O1  UNL     1      41.929   6.310   9.211  1.00  0.00    -0.273 OA
BRANCH  15  18
HETATM   18  C5  UNL     1      42.311   6.118   6.519  1.00  0.00     0.123 C 
BRANCH  18  19
HETATM   19  C4  UNL     1      42.848   7.383   5.859  1.00  0.00     0.023 C 
BRANCH  19  20
HETATM   20  C2  UNL     1      42.146   8.585   6.457  1.00  0.00    -0.021 C 
HETATM   21  C1  UNL     1      41.272   9.167   5.355  1.00  0.00     0.009 C 
HETATM   22  C3  UNL     1      43.165   9.575   6.938  1.00  0.00     0.009 C 
ENDBRANCH  19  20
ENDBRANCH  18  19
ENDBRANCH  15  18
ENDBRANCH  12  14
ENDBRANCH   8  12
ENDBRANCH   1   6
BRANCH   1  23
HETATM   23  N3  UNL     1      47.403   9.093  11.536  1.00  0.00    -0.342 N 
HETATM   24  C12 UNL     1      47.818   8.074  12.404  1.00  0.00     0.227 C 
HETATM   25  O4  UNL     1      47.753   6.865  12.068  1.00  0.00    -0.273 OA
ATOM     26  H3  UNL     1      47.478  10.054  11.874  1.00  0.00     0.163 HD
BRANCH  24  27
HETATM   27  C13 UNL     1      48.353   8.361  13.760  1.00  0.00     0.042 C 
HETATM   28  C14 UNL     1      47.591   7.524  14.766  1.00  0.00     0.024 C 
HETATM   29  C15 UNL     1      48.001   7.873  16.161  1.00  0.00    -0.013 C 
HETATM   30  C16 UNL     1      47.805   9.343  16.409  1.00  0.00     0.009 C 
HETATM   31  C20 UNL     1      49.457   7.473  16.327  1.00  0.00     0.009 C 
HETATM   32  C17 UNL     1      48.667  10.105  15.446  1.00  0.00    -0.013 C 
HETATM   33  C18 UNL     1      50.124   9.708  15.561  1.00  0.00     0.009 C 
HETATM   34  C22 UNL     1      48.238   9.834  14.019  1.00  0.00     0.024 C 
HETATM   35  C19 UNL     1      50.248   8.224  15.301  1.00  0.00    -0.013 C 
HETATM   36  C21 UNL     1      49.806   7.960  13.887  1.00  0.00     0.024 C 
ENDBRANCH  24  27
ENDBRANCH   1  23
TORSDOF 8
ENDMDL
MODEL 3
REMARK VINA RESULT: -8.524819037      3.190      6.051
REMARK  8 active torsions:
REMARK  status: ('A' for Active; 'I' for Inactive)
REMARK    1  A    between atoms: C2_2  and  C4_4 
REMARK    2  A    between atoms: C4_4  and  C5_5 
REMARK    3  A    between atoms: C5_5  and  N1_6 
REMARK       I    between atoms: N1_6  and  C6_8 
REMARK    4  A    between atoms: C6_8  and  C7_10 
REMARK    5  A    between atoms: C7_10  and  C9_12 
REMARK       I    between atoms: C9_12  and  N2_14 
REMARK       I    between atoms: N2_14  and  C10_16 
REMARK    6  A    between atoms: C10_16  and  C11_18 
REMARK    7  A    between atoms: C11_18  and  N3_19 
REMARK       I    between atoms: N3_19  and  C12_21 
REMARK    8  A    between atoms: C12_21  and  C13_23 
ROOT
HETATM    1  C11 UNL     1      46.864   8.866  10.254  1.00  0.00     0.114 C 
HETATM    2  C23 UNL     1      46.313  10.146   9.729  1.00  0.00     0.041 C 
HETATM    3  C24 UNL     1      47.041  10.489   8.477  1.00  0.00     0.003 C 
HETATM    4  C25 UNL     1      48.401   9.858   8.684  1.00  0.00     0.003 C 
HETATM    5  C26 UNL     1      48.020   8.530   9.304  1.00  0.00     0.041 C 
ENDROOT
BRANCH   1   6
HETATM    6  C10 UNL     1      45.904   7.741  10.140  1.00  0.00     0.252 C 
HETATM    7  N2  UNL     1      46.189   6.533   9.494  1.00  0.00    -0.295 N 
HETATM    8  C9  UNL     1      45.356   5.415   9.334  1.00  0.00     0.237 C 
ATOM      9  H2  UNL     1      47.122   6.455   9.087  1.00  0.00     0.171 HD
HETATM   10  O2  UNL     1      45.834   4.439   8.679  1.00  0.00    -0.272 OA
HETATM   11  O3  UNL     1      44.780   7.916  10.664  1.00  0.00    -0.270 OA
BRANCH   8  12
HETATM   12  C7  UNL     1      43.989   5.279   9.858  1.00  0.00     0.166 C 
HETATM   13  C8  UNL     1      43.619   3.832  10.123  1.00  0.00     0.030 C 
BRANCH  12  14
HETATM   14  C6  UNL     1      43.007   5.785   8.869  1.00  0.00     0.230 C 
HETATM   15  N1  UNL     1      43.271   5.679   7.461  1.00  0.00    -0.360 N 
ATOM     16  H1  UNL     1      44.142   5.252   7.147  1.00  0.00     0.162 HD
HETATM   17  O1  UNL     1      41.918   6.323   9.179  1.00  0.00    -0.273 OA
BRANCH  15  18
HETATM   18  C5  UNL     1      42.332   6.162   6.489  1.00  0.00     0.123 C 
BRANCH  18  19
HETATM   19  C4  UNL     1      42.882   7.444   5.871  1.00  0.00     0.023 C 
BRANCH  19  20
HETATM   20  C2  UNL     1      42.148   8.629   6.463  1.00  0.00    -0.021 C 
HETATM   21  C1  UNL     1      41.270   9.191   5.356  1.00  0.00     0.009 C 
HETATM   22  C3  UNL     1      43.142   9.641   6.951  1.00  0.00     0.009 C 
ENDBRANCH  19  20
ENDBRANCH  18  19
ENDBRANCH  15  18
ENDBRANCH  12  14
ENDBRANCH   8  12
ENDBRANCH   1   6
BRANCH   1  23
HETATM   23  N3  UNL     1      47.361   9.052  11.582  1.00  0.00    -0.342 N 
HETATM   24  C12 UNL     1      47.754   8.030  12.457  1.00  0.00     0.227 C 
HETATM   25  O4  UNL     1      47.689   6.822  12.119  1.00  0.00    -0.273 OA
ATOM     26  H3  UNL     1      47.436  10.012  11.922  1.00  0.00     0.163 HD
BRANCH  24  27
HETATM   27  C13 UNL     1      48.266   8.313  13.823  1.00  0.00     0.042 C 
HETATM   28  C14 UNL     1      48.004   9.770  14.142  1.00  0.00     0.024 C 
HETATM   29  C15 UNL     1      48.619  10.142  15.454  1.00  0.00    -0.013 C 
HETATM   30  C16 UNL     1      50.090   9.838  15.443  1.00  0.00     0.009 C 
HETATM   31  C20 UNL     1      47.899   9.357  16.538  1.00  0.00     0.009 C 
HETATM   32  C17 UNL     1      50.270   8.365  15.224  1.00  0.00    -0.013 C 
HETATM   33  C18 UNL     1      49.539   7.549  16.270  1.00  0.00     0.009 C 
HETATM   34  C22 UNL     1      49.723   7.958  13.872  1.00  0.00     0.024 C 
HETATM   35  C19 UNL     1      48.070   7.902  16.226  1.00  0.00    -0.013 C 
HETATM   36  C21 UNL     1      47.537   7.509  14.875  1.00  0.00     0.024 C 
ENDBRANCH  24  27
ENDBRANCH   1  23
TORSDOF 8
ENDMDL
MODEL 4
REMARK VINA RESULT: -8.487780433      3.224      5.978
REMARK  8 active torsions:
REMARK  status: ('A' for Active; 'I' for Inactive)
REMARK    1  A    between atoms: C2_2  and  C4_4 
REMARK    2  A    between atoms: C4_4  and  C5_5 
REMARK    3  A    between atoms: C5_5  and  N1_6 
REMARK       I    between atoms: N1_6  and  C6_8 
REMARK    4  A    between atoms: C6_8  and  C7_10 
REMARK    5  A    between atoms: C7_10  and  C9_12 
REMARK       I    between atoms: C9_12  and  N2_14 
REMARK       I    between atoms: N2_14  and  C10_16 
REMARK    6  A    between atoms: C10_16  and  C11_18 
REMARK    7  A    between atoms: C11_18  and  N3_19 
REMARK       I    between atoms: N3_19  and  C12_21 
REMARK    8  A    between atoms: C12_21  and  C13_23 
ROOT
HETATM    1  C11 UNL     1      46.882   8.946  10.243  1.00  0.00     0.114 C 
HETATM    2  C23 UNL     1      46.325  10.216   9.702  1.00  0.00     0.041 C 
HETATM    3  C24 UNL     1      47.057  10.549   8.448  1.00  0.00     0.003 C 
HETATM    4  C25 UNL     1      48.420   9.929   8.668  1.00  0.00     0.003 C 
HETATM    5  C26 UNL     1      48.043   8.606   9.301  1.00  0.00     0.041 C 
ENDROOT
BRANCH   1   6
HETATM    6  C10 UNL     1      45.929   7.813  10.138  1.00  0.00     0.252 C 
HETATM    7  N2  UNL     1      46.219   6.605   9.494  1.00  0.00    -0.295 N 
HETATM    8  C9  UNL     1      45.393   5.481   9.343  1.00  0.00     0.237 C 
ATOM      9  H2  UNL     1      47.150   6.533   9.082  1.00  0.00     0.171 HD
HETATM   10  O2  UNL     1      45.874   4.506   8.689  1.00  0.00    -0.272 OA
HETATM   11  O3  UNL     1      44.807   7.982  10.667  1.00  0.00    -0.270 OA
BRANCH   8  12
HETATM   12  C7  UNL     1      44.030   5.337   9.874  1.00  0.00     0.166 C 
HETATM   13  C8  UNL     1      43.676   3.890  10.157  1.00  0.00     0.030 C 
BRANCH  12  14
HETATM   14  C6  UNL     1      43.038   5.822   8.885  1.00  0.00     0.230 C 
HETATM   15  N1  UNL     1      43.299   5.708   7.477  1.00  0.00    -0.360 N 
ATOM     16  H1  UNL     1      44.175   5.290   7.163  1.00  0.00     0.162 HD
HETATM   17  O1  UNL     1      41.943   6.348   9.193  1.00  0.00    -0.273 OA
BRANCH  15  18
HETATM   18  C5  UNL     1      42.351   6.171   6.504  1.00  0.00     0.123 C 
BRANCH  18  19
HETATM   19  C4  UNL     1      42.891   7.443   5.858  1.00  0.00     0.023 C 
BRANCH  19  20
HETATM   20  C2  UNL     1      42.148   8.635   6.424  1.00  0.00    -0.021 C 
HETATM   21  C1  UNL     1      41.304   9.197   5.289  1.00  0.00     0.009 C 
HETATM   22  C3  UNL     1      43.132   9.645   6.936  1.00  0.00     0.009 C 
ENDBRANCH  19  20
ENDBRANCH  18  19
ENDBRANCH  15  18
ENDBRANCH  12  14
ENDBRANCH   8  12
ENDBRANCH   1   6
BRANCH   1  23
HETATM   23  N3  UNL     1      47.373   9.149  11.571  1.00  0.00    -0.342 N 
HETATM   24  C12 UNL     1      47.764   8.139  12.460  1.00  0.00     0.227 C 
HETATM   25  O4  UNL     1      47.703   6.927  12.137  1.00  0.00    -0.273 OA
ATOM     26  H3  UNL     1      47.445  10.113  11.899  1.00  0.00     0.163 HD
BRANCH  24  27
HETATM   27  C13 UNL     1      48.269   8.441  13.825  1.00  0.00     0.042 C 
HETATM   28  C14 UNL     1      49.756   8.152  13.862  1.00  0.00     0.024 C 
HETATM   29  C15 UNL     1      50.290   8.314  15.249  1.00  0.00    -0.013 C 
HETATM   30  C16 UNL     1      49.535   7.431  16.203  1.00  0.00     0.009 C 
HETATM   31  C20 UNL     1      50.155   9.779  15.628  1.00  0.00     0.009 C 
HETATM   32  C17 UNL     1      48.093   7.840  16.189  1.00  0.00    -0.013 C 
HETATM   33  C18 UNL     1      47.922   9.306  16.531  1.00  0.00     0.009 C 
HETATM   34  C22 UNL     1      47.492   7.625  14.815  1.00  0.00     0.024 C 
HETATM   35  C19 UNL     1      48.703  10.134  15.537  1.00  0.00    -0.013 C 
HETATM   36  C21 UNL     1      48.111   9.903  14.172  1.00  0.00     0.024 C 
ENDBRANCH  24  27
ENDBRANCH   1  23
TORSDOF 8
ENDMDL
MODEL 5
REMARK VINA RESULT: -8.476549019      1.969      3.969
REMARK  8 active torsions:
REMARK  status: ('A' for Active; 'I' for Inactive)
REMARK    1  A    between atoms: C2_2  and  C4_4 
REMARK    2  A    between atoms: C4_4  and  C5_5 
REMARK    3  A    between atoms: C5_5  and  N1_6 
REMARK       I    between atoms: N1_6  and  C6_8 
REMARK    4  A    between atoms: C6_8  and  C7_10 
REMARK    5  A    between atoms: C7_10  and  C9_12 
REMARK       I    between atoms: C9_12  and  N2_14 
REMARK       I    between atoms: N2_14  and  C10_16 
REMARK    6  A    between atoms: C10_16  and  C11_18 
REMARK    7  A    between atoms: C11_18  and  N3_19 
REMARK       I    between atoms: N3_19  and  C12_21 
REMARK    8  A    between atoms: C12_21  and  C13_23 
ROOT
HETATM    1  C11 UNL     1      43.248   2.835  10.078  1.00  0.00     0.114 C 
HETATM    2  C23 UNL     1      44.135   1.656   9.876  1.00  0.00     0.041 C 
HETATM    3  C24 UNL     1      43.756   0.613  10.868  1.00  0.00     0.003 C 
HETATM    4  C25 UNL     1      43.214   1.420  12.029  1.00  0.00     0.003 C 
HETATM    5  C26 UNL     1      42.401   2.471  11.303  1.00  0.00     0.041 C 
ENDROOT
BRANCH   1   6
HETATM    6  C10 UNL     1      42.287   3.025   8.963  1.00  0.00     0.252 C 
HETATM    7  N2  UNL     1      42.497   2.553   7.662  1.00  0.00    -0.295 N 
HETATM    8  C9  UNL     1      41.654   2.679   6.546  1.00  0.00     0.237 C 
ATOM      9  H2  UNL     1      43.373   2.054   7.505  1.00  0.00     0.171 HD
HETATM   10  O2  UNL     1      42.079   2.187   5.456  1.00  0.00    -0.272 OA
HETATM   11  O3  UNL     1      41.237   3.650   9.236  1.00  0.00    -0.270 OA
BRANCH   8  12
HETATM   12  C7  UNL     1      40.334   3.324   6.533  1.00  0.00     0.166 C 
HETATM   13  C8  UNL     1      39.219   2.355   6.879  1.00  0.00     0.030 C 
BRANCH  12  14
HETATM   14  C6  UNL     1      40.029   3.843   5.178  1.00  0.00     0.230 C 
HETATM   15  N1  UNL     1      39.404   2.998   4.199  1.00  0.00    -0.360 N 
ATOM     16  H1  UNL     1      39.173   2.035   4.444  1.00  0.00     0.162 HD
HETATM   17  O1  UNL     1      40.284   5.011   4.803  1.00  0.00    -0.273 OA
BRANCH  15  18
HETATM   18  C5  UNL     1      39.100   3.482   2.882  1.00  0.00     0.123 C 
BRANCH  18  19
HETATM   19  C4  UNL     1      38.406   2.372   2.100  1.00  0.00     0.023 C 
BRANCH  19  20
HETATM   20  C2  UNL     1      37.442   2.997   1.113  1.00  0.00    -0.021 C 
HETATM   21  C1  UNL     1      36.184   3.342   1.896  1.00  0.00     0.009 C 
HETATM   22  C3  UNL     1      37.157   2.026   0.005  1.00  0.00     0.009 C 
ENDBRANCH  19  20
ENDBRANCH  18  19
ENDBRANCH  15  18
ENDBRANCH  12  14
ENDBRANCH   8  12
ENDBRANCH   1   6
BRANCH   1  23
HETATM   23  N3  UNL     1      44.031   4.000  10.354  1.00  0.00    -0.342 N 
HETATM   24  C12 UNL     1      44.755   4.739   9.408  1.00  0.00     0.227 C 
HETATM   25  O4  UNL     1      44.769   4.410   8.196  1.00  0.00    -0.273 OA
ATOM     26  H3  UNL     1      44.066   4.320  11.322  1.00  0.00     0.163 HD
BRANCH  24  27
HETATM   27  C13 UNL     1      45.541   5.943   9.781  1.00  0.00     0.042 C 
HETATM   28  C14 UNL     1      45.384   6.979   8.687  1.00  0.00     0.024 C 
HETATM   29  C15 UNL     1      46.261   8.161   8.950  1.00  0.00    -0.013 C 
HETATM   30  C16 UNL     1      47.692   7.726   9.092  1.00  0.00     0.009 C 
HETATM   31  C20 UNL     1      45.759   8.835  10.217  1.00  0.00     0.009 C 
HETATM   32  C17 UNL     1      47.789   6.784  10.255  1.00  0.00    -0.013 C 
HETATM   33  C18 UNL     1      47.267   7.411  11.531  1.00  0.00     0.009 C 
HETATM   34  C22 UNL     1      46.968   5.536   9.998  1.00  0.00     0.024 C 
HETATM   35  C19 UNL     1      45.828   7.824  11.319  1.00  0.00    -0.013 C 
HETATM   36  C21 UNL     1      45.022   6.582  11.050  1.00  0.00     0.024 C 
ENDBRANCH  24  27
ENDBRANCH   1  23
TORSDOF 8
ENDMDL
