MODEL 1
REMARK VINA RESULT: -9.478433225      0.000      0.000
REMARK  11 active torsions:
REMARK  status: ('A' for Active; 'I' for Inactive)
REMARK    1  A    between atoms: C2_2  and  C3_3 
REMARK    2  A    between atoms: C3_3  and  C4_4 
REMARK    3  A    between atoms: C4_4  and  N1_5 
REMARK    4  A    between atoms: C4_4  and  C21_30 
REMARK    5  A    between atoms: N1_5  and  C5_7 
REMARK    6  A    between atoms: C9_13  and  N3_14 
REMARK    7  A    between atoms: C10_16  and  C11_17 
REMARK    8  A    between atoms: C14_20  and  C15_21 
REMARK    9  A    between atoms: C15_21  and  N4_22 
REMARK   10  A    between atoms: C21_30  and  N6_32 
REMARK   11  A    between atoms: N6_32  and  C23_34 
ROOT
HETATM    1  C5  UNL     1      46.463   4.821  10.344  1.00  0.00     0.119 A 
HETATM    2  C6  UNL     1      45.234   5.423  10.048  1.00  0.00     0.073 A 
HETATM    3  C7  UNL     1      44.149   4.641   9.755  1.00  0.00     0.026 A 
HETATM    4  C8  UNL     1      42.816   5.273   9.432  1.00  0.00     0.069 C 
HETATM    5  N2  UNL     1      44.265   3.302   9.753  1.00  0.00    -0.196 N 
ATOM      6  H2  UNL     1      43.445   2.737   9.534  1.00  0.00     0.184 HD
HETATM    7  C9  UNL     1      45.421   2.684  10.029  1.00  0.00     0.683 A 
HETATM    8  N5  UNL     1      46.498   3.502  10.321  1.00  0.00    -0.177 N 
ATOM      9  H5  UNL     1      47.387   3.051  10.534  1.00  0.00     0.186 HD
ENDROOT
BRANCH   1  10
HETATM   10  N1  UNL     1      47.466   5.585  10.614  1.00  0.00    -0.369 N 
ATOM     11  H1  UNL     1      48.407   5.190  10.601  1.00  0.00     0.161 HD
BRANCH  10  12
HETATM   12  C4  UNL     1      47.300   6.952  10.928  1.00  0.00     0.108 C 
BRANCH  12  13
HETATM   13  C3  UNL     1      48.231   7.880  10.182  1.00  0.00     0.053 C 
BRANCH  13  14
HETATM   14  C2  UNL     1      47.690   8.279   8.872  1.00  0.00    -0.035 C 
HETATM   15  C1  UNL     1      47.866   9.535   8.468  1.00  0.00     0.007 C 
ENDBRANCH  13  14
ENDBRANCH  12  13
BRANCH  12  16
HETATM   16  C21 UNL     1      47.428   7.211  12.454  1.00  0.00     0.095 C 
HETATM   17  C22 UNL     1      46.152   7.880  12.845  1.00  0.00     0.034 C 
BRANCH  16  18
HETATM   18  N6  UNL     1      48.612   7.973  12.590  1.00  0.00    -0.411 N 
ATOM     19  H6  UNL     1      48.881   8.628  11.856  1.00  0.00     0.154 HD
BRANCH  18  20
HETATM   20  C23 UNL     1      49.419   7.832  13.728  1.00  0.00     0.077 C 
HETATM   21  C24 UNL     1      49.444   9.110  14.516  1.00  0.00     0.024 C 
HETATM   22  C25 UNL     1      50.445   9.053  15.656  1.00  0.00     0.002 C 
HETATM   23  C26 UNL     1      49.961   7.893  16.536  1.00  0.00     0.000 C 
HETATM   24  C27 UNL     1      50.161   6.631  15.734  1.00  0.00     0.002 C 
HETATM   25  C28 UNL     1      49.190   6.619  14.582  1.00  0.00     0.024 C 
ENDBRANCH  18  20
ENDBRANCH  16  18
ENDBRANCH  12  16
ENDBRANCH  10  12
ENDBRANCH   1  10
BRANCH   7  26
HETATM   26  N3  UNL     1      45.576   1.452  10.036  1.00  0.00    -0.205 N 
HETATM   27  C10 UNL     1      45.108   0.247  10.453  1.00  0.00     0.083 C 
ATOM     28  H3  UNL     1      46.418   1.263   9.493  1.00  0.00     0.183 HD
BRANCH  27  29
HETATM   29  C11 UNL     1      43.636   0.039  10.696  1.00  0.00     0.025 C 
HETATM   30  C12 UNL     1      43.042   1.024  11.648  1.00  0.00     0.010 C 
HETATM   31  C13 UNL     1      41.610   1.387  11.267  1.00  0.00     0.007 C 
HETATM   32  C14 UNL     1      40.825   0.237  10.743  1.00  0.00     0.014 C 
HETATM   33  C19 UNL     1      41.518  -0.362   9.543  1.00  0.00     0.007 C 
HETATM   34  C20 UNL     1      42.867   0.278   9.367  1.00  0.00     0.010 C 
BRANCH  32  35
HETATM   35  C15 UNL     1      39.405   0.623  10.382  1.00  0.00     0.277 C 
BRANCH  35  36
HETATM   36  N4  UNL     1      38.437  -0.158  11.100  1.00  0.00     0.088 N 
HETATM   37  C16 UNL     1      38.851  -1.561  11.156  1.00  0.00     0.274 C 
HETATM   38  C17 UNL     1      38.077  -1.835   9.912  1.00  0.00     0.060 C 
HETATM   39  C18 UNL     1      37.285  -0.609  10.349  1.00  0.00     0.274 C 
ENDBRANCH  35  36
ENDBRANCH  32  35
ENDBRANCH  27  29
ENDBRANCH   7  26
TORSDOF 11
ENDMDL
MODEL 2
REMARK VINA RESULT: -9.430383526      0.725      1.108
REMARK  11 active torsions:
REMARK  status: ('A' for Active; 'I' for Inactive)
REMARK    1  A    between atoms: C2_2  and  C3_3 
REMARK    2  A    between atoms: C3_3  and  C4_4 
REMARK    3  A    between atoms: C4_4  and  N1_5 
REMARK    4  A    between atoms: C4_4  and  C21_30 
REMARK    5  A    between atoms: N1_5  and  C5_7 
REMARK    6  A    between atoms: C9_13  and  N3_14 
REMARK    7  A    between atoms: C10_16  and  C11_17 
REMARK    8  A    between atoms: C14_20  and  C15_21 
REMARK    9  A    between atoms: C15_21  and  N4_22 
REMARK   10  A    between atoms: C21_30  and  N6_32 
REMARK   11  A    between atoms: N6_32  and  C23_34 
ROOT
HETATM    1  C5  UNL     1      46.551   4.973  10.107  1.00  0.00     0.119 A 
HETATM    2  C6  UNL     1      45.514   5.589   9.394  1.00  0.00     0.073 A 
HETATM    3  C7  UNL     1      44.435   4.848   8.992  1.00  0.00     0.026 A 
HETATM    4  C8  UNL     1      43.309   5.495   8.220  1.00  0.00     0.069 C 
HETATM    5  N2  UNL     1      44.373   3.538   9.282  1.00  0.00    -0.196 N 
ATOM      6  H2  UNL     1      43.560   3.004   8.974  1.00  0.00     0.184 HD
HETATM    7  C9  UNL     1      45.341   2.908   9.960  1.00  0.00     0.683 A 
HETATM    8  N5  UNL     1      46.417   3.683  10.352  1.00  0.00    -0.177 N 
ATOM      9  H5  UNL     1      47.165   3.223  10.870  1.00  0.00     0.186 HD
ENDROOT
BRANCH   1  10
HETATM   10  N1  UNL     1      47.554   5.697  10.471  1.00  0.00    -0.369 N 
ATOM     11  H1  UNL     1      48.488   5.289  10.462  1.00  0.00     0.161 HD
BRANCH  10  12
HETATM   12  C4  UNL     1      47.395   7.040  10.881  1.00  0.00     0.108 C 
BRANCH  12  13
HETATM   13  C3  UNL     1      48.345   8.010  10.216  1.00  0.00     0.053 C 
BRANCH  13  14
HETATM   14  C2  UNL     1      47.872   8.432   8.887  1.00  0.00    -0.035 C 
HETATM   15  C1  UNL     1      48.015   9.709   8.538  1.00  0.00     0.007 C 
ENDBRANCH  13  14
ENDBRANCH  12  13
BRANCH  12  16
HETATM   16  C21 UNL     1      47.505   7.186  12.423  1.00  0.00     0.095 C 
HETATM   17  C22 UNL     1      46.189   7.743  12.857  1.00  0.00     0.034 C 
BRANCH  16  18
HETATM   18  N6  UNL     1      48.639   8.007  12.625  1.00  0.00    -0.411 N 
ATOM     19  H6  UNL     1      48.888   8.710  11.929  1.00  0.00     0.154 HD
BRANCH  18  20
HETATM   20  C23 UNL     1      49.424   7.859  13.778  1.00  0.00     0.077 C 
HETATM   21  C24 UNL     1      49.416   9.125  14.585  1.00  0.00     0.024 C 
HETATM   22  C25 UNL     1      50.396   9.062  15.745  1.00  0.00     0.002 C 
HETATM   23  C26 UNL     1      49.908   7.883  16.597  1.00  0.00     0.000 C 
HETATM   24  C27 UNL     1      50.140   6.635  15.780  1.00  0.00     0.002 C 
HETATM   25  C28 UNL     1      49.193   6.629  14.608  1.00  0.00     0.024 C 
ENDBRANCH  18  20
ENDBRANCH  16  18
ENDBRANCH  12  16
ENDBRANCH  10  12
ENDBRANCH   1  10
BRANCH   7  26
HETATM   26  N3  UNL     1      45.327   1.700  10.247  1.00  0.00    -0.205 N 
HETATM   27  C10 UNL     1      44.590   0.634  10.654  1.00  0.00     0.083 C 
ATOM     28  H3  UNL     1      46.281   1.363  10.122  1.00  0.00     0.183 HD
BRANCH  27  29
HETATM   29  C11 UNL     1      43.121   0.549  10.331  1.00  0.00     0.025 C 
HETATM   30  C12 UNL     1      42.603  -0.850  10.271  1.00  0.00     0.010 C 
HETATM   31  C13 UNL     1      41.173  -0.946  10.795  1.00  0.00     0.007 C 
HETATM   32  C14 UNL     1      40.324   0.217  10.422  1.00  0.00     0.014 C 
HETATM   33  C19 UNL     1      40.948   1.497  10.924  1.00  0.00     0.007 C 
HETATM   34  C20 UNL     1      42.313   1.209  11.483  1.00  0.00     0.010 C 
BRANCH  32  35
HETATM   35  C15 UNL     1      38.908   0.091  10.946  1.00  0.00     0.277 C 
BRANCH  35  36
HETATM   36  N4  UNL     1      37.933   0.275   9.907  1.00  0.00     0.088 N 
HETATM   37  C16 UNL     1      36.863  -0.718  10.028  1.00  0.00     0.274 C 
HETATM   38  C17 UNL     1      37.605  -1.623   9.105  1.00  0.00     0.060 C 
HETATM   39  C18 UNL     1      38.235  -0.322   8.624  1.00  0.00     0.274 C 
ENDBRANCH  35  36
ENDBRANCH  32  35
ENDBRANCH  27  29
ENDBRANCH   7  26
TORSDOF 11
ENDMDL
MODEL 3
REMARK VINA RESULT: -9.291255314      1.837     10.480
REMARK  11 active torsions:
REMARK  status: ('A' for Active; 'I' for Inactive)
REMARK    1  A    between atoms: C2_2  and  C3_3 
REMARK    2  A    between atoms: C3_3  and  C4_4 
REMARK    3  A    between atoms: C4_4  and  N1_5 
REMARK    4  A    between atoms: C4_4  and  C21_30 
REMARK    5  A    between atoms: N1_5  and  C5_7 
REMARK    6  A    between atoms: C9_13  and  N3_14 
REMARK    7  A    between atoms: C10_16  and  C11_17 
REMARK    8  A    between atoms: C14_20  and  C15_21 
REMARK    9  A    between atoms: C15_21  and  N4_22 
REMARK   10  A    between atoms: C21_30  and  N6_32 
REMARK   11  A    between atoms: N6_32  and  C23_34 
ROOT
HETATM    1  C5  UNL     1      44.803   3.466   9.985  1.00  0.00     0.119 A 
HETATM    2  C6  UNL     1      43.741   3.838   9.152  1.00  0.00     0.073 A 
HETATM    3  C7  UNL     1      43.808   5.011   8.449  1.00  0.00     0.026 A 
HETATM    4  C8  UNL     1      42.670   5.428   7.548  1.00  0.00     0.069 C 
HETATM    5  N2  UNL     1      44.890   5.800   8.560  1.00  0.00    -0.196 N 
ATOM      6  H2  UNL     1      44.921   6.669   8.027  1.00  0.00     0.184 HD
HETATM    7  C9  UNL     1      45.929   5.485   9.345  1.00  0.00     0.683 A 
HETATM    8  N5  UNL     1      45.830   4.293  10.040  1.00  0.00    -0.177 N 
ATOM      9  H5  UNL     1      46.611   4.034  10.643  1.00  0.00     0.186 HD
ENDROOT
BRANCH   1  10
HETATM   10  N1  UNL     1      44.709   2.356  10.634  1.00  0.00    -0.369 N 
ATOM     11  H1  UNL     1      45.483   2.065  11.231  1.00  0.00     0.161 HD
BRANCH  10  12
HETATM   12  C4  UNL     1      43.566   1.531  10.541  1.00  0.00     0.108 C 
BRANCH  12  13
HETATM   13  C3  UNL     1      42.715   1.504  11.790  1.00  0.00     0.053 C 
BRANCH  13  14
HETATM   14  C2  UNL     1      41.407   2.151  11.588  1.00  0.00    -0.035 C 
HETATM   15  C1  UNL     1      40.351   1.381  11.334  1.00  0.00     0.007 C 
ENDBRANCH  13  14
ENDBRANCH  12  13
BRANCH  12  16
HETATM   16  C21 UNL     1      43.937   0.078  10.139  1.00  0.00     0.095 C 
HETATM   17  C22 UNL     1      45.425   0.010  10.248  1.00  0.00     0.034 C 
BRANCH  16  18
HETATM   18  N6  UNL     1      43.387  -0.087   8.846  1.00  0.00    -0.411 N 
ATOM     19  H6  UNL     1      43.962   0.096   8.023  1.00  0.00     0.154 HD
BRANCH  18  20
HETATM   20  C23 UNL     1      42.057  -0.502   8.689  1.00  0.00     0.077 C 
HETATM   21  C24 UNL     1      41.764  -0.797   7.247  1.00  0.00     0.024 C 
HETATM   22  C25 UNL     1      40.289  -1.076   7.014  1.00  0.00     0.002 C 
HETATM   23  C26 UNL     1      39.988  -2.305   7.882  1.00  0.00     0.000 C 
HETATM   24  C27 UNL     1      40.112  -1.858   9.319  1.00  0.00     0.002 C 
HETATM   25  C28 UNL     1      41.559  -1.568   9.622  1.00  0.00     0.024 C 
ENDBRANCH  18  20
ENDBRANCH  16  18
ENDBRANCH  12  16
ENDBRANCH  10  12
ENDBRANCH   1  10
BRANCH   7  26
HETATM   26  N3  UNL     1      46.945   6.184   9.479  1.00  0.00    -0.205 N 
HETATM   27  C10 UNL     1      47.569   7.165  10.182  1.00  0.00     0.083 C 
ATOM     28  H3  UNL     1      47.592   5.897   8.745  1.00  0.00     0.183 HD
BRANCH  27  29
HETATM   29  C11 UNL     1      47.259   7.379  11.640  1.00  0.00     0.025 C 
HETATM   30  C12 UNL     1      47.520   6.177  12.488  1.00  0.00     0.010 C 
HETATM   31  C13 UNL     1      48.037   6.563  13.872  1.00  0.00     0.007 C 
HETATM   32  C14 UNL     1      47.395   7.785  14.426  1.00  0.00     0.014 C 
HETATM   33  C19 UNL     1      47.594   8.948  13.483  1.00  0.00     0.007 C 
HETATM   34  C20 UNL     1      48.218   8.463  12.205  1.00  0.00     0.010 C 
BRANCH  32  35
HETATM   35  C15 UNL     1      47.920   8.139  15.803  1.00  0.00     0.277 C 
BRANCH  35  36
HETATM   36  N4  UNL     1      49.225   7.588  16.037  1.00  0.00     0.088 N 
HETATM   37  C16 UNL     1      49.550   7.632  17.464  1.00  0.00     0.274 C 
HETATM   38  C17 UNL     1      50.199   8.960  17.272  1.00  0.00     0.060 C 
HETATM   39  C18 UNL     1      50.349   8.478  15.834  1.00  0.00     0.274 C 
ENDBRANCH  35  36
ENDBRANCH  32  35
ENDBRANCH  27  29
ENDBRANCH   7  26
TORSDOF 11
ENDMDL
MODEL 4
REMARK VINA RESULT: -9.264637262      3.042      7.907
REMARK  11 active torsions:
REMARK  status: ('A' for Active; 'I' for Inactive)
REMARK    1  A    between atoms: C2_2  and  C3_3 
REMARK    2  A    between atoms: C3_3  and  C4_4 
REMARK    3  A    between atoms: C4_4  and  N1_5 
REMARK    4  A    between atoms: C4_4  and  C21_30 
REMARK    5  A    between atoms: N1_5  and  C5_7 
REMARK    6  A    between atoms: C9_13  and  N3_14 
REMARK    7  A    between atoms: C10_16  and  C11_17 
REMARK    8  A    between atoms: C14_20  and  C15_21 
REMARK    9  A    between atoms: C15_21  and  N4_22 
REMARK   10  A    between atoms: C21_30  and  N6_32 
REMARK   11  A    between atoms: N6_32  and  C23_34 
ROOT
HETATM    1  C5  UNL     1      45.201   3.421   9.889  1.00  0.00     0.119 A 
HETATM    2  C6  UNL     1      46.183   4.298  10.368  1.00  0.00     0.073 A 
HETATM    3  C7  UNL     1      46.267   5.565   9.857  1.00  0.00     0.026 A 
HETATM    4  C8  UNL     1      47.321   6.523  10.360  1.00  0.00     0.069 C 
HETATM    5  N2  UNL     1      45.411   5.964   8.902  1.00  0.00    -0.196 N 
ATOM      6  H2  UNL     1      45.489   6.912   8.536  1.00  0.00     0.184 HD
HETATM    7  C9  UNL     1      44.457   5.159   8.414  1.00  0.00     0.683 A 
HETATM    8  N5  UNL     1      44.398   3.886   8.951  1.00  0.00    -0.177 N 
ATOM      9  H5  UNL     1      43.679   3.257   8.593  1.00  0.00     0.186 HD
ENDROOT
BRANCH   1  10
HETATM   10  N1  UNL     1      45.148   2.234  10.390  1.00  0.00    -0.369 N 
ATOM     11  H1  UNL     1      46.010   1.795  10.715  1.00  0.00     0.161 HD
BRANCH  10  12
HETATM   12  C4  UNL     1      43.932   1.523  10.501  1.00  0.00     0.108 C 
BRANCH  12  13
HETATM   13  C3  UNL     1      43.268   1.634  11.854  1.00  0.00     0.053 C 
BRANCH  13  14
HETATM   14  C2  UNL     1      41.844   1.997  11.749  1.00  0.00    -0.035 C 
HETATM   15  C1  UNL     1      41.455   2.751  10.724  1.00  0.00     0.007 C 
ENDBRANCH  13  14
ENDBRANCH  12  13
BRANCH  12  16
HETATM   16  C21 UNL     1      44.107   0.025  10.133  1.00  0.00     0.095 C 
HETATM   17  C22 UNL     1      45.583  -0.199  10.096  1.00  0.00     0.034 C 
BRANCH  16  18
HETATM   18  N6  UNL     1      43.410  -0.128   8.911  1.00  0.00    -0.411 N 
ATOM     19  H6  UNL     1      43.891   0.046   8.028  1.00  0.00     0.154 HD
BRANCH  18  20
HETATM   20  C23 UNL     1      42.064  -0.518   8.907  1.00  0.00     0.077 C 
HETATM   21  C24 UNL     1      41.706  -1.160   7.598  1.00  0.00     0.024 C 
HETATM   22  C25 UNL     1      40.216  -1.433   7.490  1.00  0.00     0.002 C 
HETATM   23  C26 UNL     1      39.913  -2.387   8.653  1.00  0.00     0.000 C 
HETATM   24  C27 UNL     1      40.107  -1.594   9.922  1.00  0.00     0.002 C 
HETATM   25  C28 UNL     1      41.573  -1.292  10.096  1.00  0.00     0.024 C 
ENDBRANCH  18  20
ENDBRANCH  16  18
ENDBRANCH  12  16
ENDBRANCH  10  12
ENDBRANCH   1  10
BRANCH   7  26
HETATM   26  N3  UNL     1      43.647   5.484   7.531  1.00  0.00    -0.205 N 
HETATM   27  C10 UNL     1      42.599   5.109   6.753  1.00  0.00     0.083 C 
ATOM     28  H3  UNL     1      43.862   6.449   7.282  1.00  0.00     0.183 HD
BRANCH  27  29
HETATM   29  C11 UNL     1      41.619   4.071   7.234  1.00  0.00     0.025 C 
HETATM   30  C12 UNL     1      40.410   4.650   7.891  1.00  0.00     0.010 C 
HETATM   31  C13 UNL     1      39.159   3.826   7.599  1.00  0.00     0.007 C 
HETATM   32  C14 UNL     1      39.406   2.360   7.573  1.00  0.00     0.014 C 
HETATM   33  C19 UNL     1      40.464   2.030   6.547  1.00  0.00     0.007 C 
HETATM   34  C20 UNL     1      41.058   3.300   6.007  1.00  0.00     0.010 C 
BRANCH  32  35
HETATM   35  C15 UNL     1      38.146   1.566   7.290  1.00  0.00     0.277 C 
BRANCH  35  36
HETATM   36  N4  UNL     1      37.175   1.710   8.339  1.00  0.00     0.088 N 
HETATM   37  C16 UNL     1      37.520   0.856   9.477  1.00  0.00     0.274 C 
HETATM   38  C17 UNL     1      36.674  -0.233   8.910  1.00  0.00     0.060 C 
HETATM   39  C18 UNL     1      35.967   0.923   8.215  1.00  0.00     0.274 C 
ENDBRANCH  35  36
ENDBRANCH  32  35
ENDBRANCH  27  29
ENDBRANCH   7  26
TORSDOF 11
ENDMDL
MODEL 5
REMARK VINA RESULT: -9.258672089      3.094      7.989
REMARK  11 active torsions:
REMARK  status: ('A' for Active; 'I' for Inactive)
REMARK    1  A    between atoms: C2_2  and  C3_3 
REMARK    2  A    between atoms: C3_3  and  C4_4 
REMARK    3  A    between atoms: C4_4  and  N1_5 
REMARK    4  A    between atoms: C4_4  and  C21_30 
REMARK    5  A    between atoms: N1_5  and  C5_7 
REMARK    6  A    between atoms: C9_13  and  N3_14 
REMARK    7  A    between atoms: C10_16  and  C11_17 
REMARK    8  A    between atoms: C14_20  and  C15_21 
REMARK    9  A    between atoms: C15_21  and  N4_22 
REMARK   10  A    between atoms: C21_30  and  N6_32 
REMARK   11  A    between atoms: N6_32  and  C23_34 
ROOT
HETATM    1  C5  UNL     1      45.220   3.441   9.811  1.00  0.00     0.119 A 
HETATM    2  C6  UNL     1      46.217   4.275  10.332  1.00  0.00     0.073 A 
HETATM    3  C7  UNL     1      46.311   5.570   9.899  1.00  0.00     0.026 A 
HETATM    4  C8  UNL     1      47.382   6.483  10.448  1.00  0.00     0.069 C 
HETATM    5  N2  UNL     1      45.450   6.037   8.979  1.00  0.00    -0.196 N 
ATOM      6  H2  UNL     1      45.537   7.005   8.671  1.00  0.00     0.184 HD
HETATM    7  C9  UNL     1      44.481   5.275   8.454  1.00  0.00     0.683 A 
HETATM    8  N5  UNL     1      44.413   3.972   8.912  1.00  0.00    -0.177 N 
ATOM      9  H5  UNL     1      43.682   3.375   8.525  1.00  0.00     0.186 HD
ENDROOT
BRANCH   1  10
HETATM   10  N1  UNL     1      45.157   2.226  10.238  1.00  0.00    -0.369 N 
ATOM     11  H1  UNL     1      46.024   1.727  10.440  1.00  0.00     0.161 HD
BRANCH  10  12
HETATM   12  C4  UNL     1      43.924   1.566  10.436  1.00  0.00     0.108 C 
BRANCH  12  13
HETATM   13  C3  UNL     1      43.250   1.887  11.751  1.00  0.00     0.053 C 
BRANCH  13  14
HETATM   14  C2  UNL     1      41.803   2.116  11.595  1.00  0.00    -0.035 C 
HETATM   15  C1  UNL     1      41.373   2.736  10.499  1.00  0.00     0.007 C 
ENDBRANCH  13  14
ENDBRANCH  12  13
BRANCH  12  16
HETATM   16  C21 UNL     1      44.066   0.027  10.293  1.00  0.00     0.095 C 
HETATM   17  C22 UNL     1      45.524  -0.212  10.070  1.00  0.00     0.034 C 
BRANCH  16  18
HETATM   18  N6  UNL     1      43.197  -0.316   9.230  1.00  0.00    -0.411 N 
ATOM     19  H6  UNL     1      43.379   0.038   8.291  1.00  0.00     0.154 HD
BRANCH  18  20
HETATM   20  C23 UNL     1      42.087  -1.140   9.461  1.00  0.00     0.077 C 
HETATM   21  C24 UNL     1      42.055  -1.592  10.893  1.00  0.00     0.024 C 
HETATM   22  C25 UNL     1      40.971  -2.626  11.136  1.00  0.00     0.002 C 
HETATM   23  C26 UNL     1      39.664  -1.907  10.776  1.00  0.00     0.000 C 
HETATM   24  C27 UNL     1      39.699  -1.673   9.285  1.00  0.00     0.002 C 
HETATM   25  C28 UNL     1      40.756  -0.647   8.970  1.00  0.00     0.024 C 
ENDBRANCH  18  20
ENDBRANCH  16  18
ENDBRANCH  12  16
ENDBRANCH  10  12
ENDBRANCH   1  10
BRANCH   7  26
HETATM   26  N3  UNL     1      43.667   5.663   7.601  1.00  0.00    -0.205 N 
HETATM   27  C10 UNL     1      42.628   5.339   6.787  1.00  0.00     0.083 C 
ATOM     28  H3  UNL     1      43.861   6.651   7.444  1.00  0.00     0.183 HD
BRANCH  27  29
HETATM   29  C11 UNL     1      41.671   4.240   7.166  1.00  0.00     0.025 C 
HETATM   30  C12 UNL     1      40.278   4.720   7.411  1.00  0.00     0.010 C 
HETATM   31  C13 UNL     1      39.240   3.700   6.950  1.00  0.00     0.007 C 
HETATM   32  C14 UNL     1      39.637   2.290   7.209  1.00  0.00     0.014 C 
HETATM   33  C19 UNL     1      40.955   1.990   6.537  1.00  0.00     0.007 C 
HETATM   34  C20 UNL     1      41.534   3.256   5.971  1.00  0.00     0.010 C 
BRANCH  32  35
HETATM   35  C15 UNL     1      38.585   1.300   6.751  1.00  0.00     0.277 C 
BRANCH  35  36
HETATM   36  N4  UNL     1      39.043   0.501   5.649  1.00  0.00     0.088 N 
HETATM   37  C16 UNL     1      38.081   0.549   4.547  1.00  0.00     0.274 C 
HETATM   38  C17 UNL     1      37.410  -0.668   5.086  1.00  0.00     0.060 C 
HETATM   39  C18 UNL     1      38.772  -0.919   5.722  1.00  0.00     0.274 C 
ENDBRANCH  35  36
ENDBRANCH  32  35
ENDBRANCH  27  29
ENDBRANCH   7  26
TORSDOF 11
ENDMDL
