MODEL 1
REMARK VINA RESULT: -8.409226191      0.000      0.000
REMARK  10 active torsions:
REMARK  status: ('A' for Active; 'I' for Inactive)
REMARK    1  A    between atoms: C6_6  and  N1_7 
REMARK    2  A    between atoms: N1_7  and  S1_9 
REMARK    3  A    between atoms: S1_9  and  N2_12 
REMARK    4  A    between atoms: N2_12  and  C7_14 
REMARK    5  A    between atoms: C7_14  and  C8_15 
REMARK    6  A    between atoms: C7_14  and  C12_19 
REMARK    7  A    between atoms: C8_15  and  C9_16 
REMARK    8  A    between atoms: C12_19  and  N3_20 
REMARK    9  A    between atoms: C12_19  and  C23_33 
REMARK   10  A    between atoms: N3_20  and  C13_23 
REMARK       I    between atoms: C23_33  and  N4_34 
ROOT
HETATM    1  C7  UNL     1      42.146   4.401   8.696  1.00  0.00     0.135 C 
ENDROOT
BRANCH   1   2
HETATM    2  N2  UNL     1      42.568   3.381   7.742  1.00  0.00    -0.295 N 
ATOM      3  H2  UNL     1      43.476   2.917   7.764  1.00  0.00     0.174 HD
BRANCH   2   4
HETATM    4  S1  UNL     1      41.348   3.060   6.575  1.00  0.00     0.319 S 
HETATM    5  O1  UNL     1      40.117   3.932   6.812  1.00  0.00    -0.182 OA
HETATM    6  O2  UNL     1      41.934   3.410   5.209  1.00  0.00    -0.182 OA
BRANCH   4   7
HETATM    7  N1  UNL     1      40.787   1.439   6.557  1.00  0.00    -0.267 N 
ATOM      8  H1  UNL     1      40.287   1.115   5.730  1.00  0.00     0.180 HD
BRANCH   7   9
HETATM    9  C6  UNL     1      40.978   0.509   7.637  1.00  0.00     0.055 A 
HETATM   10  C4  UNL     1      40.177   0.490   8.742  1.00  0.00    -0.034 A 
HETATM   11  C3  UNL     1      40.447  -0.424   9.753  1.00  0.00     0.015 A 
HETATM   12  C5  UNL     1      39.020   1.439   8.871  1.00  0.00     0.050 C 
HETATM   13  C2  UNL     1      41.486  -1.326   9.715  1.00  0.00    -0.061 A 
HETATM   14  C1  UNL     1      41.769  -2.298  10.813  1.00  0.00     0.048 C 
HETATM   15  C26 UNL     1      42.283  -1.290   8.587  1.00  0.00     0.015 A 
HETATM   16  C24 UNL     1      42.035  -0.396   7.578  1.00  0.00    -0.034 A 
HETATM   17  C25 UNL     1      42.910  -0.395   6.375  1.00  0.00     0.050 C 
ENDBRANCH   7   9
ENDBRANCH   4   7
ENDBRANCH   2   4
ENDBRANCH   1   2
BRANCH   1  18
HETATM   18  C8  UNL     1      42.506   3.940  10.098  1.00  0.00     0.032 C 
BRANCH  18  19
HETATM   19  C9  UNL     1      42.940   2.548  10.288  1.00  0.00    -0.021 C 
HETATM   20  C10 UNL     1      42.338   1.874  11.501  1.00  0.00     0.009 C 
HETATM   21  C11 UNL     1      44.470   2.483  10.498  1.00  0.00     0.009 C 
ENDBRANCH  18  19
ENDBRANCH   1  18
BRANCH   1  22
HETATM   22  C12 UNL     1      42.969   5.697   8.562  1.00  0.00     0.300 C 
BRANCH  22  23
HETATM   23  N3  UNL     1      44.365   5.411   8.274  1.00  0.00    -0.051 N 
ATOM     24  H32 UNL     1      44.570   4.421   8.413  1.00  0.00     0.279 HD
ATOM     25  H31 UNL     1      44.553   5.482   7.274  1.00  0.00     0.279 HD
BRANCH  23  26
HETATM   26  C13 UNL     1      45.275   6.234   9.025  1.00  0.00     0.128 C 
HETATM   27  C14 UNL     1      44.604   6.866  10.225  1.00  0.00     0.043 C 
HETATM   28  C15 UNL     1      45.587   7.674  11.044  1.00  0.00    -0.012 C 
HETATM   29  C16 UNL     1      46.256   8.778  10.254  1.00  0.00     0.009 C 
HETATM   30  C20 UNL     1      46.709   6.791  11.533  1.00  0.00     0.009 C 
HETATM   31  C17 UNL     1      46.827   8.158   9.023  1.00  0.00    -0.012 C 
HETATM   32  C18 UNL     1      47.953   7.232   9.401  1.00  0.00     0.009 C 
HETATM   33  C22 UNL     1      45.761   7.429   8.213  1.00  0.00     0.043 C 
HETATM   34  C19 UNL     1      47.393   6.176  10.332  1.00  0.00    -0.012 C 
HETATM   35  C21 UNL     1      46.399   5.362   9.507  1.00  0.00     0.043 C 
ENDBRANCH  23  26
ENDBRANCH  22  23
BRANCH  22  36
HETATM   36  C23 UNL     1      42.407   6.286   7.270  1.00  0.00     0.248 C 
HETATM   37  N4  UNL     1      41.176   6.864   7.047  1.00  0.00    -0.368 N 
ATOM     38  H42 UNL     1      40.527   6.919   7.833  1.00  0.00     0.159 HD
ATOM     39  H41 UNL     1      40.801   7.258   6.184  1.00  0.00     0.159 HD
HETATM   40  O3  UNL     1      43.216   6.219   6.293  1.00  0.00    -0.271 OA
ENDBRANCH  22  36
ENDBRANCH   1  22
TORSDOF 10
ENDMDL
MODEL 2
REMARK VINA RESULT: -8.374988182      0.041      1.452
REMARK  10 active torsions:
REMARK  status: ('A' for Active; 'I' for Inactive)
REMARK    1  A    between atoms: C6_6  and  N1_7 
REMARK    2  A    between atoms: N1_7  and  S1_9 
REMARK    3  A    between atoms: S1_9  and  N2_12 
REMARK    4  A    between atoms: N2_12  and  C7_14 
REMARK    5  A    between atoms: C7_14  and  C8_15 
REMARK    6  A    between atoms: C7_14  and  C12_19 
REMARK    7  A    between atoms: C8_15  and  C9_16 
REMARK    8  A    between atoms: C12_19  and  N3_20 
REMARK    9  A    between atoms: C12_19  and  C23_33 
REMARK   10  A    between atoms: N3_20  and  C13_23 
REMARK       I    between atoms: C23_33  and  N4_34 
ROOT
HETATM    1  C7  UNL     1      42.146   4.399   8.706  1.00  0.00     0.135 C 
ENDROOT
BRANCH   1   2
HETATM    2  N2  UNL     1      42.563   3.381   7.748  1.00  0.00    -0.295 N 
ATOM      3  H2  UNL     1      43.471   2.916   7.765  1.00  0.00     0.174 HD
BRANCH   2   4
HETATM    4  S1  UNL     1      41.336   3.060   6.589  1.00  0.00     0.319 S 
HETATM    5  O1  UNL     1      40.128   3.970   6.800  1.00  0.00    -0.182 OA
HETATM    6  O2  UNL     1      41.932   3.358   5.215  1.00  0.00    -0.182 OA
BRANCH   4   7
HETATM    7  N1  UNL     1      40.732   1.455   6.614  1.00  0.00    -0.267 N 
ATOM      8  H1  UNL     1      40.126   1.159   5.849  1.00  0.00     0.180 HD
BRANCH   7   9
HETATM    9  C6  UNL     1      41.028   0.499   7.648  1.00  0.00     0.055 A 
HETATM   10  C4  UNL     1      42.053  -0.398   7.548  1.00  0.00    -0.034 A 
HETATM   11  C3  UNL     1      42.254  -1.306   8.580  1.00  0.00     0.015 A 
HETATM   12  C5  UNL     1      42.953  -0.408   6.346  1.00  0.00     0.050 C 
HETATM   13  C2  UNL     1      41.477  -1.363   9.714  1.00  0.00    -0.061 A 
HETATM   14  C1  UNL     1      41.700  -2.350  10.813  1.00  0.00     0.048 C 
HETATM   15  C26 UNL     1      40.446  -0.447   9.794  1.00  0.00     0.015 A 
HETATM   16  C24 UNL     1      40.229   0.459   8.787  1.00  0.00    -0.034 A 
HETATM   17  C25 UNL     1      39.116   1.436   8.914  1.00  0.00     0.050 C 
ENDBRANCH   7   9
ENDBRANCH   4   7
ENDBRANCH   2   4
ENDBRANCH   1   2
BRANCH   1  18
HETATM   18  C8  UNL     1      42.512   3.935  10.105  1.00  0.00     0.032 C 
BRANCH  18  19
HETATM   19  C9  UNL     1      42.962   2.548  10.289  1.00  0.00    -0.021 C 
HETATM   20  C10 UNL     1      42.366   1.859  11.496  1.00  0.00     0.009 C 
HETATM   21  C11 UNL     1      44.492   2.500  10.503  1.00  0.00     0.009 C 
ENDBRANCH  18  19
ENDBRANCH   1  18
BRANCH   1  22
HETATM   22  C12 UNL     1      42.971   5.694   8.571  1.00  0.00     0.300 C 
BRANCH  22  23
HETATM   23  N3  UNL     1      44.367   5.406   8.281  1.00  0.00    -0.051 N 
ATOM     24  H32 UNL     1      44.572   4.418   8.426  1.00  0.00     0.279 HD
ATOM     25  H31 UNL     1      44.551   5.470   7.279  1.00  0.00     0.279 HD
BRANCH  23  26
HETATM   26  C13 UNL     1      45.279   6.235   9.023  1.00  0.00     0.128 C 
HETATM   27  C14 UNL     1      44.614   6.866  10.227  1.00  0.00     0.043 C 
HETATM   28  C15 UNL     1      45.601   7.680  11.037  1.00  0.00    -0.012 C 
HETATM   29  C16 UNL     1      46.258   8.785  10.239  1.00  0.00     0.009 C 
HETATM   30  C20 UNL     1      46.730   6.803  11.518  1.00  0.00     0.009 C 
HETATM   31  C17 UNL     1      46.822   8.166   9.005  1.00  0.00    -0.012 C 
HETATM   32  C18 UNL     1      47.955   7.245   9.375  1.00  0.00     0.009 C 
HETATM   33  C22 UNL     1      45.753   7.431   8.204  1.00  0.00     0.043 C 
HETATM   34  C19 UNL     1      47.407   6.189  10.312  1.00  0.00    -0.012 C 
HETATM   35  C21 UNL     1      46.410   5.369   9.498  1.00  0.00     0.043 C 
ENDBRANCH  23  26
ENDBRANCH  22  23
BRANCH  22  36
HETATM   36  C23 UNL     1      42.408   6.284   7.280  1.00  0.00     0.248 C 
HETATM   37  N4  UNL     1      41.188   6.887   7.065  1.00  0.00    -0.368 N 
ATOM     38  H42 UNL     1      40.549   6.963   7.856  1.00  0.00     0.159 HD
ATOM     39  H41 UNL     1      40.812   7.281   6.202  1.00  0.00     0.159 HD
HETATM   40  O3  UNL     1      43.205   6.191   6.294  1.00  0.00    -0.271 OA
ENDBRANCH  22  36
ENDBRANCH   1  22
TORSDOF 10
ENDMDL
MODEL 3
REMARK VINA RESULT: -8.007360953      2.047      4.048
REMARK  10 active torsions:
REMARK  status: ('A' for Active; 'I' for Inactive)
REMARK    1  A    between atoms: C6_6  and  N1_7 
REMARK    2  A    between atoms: N1_7  and  S1_9 
REMARK    3  A    between atoms: S1_9  and  N2_12 
REMARK    4  A    between atoms: N2_12  and  C7_14 
REMARK    5  A    between atoms: C7_14  and  C8_15 
REMARK    6  A    between atoms: C7_14  and  C12_19 
REMARK    7  A    between atoms: C8_15  and  C9_16 
REMARK    8  A    between atoms: C12_19  and  N3_20 
REMARK    9  A    between atoms: C12_19  and  C23_33 
REMARK   10  A    between atoms: N3_20  and  C13_23 
REMARK       I    between atoms: C23_33  and  N4_34 
ROOT
HETATM    1  C7  UNL     1      43.590   6.169   8.128  1.00  0.00     0.135 C 
ENDROOT
BRANCH   1   2
HETATM    2  N2  UNL     1      42.691   5.690   9.172  1.00  0.00    -0.295 N 
ATOM      3  H2  UNL     1      42.470   6.211  10.021  1.00  0.00     0.174 HD
BRANCH   2   4
HETATM    4  S1  UNL     1      42.049   4.141   8.795  1.00  0.00     0.319 S 
HETATM    5  O1  UNL     1      40.827   4.258   7.887  1.00  0.00    -0.182 OA
HETATM    6  O2  UNL     1      43.139   3.378   8.045  1.00  0.00    -0.182 OA
BRANCH   4   7
HETATM    7  N1  UNL     1      41.545   3.227  10.155  1.00  0.00    -0.267 N 
ATOM      8  H1  UNL     1      41.142   3.729  10.947  1.00  0.00     0.180 HD
BRANCH   7   9
HETATM    9  C6  UNL     1      41.655   1.795  10.250  1.00  0.00     0.055 A 
HETATM   10  C4  UNL     1      40.653   0.954   9.861  1.00  0.00    -0.034 A 
HETATM   11  C3  UNL     1      40.829  -0.416  10.012  1.00  0.00     0.015 A 
HETATM   12  C5  UNL     1      39.377   1.492   9.279  1.00  0.00     0.050 C 
HETATM   13  C2  UNL     1      41.965  -0.991  10.535  1.00  0.00    -0.061 A 
HETATM   14  C1  UNL     1      42.138  -2.465  10.698  1.00  0.00     0.048 C 
HETATM   15  C26 UNL     1      42.966  -0.120  10.922  1.00  0.00     0.015 A 
HETATM   16  C24 UNL     1      42.813   1.235  10.782  1.00  0.00    -0.034 A 
HETATM   17  C25 UNL     1      43.918   2.139  11.200  1.00  0.00     0.050 C 
ENDBRANCH   7   9
ENDBRANCH   4   7
ENDBRANCH   2   4
ENDBRANCH   1   2
BRANCH   1  18
HETATM   18  C8  UNL     1      42.985   7.408   7.490  1.00  0.00     0.032 C 
BRANCH  18  19
HETATM   19  C9  UNL     1      42.777   7.417   6.035  1.00  0.00    -0.021 C 
HETATM   20  C10 UNL     1      42.801   8.796   5.416  1.00  0.00     0.009 C 
HETATM   21  C11 UNL     1      41.389   6.833   5.684  1.00  0.00     0.009 C 
ENDBRANCH  18  19
ENDBRANCH   1  18
BRANCH   1  22
HETATM   22  C12 UNL     1      44.909   6.718   8.706  1.00  0.00     0.300 C 
BRANCH  22  23
HETATM   23  N3  UNL     1      44.666   7.619   9.822  1.00  0.00    -0.051 N 
ATOM     24  H32 UNL     1      43.677   7.862   9.883  1.00  0.00     0.279 HD
ATOM     25  H31 UNL     1      44.774   7.133  10.712  1.00  0.00     0.279 HD
BRANCH  23  26
HETATM   26  C13 UNL     1      45.483   8.801   9.779  1.00  0.00     0.128 C 
HETATM   27  C14 UNL     1      46.654   8.643   8.835  1.00  0.00     0.043 C 
HETATM   28  C15 UNL     1      47.468   9.916   8.748  1.00  0.00    -0.012 C 
HETATM   29  C16 UNL     1      48.011  10.369  10.086  1.00  0.00     0.009 C 
HETATM   30  C20 UNL     1      46.607  11.053   8.256  1.00  0.00     0.009 C 
HETATM   31  C17 UNL     1      46.862  10.424  11.035  1.00  0.00    -0.012 C 
HETATM   32  C18 UNL     1      45.918  11.524  10.620  1.00  0.00     0.009 C 
HETATM   33  C22 UNL     1      46.141   9.084  11.126  1.00  0.00     0.043 C 
HETATM   34  C19 UNL     1      45.447  11.225   9.212  1.00  0.00    -0.012 C 
HETATM   35  C21 UNL     1      44.629   9.939   9.298  1.00  0.00     0.043 C 
ENDBRANCH  23  26
ENDBRANCH  22  23
BRANCH  22  36
HETATM   36  C23 UNL     1      45.516   5.464   9.331  1.00  0.00     0.248 C 
HETATM   37  N4  UNL     1      46.068   4.367   8.707  1.00  0.00    -0.368 N 
ATOM     38  H42 UNL     1      46.086   4.360   7.687  1.00  0.00     0.159 HD
ATOM     39  H41 UNL     1      46.473   3.529   9.124  1.00  0.00     0.159 HD
HETATM   40  O3  UNL     1      45.493   5.473  10.602  1.00  0.00    -0.271 OA
ENDBRANCH  22  36
ENDBRANCH   1  22
TORSDOF 10
ENDMDL
MODEL 4
REMARK VINA RESULT: -7.997606144      2.076      3.862
REMARK  10 active torsions:
REMARK  status: ('A' for Active; 'I' for Inactive)
REMARK    1  A    between atoms: C6_6  and  N1_7 
REMARK    2  A    between atoms: N1_7  and  S1_9 
REMARK    3  A    between atoms: S1_9  and  N2_12 
REMARK    4  A    between atoms: N2_12  and  C7_14 
REMARK    5  A    between atoms: C7_14  and  C8_15 
REMARK    6  A    between atoms: C7_14  and  C12_19 
REMARK    7  A    between atoms: C8_15  and  C9_16 
REMARK    8  A    between atoms: C12_19  and  N3_20 
REMARK    9  A    between atoms: C12_19  and  C23_33 
REMARK   10  A    between atoms: N3_20  and  C13_23 
REMARK       I    between atoms: C23_33  and  N4_34 
ROOT
HETATM    1  C7  UNL     1      43.617   6.062   8.187  1.00  0.00     0.135 C 
ENDROOT
BRANCH   1   2
HETATM    2  N2  UNL     1      42.757   5.564   9.255  1.00  0.00    -0.295 N 
ATOM      3  H2  UNL     1      42.577   6.064  10.126  1.00  0.00     0.174 HD
BRANCH   2   4
HETATM    4  S1  UNL     1      42.083   4.031   8.866  1.00  0.00     0.319 S 
HETATM    5  O1  UNL     1      40.859   4.180   7.967  1.00  0.00    -0.182 OA
HETATM    6  O2  UNL     1      43.154   3.255   8.102  1.00  0.00    -0.182 OA
BRANCH   4   7
HETATM    7  N1  UNL     1      41.570   3.113  10.221  1.00  0.00    -0.267 N 
ATOM      8  H1  UNL     1      41.172   3.613  11.015  1.00  0.00     0.180 HD
BRANCH   7   9
HETATM    9  C6  UNL     1      41.666   1.680  10.306  1.00  0.00     0.055 A 
HETATM   10  C4  UNL     1      40.661   0.851   9.897  1.00  0.00    -0.034 A 
HETATM   11  C3  UNL     1      40.823  -0.522  10.039  1.00  0.00     0.015 A 
HETATM   12  C5  UNL     1      39.399   1.405   9.302  1.00  0.00     0.050 C 
HETATM   13  C2  UNL     1      41.947  -1.111  10.573  1.00  0.00    -0.061 A 
HETATM   14  C1  UNL     1      42.104  -2.588  10.727  1.00  0.00     0.048 C 
HETATM   15  C26 UNL     1      42.950  -0.253  10.980  1.00  0.00     0.015 A 
HETATM   16  C24 UNL     1      42.812   1.105  10.849  1.00  0.00    -0.034 A 
HETATM   17  C25 UNL     1      43.919   1.995  11.289  1.00  0.00     0.050 C 
ENDBRANCH   7   9
ENDBRANCH   4   7
ENDBRANCH   2   4
ENDBRANCH   1   2
BRANCH   1  18
HETATM   18  C8  UNL     1      42.964   7.282   7.561  1.00  0.00     0.032 C 
BRANCH  18  19
HETATM   19  C9  UNL     1      42.817   7.327   6.099  1.00  0.00    -0.021 C 
HETATM   20  C10 UNL     1      42.838   8.723   5.519  1.00  0.00     0.009 C 
HETATM   21  C11 UNL     1      41.458   6.725   5.674  1.00  0.00     0.009 C 
ENDBRANCH  18  19
ENDBRANCH   1  18
BRANCH   1  22
HETATM   22  C12 UNL     1      44.936   6.644   8.729  1.00  0.00     0.300 C 
BRANCH  22  23
HETATM   23  N3  UNL     1      44.699   7.553   9.840  1.00  0.00    -0.051 N 
ATOM     24  H32 UNL     1      43.703   7.753   9.939  1.00  0.00     0.279 HD
ATOM     25  H31 UNL     1      44.866   7.087  10.732  1.00  0.00     0.279 HD
BRANCH  23  26
HETATM   26  C13 UNL     1      45.460   8.769   9.745  1.00  0.00     0.128 C 
HETATM   27  C14 UNL     1      44.622   9.920   9.234  1.00  0.00     0.043 C 
HETATM   28  C15 UNL     1      45.416  11.208   9.203  1.00  0.00    -0.012 C 
HETATM   29  C16 UNL     1      46.658  11.123   8.343  1.00  0.00     0.009 C 
HETATM   30  C20 UNL     1      45.907  11.552  10.588  1.00  0.00     0.009 C 
HETATM   31  C17 UNL     1      47.426   9.925   8.791  1.00  0.00    -0.012 C 
HETATM   32  C18 UNL     1      47.949  10.154  10.185  1.00  0.00     0.009 C 
HETATM   33  C22 UNL     1      46.583   8.657   8.720  1.00  0.00     0.043 C 
HETATM   34  C19 UNL     1      46.762  10.409  11.090  1.00  0.00    -0.012 C 
HETATM   35  C21 UNL     1      45.959   9.112  11.119  1.00  0.00     0.043 C 
ENDBRANCH  23  26
ENDBRANCH  22  23
BRANCH  22  36
HETATM   36  C23 UNL     1      45.583   5.411   9.353  1.00  0.00     0.248 C 
HETATM   37  N4  UNL     1      46.134   4.313   8.728  1.00  0.00    -0.368 N 
ATOM     38  H42 UNL     1      46.120   4.290   7.708  1.00  0.00     0.159 HD
ATOM     39  H41 UNL     1      46.567   3.489   9.145  1.00  0.00     0.159 HD
HETATM   40  O3  UNL     1      45.602   5.440  10.624  1.00  0.00    -0.271 OA
ENDBRANCH  22  36
ENDBRANCH   1  22
TORSDOF 10
ENDMDL
MODEL 5
REMARK VINA RESULT: -7.983860337      4.579      7.304
REMARK  10 active torsions:
REMARK  status: ('A' for Active; 'I' for Inactive)
REMARK    1  A    between atoms: C6_6  and  N1_7 
REMARK    2  A    between atoms: N1_7  and  S1_9 
REMARK    3  A    between atoms: S1_9  and  N2_12 
REMARK    4  A    between atoms: N2_12  and  C7_14 
REMARK    5  A    between atoms: C7_14  and  C8_15 
REMARK    6  A    between atoms: C7_14  and  C12_19 
REMARK    7  A    between atoms: C8_15  and  C9_16 
REMARK    8  A    between atoms: C12_19  and  N3_20 
REMARK    9  A    between atoms: C12_19  and  C23_33 
REMARK   10  A    between atoms: N3_20  and  C13_23 
REMARK       I    between atoms: C23_33  and  N4_34 
ROOT
HETATM    1  C7  UNL     1      46.241   8.267  10.025  1.00  0.00     0.135 C 
ENDROOT
BRANCH   1   2
HETATM    2  N2  UNL     1      45.027   7.746  10.646  1.00  0.00    -0.295 N 
ATOM      3  H2  UNL     1      44.732   7.964  11.598  1.00  0.00     0.174 HD
BRANCH   2   4
HETATM    4  S1  UNL     1      44.157   6.721   9.576  1.00  0.00     0.319 S 
HETATM    5  O1  UNL     1      44.663   5.283   9.658  1.00  0.00    -0.182 OA
HETATM    6  O2  UNL     1      42.697   6.747  10.023  1.00  0.00    -0.182 OA
BRANCH   4   7
HETATM    7  N1  UNL     1      44.256   7.167   7.922  1.00  0.00    -0.267 N 
ATOM      8  H1  UNL     1      45.139   7.011   7.437  1.00  0.00     0.180 HD
BRANCH   7   9
HETATM    9  C6  UNL     1      43.170   7.746   7.177  1.00  0.00     0.055 A 
HETATM   10  C4  UNL     1      42.972   9.095   7.097  1.00  0.00    -0.034 A 
HETATM   11  C3  UNL     1      41.882   9.571   6.378  1.00  0.00     0.015 A 
HETATM   12  C5  UNL     1      43.911  10.053   7.771  1.00  0.00     0.050 C 
HETATM   13  C2  UNL     1      40.975   8.762   5.733  1.00  0.00    -0.061 A 
HETATM   14  C1  UNL     1      39.803   9.289   4.971  1.00  0.00     0.048 C 
HETATM   15  C26 UNL     1      41.196   7.402   5.828  1.00  0.00     0.015 A 
HETATM   16  C24 UNL     1      42.264   6.909   6.531  1.00  0.00    -0.034 A 
HETATM   17  C25 UNL     1      42.474   5.438   6.601  1.00  0.00     0.050 C 
ENDBRANCH   7   9
ENDBRANCH   4   7
ENDBRANCH   2   4
ENDBRANCH   1   2
BRANCH   1  18
HETATM   18  C8  UNL     1      46.348   9.751  10.329  1.00  0.00     0.032 C 
BRANCH  18  19
HETATM   19  C9  UNL     1      47.656  10.405  10.178  1.00  0.00    -0.021 C 
HETATM   20  C10 UNL     1      47.802  11.685  10.969  1.00  0.00     0.009 C 
HETATM   21  C11 UNL     1      47.893  10.805   8.704  1.00  0.00     0.009 C 
ENDBRANCH  18  19
ENDBRANCH   1  18
BRANCH   1  22
HETATM   22  C12 UNL     1      47.515   7.710  10.687  1.00  0.00     0.300 C 
BRANCH  22  23
HETATM   23  N3  UNL     1      47.199   6.914  11.863  1.00  0.00    -0.051 N 
ATOM     24  H32 UNL     1      46.192   6.770  11.944  1.00  0.00     0.279 HD
ATOM     25  H31 UNL     1      47.496   5.946  11.739  1.00  0.00     0.279 HD
BRANCH  23  26
HETATM   26  C13 UNL     1      47.738   7.464  13.077  1.00  0.00     0.128 C 
HETATM   27  C14 UNL     1      46.742   8.358  13.782  1.00  0.00     0.043 C 
HETATM   28  C15 UNL     1      47.297   8.876  15.092  1.00  0.00    -0.012 C 
HETATM   29  C16 UNL     1      48.582   9.657  14.927  1.00  0.00     0.009 C 
HETATM   30  C20 UNL     1      47.638   7.724  16.006  1.00  0.00     0.009 C 
HETATM   31  C17 UNL     1      49.522   8.804  14.143  1.00  0.00    -0.012 C 
HETATM   32  C18 UNL     1      49.914   7.602  14.963  1.00  0.00     0.009 C 
HETATM   33  C22 UNL     1      48.921   8.387  12.805  1.00  0.00     0.043 C 
HETATM   34  C19 UNL     1      48.650   6.843  15.308  1.00  0.00    -0.012 C 
HETATM   35  C21 UNL     1      48.088   6.322  13.988  1.00  0.00     0.043 C 
ENDBRANCH  23  26
ENDBRANCH  22  23
BRANCH  22  36
HETATM   36  C23 UNL     1      47.991   6.705   9.642  1.00  0.00     0.248 C 
HETATM   37  N4  UNL     1      47.605   5.394   9.464  1.00  0.00    -0.368 N 
ATOM     38  H42 UNL     1      46.910   5.012  10.105  1.00  0.00     0.159 HD
ATOM     39  H41 UNL     1      47.923   4.722   8.765  1.00  0.00     0.159 HD
HETATM   40  O3  UNL     1      48.857   7.181   8.842  1.00  0.00    -0.271 OA
ENDBRANCH  22  36
ENDBRANCH   1  22
TORSDOF 10
ENDMDL
