MODEL 1
REMARK VINA RESULT: -8.518532697      0.000      0.000
REMARK  12 active torsions:
REMARK  status: ('A' for Active; 'I' for Inactive)
REMARK    1  A    between atoms: C2_2  and  C3_3 
REMARK    2  A    between atoms: C3_3  and  C4_4 
REMARK    3  A    between atoms: C4_4  and  C5_5 
REMARK    4  A    between atoms: C18_19  and  C19_20 
REMARK    5  A    between atoms: C19_20  and  C20_21 
REMARK    6  A    between atoms: C20_21  and  C21_22 
REMARK       I    between atoms: C21_22  and  N2_24 
REMARK    7  A    between atoms: N2_24  and  C22_26 
REMARK    8  A    between atoms: C22_26  and  C23_27 
REMARK    9  A    between atoms: C23_27  and  C24_28 
REMARK   10  A    between atoms: C27_33  and  C28_34 
REMARK   11  A    between atoms: C28_34  and  O2_35 
REMARK   12  A    between atoms: C28_34  and  O3_37 
ROOT
HETATM    1  C5  UNL     1      47.123   8.320  12.670  1.00  0.00    -0.002 C 
HETATM    2  C6  UNL     1      47.500   7.261  11.724  1.00  0.00     0.247 C 
HETATM    3  N1  UNL     1      46.701   6.641  10.762  1.00  0.00    -0.070 N 
HETATM    4  C7  UNL     1      47.029   5.173  10.910  1.00  0.00     0.272 C 
HETATM    5  C8  UNL     1      47.176   6.788   9.355  1.00  0.00     0.237 C 
HETATM    6  C9  UNL     1      46.765   8.065   8.688  1.00  0.00     0.033 C 
HETATM    7  C10 UNL     1      45.535   8.731   9.160  1.00  0.00    -0.007 C 
HETATM    8  C11 UNL     1      45.744  10.022   9.978  1.00  0.00     0.010 C 
HETATM    9  C12 UNL     1      46.647   9.763  11.046  1.00  0.00    -0.005 C 
HETATM   10  C13 UNL     1      47.762  10.488  11.599  1.00  0.00     0.014 C 
HETATM   11  C14 UNL     1      48.028   9.534  12.804  1.00  0.00     0.019 C 
HETATM   12  C15 UNL     1      47.260  10.326  13.819  1.00  0.00    -0.025 C 
HETATM   13  C16 UNL     1      46.004  10.125  13.439  1.00  0.00    -0.024 C 
HETATM   14  C17 UNL     1      45.996   9.227  12.243  1.00  0.00     0.023 C 
HETATM   15  C18 UNL     1      44.640   7.722   9.787  1.00  0.00     0.016 C 
HETATM   16  C29 UNL     1      45.309   6.687  10.640  1.00  0.00     0.241 C 
ENDROOT
BRANCH  15  17
HETATM   17  C19 UNL     1      43.821   7.137   8.637  1.00  0.00     0.016 C 
BRANCH  17  18
HETATM   18  C20 UNL     1      42.796   6.150   9.035  1.00  0.00     0.103 C 
BRANCH  18  19
HETATM   19  C21 UNL     1      43.475   4.806   9.122  1.00  0.00     0.217 C 
HETATM   20  O1  UNL     1      44.293   4.454   8.244  1.00  0.00    -0.274 OA
HETATM   21  N2  UNL     1      43.203   3.917  10.193  1.00  0.00    -0.361 N 
ATOM     22  H2  UNL     1      42.531   4.223  10.896  1.00  0.00     0.162 HD
BRANCH  21  23
HETATM   23  C22 UNL     1      43.796   2.621  10.372  1.00  0.00     0.127 C 
BRANCH  23  24
HETATM   24  C23 UNL     1      43.101   1.739  11.363  1.00  0.00     0.060 C 
BRANCH  24  25
HETATM   25  C24 UNL     1      42.481   0.573  10.715  1.00  0.00    -0.029 A 
HETATM   26  C25 UNL     1      43.061  -0.699  10.618  1.00  0.00     0.095 A 
HETATM   27  N3  UNL     1      42.238  -1.537   9.969  1.00  0.00    -0.374 N 
HETATM   28  C26 UNL     1      41.142  -0.866   9.637  1.00  0.00     0.100 A 
ATOM     29  H3  UNL     1      42.423  -2.520   9.766  1.00  0.00     0.164 HD
HETATM   30  C27 UNL     1      41.262   0.454  10.088  1.00  0.00     0.019 A 
BRANCH  30  31
HETATM   31  C28 UNL     1      40.223   1.476   9.886  1.00  0.00     0.290 C 
BRANCH  31  32
HETATM   32  O2  UNL     1      39.586   1.827  11.092  1.00  0.00    -0.367 OA
ATOM     33  H2  UNL     1      38.820   1.290  11.259  1.00  0.00     0.213 HD
ENDBRANCH  31  32
BRANCH  31  34
HETATM   34  O3  UNL     1      40.599   2.565   9.130  1.00  0.00    -0.367 OA
ATOM     35  H3  UNL     1      39.967   3.272   9.086  1.00  0.00     0.213 HD
ENDBRANCH  31  34
ENDBRANCH  30  31
ENDBRANCH  24  25
ENDBRANCH  23  24
ENDBRANCH  21  23
ENDBRANCH  18  19
ENDBRANCH  17  18
ENDBRANCH  15  17
BRANCH   1  36
HETATM   36  C4  UNL     1      46.973   7.792  14.092  1.00  0.00     0.012 C 
BRANCH  36  37
HETATM   37  C3  UNL     1      47.793   6.669  14.518  1.00  0.00     0.000 C 
BRANCH  37  38
HETATM   38  C2  UNL     1      48.664   7.170  15.682  1.00  0.00    -0.005 C 
HETATM   39  C1  UNL     1      50.038   7.544  15.225  1.00  0.00     0.005 C 
ENDBRANCH  37  38
ENDBRANCH  36  37
ENDBRANCH   1  36
TORSDOF 12
ENDMDL
MODEL 2
REMARK VINA RESULT: -8.456579545      4.218      8.808
REMARK  12 active torsions:
REMARK  status: ('A' for Active; 'I' for Inactive)
REMARK    1  A    between atoms: C2_2  and  C3_3 
REMARK    2  A    between atoms: C3_3  and  C4_4 
REMARK    3  A    between atoms: C4_4  and  C5_5 
REMARK    4  A    between atoms: C18_19  and  C19_20 
REMARK    5  A    between atoms: C19_20  and  C20_21 
REMARK    6  A    between atoms: C20_21  and  C21_22 
REMARK       I    between atoms: C21_22  and  N2_24 
REMARK    7  A    between atoms: N2_24  and  C22_26 
REMARK    8  A    between atoms: C22_26  and  C23_27 
REMARK    9  A    between atoms: C23_27  and  C24_28 
REMARK   10  A    between atoms: C27_33  and  C28_34 
REMARK   11  A    between atoms: C28_34  and  O2_35 
REMARK   12  A    between atoms: C28_34  and  O3_37 
ROOT
HETATM    1  C5  UNL     1      42.139   1.030   9.778  1.00  0.00    -0.002 C 
HETATM    2  C6  UNL     1      42.074   0.670   8.355  1.00  0.00     0.247 C 
HETATM    3  N1  UNL     1      41.195   1.152   7.384  1.00  0.00    -0.070 N 
HETATM    4  C7  UNL     1      40.765  -0.090   6.636  1.00  0.00     0.272 C 
HETATM    5  C8  UNL     1      41.843   1.838   6.228  1.00  0.00     0.237 C 
HETATM    6  C9  UNL     1      42.170   3.281   6.464  1.00  0.00     0.033 C 
HETATM    7  C10 UNL     1      41.360   4.026   7.449  1.00  0.00    -0.007 C 
HETATM    8  C11 UNL     1      42.061   4.353   8.783  1.00  0.00     0.010 C 
HETATM    9  C12 UNL     1      42.600   3.160   9.338  1.00  0.00    -0.005 C 
HETATM   10  C13 UNL     1      43.852   2.841   9.974  1.00  0.00     0.014 C 
HETATM   11  C14 UNL     1      43.490   1.379  10.381  1.00  0.00     0.019 C 
HETATM   12  C15 UNL     1      43.080   1.693  11.788  1.00  0.00    -0.025 C 
HETATM   13  C16 UNL     1      41.933   2.338  11.607  1.00  0.00    -0.024 C 
HETATM   14  C17 UNL     1      41.638   2.405  10.142  1.00  0.00     0.023 C 
HETATM   15  C18 UNL     1      40.026   3.379   7.576  1.00  0.00     0.016 C 
HETATM   16  C29 UNL     1      40.018   1.881   7.575  1.00  0.00     0.241 C 
ENDROOT
BRANCH  15  17
HETATM   17  C19 UNL     1      39.169   4.001   6.475  1.00  0.00     0.016 C 
BRANCH  17  18
HETATM   18  C20 UNL     1      38.654   5.355   6.769  1.00  0.00     0.103 C 
BRANCH  18  19
HETATM   19  C21 UNL     1      39.418   6.324   5.902  1.00  0.00     0.217 C 
HETATM   20  O1  UNL     1      39.087   6.501   4.710  1.00  0.00    -0.274 OA
HETATM   21  N2  UNL     1      40.522   7.051   6.416  1.00  0.00    -0.361 N 
ATOM     22  H2  UNL     1      40.777   6.889   7.390  1.00  0.00     0.162 HD
BRANCH  21  23
HETATM   23  C22 UNL     1      41.312   7.998   5.679  1.00  0.00     0.127 C 
BRANCH  23  24
HETATM   24  C23 UNL     1      42.793   7.864   5.864  1.00  0.00     0.060 C 
BRANCH  24  25
HETATM   25  C24 UNL     1      43.283   8.703   6.968  1.00  0.00    -0.029 A 
HETATM   26  C25 UNL     1      43.014  10.069   7.125  1.00  0.00     0.095 A 
HETATM   27  N3  UNL     1      43.608  10.536   8.234  1.00  0.00    -0.374 N 
HETATM   28  C26 UNL     1      44.255   9.531   8.811  1.00  0.00     0.100 A 
ATOM     29  H3  UNL     1      43.569  11.497   8.575  1.00  0.00     0.164 HD
HETATM   30  C27 UNL     1      44.073   8.373   8.046  1.00  0.00     0.019 A 
BRANCH  30  31
HETATM   31  C28 UNL     1      44.657   7.069   8.399  1.00  0.00     0.290 C 
BRANCH  31  32
HETATM   32  O2  UNL     1      46.002   6.967   7.992  1.00  0.00    -0.367 OA
ATOM     33  H2  UNL     1      46.507   6.408   8.572  1.00  0.00     0.213 HD
ENDBRANCH  31  32
BRANCH  31  34
HETATM   34  O3  UNL     1      44.445   6.654   9.695  1.00  0.00    -0.367 OA
ATOM     35  H3  UNL     1      43.541   6.474   9.925  1.00  0.00     0.213 HD
ENDBRANCH  31  34
ENDBRANCH  30  31
ENDBRANCH  24  25
ENDBRANCH  23  24
ENDBRANCH  21  23
ENDBRANCH  18  19
ENDBRANCH  17  18
ENDBRANCH  15  17
BRANCH   1  36
HETATM   36  C4  UNL     1      41.592  -0.075  10.675  1.00  0.00     0.012 C 
BRANCH  36  37
HETATM   37  C3  UNL     1      40.320  -0.694  10.336  1.00  0.00     0.000 C 
BRANCH  37  38
HETATM   38  C2  UNL     1      40.510  -2.212  10.488  1.00  0.00    -0.005 C 
HETATM   39  C1  UNL     1      41.908  -2.559  10.888  1.00  0.00     0.005 C 
ENDBRANCH  37  38
ENDBRANCH  36  37
ENDBRANCH   1  36
TORSDOF 12
ENDMDL
MODEL 3
REMARK VINA RESULT: -8.330100132      1.074      1.401
REMARK  12 active torsions:
REMARK  status: ('A' for Active; 'I' for Inactive)
REMARK    1  A    between atoms: C2_2  and  C3_3 
REMARK    2  A    between atoms: C3_3  and  C4_4 
REMARK    3  A    between atoms: C4_4  and  C5_5 
REMARK    4  A    between atoms: C18_19  and  C19_20 
REMARK    5  A    between atoms: C19_20  and  C20_21 
REMARK    6  A    between atoms: C20_21  and  C21_22 
REMARK       I    between atoms: C21_22  and  N2_24 
REMARK    7  A    between atoms: N2_24  and  C22_26 
REMARK    8  A    between atoms: C22_26  and  C23_27 
REMARK    9  A    between atoms: C23_27  and  C24_28 
REMARK   10  A    between atoms: C27_33  and  C28_34 
REMARK   11  A    between atoms: C28_34  and  O2_35 
REMARK   12  A    between atoms: C28_34  and  O3_37 
ROOT
HETATM    1  C5  UNL     1      47.235   8.059  12.524  1.00  0.00    -0.002 C 
HETATM    2  C6  UNL     1      47.534   7.058  11.491  1.00  0.00     0.247 C 
HETATM    3  N1  UNL     1      46.657   6.481  10.572  1.00  0.00    -0.070 N 
HETATM    4  C7  UNL     1      47.012   5.011  10.608  1.00  0.00     0.272 C 
HETATM    5  C8  UNL     1      47.001   6.710   9.138  1.00  0.00     0.237 C 
HETATM    6  C9  UNL     1      46.519   8.016   8.583  1.00  0.00     0.033 C 
HETATM    7  C10 UNL     1      45.331   8.638   9.201  1.00  0.00    -0.007 C 
HETATM    8  C11 UNL     1      45.601   9.885  10.067  1.00  0.00     0.010 C 
HETATM    9  C12 UNL     1      46.600   9.581  11.033  1.00  0.00    -0.005 C 
HETATM   10  C13 UNL     1      47.753  10.291  11.523  1.00  0.00     0.014 C 
HETATM   11  C14 UNL     1      48.137   9.277  12.644  1.00  0.00     0.019 C 
HETATM   12  C15 UNL     1      47.457  10.001  13.766  1.00  0.00    -0.025 C 
HETATM   13  C16 UNL     1      46.174   9.803  13.491  1.00  0.00    -0.024 C 
HETATM   14  C17 UNL     1      46.065   8.971  12.252  1.00  0.00     0.023 C 
HETATM   15  C18 UNL     1      44.506   7.583   9.849  1.00  0.00     0.016 C 
HETATM   16  C29 UNL     1      45.260   6.513  10.579  1.00  0.00     0.241 C 
ENDROOT
BRANCH  15  17
HETATM   17  C19 UNL     1      43.592   7.050   8.747  1.00  0.00     0.016 C 
BRANCH  17  18
HETATM   18  C20 UNL     1      42.584   6.063   9.189  1.00  0.00     0.103 C 
BRANCH  18  19
HETATM   19  C21 UNL     1      42.785   4.815   8.366  1.00  0.00     0.217 C 
HETATM   20  O1  UNL     1      43.929   4.491   7.981  1.00  0.00    -0.274 OA
HETATM   21  N2  UNL     1      41.688   3.988   8.013  1.00  0.00    -0.361 N 
ATOM     22  H2  UNL     1      40.764   4.274   8.336  1.00  0.00     0.162 HD
BRANCH  21  23
HETATM   23  C22 UNL     1      41.770   2.781   7.239  1.00  0.00     0.127 C 
BRANCH  23  24
HETATM   24  C23 UNL     1      40.925   1.651   7.740  1.00  0.00     0.060 C 
BRANCH  24  25
HETATM   25  C24 UNL     1      41.639   0.834   8.733  1.00  0.00    -0.029 A 
HETATM   26  C25 UNL     1      42.512  -0.221   8.433  1.00  0.00     0.095 A 
HETATM   27  N3  UNL     1      42.997  -0.759   9.562  1.00  0.00    -0.374 N 
HETATM   28  C26 UNL     1      42.478  -0.100  10.590  1.00  0.00     0.100 A 
ATOM     29  H3  UNL     1      43.652  -1.539   9.621  1.00  0.00     0.164 HD
HETATM   30  C27 UNL     1      41.626   0.900  10.107  1.00  0.00     0.019 A 
BRANCH  30  31
HETATM   31  C28 UNL     1      40.880   1.821  10.981  1.00  0.00     0.290 C 
BRANCH  31  32
HETATM   32  O2  UNL     1      41.437   3.116  10.980  1.00  0.00    -0.367 OA
ATOM     33  H2  UNL     1      40.900   3.734  11.462  1.00  0.00     0.213 HD
ENDBRANCH  31  32
BRANCH  31  34
HETATM   34  O3  UNL     1      39.512   1.814  10.821  1.00  0.00    -0.367 OA
ATOM     35  H3  UNL     1      39.141   2.596  10.428  1.00  0.00     0.213 HD
ENDBRANCH  31  34
ENDBRANCH  30  31
ENDBRANCH  24  25
ENDBRANCH  23  24
ENDBRANCH  21  23
ENDBRANCH  18  19
ENDBRANCH  17  18
ENDBRANCH  15  17
BRANCH   1  36
HETATM   36  C4  UNL     1      47.220   7.452  13.923  1.00  0.00     0.012 C 
BRANCH  36  37
HETATM   37  C3  UNL     1      48.137   6.366  14.231  1.00  0.00     0.000 C 
BRANCH  37  38
HETATM   38  C2  UNL     1      48.860   6.750  15.533  1.00  0.00    -0.005 C 
HETATM   39  C1  UNL     1      50.012   7.669  15.277  1.00  0.00     0.005 C 
ENDBRANCH  37  38
ENDBRANCH  36  37
ENDBRANCH   1  36
TORSDOF 12
ENDMDL
MODEL 4
REMARK VINA RESULT: -8.266367244      1.130      1.528
REMARK  12 active torsions:
REMARK  status: ('A' for Active; 'I' for Inactive)
REMARK    1  A    between atoms: C2_2  and  C3_3 
REMARK    2  A    between atoms: C3_3  and  C4_4 
REMARK    3  A    between atoms: C4_4  and  C5_5 
REMARK    4  A    between atoms: C18_19  and  C19_20 
REMARK    5  A    between atoms: C19_20  and  C20_21 
REMARK    6  A    between atoms: C20_21  and  C21_22 
REMARK       I    between atoms: C21_22  and  N2_24 
REMARK    7  A    between atoms: N2_24  and  C22_26 
REMARK    8  A    between atoms: C22_26  and  C23_27 
REMARK    9  A    between atoms: C23_27  and  C24_28 
REMARK   10  A    between atoms: C27_33  and  C28_34 
REMARK   11  A    between atoms: C28_34  and  O2_35 
REMARK   12  A    between atoms: C28_34  and  O3_37 
ROOT
HETATM    1  C5  UNL     1      47.243  10.056  12.040  1.00  0.00    -0.002 C 
HETATM    2  C6  UNL     1      47.709   8.703  11.705  1.00  0.00     0.247 C 
HETATM    3  N1  UNL     1      47.002   7.682  11.069  1.00  0.00    -0.070 N 
HETATM    4  C7  UNL     1      47.327   6.453  11.888  1.00  0.00     0.272 C 
HETATM    5  C8  UNL     1      47.597   7.202   9.787  1.00  0.00     0.237 C 
HETATM    6  C9  UNL     1      47.236   8.024   8.587  1.00  0.00     0.033 C 
HETATM    7  C10 UNL     1      45.965   8.774   8.615  1.00  0.00    -0.007 C 
HETATM    8  C11 UNL     1      46.092  10.303   8.776  1.00  0.00     0.010 C 
HETATM    9  C12 UNL     1      46.900  10.592   9.909  1.00  0.00    -0.005 C 
HETATM   10  C13 UNL     1      47.957  11.539  10.157  1.00  0.00     0.014 C 
HETATM   11  C14 UNL     1      48.124  11.241  11.679  1.00  0.00     0.019 C 
HETATM   12  C15 UNL     1      47.265  12.368  12.167  1.00  0.00    -0.025 C 
HETATM   13  C16 UNL     1      46.048  11.960  11.826  1.00  0.00    -0.024 C 
HETATM   14  C17 UNL     1      46.151  10.621  11.167  1.00  0.00     0.023 C 
HETATM   15  C18 UNL     1      45.026   8.114   9.561  1.00  0.00     0.016 C 
HETATM   16  C29 UNL     1      45.626   7.604  10.836  1.00  0.00     0.241 C 
ENDROOT
BRANCH  15  17
HETATM   17  C19 UNL     1      44.315   7.038   8.741  1.00  0.00     0.016 C 
BRANCH  17  18
HETATM   18  C20 UNL     1      43.504   6.084   9.526  1.00  0.00     0.103 C 
BRANCH  18  19
HETATM   19  C21 UNL     1      44.253   4.775   9.556  1.00  0.00     0.217 C 
HETATM   20  O1  UNL     1      45.285   4.623   8.867  1.00  0.00    -0.274 OA
HETATM   21  N2  UNL     1      43.806   3.695  10.359  1.00  0.00    -0.361 N 
ATOM     22  H2  UNL     1      42.960   3.840  10.910  1.00  0.00     0.162 HD
BRANCH  21  23
HETATM   23  C22 UNL     1      44.445   2.413  10.462  1.00  0.00     0.127 C 
BRANCH  23  24
HETATM   24  C23 UNL     1      43.856   1.493  11.487  1.00  0.00     0.060 C 
BRANCH  24  25
HETATM   25  C24 UNL     1      42.912   0.539  10.885  1.00  0.00    -0.029 A 
HETATM   26  C25 UNL     1      43.206  -0.793  10.564  1.00  0.00     0.095 A 
HETATM   27  N3  UNL     1      42.129  -1.391  10.030  1.00  0.00    -0.374 N 
HETATM   28  C26 UNL     1      41.142  -0.506   9.990  1.00  0.00     0.100 A 
ATOM     29  H3  UNL     1      42.079  -2.359   9.711  1.00  0.00     0.164 HD
HETATM   30  C27 UNL     1      41.597   0.709  10.516  1.00  0.00     0.019 A 
BRANCH  30  31
HETATM   31  C28 UNL     1      40.756   1.913  10.620  1.00  0.00     0.290 C 
BRANCH  31  32
HETATM   32  O2  UNL     1      40.957   2.792   9.538  1.00  0.00    -0.367 OA
ATOM     33  H2  UNL     1      40.145   3.000   9.092  1.00  0.00     0.213 HD
ENDBRANCH  31  32
BRANCH  31  34
HETATM   34  O3  UNL     1      39.426   1.686  10.900  1.00  0.00    -0.367 OA
ATOM     35  H3  UNL     1      38.893   2.463  11.015  1.00  0.00     0.213 HD
ENDBRANCH  31  34
ENDBRANCH  30  31
ENDBRANCH  24  25
ENDBRANCH  23  24
ENDBRANCH  21  23
ENDBRANCH  18  19
ENDBRANCH  17  18
ENDBRANCH  15  17
BRANCH   1  36
HETATM   36  C4  UNL     1      46.973  10.216  13.532  1.00  0.00     0.012 C 
BRANCH  36  37
HETATM   37  C3  UNL     1      47.576   9.276  14.463  1.00  0.00     0.000 C 
BRANCH  37  38
HETATM   38  C2  UNL     1      48.818   9.965  15.051  1.00  0.00    -0.005 C 
HETATM   39  C1  UNL     1      50.083   9.413  14.476  1.00  0.00     0.005 C 
ENDBRANCH  37  38
ENDBRANCH  36  37
ENDBRANCH   1  36
TORSDOF 12
ENDMDL
MODEL 5
REMARK VINA RESULT: -8.176835662      1.472      1.945
REMARK  12 active torsions:
REMARK  status: ('A' for Active; 'I' for Inactive)
REMARK    1  A    between atoms: C2_2  and  C3_3 
REMARK    2  A    between atoms: C3_3  and  C4_4 
REMARK    3  A    between atoms: C4_4  and  C5_5 
REMARK    4  A    between atoms: C18_19  and  C19_20 
REMARK    5  A    between atoms: C19_20  and  C20_21 
REMARK    6  A    between atoms: C20_21  and  C21_22 
REMARK       I    between atoms: C21_22  and  N2_24 
REMARK    7  A    between atoms: N2_24  and  C22_26 
REMARK    8  A    between atoms: C22_26  and  C23_27 
REMARK    9  A    between atoms: C23_27  and  C24_28 
REMARK   10  A    between atoms: C27_33  and  C28_34 
REMARK   11  A    between atoms: C28_34  and  O2_35 
REMARK   12  A    between atoms: C28_34  and  O3_37 
ROOT
HETATM    1  C5  UNL     1      47.175   8.093  12.681  1.00  0.00    -0.002 C 
HETATM    2  C6  UNL     1      47.536   7.064  11.696  1.00  0.00     0.247 C 
HETATM    3  N1  UNL     1      46.742   6.527  10.682  1.00  0.00    -0.070 N 
HETATM    4  C7  UNL     1      47.002   5.040  10.768  1.00  0.00     0.272 C 
HETATM    5  C8  UNL     1      47.267   6.719   9.298  1.00  0.00     0.237 C 
HETATM    6  C9  UNL     1      46.933   8.043   8.683  1.00  0.00     0.033 C 
HETATM    7  C10 UNL     1      45.719   8.741   9.151  1.00  0.00    -0.007 C 
HETATM    8  C11 UNL     1      45.957   9.980  10.036  1.00  0.00     0.010 C 
HETATM    9  C12 UNL     1      46.814   9.631  11.116  1.00  0.00    -0.005 C 
HETATM   10  C13 UNL     1      47.940  10.279  11.737  1.00  0.00     0.014 C 
HETATM   11  C14 UNL     1      48.127   9.258  12.902  1.00  0.00     0.019 C 
HETATM   12  C15 UNL     1      47.362  10.034  13.930  1.00  0.00    -0.025 C 
HETATM   13  C16 UNL     1      46.111   9.907  13.504  1.00  0.00    -0.024 C 
HETATM   14  C17 UNL     1      46.102   9.068  12.266  1.00  0.00     0.023 C 
HETATM   15  C18 UNL     1      44.761   7.744   9.700  1.00  0.00     0.016 C 
HETATM   16  C29 UNL     1      45.358   6.641  10.521  1.00  0.00     0.241 C 
ENDROOT
BRANCH  15  17
HETATM   17  C19 UNL     1      43.955   7.251   8.500  1.00  0.00     0.016 C 
BRANCH  17  18
HETATM   18  C20 UNL     1      42.635   6.672   8.825  1.00  0.00     0.103 C 
BRANCH  18  19
HETATM   19  C21 UNL     1      42.672   5.217   8.430  1.00  0.00     0.217 C 
HETATM   20  O1  UNL     1      43.747   4.688   8.072  1.00  0.00    -0.274 OA
HETATM   21  N2  UNL     1      41.498   4.423   8.453  1.00  0.00    -0.361 N 
ATOM     22  H2  UNL     1      40.632   4.876   8.745  1.00  0.00     0.162 HD
BRANCH  21  23
HETATM   23  C22 UNL     1      41.425   3.032   8.101  1.00  0.00     0.127 C 
BRANCH  23  24
HETATM   24  C23 UNL     1      40.815   2.147   9.144  1.00  0.00     0.060 C 
BRANCH  24  25
HETATM   25  C24 UNL     1      41.821   1.657  10.099  1.00  0.00    -0.029 A 
HETATM   26  C25 UNL     1      42.268   2.354  11.229  1.00  0.00     0.095 A 
HETATM   27  N3  UNL     1      43.187   1.631  11.889  1.00  0.00    -0.374 N 
HETATM   28  C26 UNL     1      43.359   0.488  11.237  1.00  0.00     0.100 A 
ATOM     29  H3  UNL     1      43.669   1.912  12.743  1.00  0.00     0.164 HD
HETATM   30  C27 UNL     1      42.522   0.472  10.115  1.00  0.00     0.019 A 
BRANCH  30  31
HETATM   31  C28 UNL     1      42.460  -0.651   9.166  1.00  0.00     0.290 C 
BRANCH  31  32
HETATM   32  O2  UNL     1      43.584  -0.686   8.317  1.00  0.00    -0.367 OA
ATOM     33  H2  UNL     1      44.083  -1.487   8.421  1.00  0.00     0.213 HD
ENDBRANCH  31  32
BRANCH  31  34
HETATM   34  O3  UNL     1      42.151  -1.876   9.715  1.00  0.00    -0.367 OA
ATOM     35  H3  UNL     1      42.288  -1.952  10.652  1.00  0.00     0.213 HD
ENDBRANCH  31  34
ENDBRANCH  30  31
ENDBRANCH  24  25
ENDBRANCH  23  24
ENDBRANCH  21  23
ENDBRANCH  18  19
ENDBRANCH  17  18
ENDBRANCH  15  17
BRANCH   1  36
HETATM   36  C4  UNL     1      46.958   7.505  14.071  1.00  0.00     0.012 C 
BRANCH  36  37
HETATM   37  C3  UNL     1      47.849   6.457  14.542  1.00  0.00     0.000 C 
BRANCH  37  38
HETATM   38  C2  UNL     1      48.745   7.086  15.622  1.00  0.00    -0.005 C 
HETATM   39  C1  UNL     1      50.062   6.386  15.728  1.00  0.00     0.005 C 
ENDBRANCH  37  38
ENDBRANCH  36  37
ENDBRANCH   1  36
TORSDOF 12
ENDMDL
