MODEL 1
REMARK VINA RESULT: -8.180409830      0.000      0.000
REMARK  10 active torsions:
REMARK  status: ('A' for Active; 'I' for Inactive)
REMARK    1  A    between atoms: C2_2  and  N1_3 
REMARK    2  A    between atoms: N1_3  and  C3_6 
REMARK    3  A    between atoms: C3_6  and  C4_7 
REMARK    4  A    between atoms: C3_6  and  C7_12 
REMARK    5  A    between atoms: C4_7  and  C5_8 
REMARK    6  A    between atoms: C5_8  and  C6_9 
REMARK       I    between atoms: C7_12  and  N3_14 
REMARK    7  A    between atoms: N3_14  and  C8_16 
REMARK    8  A    between atoms: C8_16  and  C9_17 
REMARK    9  A    between atoms: C10_18  and  C11_19 
REMARK   10  A    between atoms: C23_31  and  N4_32 
REMARK       I    between atoms: N4_32  and  C24_34 
ROOT
HETATM    1  C11 UNL     1      43.641   1.030  10.256  1.00  0.00    -0.022 C 
HETATM    2  C12 UNL     1      44.274  -0.309   9.948  1.00  0.00     0.020 C 
HETATM    3  C13 UNL     1      42.932   0.891  11.582  1.00  0.00     0.013 C 
HETATM    4  C14 UNL     1      42.287   2.163  12.020  1.00  0.00     0.002 C 
HETATM    5  C15 UNL     1      41.903   3.063  10.853  1.00  0.00     0.010 C 
HETATM    6  C16 UNL     1      41.484   2.194   9.690  1.00  0.00    -0.035 C 
HETATM    7  C17 UNL     1      40.349   1.357  10.145  1.00  0.00     0.016 C 
HETATM    8  C18 UNL     1      42.698   1.501   9.176  1.00  0.00     0.006 C 
HETATM    9  C19 UNL     1      42.314   0.472   8.172  1.00  0.00     0.007 C 
HETATM   10  C20 UNL     1      41.718   1.171   6.992  1.00  0.00     0.012 C 
HETATM   11  C21 UNL     1      40.831   2.311   7.256  1.00  0.00    -0.019 C 
HETATM   12  C22 UNL     1      39.372   1.879   7.064  1.00  0.00     0.018 C 
HETATM   13  C23 UNL     1      41.077   3.398   6.228  1.00  0.00     0.093 C 
HETATM   14  C26 UNL     1      41.221   4.700   6.932  1.00  0.00     0.026 C 
HETATM   15  C27 UNL     1      41.746   4.292   8.296  1.00  0.00     0.008 C 
HETATM   16  C28 UNL     1      40.978   3.038   8.537  1.00  0.00     0.004 C 
ENDROOT
BRANCH   1  17
HETATM   17  C10 UNL     1      44.738   2.014  10.431  1.00  0.00    -0.019 C 
HETATM   18  C9  UNL     1      45.034   3.024   9.670  1.00  0.00    -0.011 C 
BRANCH  18  19
HETATM   19  C8  UNL     1      46.163   3.967   9.925  1.00  0.00     0.149 C 
BRANCH  19  20
HETATM   20  N3  UNL     1      46.182   5.068   9.022  1.00  0.00    -0.356 N 
HETATM   21  C7  UNL     1      46.246   6.388   9.512  1.00  0.00     0.248 C 
HETATM   22  O2  UNL     1      46.283   6.577  10.751  1.00  0.00    -0.271 OA
ATOM     23  H3  UNL     1      46.150   4.900   8.017  1.00  0.00     0.162 HD
BRANCH  21  24
HETATM   24  C3  UNL     1      46.275   7.565   8.626  1.00  0.00     0.277 C 
BRANCH  24  25
HETATM   25  N1  UNL     1      47.548   8.253   8.705  1.00  0.00    -0.063 N 
ATOM     26  H12 UNL     1      48.009   8.278   7.796  1.00  0.00     0.278 HD
ATOM     27  H11 UNL     1      48.232   7.701   9.222  1.00  0.00     0.278 HD
BRANCH  25  28
HETATM   28  C2  UNL     1      47.427   9.570   9.258  1.00  0.00     0.229 C 
HETATM   29  C1  UNL     1      48.385  10.547   8.602  1.00  0.00     0.034 C 
ENDBRANCH  25  28
ENDBRANCH  24  25
BRANCH  24  30
HETATM   30  C4  UNL     1      45.160   8.507   8.932  1.00  0.00     0.052 C 
BRANCH  30  31
HETATM   31  C5  UNL     1      43.813   7.858   8.701  1.00  0.00     0.102 C 
BRANCH  31  32
HETATM   32  C6  UNL     1      43.510   8.018   7.248  1.00  0.00     0.231 C 
HETATM   33  N2  UNL     1      43.040   9.262   6.751  1.00  0.00    -0.062 NA
HETATM   34  O1  UNL     1      43.658   7.076   6.438  1.00  0.00    -0.277 OA
ENDBRANCH  31  32
ENDBRANCH  30  31
ENDBRANCH  24  30
ENDBRANCH  21  24
ENDBRANCH  19  20
ENDBRANCH  18  19
ENDBRANCH   1  17
BRANCH  13  35
HETATM   35  N4  UNL     1      40.015   3.470   5.249  1.00  0.00    -0.356 N 
HETATM   36  C24 UNL     1      40.185   3.921   3.935  1.00  0.00     0.213 C 
HETATM   37  C25 UNL     1      39.063   3.979   2.968  1.00  0.00     0.117 C 
HETATM   38  O3  UNL     1      41.320   4.295   3.543  1.00  0.00    -0.274 OA
ATOM     39  H4  UNL     1      39.082   3.172   5.534  1.00  0.00     0.162 HD
ENDBRANCH  13  35
TORSDOF 10
ENDMDL
MODEL 2
REMARK VINA RESULT: -7.957608967      1.099      2.343
REMARK  10 active torsions:
REMARK  status: ('A' for Active; 'I' for Inactive)
REMARK    1  A    between atoms: C2_2  and  N1_3 
REMARK    2  A    between atoms: N1_3  and  C3_6 
REMARK    3  A    between atoms: C3_6  and  C4_7 
REMARK    4  A    between atoms: C3_6  and  C7_12 
REMARK    5  A    between atoms: C4_7  and  C5_8 
REMARK    6  A    between atoms: C5_8  and  C6_9 
REMARK       I    between atoms: C7_12  and  N3_14 
REMARK    7  A    between atoms: N3_14  and  C8_16 
REMARK    8  A    between atoms: C8_16  and  C9_17 
REMARK    9  A    between atoms: C10_18  and  C11_19 
REMARK   10  A    between atoms: C23_31  and  N4_32 
REMARK       I    between atoms: N4_32  and  C24_34 
ROOT
HETATM    1  C11 UNL     1      43.647   0.981  10.291  1.00  0.00    -0.022 C 
HETATM    2  C12 UNL     1      44.271  -0.363   9.985  1.00  0.00     0.020 C 
HETATM    3  C13 UNL     1      42.928   0.846  11.613  1.00  0.00     0.013 C 
HETATM    4  C14 UNL     1      42.292   2.123  12.049  1.00  0.00     0.002 C 
HETATM    5  C15 UNL     1      41.923   3.027  10.881  1.00  0.00     0.010 C 
HETATM    6  C16 UNL     1      41.503   2.164   9.714  1.00  0.00    -0.035 C 
HETATM    7  C17 UNL     1      40.359   1.335  10.161  1.00  0.00     0.016 C 
HETATM    8  C18 UNL     1      42.714   1.462   9.206  1.00  0.00     0.006 C 
HETATM    9  C19 UNL     1      42.328   0.437   8.198  1.00  0.00     0.007 C 
HETATM   10  C20 UNL     1      41.744   1.143   7.016  1.00  0.00     0.012 C 
HETATM   11  C21 UNL     1      40.865   2.290   7.276  1.00  0.00    -0.019 C 
HETATM   12  C22 UNL     1      39.403   1.870   7.075  1.00  0.00     0.018 C 
HETATM   13  C23 UNL     1      41.126   3.376   6.252  1.00  0.00     0.093 C 
HETATM   14  C26 UNL     1      41.277   4.676   6.959  1.00  0.00     0.026 C 
HETATM   15  C27 UNL     1      41.790   4.261   8.325  1.00  0.00     0.008 C 
HETATM   16  C28 UNL     1      41.010   3.014   8.560  1.00  0.00     0.004 C 
ENDROOT
BRANCH   1  17
HETATM   17  C10 UNL     1      44.751   1.956  10.474  1.00  0.00    -0.019 C 
HETATM   18  C9  UNL     1      45.041   2.982   9.733  1.00  0.00    -0.011 C 
BRANCH  18  19
HETATM   19  C8  UNL     1      46.178   3.914   9.994  1.00  0.00     0.149 C 
BRANCH  19  20
HETATM   20  N3  UNL     1      46.211   5.017   9.095  1.00  0.00    -0.356 N 
HETATM   21  C7  UNL     1      45.852   6.306   9.537  1.00  0.00     0.248 C 
HETATM   22  O2  UNL     1      45.503   6.466  10.732  1.00  0.00    -0.271 OA
ATOM     23  H3  UNL     1      46.495   4.874   8.127  1.00  0.00     0.162 HD
BRANCH  21  24
HETATM   24  C3  UNL     1      45.874   7.485   8.654  1.00  0.00     0.277 C 
BRANCH  24  25
HETATM   25  N1  UNL     1      45.041   7.284   7.486  1.00  0.00    -0.063 N 
ATOM     26  H12 UNL     1      45.185   6.356   7.088  1.00  0.00     0.278 HD
ATOM     27  H11 UNL     1      45.367   7.850   6.702  1.00  0.00     0.278 HD
BRANCH  25  28
HETATM   28  C2  UNL     1      43.654   7.522   7.751  1.00  0.00     0.229 C 
HETATM   29  C1  UNL     1      42.927   8.047   6.526  1.00  0.00     0.034 C 
ENDBRANCH  25  28
ENDBRANCH  24  25
BRANCH  24  30
HETATM   30  C4  UNL     1      47.265   7.834   8.242  1.00  0.00     0.052 C 
BRANCH  30  31
HETATM   31  C5  UNL     1      48.099   8.262   9.428  1.00  0.00     0.102 C 
BRANCH  31  32
HETATM   32  C6  UNL     1      47.728   9.678   9.718  1.00  0.00     0.231 C 
HETATM   33  N2  UNL     1      47.748  10.646   8.679  1.00  0.00    -0.062 NA
HETATM   34  O1  UNL     1      47.394  10.049  10.865  1.00  0.00    -0.277 OA
ENDBRANCH  31  32
ENDBRANCH  30  31
ENDBRANCH  24  30
ENDBRANCH  21  24
ENDBRANCH  19  20
ENDBRANCH  18  19
ENDBRANCH   1  17
BRANCH  13  35
HETATM   35  N4  UNL     1      40.071   3.459   5.266  1.00  0.00    -0.356 N 
HETATM   36  C24 UNL     1      40.250   3.921   3.957  1.00  0.00     0.213 C 
HETATM   37  C25 UNL     1      39.134   3.989   2.984  1.00  0.00     0.117 C 
HETATM   38  O3  UNL     1      41.388   4.296   3.576  1.00  0.00    -0.274 OA
ATOM     39  H4  UNL     1      39.135   3.160   5.543  1.00  0.00     0.162 HD
ENDBRANCH  13  35
TORSDOF 10
ENDMDL
MODEL 3
REMARK VINA RESULT: -7.841311520      3.108      8.298
REMARK  10 active torsions:
REMARK  status: ('A' for Active; 'I' for Inactive)
REMARK    1  A    between atoms: C2_2  and  N1_3 
REMARK    2  A    between atoms: N1_3  and  C3_6 
REMARK    3  A    between atoms: C3_6  and  C4_7 
REMARK    4  A    between atoms: C3_6  and  C7_12 
REMARK    5  A    between atoms: C4_7  and  C5_8 
REMARK    6  A    between atoms: C5_8  and  C6_9 
REMARK       I    between atoms: C7_12  and  N3_14 
REMARK    7  A    between atoms: N3_14  and  C8_16 
REMARK    8  A    between atoms: C8_16  and  C9_17 
REMARK    9  A    between atoms: C10_18  and  C11_19 
REMARK   10  A    between atoms: C23_31  and  N4_32 
REMARK       I    between atoms: N4_32  and  C24_34 
ROOT
HETATM    1  C11 UNL     1      46.837   7.653  10.947  1.00  0.00    -0.022 C 
HETATM    2  C12 UNL     1      47.117   7.462  12.422  1.00  0.00     0.020 C 
HETATM    3  C13 UNL     1      48.133   7.398  10.213  1.00  0.00     0.013 C 
HETATM    4  C14 UNL     1      47.985   7.523   8.734  1.00  0.00     0.002 C 
HETATM    5  C15 UNL     1      46.862   8.470   8.332  1.00  0.00     0.010 C 
HETATM    6  C16 UNL     1      46.788   9.590   9.343  1.00  0.00    -0.035 C 
HETATM    7  C17 UNL     1      48.106  10.265   9.359  1.00  0.00     0.016 C 
HETATM    8  C18 UNL     1      46.283   9.019  10.622  1.00  0.00     0.006 C 
HETATM    9  C19 UNL     1      46.391  10.026  11.712  1.00  0.00     0.007 C 
HETATM   10  C20 UNL     1      45.475  11.163  11.389  1.00  0.00     0.012 C 
HETATM   11  C21 UNL     1      45.401  11.597   9.987  1.00  0.00    -0.019 C 
HETATM   12  C22 UNL     1      46.205  12.892   9.810  1.00  0.00     0.018 C 
HETATM   13  C23 UNL     1      43.969  11.950   9.638  1.00  0.00     0.093 C 
HETATM   14  C26 UNL     1      43.614  11.292   8.352  1.00  0.00     0.026 C 
HETATM   15  C27 UNL     1      44.516  10.072   8.334  1.00  0.00     0.008 C 
HETATM   16  C28 UNL     1      45.764  10.628   8.928  1.00  0.00     0.004 C 
ENDROOT
BRANCH   1  17
HETATM   17  C10 UNL     1      45.870   6.606  10.535  1.00  0.00    -0.019 C 
HETATM   18  C9  UNL     1      46.106   5.353  10.289  1.00  0.00    -0.011 C 
BRANCH  18  19
HETATM   19  C8  UNL     1      45.065   4.366   9.877  1.00  0.00     0.149 C 
BRANCH  19  20
HETATM   20  N3  UNL     1      44.475   4.672   8.619  1.00  0.00    -0.356 N 
HETATM   21  C7  UNL     1      43.142   5.126   8.549  1.00  0.00     0.248 C 
HETATM   22  O2  UNL     1      42.485   5.253   9.610  1.00  0.00    -0.271 OA
ATOM     23  H3  UNL     1      45.019   4.563   7.763  1.00  0.00     0.162 HD
BRANCH  21  24
HETATM   24  C3  UNL     1      42.482   5.464   7.276  1.00  0.00     0.277 C 
BRANCH  24  25
HETATM   25  N1  UNL     1      42.287   6.894   7.146  1.00  0.00    -0.063 N 
ATOM     26  H12 UNL     1      42.326   7.353   8.056  1.00  0.00     0.278 HD
ATOM     27  H11 UNL     1      41.322   7.111   6.895  1.00  0.00     0.278 HD
BRANCH  25  28
HETATM   28  C2  UNL     1      43.206   7.494   6.226  1.00  0.00     0.229 C 
HETATM   29  C1  UNL     1      42.581   8.660   5.484  1.00  0.00     0.034 C 
ENDBRANCH  25  28
ENDBRANCH  24  25
BRANCH  24  30
HETATM   30  C4  UNL     1      41.179   4.751   7.130  1.00  0.00     0.052 C 
BRANCH  30  31
HETATM   31  C5  UNL     1      40.548   5.029   5.784  1.00  0.00     0.102 C 
BRANCH  31  32
HETATM   32  C6  UNL     1      41.127   4.036   4.832  1.00  0.00     0.231 C 
HETATM   33  N2  UNL     1      41.317   4.383   3.469  1.00  0.00    -0.062 NA
HETATM   34  O1  UNL     1      41.457   2.886   5.200  1.00  0.00    -0.277 OA
ENDBRANCH  31  32
ENDBRANCH  30  31
ENDBRANCH  24  30
ENDBRANCH  21  24
ENDBRANCH  19  20
ENDBRANCH  18  19
ENDBRANCH   1  17
BRANCH  13  35
HETATM   35  N4  UNL     1      43.769  13.379   9.544  1.00  0.00    -0.356 N 
HETATM   36  C24 UNL     1      42.901  14.108  10.366  1.00  0.00     0.213 C 
HETATM   37  C25 UNL     1      42.728  15.574  10.229  1.00  0.00     0.117 C 
HETATM   38  O3  UNL     1      42.236  13.517  11.255  1.00  0.00    -0.274 OA
ATOM     39  H4  UNL     1      44.295  13.890   8.834  1.00  0.00     0.162 HD
ENDBRANCH  13  35
TORSDOF 10
ENDMDL
MODEL 4
REMARK VINA RESULT: -7.835476726      1.242      1.538
REMARK  10 active torsions:
REMARK  status: ('A' for Active; 'I' for Inactive)
REMARK    1  A    between atoms: C2_2  and  N1_3 
REMARK    2  A    between atoms: N1_3  and  C3_6 
REMARK    3  A    between atoms: C3_6  and  C4_7 
REMARK    4  A    between atoms: C3_6  and  C7_12 
REMARK    5  A    between atoms: C4_7  and  C5_8 
REMARK    6  A    between atoms: C5_8  and  C6_9 
REMARK       I    between atoms: C7_12  and  N3_14 
REMARK    7  A    between atoms: N3_14  and  C8_16 
REMARK    8  A    between atoms: C8_16  and  C9_17 
REMARK    9  A    between atoms: C10_18  and  C11_19 
REMARK   10  A    between atoms: C23_31  and  N4_32 
REMARK       I    between atoms: N4_32  and  C24_34 
ROOT
HETATM    1  C11 UNL     1      43.668   1.214  10.207  1.00  0.00    -0.022 C 
HETATM    2  C12 UNL     1      44.550   0.013   9.945  1.00  0.00     0.020 C 
HETATM    3  C13 UNL     1      42.974   0.976  11.527  1.00  0.00     0.013 C 
HETATM    4  C14 UNL     1      42.091   2.112  11.920  1.00  0.00     0.002 C 
HETATM    5  C15 UNL     1      41.563   2.891  10.723  1.00  0.00     0.010 C 
HETATM    6  C16 UNL     1      41.338   1.928   9.580  1.00  0.00    -0.035 C 
HETATM    7  C17 UNL     1      40.377   0.901  10.044  1.00  0.00     0.016 C 
HETATM    8  C18 UNL     1      42.671   1.468   9.102  1.00  0.00     0.006 C 
HETATM    9  C19 UNL     1      42.510   0.359   8.122  1.00  0.00     0.007 C 
HETATM   10  C20 UNL     1      41.812   0.900   6.916  1.00  0.00     0.012 C 
HETATM   11  C21 UNL     1      40.719   1.856   7.135  1.00  0.00    -0.019 C 
HETATM   12  C22 UNL     1      39.373   1.147   6.937  1.00  0.00     0.018 C 
HETATM   13  C23 UNL     1      40.772   2.943   6.080  1.00  0.00     0.093 C 
HETATM   14  C26 UNL     1      40.652   4.266   6.748  1.00  0.00     0.026 C 
HETATM   15  C27 UNL     1      41.220   4.001   8.130  1.00  0.00     0.008 C 
HETATM   16  C28 UNL     1      40.701   2.631   8.397  1.00  0.00     0.004 C 
ENDROOT
BRANCH   1  17
HETATM   17  C10 UNL     1      44.553   2.394  10.367  1.00  0.00    -0.019 C 
HETATM   18  C9  UNL     1      44.628   3.445   9.608  1.00  0.00    -0.011 C 
BRANCH  18  19
HETATM   19  C8  UNL     1      45.555   4.591   9.848  1.00  0.00     0.149 C 
BRANCH  19  20
HETATM   20  N3  UNL     1      45.410   5.633   8.889  1.00  0.00    -0.356 N 
HETATM   21  C7  UNL     1      44.748   6.829   9.233  1.00  0.00     0.248 C 
HETATM   22  O2  UNL     1      44.288   6.959  10.393  1.00  0.00    -0.271 OA
ATOM     23  H3  UNL     1      45.787   5.514   7.950  1.00  0.00     0.162 HD
BRANCH  21  24
HETATM   24  C3  UNL     1      44.574   7.943   8.285  1.00  0.00     0.277 C 
BRANCH  24  25
HETATM   25  N1  UNL     1      43.752   8.994   8.850  1.00  0.00    -0.063 N 
ATOM     26  H12 UNL     1      43.725   8.930   9.868  1.00  0.00     0.278 HD
ATOM     27  H11 UNL     1      42.765   8.836   8.649  1.00  0.00     0.278 HD
BRANCH  25  28
HETATM   28  C2  UNL     1      44.161  10.300   8.427  1.00  0.00     0.229 C 
HETATM   29  C1  UNL     1      45.656  10.506   8.594  1.00  0.00     0.034 C 
ENDBRANCH  25  28
ENDBRANCH  24  25
BRANCH  24  30
HETATM   30  C4  UNL     1      43.993   7.475   6.992  1.00  0.00     0.052 C 
BRANCH  30  31
HETATM   31  C5  UNL     1      42.488   7.355   7.077  1.00  0.00     0.102 C 
BRANCH  31  32
HETATM   32  C6  UNL     1      41.942   7.986   5.840  1.00  0.00     0.231 C 
HETATM   33  N2  UNL     1      40.604   7.729   5.440  1.00  0.00    -0.062 NA
HETATM   34  O1  UNL     1      42.635   8.747   5.129  1.00  0.00    -0.277 OA
ENDBRANCH  31  32
ENDBRANCH  30  31
ENDBRANCH  24  30
ENDBRANCH  21  24
ENDBRANCH  19  20
ENDBRANCH  18  19
ENDBRANCH   1  17
BRANCH  13  35
HETATM   35  N4  UNL     1      39.733   2.785   5.086  1.00  0.00    -0.356 N 
HETATM   36  C24 UNL     1      39.673   3.509   3.889  1.00  0.00     0.213 C 
HETATM   37  C25 UNL     1      38.586   3.312   2.901  1.00  0.00     0.117 C 
HETATM   38  O3  UNL     1      40.562   4.358   3.625  1.00  0.00    -0.274 OA
ATOM     39  H4  UNL     1      38.997   2.102   5.268  1.00  0.00     0.162 HD
ENDBRANCH  13  35
TORSDOF 10
ENDMDL
MODEL 5
REMARK VINA RESULT: -7.813731900      2.274      3.280
REMARK  10 active torsions:
REMARK  status: ('A' for Active; 'I' for Inactive)
REMARK    1  A    between atoms: C2_2  and  N1_3 
REMARK    2  A    between atoms: N1_3  and  C3_6 
REMARK    3  A    between atoms: C3_6  and  C4_7 
REMARK    4  A    between atoms: C3_6  and  C7_12 
REMARK    5  A    between atoms: C4_7  and  C5_8 
REMARK    6  A    between atoms: C5_8  and  C6_9 
REMARK       I    between atoms: C7_12  and  N3_14 
REMARK    7  A    between atoms: N3_14  and  C8_16 
REMARK    8  A    between atoms: C8_16  and  C9_17 
REMARK    9  A    between atoms: C10_18  and  C11_19 
REMARK   10  A    between atoms: C23_31  and  N4_32 
REMARK       I    between atoms: N4_32  and  C24_34 
ROOT
HETATM    1  C11 UNL     1      43.375   1.172   9.966  1.00  0.00    -0.022 C 
HETATM    2  C12 UNL     1      44.510   0.198   9.743  1.00  0.00     0.020 C 
HETATM    3  C13 UNL     1      43.048   1.144  11.441  1.00  0.00     0.013 C 
HETATM    4  C14 UNL     1      41.956   2.094  11.802  1.00  0.00     0.002 C 
HETATM    5  C15 UNL     1      41.002   2.362  10.646  1.00  0.00     0.010 C 
HETATM    6  C16 UNL     1      40.864   1.099   9.829  1.00  0.00    -0.035 C 
HETATM    7  C17 UNL     1      40.361   0.036  10.731  1.00  0.00     0.016 C 
HETATM    8  C18 UNL     1      42.157   0.864   9.129  1.00  0.00     0.006 C 
HETATM    9  C19 UNL     1      42.153  -0.477   8.481  1.00  0.00     0.007 C 
HETATM   10  C20 UNL     1      41.109  -0.473   7.410  1.00  0.00     0.012 C 
HETATM   11  C21 UNL     1      39.842   0.211   7.700  1.00  0.00    -0.019 C 
HETATM   12  C22 UNL     1      38.759  -0.830   8.010  1.00  0.00     0.018 C 
HETATM   13  C23 UNL     1      39.365   0.946   6.463  1.00  0.00     0.093 C 
HETATM   14  C26 UNL     1      38.982   2.331   6.846  1.00  0.00     0.026 C 
HETATM   15  C27 UNL     1      39.855   2.601   8.057  1.00  0.00     0.008 C 
HETATM   16  C28 UNL     1      39.833   1.273   8.731  1.00  0.00     0.004 C 
ENDROOT
BRANCH   1  17
HETATM   17  C10 UNL     1      43.878   2.529   9.641  1.00  0.00    -0.019 C 
HETATM   18  C9  UNL     1      44.827   3.192  10.230  1.00  0.00    -0.011 C 
BRANCH  18  19
HETATM   19  C8  UNL     1      45.270   4.561   9.831  1.00  0.00     0.149 C 
BRANCH  19  20
HETATM   20  N3  UNL     1      44.608   5.042   8.666  1.00  0.00    -0.356 N 
HETATM   21  C7  UNL     1      43.543   5.958   8.779  1.00  0.00     0.248 C 
HETATM   22  O2  UNL     1      43.187   6.340   9.920  1.00  0.00    -0.271 OA
ATOM     23  H3  UNL     1      44.907   4.722   7.745  1.00  0.00     0.162 HD
BRANCH  21  24
HETATM   24  C3  UNL     1      42.827   6.494   7.609  1.00  0.00     0.277 C 
BRANCH  24  25
HETATM   25  N1  UNL     1      42.352   7.841   7.853  1.00  0.00    -0.063 N 
ATOM     26  H12 UNL     1      42.417   8.079   8.843  1.00  0.00     0.278 HD
ATOM     27  H11 UNL     1      41.340   7.900   7.736  1.00  0.00     0.278 HD
BRANCH  25  28
HETATM   28  C2  UNL     1      43.021   8.816   7.044  1.00  0.00     0.229 C 
HETATM   29  C1  UNL     1      42.748   8.606   5.565  1.00  0.00     0.034 C 
ENDBRANCH  25  28
ENDBRANCH  24  25
BRANCH  24  30
HETATM   30  C4  UNL     1      41.691   5.612   7.212  1.00  0.00     0.052 C 
BRANCH  30  31
HETATM   31  C5  UNL     1      42.079   4.695   6.073  1.00  0.00     0.102 C 
BRANCH  31  32
HETATM   32  C6  UNL     1      41.205   5.059   4.920  1.00  0.00     0.231 C 
HETATM   33  N2  UNL     1      41.359   4.398   3.673  1.00  0.00    -0.062 NA
HETATM   34  O1  UNL     1      40.324   5.944   5.015  1.00  0.00    -0.277 OA
ENDBRANCH  31  32
ENDBRANCH  30  31
ENDBRANCH  24  30
ENDBRANCH  21  24
ENDBRANCH  19  20
ENDBRANCH  18  19
ENDBRANCH   1  17
BRANCH  13  35
HETATM   35  N4  UNL     1      38.252   0.274   5.827  1.00  0.00    -0.356 N 
HETATM   36  C24 UNL     1      37.836   0.512   4.512  1.00  0.00     0.213 C 
HETATM   37  C25 UNL     1      36.688  -0.202   3.906  1.00  0.00     0.117 C 
HETATM   38  O3  UNL     1      38.446   1.355   3.805  1.00  0.00    -0.274 OA
ATOM     39  H4  UNL     1      37.738  -0.418   6.373  1.00  0.00     0.162 HD
ENDBRANCH  13  35
TORSDOF 10
ENDMDL
