MODEL 1
REMARK VINA RESULT: -8.512719521      0.000      0.000
REMARK  10 active torsions:
REMARK  status: ('A' for Active; 'I' for Inactive)
REMARK    1  A    between atoms: C15_15  and  C16_16 
REMARK    2  A    between atoms: C16_16  and  C17_17 
REMARK    3  A    between atoms: C17_17  and  C18_18 
REMARK    4  A    between atoms: C17_17  and  N1_24 
REMARK    5  A    between atoms: C18_18  and  C19_19 
REMARK    6  A    between atoms: C19_19  and  C20_20 
REMARK    7  A    between atoms: C20_20  and  C21_22 
REMARK       I    between atoms: N1_24  and  C22_26 
REMARK    8  A    between atoms: C22_26  and  C23_28 
REMARK    9  A    between atoms: C23_28  and  N2_29 
REMARK   10  A    between atoms: N2_29  and  N3_31 
ROOT
HETATM    1  C16 UNL     1      45.497   4.345   9.569  1.00  0.00     0.052 C 
ENDROOT
BRANCH   1   2
HETATM    2  C15 UNL     1      44.080   4.198   9.958  1.00  0.00    -0.022 C 
HETATM    3  C14 UNL     1      43.587   3.150  10.597  1.00  0.00    -0.079 C 
HETATM    4  C13 UNL     1      44.428   1.976  11.012  1.00  0.00     0.034 C 
HETATM    5  C24 UNL     1      42.179   2.943  10.956  1.00  0.00     0.019 C 
HETATM    6  C12 UNL     1      43.495   1.144  11.838  1.00  0.00     0.010 C 
HETATM    7  C11 UNL     1      42.106   1.471  11.388  1.00  0.00    -0.002 C 
HETATM    8  C10 UNL     1      41.633   0.679  10.217  1.00  0.00    -0.005 C 
HETATM    9  C9  UNL     1      42.389  -0.564   9.927  1.00  0.00     0.006 C 
HETATM   10  C26 UNL     1      41.857   1.624   9.074  1.00  0.00    -0.001 C 
HETATM   11  C8  UNL     1      42.077  -1.144   8.596  1.00  0.00     0.006 C 
HETATM   12  C7  UNL     1      41.825  -0.186   7.487  1.00  0.00    -0.002 C 
HETATM   13  C5  UNL     1      41.147   1.100   7.874  1.00  0.00    -0.036 C 
HETATM   14  C27 UNL     1      41.011  -0.932   6.436  1.00  0.00     0.038 C 
HETATM   15  C4  UNL     1      39.668   0.992   7.992  1.00  0.00     0.014 C 
HETATM   16  C6  UNL     1      41.436   2.093   6.736  1.00  0.00     0.016 C 
HETATM   17  C3  UNL     1      39.087  -0.374   7.992  1.00  0.00     0.034 C 
HETATM   18  C2  UNL     1      39.686  -1.316   7.029  1.00  0.00    -0.089 C 
HETATM   19  C1  UNL     1      39.151  -2.451   6.643  1.00  0.00     0.014 C 
HETATM   20  C25 UNL     1      41.403   2.931   9.622  1.00  0.00     0.015 C 
ENDBRANCH   1   2
BRANCH   1  21
HETATM   21  C17 UNL     1      46.013   5.743   9.520  1.00  0.00     0.088 C 
BRANCH  21  22
HETATM   22  C18 UNL     1      46.834   5.961  10.808  1.00  0.00     0.033 C 
BRANCH  22  23
HETATM   23  C19 UNL     1      47.298   7.375  10.950  1.00  0.00     0.081 C 
BRANCH  23  24
HETATM   24  C20 UNL     1      46.485   7.989  12.041  1.00  0.00     0.137 C 
HETATM   25  O1  UNL     1      45.514   8.646  11.638  1.00  0.00    -0.297 OA
BRANCH  24  26
HETATM   26  C21 UNL     1      46.772   7.861  13.485  1.00  0.00     0.164 C 
HETATM   27  S1  UNL     1      48.591   7.872  13.688  1.00  0.00    -0.090 SA
ENDBRANCH  24  26
ENDBRANCH  23  24
ENDBRANCH  22  23
ENDBRANCH  21  22
BRANCH  21  28
HETATM   28  N1  UNL     1      44.952   6.751   9.505  1.00  0.00    -0.355 N 
HETATM   29  C22 UNL     1      44.642   7.454   8.298  1.00  0.00     0.237 C 
HETATM   30  O2  UNL     1      45.270   7.206   7.264  1.00  0.00    -0.272 OA
ATOM     31  H1  UNL     1      44.431   6.953  10.359  1.00  0.00     0.162 HD
BRANCH  29  32
HETATM   32  C23 UNL     1      43.535   8.476   8.382  1.00  0.00     0.243 C 
BRANCH  32  33
HETATM   33  N2  UNL     1      44.058   9.699   8.978  1.00  0.00    -0.314 N 
ATOM     34  H2  UNL     1      43.454  10.312   9.525  1.00  0.00     0.182 HD
BRANCH  33  35
HETATM   35  N3  UNL     1      45.387  10.007   8.784  1.00  0.00    -0.253 N 
HETATM   36  N4  UNL     1      45.956  10.762   9.614  1.00  0.00    -0.331 N 
ATOM     37  H42 UNL     1      45.431  11.130  10.407  1.00  0.00     0.178 HD
ATOM     38  H41 UNL     1      46.940  10.989   9.471  1.00  0.00     0.178 HD
ATOM     39  H3  UNL     1      45.898   9.631   7.985  1.00  0.00     0.207 HD
ENDBRANCH  33  35
ENDBRANCH  32  33
ENDBRANCH  29  32
ENDBRANCH  21  28
ENDBRANCH   1  21
TORSDOF 10
ENDMDL
MODEL 2
REMARK VINA RESULT: -8.434749389      3.102      4.704
REMARK  10 active torsions:
REMARK  status: ('A' for Active; 'I' for Inactive)
REMARK    1  A    between atoms: C15_15  and  C16_16 
REMARK    2  A    between atoms: C16_16  and  C17_17 
REMARK    3  A    between atoms: C17_17  and  C18_18 
REMARK    4  A    between atoms: C17_17  and  N1_24 
REMARK    5  A    between atoms: C18_18  and  C19_19 
REMARK    6  A    between atoms: C19_19  and  C20_20 
REMARK    7  A    between atoms: C20_20  and  C21_22 
REMARK       I    between atoms: N1_24  and  C22_26 
REMARK    8  A    between atoms: C22_26  and  C23_28 
REMARK    9  A    between atoms: C23_28  and  N2_29 
REMARK   10  A    between atoms: N2_29  and  N3_31 
ROOT
HETATM    1  C16 UNL     1      43.407   3.691   9.932  1.00  0.00     0.052 C 
ENDROOT
BRANCH   1   2
HETATM    2  C15 UNL     1      42.215   3.022  10.492  1.00  0.00    -0.022 C 
HETATM    3  C14 UNL     1      42.010   1.716  10.460  1.00  0.00    -0.079 C 
HETATM    4  C13 UNL     1      42.985   0.749   9.851  1.00  0.00     0.034 C 
HETATM    5  C24 UNL     1      40.818   1.017  10.957  1.00  0.00     0.019 C 
HETATM    6  C12 UNL     1      42.423  -0.595  10.202  1.00  0.00     0.010 C 
HETATM    7  C11 UNL     1      40.953  -0.410  10.408  1.00  0.00    -0.002 C 
HETATM    8  C10 UNL     1      40.138  -0.494   9.162  1.00  0.00    -0.005 C 
HETATM    9  C9  UNL     1      40.796  -1.140   8.000  1.00  0.00     0.006 C 
HETATM   10  C26 UNL     1      39.922   0.950   8.817  1.00  0.00    -0.001 C 
HETATM   11  C8  UNL     1      40.070  -0.927   6.722  1.00  0.00     0.006 C 
HETATM   12  C7  UNL     1      39.419   0.395   6.530  1.00  0.00    -0.002 C 
HETATM   13  C5  UNL     1      38.866   1.039   7.772  1.00  0.00    -0.036 C 
HETATM   14  C27 UNL     1      38.323   0.200   5.488  1.00  0.00     0.038 C 
HETATM   15  C4  UNL     1      37.521   0.539   8.165  1.00  0.00     0.014 C 
HETATM   16  C6  UNL     1      38.711   2.533   7.444  1.00  0.00     0.016 C 
HETATM   17  C3  UNL     1      37.027  -0.683   7.482  1.00  0.00     0.034 C 
HETATM   18  C2  UNL     1      37.296  -0.749   6.033  1.00  0.00    -0.089 C 
HETATM   19  C1  UNL     1      36.704  -1.560   5.187  1.00  0.00     0.014 C 
HETATM   20  C25 UNL     1      39.634   1.573  10.138  1.00  0.00     0.015 C 
ENDBRANCH   1   2
BRANCH   1  21
HETATM   21  C17 UNL     1      43.170   5.030   9.321  1.00  0.00     0.088 C 
BRANCH  21  22
HETATM   22  C18 UNL     1      42.131   4.830   8.197  1.00  0.00     0.033 C 
BRANCH  22  23
HETATM   23  C19 UNL     1      42.567   3.804   7.201  1.00  0.00     0.081 C 
BRANCH  23  24
HETATM   24  C20 UNL     1      41.830   4.093   5.935  1.00  0.00     0.137 C 
HETATM   25  O1  UNL     1      41.588   3.086   5.252  1.00  0.00    -0.297 OA
BRANCH  24  26
HETATM   26  C21 UNL     1      41.411   5.437   5.487  1.00  0.00     0.164 C 
HETATM   27  S1  UNL     1      39.587   5.426   5.337  1.00  0.00    -0.090 SA
ENDBRANCH  24  26
ENDBRANCH  23  24
ENDBRANCH  22  23
ENDBRANCH  21  22
BRANCH  21  28
HETATM   28  N1  UNL     1      44.367   5.606   8.709  1.00  0.00    -0.355 N 
HETATM   29  C22 UNL     1      45.160   6.555   9.429  1.00  0.00     0.237 C 
HETATM   30  O2  UNL     1      44.833   6.886  10.573  1.00  0.00    -0.272 OA
ATOM     31  H1  UNL     1      44.638   5.330   7.764  1.00  0.00     0.162 HD
BRANCH  29  32
HETATM   32  C23 UNL     1      46.373   7.097   8.713  1.00  0.00     0.243 C 
BRANCH  32  33
HETATM   33  N2  UNL     1      47.526   6.263   9.027  1.00  0.00    -0.314 N 
ATOM     34  H2  UNL     1      48.454   6.504   8.679  1.00  0.00     0.182 HD
BRANCH  33  35
HETATM   35  N3  UNL     1      47.333   5.142   9.805  1.00  0.00    -0.253 N 
HETATM   36  N4  UNL     1      47.463   4.011   9.271  1.00  0.00    -0.331 N 
ATOM     37  H42 UNL     1      47.706   3.942   8.283  1.00  0.00     0.178 HD
ATOM     38  H41 UNL     1      47.320   3.181   9.846  1.00  0.00     0.178 HD
ATOM     39  H3  UNL     1      47.089   5.228  10.791  1.00  0.00     0.207 HD
ENDBRANCH  33  35
ENDBRANCH  32  33
ENDBRANCH  29  32
ENDBRANCH  21  28
ENDBRANCH   1  21
TORSDOF 10
ENDMDL
MODEL 3
REMARK VINA RESULT: -8.426985689      1.184      1.391
REMARK  10 active torsions:
REMARK  status: ('A' for Active; 'I' for Inactive)
REMARK    1  A    between atoms: C15_15  and  C16_16 
REMARK    2  A    between atoms: C16_16  and  C17_17 
REMARK    3  A    between atoms: C17_17  and  C18_18 
REMARK    4  A    between atoms: C17_17  and  N1_24 
REMARK    5  A    between atoms: C18_18  and  C19_19 
REMARK    6  A    between atoms: C19_19  and  C20_20 
REMARK    7  A    between atoms: C20_20  and  C21_22 
REMARK       I    between atoms: N1_24  and  C22_26 
REMARK    8  A    between atoms: C22_26  and  C23_28 
REMARK    9  A    between atoms: C23_28  and  N2_29 
REMARK   10  A    between atoms: N2_29  and  N3_31 
ROOT
HETATM    1  C16 UNL     1      45.627   4.321   9.531  1.00  0.00     0.052 C 
ENDROOT
BRANCH   1   2
HETATM    2  C15 UNL     1      44.197   4.231   9.889  1.00  0.00    -0.022 C 
HETATM    3  C14 UNL     1      43.655   3.220  10.547  1.00  0.00    -0.079 C 
HETATM    4  C13 UNL     1      44.447   2.034  11.020  1.00  0.00     0.034 C 
HETATM    5  C24 UNL     1      42.232   3.068  10.876  1.00  0.00     0.019 C 
HETATM    6  C12 UNL     1      43.468   1.258  11.848  1.00  0.00     0.010 C 
HETATM    7  C11 UNL     1      42.102   1.614  11.352  1.00  0.00    -0.002 C 
HETATM    8  C10 UNL     1      41.633   0.800  10.195  1.00  0.00    -0.005 C 
HETATM    9  C9  UNL     1      42.356  -0.475   9.964  1.00  0.00     0.006 C 
HETATM   10  C26 UNL     1      41.915   1.700   9.029  1.00  0.00    -0.001 C 
HETATM   11  C8  UNL     1      42.058  -1.087   8.644  1.00  0.00     0.006 C 
HETATM   12  C7  UNL     1      41.865  -0.159   7.500  1.00  0.00    -0.002 C 
HETATM   13  C5  UNL     1      41.219   1.159   7.829  1.00  0.00    -0.036 C 
HETATM   14  C27 UNL     1      41.053  -0.912   6.452  1.00  0.00     0.038 C 
HETATM   15  C4  UNL     1      39.735   1.102   7.911  1.00  0.00     0.014 C 
HETATM   16  C6  UNL     1      41.567   2.106   6.667  1.00  0.00     0.016 C 
HETATM   17  C3  UNL     1      39.110  -0.245   7.940  1.00  0.00     0.034 C 
HETATM   18  C2  UNL     1      39.702  -1.235   7.022  1.00  0.00    -0.089 C 
HETATM   19  C1  UNL     1      39.141  -2.365   6.658  1.00  0.00     0.014 C 
HETATM   20  C25 UNL     1      41.489   3.038   9.524  1.00  0.00     0.015 C 
ENDBRANCH   1   2
BRANCH   1  21
HETATM   21  C17 UNL     1      46.216   5.690   9.561  1.00  0.00     0.088 C 
BRANCH  21  22
HETATM   22  C18 UNL     1      47.120   5.760  10.810  1.00  0.00     0.033 C 
BRANCH  22  23
HETATM   23  C19 UNL     1      46.664   6.802  11.779  1.00  0.00     0.081 C 
BRANCH  23  24
HETATM   24  C20 UNL     1      47.723   7.854  11.812  1.00  0.00     0.137 C 
HETATM   25  O1  UNL     1      47.834   8.492  10.755  1.00  0.00    -0.297 OA
BRANCH  24  26
HETATM   26  C21 UNL     1      48.593   8.143  12.971  1.00  0.00     0.164 C 
HETATM   27  S1  UNL     1      48.208   6.913  14.270  1.00  0.00    -0.090 SA
ENDBRANCH  24  26
ENDBRANCH  23  24
ENDBRANCH  22  23
ENDBRANCH  21  22
BRANCH  21  28
HETATM   28  N1  UNL     1      45.214   6.748   9.689  1.00  0.00    -0.355 N 
HETATM   29  C22 UNL     1      44.731   7.428   8.527  1.00  0.00     0.237 C 
HETATM   30  O2  UNL     1      45.159   7.119   7.412  1.00  0.00    -0.272 OA
ATOM     31  H1  UNL     1      44.858   7.001  10.612  1.00  0.00     0.162 HD
BRANCH  29  32
HETATM   32  C23 UNL     1      43.701   8.507   8.761  1.00  0.00     0.243 C 
BRANCH  32  33
HETATM   33  N2  UNL     1      42.657   8.399   7.750  1.00  0.00    -0.314 N 
ATOM     34  H2  UNL     1      41.779   7.922   7.955  1.00  0.00     0.182 HD
BRANCH  33  35
HETATM   35  N3  UNL     1      42.885   8.955   6.510  1.00  0.00    -0.253 N 
HETATM   36  N4  UNL     1      42.869   8.203   5.502  1.00  0.00    -0.331 N 
ATOM     37  H42 UNL     1      42.691   7.206   5.617  1.00  0.00     0.178 HD
ATOM     38  H41 UNL     1      43.037   8.615   4.584  1.00  0.00     0.178 HD
ATOM     39  H3  UNL     1      43.062   9.955   6.412  1.00  0.00     0.207 HD
ENDBRANCH  33  35
ENDBRANCH  32  33
ENDBRANCH  29  32
ENDBRANCH  21  28
ENDBRANCH   1  21
TORSDOF 10
ENDMDL
MODEL 4
REMARK VINA RESULT: -8.279014800      1.445      1.687
REMARK  10 active torsions:
REMARK  status: ('A' for Active; 'I' for Inactive)
REMARK    1  A    between atoms: C15_15  and  C16_16 
REMARK    2  A    between atoms: C16_16  and  C17_17 
REMARK    3  A    between atoms: C17_17  and  C18_18 
REMARK    4  A    between atoms: C17_17  and  N1_24 
REMARK    5  A    between atoms: C18_18  and  C19_19 
REMARK    6  A    between atoms: C19_19  and  C20_20 
REMARK    7  A    between atoms: C20_20  and  C21_22 
REMARK       I    between atoms: N1_24  and  C22_26 
REMARK    8  A    between atoms: C22_26  and  C23_28 
REMARK    9  A    between atoms: C23_28  and  N2_29 
REMARK   10  A    between atoms: N2_29  and  N3_31 
ROOT
HETATM    1  C16 UNL     1      45.591   4.310   9.515  1.00  0.00     0.052 C 
ENDROOT
BRANCH   1   2
HETATM    2  C15 UNL     1      44.182   4.179   9.939  1.00  0.00    -0.022 C 
HETATM    3  C14 UNL     1      43.693   3.135  10.587  1.00  0.00    -0.079 C 
HETATM    4  C13 UNL     1      44.530   1.951  10.980  1.00  0.00     0.034 C 
HETATM    5  C24 UNL     1      42.291   2.943  10.980  1.00  0.00     0.019 C 
HETATM    6  C12 UNL     1      43.607   1.127  11.827  1.00  0.00     0.010 C 
HETATM    7  C11 UNL     1      42.212   1.471  11.411  1.00  0.00    -0.002 C 
HETATM    8  C10 UNL     1      41.702   0.687  10.250  1.00  0.00    -0.005 C 
HETATM    9  C9  UNL     1      42.436  -0.564   9.941  1.00  0.00     0.006 C 
HETATM   10  C26 UNL     1      41.909   1.632   9.104  1.00  0.00    -0.001 C 
HETATM   11  C8  UNL     1      42.085  -1.137   8.616  1.00  0.00     0.006 C 
HETATM   12  C7  UNL     1      41.818  -0.175   7.516  1.00  0.00    -0.002 C 
HETATM   13  C5  UNL     1      41.164   1.118   7.921  1.00  0.00    -0.036 C 
HETATM   14  C27 UNL     1      40.970  -0.909   6.483  1.00  0.00     0.038 C 
HETATM   15  C4  UNL     1      39.687   1.027   8.074  1.00  0.00     0.014 C 
HETATM   16  C6  UNL     1      41.437   2.110   6.778  1.00  0.00     0.016 C 
HETATM   17  C3  UNL     1      39.090  -0.333   8.086  1.00  0.00     0.034 C 
HETATM   18  C2  UNL     1      39.655  -1.279   7.107  1.00  0.00    -0.089 C 
HETATM   19  C1  UNL     1      39.098  -2.407   6.732  1.00  0.00     0.014 C 
HETATM   20  C25 UNL     1      41.483   2.943   9.665  1.00  0.00     0.015 C 
ENDBRANCH   1   2
BRANCH   1  21
HETATM   21  C17 UNL     1      46.126   5.701   9.474  1.00  0.00     0.088 C 
BRANCH  21  22
HETATM   22  C18 UNL     1      47.075   5.850  10.682  1.00  0.00     0.033 C 
BRANCH  22  23
HETATM   23  C19 UNL     1      46.634   6.930  11.617  1.00  0.00     0.081 C 
BRANCH  23  24
HETATM   24  C20 UNL     1      47.661   8.012  11.541  1.00  0.00     0.137 C 
HETATM   25  O1  UNL     1      48.453   8.023  12.495  1.00  0.00    -0.297 OA
BRANCH  24  26
HETATM   26  C21 UNL     1      47.761   9.007  10.454  1.00  0.00     0.164 C 
HETATM   27  S1  UNL     1      46.337  10.146  10.614  1.00  0.00    -0.090 SA
ENDBRANCH  24  26
ENDBRANCH  23  24
ENDBRANCH  22  23
ENDBRANCH  21  22
BRANCH  21  28
HETATM   28  N1  UNL     1      45.089   6.724   9.606  1.00  0.00    -0.355 N 
HETATM   29  C22 UNL     1      44.589   7.398   8.448  1.00  0.00     0.237 C 
HETATM   30  O2  UNL     1      45.032   7.112   7.331  1.00  0.00    -0.272 OA
ATOM     31  H1  UNL     1      44.721   6.958  10.529  1.00  0.00     0.162 HD
BRANCH  29  32
HETATM   32  C23 UNL     1      43.524   8.440   8.685  1.00  0.00     0.243 C 
BRANCH  32  33
HETATM   33  N2  UNL     1      42.555   8.391   7.597  1.00  0.00    -0.314 N 
ATOM     34  H2  UNL     1      41.657   7.924   7.719  1.00  0.00     0.182 HD
BRANCH  33  35
HETATM   35  N3  UNL     1      42.882   8.990   6.400  1.00  0.00    -0.253 N 
HETATM   36  N4  UNL     1      42.879   8.289   5.356  1.00  0.00    -0.331 N 
ATOM     37  H42 UNL     1      42.637   7.299   5.412  1.00  0.00     0.178 HD
ATOM     38  H41 UNL     1      43.120   8.732   4.471  1.00  0.00     0.178 HD
ATOM     39  H3  UNL     1      43.122   9.981   6.362  1.00  0.00     0.207 HD
ENDBRANCH  33  35
ENDBRANCH  32  33
ENDBRANCH  29  32
ENDBRANCH  21  28
ENDBRANCH   1  21
TORSDOF 10
ENDMDL
MODEL 5
REMARK VINA RESULT: -8.247349552      0.998      1.059
REMARK  10 active torsions:
REMARK  status: ('A' for Active; 'I' for Inactive)
REMARK    1  A    between atoms: C15_15  and  C16_16 
REMARK    2  A    between atoms: C16_16  and  C17_17 
REMARK    3  A    between atoms: C17_17  and  C18_18 
REMARK    4  A    between atoms: C17_17  and  N1_24 
REMARK    5  A    between atoms: C18_18  and  C19_19 
REMARK    6  A    between atoms: C19_19  and  C20_20 
REMARK    7  A    between atoms: C20_20  and  C21_22 
REMARK       I    between atoms: N1_24  and  C22_26 
REMARK    8  A    between atoms: C22_26  and  C23_28 
REMARK    9  A    between atoms: C23_28  and  N2_29 
REMARK   10  A    between atoms: N2_29  and  N3_31 
ROOT
HETATM    1  C16 UNL     1      45.429   4.456   9.503  1.00  0.00     0.052 C 
ENDROOT
BRANCH   1   2
HETATM    2  C15 UNL     1      44.028   4.265   9.931  1.00  0.00    -0.022 C 
HETATM    3  C14 UNL     1      43.583   3.197  10.572  1.00  0.00    -0.079 C 
HETATM    4  C13 UNL     1      44.468   2.044  10.953  1.00  0.00     0.034 C 
HETATM    5  C24 UNL     1      42.191   2.945  10.968  1.00  0.00     0.019 C 
HETATM    6  C12 UNL     1      43.583   1.178  11.796  1.00  0.00     0.010 C 
HETATM    7  C11 UNL     1      42.174   1.469  11.387  1.00  0.00    -0.002 C 
HETATM    8  C10 UNL     1      41.691   0.674  10.222  1.00  0.00    -0.005 C 
HETATM    9  C9  UNL     1      42.474  -0.544   9.900  1.00  0.00     0.006 C 
HETATM   10  C26 UNL     1      41.856   1.635   9.082  1.00  0.00    -0.001 C 
HETATM   11  C8  UNL     1      42.142  -1.121   8.572  1.00  0.00     0.006 C 
HETATM   12  C7  UNL     1      41.832  -0.161   7.480  1.00  0.00    -0.002 C 
HETATM   13  C5  UNL     1      41.129   1.101   7.898  1.00  0.00    -0.036 C 
HETATM   14  C27 UNL     1      41.010  -0.921   6.444  1.00  0.00     0.038 C 
HETATM   15  C4  UNL     1      39.657   0.949   8.055  1.00  0.00     0.014 C 
HETATM   16  C6  UNL     1      41.357   2.112   6.762  1.00  0.00     0.016 C 
HETATM   17  C3  UNL     1      39.115  -0.433   8.058  1.00  0.00     0.034 C 
HETATM   18  C2  UNL     1      39.714  -1.348   7.070  1.00  0.00    -0.089 C 
HETATM   19  C1  UNL     1      39.201  -2.495   6.687  1.00  0.00     0.014 C 
HETATM   20  C25 UNL     1      41.380   2.924   9.656  1.00  0.00     0.015 C 
ENDBRANCH   1   2
BRANCH   1  21
HETATM   21  C17 UNL     1      45.881   5.872   9.385  1.00  0.00     0.088 C 
BRANCH  21  22
HETATM   22  C18 UNL     1      46.711   6.182  10.648  1.00  0.00     0.033 C 
BRANCH  22  23
HETATM   23  C19 UNL     1      46.017   7.143  11.559  1.00  0.00     0.081 C 
BRANCH  23  24
HETATM   24  C20 UNL     1      46.482   8.510  11.180  1.00  0.00     0.137 C 
HETATM   25  O1  UNL     1      45.570   9.345  11.088  1.00  0.00    -0.297 OA
BRANCH  24  26
HETATM   26  C21 UNL     1      47.887   8.884  10.920  1.00  0.00     0.164 C 
HETATM   27  S1  UNL     1      48.081   9.079   9.111  1.00  0.00    -0.090 SA
ENDBRANCH  24  26
ENDBRANCH  23  24
ENDBRANCH  22  23
ENDBRANCH  21  22
BRANCH  21  28
HETATM   28  N1  UNL     1      44.776   6.830   9.344  1.00  0.00    -0.355 N 
HETATM   29  C22 UNL     1      44.429   7.477   8.117  1.00  0.00     0.237 C 
HETATM   30  O2  UNL     1      45.062   7.223   7.088  1.00  0.00    -0.272 OA
ATOM     31  H1  UNL     1      44.252   7.037  10.195  1.00  0.00     0.162 HD
BRANCH  29  32
HETATM   32  C23 UNL     1      43.278   8.453   8.175  1.00  0.00     0.243 C 
BRANCH  32  33
HETATM   33  N2  UNL     1      43.730   9.689   8.801  1.00  0.00    -0.314 N 
ATOM     34  H2  UNL     1      43.219  10.093   9.586  1.00  0.00     0.182 HD
BRANCH  33  35
HETATM   35  N3  UNL     1      44.862  10.298   8.307  1.00  0.00    -0.253 N 
HETATM   36  N4  UNL     1      45.261  11.359   8.854  1.00  0.00    -0.331 N 
ATOM     37  H42 UNL     1      44.745  11.745   9.645  1.00  0.00     0.178 HD
ATOM     38  H41 UNL     1      46.099  11.810   8.489  1.00  0.00     0.178 HD
ATOM     39  H3  UNL     1      45.366   9.899   7.515  1.00  0.00     0.207 HD
ENDBRANCH  33  35
ENDBRANCH  32  33
ENDBRANCH  29  32
ENDBRANCH  21  28
ENDBRANCH   1  21
TORSDOF 10
ENDMDL
