MODEL 1
REMARK VINA RESULT: -7.445223301      0.000      0.000
REMARK  10 active torsions:
REMARK  status: ('A' for Active; 'I' for Inactive)
REMARK    1  A    between atoms: C2_2  and  C3_3 
REMARK    2  A    between atoms: C3_3  and  C4_4 
REMARK    3  A    between atoms: C4_4  and  C5_5 
REMARK    4  A    between atoms: C4_4  and  N2_9 
REMARK    5  A    between atoms: C5_5  and  N1_6 
REMARK    6  A    between atoms: C7_11  and  C8_12 
REMARK    7  A    between atoms: C8_12  and  C9_13 
REMARK    8  A    between atoms: C9_13  and  C11_15 
REMARK    9  A    between atoms: C17_21  and  O1_22 
REMARK   10  A    between atoms: C24_30  and  O2_31 
ROOT
HETATM    1  C11 UNL     1      24.232   2.658  60.281  1.00  0.00    -0.005 C 
HETATM    2  C12 UNL     1      23.647   2.763  61.676  1.00  0.00     0.006 C 
HETATM    3  C13 UNL     1      24.352   1.591  62.338  1.00  0.00     0.010 C 
HETATM    4  C14 UNL     1      24.609   0.598  61.198  1.00  0.00    -0.037 C 
HETATM    5  C15 UNL     1      26.110   0.634  60.940  1.00  0.00     0.015 C 
HETATM    6  C16 UNL     1      24.237  -0.789  61.524  1.00  0.00     0.041 C 
HETATM    7  C17 UNL     1      22.981  -1.292  60.849  1.00  0.00     0.124 C 
HETATM    8  C18 UNL     1      22.007  -0.120  60.895  1.00  0.00     0.027 C 
HETATM    9  C19 UNL     1      22.518   0.842  59.817  1.00  0.00    -0.002 C 
HETATM   10  C20 UNL     1      22.319   0.222  58.454  1.00  0.00     0.006 C 
HETATM   11  C21 UNL     1      21.075  -0.549  58.253  1.00  0.00     0.006 C 
HETATM   12  C22 UNL     1      20.650  -1.434  59.373  1.00  0.00    -0.004 C 
HETATM   13  C23 UNL     1      19.286  -1.985  59.143  1.00  0.00     0.037 C 
HETATM   14  C24 UNL     1      18.204  -0.964  59.033  1.00  0.00     0.118 C 
HETATM   15  C25 UNL     1      18.285   0.126  60.069  1.00  0.00     0.032 C 
HETATM   16  C26 UNL     1      19.679   0.556  60.381  1.00  0.00     0.012 C 
HETATM   17  C27 UNL     1      20.614  -0.582  60.622  1.00  0.00    -0.034 C 
HETATM   18  C28 UNL     1      20.129  -1.344  61.831  1.00  0.00     0.016 C 
HETATM   19  C29 UNL     1      23.953   1.201  59.978  1.00  0.00     0.003 C 
ENDROOT
BRANCH   1  20
HETATM   20  C9  UNL     1      23.742   3.656  59.333  1.00  0.00    -0.010 C 
HETATM   21  C10 UNL     1      24.355   5.006  59.679  1.00  0.00     0.010 C 
BRANCH  20  22
HETATM   22  C8  UNL     1      24.123   3.344  57.916  1.00  0.00     0.049 C 
BRANCH  22  23
HETATM   23  C7  UNL     1      22.965   3.305  57.007  1.00  0.00     0.056 C 
HETATM   24  N2  UNL     1      21.796   3.419  57.483  1.00  0.00    -0.393 N 
ATOM     25  H2  UNL     1      21.713   3.534  58.493  1.00  0.00     0.159 HD
BRANCH  24  26
HETATM   26  C4  UNL     1      20.575   3.399  56.717  1.00  0.00     0.118 C 
BRANCH  26  27
HETATM   27  C3  UNL     1      19.469   2.816  57.504  1.00  0.00     0.030 C 
BRANCH  27  28
HETATM   28  C2  UNL     1      18.421   2.248  56.542  1.00  0.00    -0.002 C 
HETATM   29  C1  UNL     1      19.050   1.054  55.856  1.00  0.00     0.005 C 
ENDBRANCH  27  28
ENDBRANCH  26  27
BRANCH  26  30
HETATM   30  C5  UNL     1      20.327   4.698  56.053  1.00  0.00     0.080 C 
BRANCH  30  31
HETATM   31  N1  UNL     1      20.441   4.836  54.677  1.00  0.00    -0.405 N 
HETATM   32  C6  UNL     1      20.553   3.753  53.786  1.00  0.00     0.145 C 
ATOM     33  H1  UNL     1      20.443   5.779  54.288  1.00  0.00     0.158 HD
ENDBRANCH  30  31
ENDBRANCH  26  30
ENDBRANCH  24  26
ENDBRANCH  22  23
ENDBRANCH  20  22
ENDBRANCH   1  20
BRANCH   7  34
HETATM   34  O1  UNL     1      22.548  -2.383  61.577  1.00  0.00    -0.395 OA
ATOM     35  H1  UNL     1      22.679  -2.171  62.493  1.00  0.00     0.210 HD
ENDBRANCH   7  34
BRANCH  14  36
HETATM   36  O2  UNL     1      16.976  -1.599  59.215  1.00  0.00    -0.396 OA
ATOM     37  H2  UNL     1      16.686  -1.447  60.107  1.00  0.00     0.210 HD
ENDBRANCH  14  36
TORSDOF 10
ENDMDL
MODEL 2
REMARK VINA RESULT: -7.430169899      0.886      1.096
REMARK  10 active torsions:
REMARK  status: ('A' for Active; 'I' for Inactive)
REMARK    1  A    between atoms: C2_2  and  C3_3 
REMARK    2  A    between atoms: C3_3  and  C4_4 
REMARK    3  A    between atoms: C4_4  and  C5_5 
REMARK    4  A    between atoms: C4_4  and  N2_9 
REMARK    5  A    between atoms: C5_5  and  N1_6 
REMARK    6  A    between atoms: C7_11  and  C8_12 
REMARK    7  A    between atoms: C8_12  and  C9_13 
REMARK    8  A    between atoms: C9_13  and  C11_15 
REMARK    9  A    between atoms: C17_21  and  O1_22 
REMARK   10  A    between atoms: C24_30  and  O2_31 
ROOT
HETATM    1  C11 UNL     1      24.347   2.766  60.427  1.00  0.00    -0.005 C 
HETATM    2  C12 UNL     1      23.767   2.806  61.827  1.00  0.00     0.006 C 
HETATM    3  C13 UNL     1      24.427   1.571  62.415  1.00  0.00     0.010 C 
HETATM    4  C14 UNL     1      24.646   0.640  61.215  1.00  0.00    -0.037 C 
HETATM    5  C15 UNL     1      26.148   0.636  60.957  1.00  0.00     0.015 C 
HETATM    6  C16 UNL     1      24.222  -0.749  61.456  1.00  0.00     0.041 C 
HETATM    7  C17 UNL     1      22.948  -1.162  60.754  1.00  0.00     0.124 C 
HETATM    8  C18 UNL     1      22.019   0.041  60.873  1.00  0.00     0.027 C 
HETATM    9  C19 UNL     1      22.567   1.048  59.856  1.00  0.00    -0.002 C 
HETATM   10  C20 UNL     1      22.345   0.520  58.457  1.00  0.00     0.006 C 
HETATM   11  C21 UNL     1      21.074  -0.189  58.211  1.00  0.00     0.006 C 
HETATM   12  C22 UNL     1      20.615  -1.125  59.276  1.00  0.00    -0.004 C 
HETATM   13  C23 UNL     1      19.231  -1.609  59.015  1.00  0.00     0.037 C 
HETATM   14  C24 UNL     1      18.189  -0.543  58.970  1.00  0.00     0.118 C 
HETATM   15  C25 UNL     1      18.310   0.476  60.070  1.00  0.00     0.032 C 
HETATM   16  C26 UNL     1      19.719   0.834  60.405  1.00  0.00     0.012 C 
HETATM   17  C27 UNL     1      20.610  -0.351  60.574  1.00  0.00    -0.034 C 
HETATM   18  C28 UNL     1      20.096  -1.167  61.735  1.00  0.00     0.016 C 
HETATM   19  C29 UNL     1      24.014   1.342  60.036  1.00  0.00     0.003 C 
ENDROOT
BRANCH   1  20
HETATM   20  C9  UNL     1      23.896   3.838  59.543  1.00  0.00    -0.010 C 
HETATM   21  C10 UNL     1      24.464   5.159  60.042  1.00  0.00     0.010 C 
BRANCH  20  22
HETATM   22  C8  UNL     1      24.363   3.657  58.129  1.00  0.00     0.049 C 
BRANCH  22  23
HETATM   23  C7  UNL     1      23.299   3.893  57.140  1.00  0.00     0.056 C 
HETATM   24  N2  UNL     1      22.104   4.040  57.535  1.00  0.00    -0.393 N 
ATOM     25  H2  UNL     1      21.934   3.986  58.539  1.00  0.00     0.159 HD
BRANCH  24  26
HETATM   26  C4  UNL     1      20.964   4.276  56.683  1.00  0.00     0.118 C 
BRANCH  26  27
HETATM   27  C3  UNL     1      19.901   3.284  56.939  1.00  0.00     0.030 C 
BRANCH  27  28
HETATM   28  C2  UNL     1      19.928   2.230  55.827  1.00  0.00    -0.002 C 
HETATM   29  C1  UNL     1      18.618   1.476  55.900  1.00  0.00     0.005 C 
ENDBRANCH  27  28
ENDBRANCH  26  27
BRANCH  26  30
HETATM   30  C5  UNL     1      20.576   5.704  56.677  1.00  0.00     0.080 C 
BRANCH  30  31
HETATM   31  N1  UNL     1      21.309   6.646  55.968  1.00  0.00    -0.405 N 
HETATM   32  C6  UNL     1      22.228   7.533  56.559  1.00  0.00     0.145 C 
ATOM     33  H1  UNL     1      21.173   6.699  54.959  1.00  0.00     0.158 HD
ENDBRANCH  30  31
ENDBRANCH  26  30
ENDBRANCH  24  26
ENDBRANCH  22  23
ENDBRANCH  20  22
ENDBRANCH   1  20
BRANCH   7  34
HETATM   34  O1  UNL     1      22.474  -2.279  61.414  1.00  0.00    -0.395 OA
ATOM     35  H1  UNL     1      22.734  -3.033  60.897  1.00  0.00     0.210 HD
ENDBRANCH   7  34
BRANCH  14  36
HETATM   36  O2  UNL     1      16.937  -1.142  59.114  1.00  0.00    -0.396 OA
ATOM     37  H2  UNL     1      16.301  -0.467  59.319  1.00  0.00     0.210 HD
ENDBRANCH  14  36
TORSDOF 10
ENDMDL
MODEL 3
REMARK VINA RESULT: -7.355601197      1.146      1.982
REMARK  10 active torsions:
REMARK  status: ('A' for Active; 'I' for Inactive)
REMARK    1  A    between atoms: C2_2  and  C3_3 
REMARK    2  A    between atoms: C3_3  and  C4_4 
REMARK    3  A    between atoms: C4_4  and  C5_5 
REMARK    4  A    between atoms: C4_4  and  N2_9 
REMARK    5  A    between atoms: C5_5  and  N1_6 
REMARK    6  A    between atoms: C7_11  and  C8_12 
REMARK    7  A    between atoms: C8_12  and  C9_13 
REMARK    8  A    between atoms: C9_13  and  C11_15 
REMARK    9  A    between atoms: C17_21  and  O1_22 
REMARK   10  A    between atoms: C24_30  and  O2_31 
ROOT
HETATM    1  C11 UNL     1      24.359   2.617  60.537  1.00  0.00    -0.005 C 
HETATM    2  C12 UNL     1      23.794   2.644  61.943  1.00  0.00     0.006 C 
HETATM    3  C13 UNL     1      24.384   1.352  62.482  1.00  0.00     0.010 C 
HETATM    4  C14 UNL     1      24.538   0.452  61.249  1.00  0.00    -0.037 C 
HETATM    5  C15 UNL     1      26.035   0.368  60.975  1.00  0.00     0.015 C 
HETATM    6  C16 UNL     1      24.034  -0.917  61.448  1.00  0.00     0.041 C 
HETATM    7  C17 UNL     1      22.731  -1.230  60.745  1.00  0.00     0.124 C 
HETATM    8  C18 UNL     1      21.877   0.021  60.914  1.00  0.00     0.027 C 
HETATM    9  C19 UNL     1      22.475   1.028  59.926  1.00  0.00    -0.002 C 
HETATM   10  C20 UNL     1      22.210   0.563  58.513  1.00  0.00     0.006 C 
HETATM   11  C21 UNL     1      20.897  -0.062  58.257  1.00  0.00     0.006 C 
HETATM   12  C22 UNL     1      20.392  -1.004  59.294  1.00  0.00    -0.004 C 
HETATM   13  C23 UNL     1      18.980  -1.396  59.031  1.00  0.00     0.037 C 
HETATM   14  C24 UNL     1      18.002  -0.270  59.033  1.00  0.00     0.118 C 
HETATM   15  C25 UNL     1      18.193   0.703  60.166  1.00  0.00     0.032 C 
HETATM   16  C26 UNL     1      19.624   0.965  60.498  1.00  0.00     0.012 C 
HETATM   17  C27 UNL     1      20.444  -0.276  60.618  1.00  0.00    -0.034 C 
HETATM   18  C28 UNL     1      19.893  -1.099  61.756  1.00  0.00     0.016 C 
HETATM   19  C29 UNL     1      23.938   1.229  60.101  1.00  0.00     0.003 C 
ENDROOT
BRANCH   1  20
HETATM   20  C9  UNL     1      23.965   3.744  59.694  1.00  0.00    -0.010 C 
HETATM   21  C10 UNL     1      24.562   5.021  60.269  1.00  0.00     0.010 C 
BRANCH  20  22
HETATM   22  C8  UNL     1      24.463   3.614  58.285  1.00  0.00     0.049 C 
BRANCH  22  23
HETATM   23  C7  UNL     1      23.383   3.692  57.287  1.00  0.00     0.056 C 
HETATM   24  N2  UNL     1      22.467   4.556  57.428  1.00  0.00    -0.393 N 
ATOM     25  H2  UNL     1      22.524   5.168  58.242  1.00  0.00     0.159 HD
BRANCH  24  26
HETATM   26  C4  UNL     1      21.352   4.748  56.533  1.00  0.00     0.118 C 
BRANCH  26  27
HETATM   27  C3  UNL     1      21.039   6.183  56.381  1.00  0.00     0.030 C 
BRANCH  27  28
HETATM   28  C2  UNL     1      22.340   6.986  56.467  1.00  0.00    -0.002 C 
HETATM   29  C1  UNL     1      21.960   8.450  56.416  1.00  0.00     0.005 C 
ENDBRANCH  27  28
ENDBRANCH  26  27
BRANCH  26  30
HETATM   30  C5  UNL     1      21.502   3.948  55.297  1.00  0.00     0.080 C 
BRANCH  30  31
HETATM   31  N1  UNL     1      20.880   4.327  54.115  1.00  0.00    -0.405 N 
HETATM   32  C6  UNL     1      19.959   3.521  53.420  1.00  0.00     0.145 C 
ATOM     33  H1  UNL     1      21.103   5.243  53.728  1.00  0.00     0.158 HD
ENDBRANCH  30  31
ENDBRANCH  26  30
ENDBRANCH  24  26
ENDBRANCH  22  23
ENDBRANCH  20  22
ENDBRANCH   1  20
BRANCH   7  34
HETATM   34  O1  UNL     1      22.198  -2.339  61.372  1.00  0.00    -0.395 OA
ATOM     35  H1  UNL     1      21.557  -2.708  60.776  1.00  0.00     0.210 HD
ENDBRANCH   7  34
BRANCH  14  36
HETATM   36  O2  UNL     1      16.718  -0.798  59.170  1.00  0.00    -0.396 OA
ATOM     37  H2  UNL     1      16.793  -1.706  59.439  1.00  0.00     0.210 HD
ENDBRANCH  14  36
TORSDOF 10
ENDMDL
MODEL 4
REMARK VINA RESULT: -7.330726161      0.902      1.548
REMARK  10 active torsions:
REMARK  status: ('A' for Active; 'I' for Inactive)
REMARK    1  A    between atoms: C2_2  and  C3_3 
REMARK    2  A    between atoms: C3_3  and  C4_4 
REMARK    3  A    between atoms: C4_4  and  C5_5 
REMARK    4  A    between atoms: C4_4  and  N2_9 
REMARK    5  A    between atoms: C5_5  and  N1_6 
REMARK    6  A    between atoms: C7_11  and  C8_12 
REMARK    7  A    between atoms: C8_12  and  C9_13 
REMARK    8  A    between atoms: C9_13  and  C11_15 
REMARK    9  A    between atoms: C17_21  and  O1_22 
REMARK   10  A    between atoms: C24_30  and  O2_31 
ROOT
HETATM    1  C11 UNL     1      24.299   2.712  60.383  1.00  0.00    -0.005 C 
HETATM    2  C12 UNL     1      23.737   2.773  61.790  1.00  0.00     0.006 C 
HETATM    3  C13 UNL     1      24.372   1.522  62.374  1.00  0.00     0.010 C 
HETATM    4  C14 UNL     1      24.552   0.582  61.175  1.00  0.00    -0.037 C 
HETATM    5  C15 UNL     1      26.050   0.538  60.899  1.00  0.00     0.015 C 
HETATM    6  C16 UNL     1      24.094  -0.794  61.427  1.00  0.00     0.041 C 
HETATM    7  C17 UNL     1      22.801  -1.177  60.743  1.00  0.00     0.124 C 
HETATM    8  C18 UNL     1      21.905   0.050  60.868  1.00  0.00     0.027 C 
HETATM    9  C19 UNL     1      22.467   1.039  59.841  1.00  0.00    -0.002 C 
HETATM   10  C20 UNL     1      22.214   0.512  58.447  1.00  0.00     0.006 C 
HETATM   11  C21 UNL     1      20.921  -0.165  58.220  1.00  0.00     0.006 C 
HETATM   12  C22 UNL     1      20.451  -1.084  59.294  1.00  0.00    -0.004 C 
HETATM   13  C23 UNL     1      19.052  -1.533  59.052  1.00  0.00     0.037 C 
HETATM   14  C24 UNL     1      18.037  -0.440  59.015  1.00  0.00     0.118 C 
HETATM   15  C25 UNL     1      18.199   0.580  60.111  1.00  0.00     0.032 C 
HETATM   16  C26 UNL     1      19.622   0.902  60.426  1.00  0.00     0.012 C 
HETATM   17  C27 UNL     1      20.483  -0.305  60.589  1.00  0.00    -0.034 C 
HETATM   18  C28 UNL     1      19.963  -1.103  61.760  1.00  0.00     0.016 C 
HETATM   19  C29 UNL     1      23.923   1.296  60.001  1.00  0.00     0.003 C 
ENDROOT
BRANCH   1  20
HETATM   20  C9  UNL     1      23.864   3.792  59.500  1.00  0.00    -0.010 C 
HETATM   21  C10 UNL     1      24.527   5.088  59.947  1.00  0.00     0.010 C 
BRANCH  20  22
HETATM   22  C8  UNL     1      24.254   3.562  58.070  1.00  0.00     0.049 C 
BRANCH  22  23
HETATM   23  C7  UNL     1      23.142   3.785  57.131  1.00  0.00     0.056 C 
HETATM   24  N2  UNL     1      21.961   3.885  57.578  1.00  0.00    -0.393 N 
ATOM     25  H2  UNL     1      21.835   3.805  58.587  1.00  0.00     0.159 HD
BRANCH  24  26
HETATM   26  C4  UNL     1      20.779   4.103  56.780  1.00  0.00     0.118 C 
BRANCH  26  27
HETATM   27  C3  UNL     1      21.096   4.034  55.340  1.00  0.00     0.030 C 
BRANCH  27  28
HETATM   28  C2  UNL     1      20.212   2.967  54.688  1.00  0.00    -0.002 C 
HETATM   29  C1  UNL     1      19.928   3.431  53.275  1.00  0.00     0.005 C 
ENDBRANCH  27  28
ENDBRANCH  26  27
BRANCH  26  30
HETATM   30  C5  UNL     1      19.638   3.296  57.267  1.00  0.00     0.080 C 
BRANCH  30  31
HETATM   31  N1  UNL     1      18.741   3.805  58.197  1.00  0.00    -0.405 N 
HETATM   32  C6  UNL     1      18.142   5.074  58.097  1.00  0.00     0.145 C 
ATOM     33  H1  UNL     1      18.503   3.224  59.000  1.00  0.00     0.158 HD
ENDBRANCH  30  31
ENDBRANCH  26  30
ENDBRANCH  24  26
ENDBRANCH  22  23
ENDBRANCH  20  22
ENDBRANCH   1  20
BRANCH   7  34
HETATM   34  O1  UNL     1      22.307  -2.278  61.413  1.00  0.00    -0.395 OA
ATOM     35  H1  UNL     1      22.714  -3.042  61.022  1.00  0.00     0.210 HD
ENDBRANCH   7  34
BRANCH  14  36
HETATM   36  O2  UNL     1      16.773  -1.005  59.178  1.00  0.00    -0.396 OA
ATOM     37  H2  UNL     1      16.243  -0.415  59.700  1.00  0.00     0.210 HD
ENDBRANCH  14  36
TORSDOF 10
ENDMDL
MODEL 5
REMARK VINA RESULT: -7.204470047      1.546      2.701
REMARK  10 active torsions:
REMARK  status: ('A' for Active; 'I' for Inactive)
REMARK    1  A    between atoms: C2_2  and  C3_3 
REMARK    2  A    between atoms: C3_3  and  C4_4 
REMARK    3  A    between atoms: C4_4  and  C5_5 
REMARK    4  A    between atoms: C4_4  and  N2_9 
REMARK    5  A    between atoms: C5_5  and  N1_6 
REMARK    6  A    between atoms: C7_11  and  C8_12 
REMARK    7  A    between atoms: C8_12  and  C9_13 
REMARK    8  A    between atoms: C9_13  and  C11_15 
REMARK    9  A    between atoms: C17_21  and  O1_22 
REMARK   10  A    between atoms: C24_30  and  O2_31 
ROOT
HETATM    1  C11 UNL     1      24.480   2.542  60.684  1.00  0.00    -0.005 C 
HETATM    2  C12 UNL     1      23.918   2.508  62.092  1.00  0.00     0.006 C 
HETATM    3  C13 UNL     1      24.467   1.169  62.555  1.00  0.00     0.010 C 
HETATM    4  C14 UNL     1      24.587   0.335  61.273  1.00  0.00    -0.037 C 
HETATM    5  C15 UNL     1      26.080   0.216  60.989  1.00  0.00     0.015 C 
HETATM    6  C16 UNL     1      24.038  -1.026  61.397  1.00  0.00     0.041 C 
HETATM    7  C17 UNL     1      22.725  -1.255  60.684  1.00  0.00     0.124 C 
HETATM    8  C18 UNL     1      21.913   0.012  60.926  1.00  0.00     0.027 C 
HETATM    9  C19 UNL     1      22.542   1.052  59.993  1.00  0.00    -0.002 C 
HETATM   10  C20 UNL     1      22.259   0.676  58.557  1.00  0.00     0.006 C 
HETATM   11  C21 UNL     1      20.925   0.111  58.272  1.00  0.00     0.006 C 
HETATM   12  C22 UNL     1      20.391  -0.871  59.257  1.00  0.00    -0.004 C 
HETATM   13  C23 UNL     1      18.966  -1.201  58.979  1.00  0.00     0.037 C 
HETATM   14  C24 UNL     1      18.026  -0.044  59.047  1.00  0.00     0.118 C 
HETATM   15  C25 UNL     1      18.252   0.856  60.232  1.00  0.00     0.032 C 
HETATM   16  C26 UNL     1      19.692   1.052  60.573  1.00  0.00     0.012 C 
HETATM   17  C27 UNL     1      20.470  -0.220  60.619  1.00  0.00    -0.034 C 
HETATM   18  C28 UNL     1      19.894  -1.087  61.712  1.00  0.00     0.016 C 
HETATM   19  C29 UNL     1      24.012   1.195  60.173  1.00  0.00     0.003 C 
ENDROOT
BRANCH   1  20
HETATM   20  C9  UNL     1      24.121   3.726  59.908  1.00  0.00    -0.010 C 
HETATM   21  C10 UNL     1      24.907   4.918  60.437  1.00  0.00     0.010 C 
BRANCH  20  22
HETATM   22  C8  UNL     1      24.452   3.585  58.451  1.00  0.00     0.049 C 
BRANCH  22  23
HETATM   23  C7  UNL     1      23.456   4.220  57.573  1.00  0.00     0.056 C 
HETATM   24  N2  UNL     1      23.420   5.483  57.485  1.00  0.00    -0.393 N 
ATOM     25  H2  UNL     1      24.096   6.009  58.038  1.00  0.00     0.159 HD
BRANCH  24  26
HETATM   26  C4  UNL     1      22.502   6.240  56.669  1.00  0.00     0.118 C 
BRANCH  26  27
HETATM   27  C3  UNL     1      23.080   7.548  56.302  1.00  0.00     0.030 C 
BRANCH  27  28
HETATM   28  C2  UNL     1      24.404   7.733  57.048  1.00  0.00    -0.002 C 
HETATM   29  C1  UNL     1      24.314   9.048  57.792  1.00  0.00     0.005 C 
ENDBRANCH  27  28
ENDBRANCH  26  27
BRANCH  26  30
HETATM   30  C5  UNL     1      21.937   5.415  55.578  1.00  0.00     0.080 C 
BRANCH  30  31
HETATM   31  N1  UNL     1      20.570   5.188  55.482  1.00  0.00    -0.405 N 
HETATM   32  C6  UNL     1      19.747   4.873  56.578  1.00  0.00     0.145 C 
ATOM     33  H1  UNL     1      20.138   5.255  54.561  1.00  0.00     0.158 HD
ENDBRANCH  30  31
ENDBRANCH  26  30
ENDBRANCH  24  26
ENDBRANCH  22  23
ENDBRANCH  20  22
ENDBRANCH   1  20
BRANCH   7  34
HETATM   34  O1  UNL     1      22.156  -2.379  61.250  1.00  0.00    -0.395 OA
ATOM     35  H1  UNL     1      22.517  -3.129  60.792  1.00  0.00     0.210 HD
ENDBRANCH   7  34
BRANCH  14  36
HETATM   36  O2  UNL     1      16.726  -0.536  59.160  1.00  0.00    -0.396 OA
ATOM     37  H2  UNL     1      16.390  -0.307  60.018  1.00  0.00     0.210 HD
ENDBRANCH  14  36
TORSDOF 10
ENDMDL
