MODEL 1
REMARK VINA RESULT: -7.521781016      0.000      0.000
REMARK  12 active torsions:
REMARK  status: ('A' for Active; 'I' for Inactive)
REMARK    1  A    between atoms: O1_2  and  C2_3 
REMARK    2  A    between atoms: C2_3  and  C3_4 
REMARK    3  A    between atoms: C3_4  and  C4_5 
REMARK    4  A    between atoms: C4_5  and  C5_6 
REMARK    5  A    between atoms: C5_6  and  O2_8 
REMARK    6  A    between atoms: C5_6  and  C7_10 
REMARK    7  A    between atoms: C7_10  and  C8_11 
REMARK    8  A    between atoms: C8_11  and  C9_12 
REMARK    9  A    between atoms: C9_12  and  C10_13 
REMARK   10  A    between atoms: C10_13  and  C12_15 
REMARK   11  A    between atoms: C22_25  and  O3_26 
REMARK   12  A    between atoms: C23_28  and  O4_29 
ROOT
HETATM    1  C12 UNL     1      24.224   1.480  61.139  1.00  0.00    -0.002 C 
HETATM    2  C13 UNL     1      23.142   2.400  61.822  1.00  0.00     0.006 C 
HETATM    3  C14 UNL     1      22.108   1.351  62.163  1.00  0.00     0.006 C 
HETATM    4  C15 UNL     1      22.031   0.760  60.767  1.00  0.00    -0.002 C 
HETATM    5  C16 UNL     1      20.992  -0.215  60.540  1.00  0.00    -0.003 C 
HETATM    6  C17 UNL     1      20.228  -0.695  61.750  1.00  0.00     0.006 C 
HETATM    7  C18 UNL     1      19.900  -2.164  61.515  1.00  0.00     0.008 C 
HETATM    8  C19 UNL     1      19.327  -2.381  60.154  1.00  0.00     0.023 A 
HETATM    9  C20 UNL     1      18.002  -1.721  59.938  1.00  0.00     0.010 A 
HETATM   10  C21 UNL     1      18.075  -0.912  58.686  1.00  0.00     0.035 A 
HETATM   11  C22 UNL     1      19.471  -1.067  58.118  1.00  0.00     0.153 A 
HETATM   12  C23 UNL     1      20.228  -1.956  59.025  1.00  0.00     0.091 A 
HETATM   13  C24 UNL     1      21.461  -1.348  59.662  1.00  0.00     0.027 C 
HETATM   14  C25 UNL     1      22.375  -0.774  58.637  1.00  0.00     0.009 C 
HETATM   15  C26 UNL     1      23.616  -0.134  59.222  1.00  0.00     0.010 C 
HETATM   16  C27 UNL     1      23.497   0.348  60.602  1.00  0.00    -0.036 C 
HETATM   17  C28 UNL     1      23.760  -0.878  61.519  1.00  0.00     0.016 C 
ENDROOT
BRANCH   1  18
HETATM   18  C10 UNL     1      25.073   2.414  60.392  1.00  0.00    -0.014 C 
HETATM   19  C11 UNL     1      26.485   2.556  60.948  1.00  0.00     0.010 C 
BRANCH  18  20
HETATM   20  C9  UNL     1      24.506   3.787  60.086  1.00  0.00     0.005 C 
BRANCH  20  21
HETATM   21  C8  UNL     1      24.277   4.025  58.629  1.00  0.00     0.003 C 
BRANCH  21  22
HETATM   22  C7  UNL     1      23.273   3.241  57.908  1.00  0.00     0.037 C 
BRANCH  22  23
HETATM   23  C5  UNL     1      22.591   3.748  56.710  1.00  0.00     0.054 C 
HETATM   24  C6  UNL     1      22.832   5.236  56.539  1.00  0.00     0.045 C 
BRANCH  23  25
HETATM   25  C4  UNL     1      21.060   3.587  56.876  1.00  0.00     0.039 C 
BRANCH  25  26
HETATM   26  C3  UNL     1      20.642   2.156  56.998  1.00  0.00     0.029 C 
BRANCH  26  27
HETATM   27  C2  UNL     1      19.549   1.951  55.937  1.00  0.00     0.167 C 
BRANCH  27  28
HETATM   28  O1  UNL     1      19.773   0.869  55.131  1.00  0.00    -0.396 OA
HETATM   29  C1  UNL     1      18.829   0.619  54.169  1.00  0.00     0.201 C 
ENDBRANCH  27  28
ENDBRANCH  26  27
ENDBRANCH  25  26
ENDBRANCH  23  25
BRANCH  23  30
HETATM   30  O2  UNL     1      22.909   3.119  55.534  1.00  0.00    -0.390 OA
ATOM     31  H2  UNL     1      22.640   2.214  55.643  1.00  0.00     0.210 HD
ENDBRANCH  23  30
ENDBRANCH  22  23
ENDBRANCH  21  22
ENDBRANCH  20  21
ENDBRANCH  18  20
ENDBRANCH   1  18
BRANCH  12  32
HETATM   32  O4  UNL     1      20.689  -3.077  58.295  1.00  0.00    -0.386 OA
ATOM     33  H4  UNL     1      21.629  -3.033  58.160  1.00  0.00     0.210 HD
ENDBRANCH  12  32
BRANCH  11  34
HETATM   34  O3  UNL     1      19.299  -1.640  56.833  1.00  0.00    -0.393 OA
ATOM     35  H3  UNL     1      19.792  -2.452  56.847  1.00  0.00     0.210 HD
ENDBRANCH  11  34
TORSDOF 12
ENDMDL
MODEL 2
REMARK VINA RESULT: -7.477224201      2.035      3.708
REMARK  12 active torsions:
REMARK  status: ('A' for Active; 'I' for Inactive)
REMARK    1  A    between atoms: O1_2  and  C2_3 
REMARK    2  A    between atoms: C2_3  and  C3_4 
REMARK    3  A    between atoms: C3_4  and  C4_5 
REMARK    4  A    between atoms: C4_5  and  C5_6 
REMARK    5  A    between atoms: C5_6  and  O2_8 
REMARK    6  A    between atoms: C5_6  and  C7_10 
REMARK    7  A    between atoms: C7_10  and  C8_11 
REMARK    8  A    between atoms: C8_11  and  C9_12 
REMARK    9  A    between atoms: C9_12  and  C10_13 
REMARK   10  A    between atoms: C10_13  and  C12_15 
REMARK   11  A    between atoms: C22_25  and  O3_26 
REMARK   12  A    between atoms: C23_28  and  O4_29 
ROOT
HETATM    1  C12 UNL     1      23.922   0.421  61.111  1.00  0.00    -0.002 C 
HETATM    2  C13 UNL     1      22.963   1.573  61.598  1.00  0.00     0.006 C 
HETATM    3  C14 UNL     1      21.634   0.872  61.435  1.00  0.00     0.006 C 
HETATM    4  C15 UNL     1      21.867   0.447  59.996  1.00  0.00    -0.002 C 
HETATM    5  C16 UNL     1      20.740  -0.137  59.310  1.00  0.00    -0.003 C 
HETATM    6  C17 UNL     1      19.521  -0.452  60.141  1.00  0.00     0.006 C 
HETATM    7  C18 UNL     1      18.908  -1.724  59.569  1.00  0.00     0.008 C 
HETATM    8  C19 UNL     1      18.781  -1.645  58.084  1.00  0.00     0.023 A 
HETATM    9  C20 UNL     1      17.830  -0.592  57.609  1.00  0.00     0.010 A 
HETATM   10  C21 UNL     1      18.527   0.251  56.593  1.00  0.00     0.035 A 
HETATM   11  C22 UNL     1      19.936  -0.283  56.440  1.00  0.00     0.153 A 
HETATM   12  C23 UNL     1      20.084  -1.431  57.360  1.00  0.00     0.091 A 
HETATM   13  C24 UNL     1      21.152  -1.287  58.424  1.00  0.00     0.027 C 
HETATM   14  C25 UNL     1      22.471  -0.945  57.826  1.00  0.00     0.009 C 
HETATM   15  C26 UNL     1      23.573  -0.768  58.851  1.00  0.00     0.010 C 
HETATM   16  C27 UNL     1      23.138  -0.385  60.197  1.00  0.00    -0.036 C 
HETATM   17  C28 UNL     1      22.745  -1.700  60.923  1.00  0.00     0.016 C 
ENDROOT
BRANCH   1  18
HETATM   18  C10 UNL     1      25.187   1.103  60.819  1.00  0.00    -0.014 C 
HETATM   19  C11 UNL     1      26.409   0.191  60.849  1.00  0.00     0.010 C 
BRANCH  18  20
HETATM   20  C9  UNL     1      25.487   2.380  61.578  1.00  0.00     0.005 C 
BRANCH  20  21
HETATM   21  C8  UNL     1      26.730   3.069  61.115  1.00  0.00     0.003 C 
BRANCH  21  22
HETATM   22  C7  UNL     1      26.701   3.900  59.911  1.00  0.00     0.037 C 
BRANCH  22  23
HETATM   23  C5  UNL     1      26.592   5.364  59.968  1.00  0.00     0.054 C 
HETATM   24  C6  UNL     1      27.095   5.893  61.297  1.00  0.00     0.045 C 
BRANCH  23  25
HETATM   25  C4  UNL     1      25.102   5.778  59.888  1.00  0.00     0.039 C 
BRANCH  25  26
HETATM   26  C3  UNL     1      24.289   4.842  59.049  1.00  0.00     0.029 C 
BRANCH  26  27
HETATM   27  C2  UNL     1      23.790   5.679  57.861  1.00  0.00     0.167 C 
BRANCH  27  28
HETATM   28  O1  UNL     1      24.719   6.571  57.399  1.00  0.00    -0.396 OA
HETATM   29  C1  UNL     1      24.240   7.624  56.662  1.00  0.00     0.201 C 
ENDBRANCH  27  28
ENDBRANCH  26  27
ENDBRANCH  25  26
ENDBRANCH  23  25
BRANCH  23  30
HETATM   30  O2  UNL     1      27.225   6.046  58.961  1.00  0.00    -0.390 OA
ATOM     31  H2  UNL     1      28.153   6.004  59.163  1.00  0.00     0.210 HD
ENDBRANCH  23  30
ENDBRANCH  22  23
ENDBRANCH  21  22
ENDBRANCH  20  21
ENDBRANCH  18  20
ENDBRANCH   1  18
BRANCH  12  32
HETATM   32  O4  UNL     1      20.442  -2.579  56.612  1.00  0.00    -0.386 OA
ATOM     33  H4  UNL     1      21.070  -3.111  57.086  1.00  0.00     0.210 HD
ENDBRANCH  12  32
BRANCH  11  34
HETATM   34  O3  UNL     1      20.052  -0.670  55.082  1.00  0.00    -0.393 OA
ATOM     35  H3  UNL     1      20.683  -0.072  54.697  1.00  0.00     0.210 HD
ENDBRANCH  11  34
TORSDOF 12
ENDMDL
MODEL 3
REMARK VINA RESULT: -7.448618373      1.443      2.569
REMARK  12 active torsions:
REMARK  status: ('A' for Active; 'I' for Inactive)
REMARK    1  A    between atoms: O1_2  and  C2_3 
REMARK    2  A    between atoms: C2_3  and  C3_4 
REMARK    3  A    between atoms: C3_4  and  C4_5 
REMARK    4  A    between atoms: C4_5  and  C5_6 
REMARK    5  A    between atoms: C5_6  and  O2_8 
REMARK    6  A    between atoms: C5_6  and  C7_10 
REMARK    7  A    between atoms: C7_10  and  C8_11 
REMARK    8  A    between atoms: C8_11  and  C9_12 
REMARK    9  A    between atoms: C9_12  and  C10_13 
REMARK   10  A    between atoms: C10_13  and  C12_15 
REMARK   11  A    between atoms: C22_25  and  O3_26 
REMARK   12  A    between atoms: C23_28  and  O4_29 
ROOT
HETATM    1  C12 UNL     1      24.151   0.382  61.194  1.00  0.00    -0.002 C 
HETATM    2  C13 UNL     1      23.246   1.568  61.703  1.00  0.00     0.006 C 
HETATM    3  C14 UNL     1      21.888   0.926  61.545  1.00  0.00     0.006 C 
HETATM    4  C15 UNL     1      22.089   0.507  60.100  1.00  0.00    -0.002 C 
HETATM    5  C16 UNL     1      20.932  -0.021  59.418  1.00  0.00    -0.003 C 
HETATM    6  C17 UNL     1      19.708  -0.294  60.258  1.00  0.00     0.006 C 
HETATM    7  C18 UNL     1      19.037  -1.532  59.678  1.00  0.00     0.008 C 
HETATM    8  C19 UNL     1      18.900  -1.431  58.196  1.00  0.00     0.023 A 
HETATM    9  C20 UNL     1      17.990  -0.334  57.741  1.00  0.00     0.010 A 
HETATM   10  C21 UNL     1      18.712   0.490  56.728  1.00  0.00     0.035 A 
HETATM   11  C22 UNL     1      20.096  -0.100  56.555  1.00  0.00     0.153 A 
HETATM   12  C23 UNL     1      20.204  -1.264  57.461  1.00  0.00     0.091 A 
HETATM   13  C24 UNL     1      21.287  -1.177  58.516  1.00  0.00     0.027 C 
HETATM   14  C25 UNL     1      22.614  -0.884  57.909  1.00  0.00     0.009 C 
HETATM   15  C26 UNL     1      23.731  -0.766  58.925  1.00  0.00     0.010 C 
HETATM   16  C27 UNL     1      23.326  -0.379  60.279  1.00  0.00    -0.036 C 
HETATM   17  C28 UNL     1      22.884  -1.685  60.995  1.00  0.00     0.016 C 
ENDROOT
BRANCH   1  18
HETATM   18  C10 UNL     1      25.441   1.013  60.897  1.00  0.00    -0.014 C 
HETATM   19  C11 UNL     1      26.599   0.031  60.752  1.00  0.00     0.010 C 
BRANCH  18  20
HETATM   20  C9  UNL     1      25.869   2.179  61.767  1.00  0.00     0.005 C 
BRANCH  20  21
HETATM   21  C8  UNL     1      26.519   3.285  61.002  1.00  0.00     0.003 C 
BRANCH  21  22
HETATM   22  C7  UNL     1      26.061   3.609  59.651  1.00  0.00     0.037 C 
BRANCH  22  23
HETATM   23  C5  UNL     1      24.931   4.513  59.399  1.00  0.00     0.054 C 
HETATM   24  C6  UNL     1      24.448   5.149  60.689  1.00  0.00     0.045 C 
BRANCH  23  25
HETATM   25  C4  UNL     1      23.729   3.703  58.855  1.00  0.00     0.039 C 
BRANCH  25  26
HETATM   26  C3  UNL     1      23.426   4.015  57.423  1.00  0.00     0.029 C 
BRANCH  26  27
HETATM   27  C2  UNL     1      22.992   2.682  56.791  1.00  0.00     0.167 C 
BRANCH  27  28
HETATM   28  O1  UNL     1      22.565   2.811  55.498  1.00  0.00    -0.396 OA
HETATM   29  C1  UNL     1      22.226   4.076  55.091  1.00  0.00     0.201 C 
ENDBRANCH  27  28
ENDBRANCH  26  27
ENDBRANCH  25  26
ENDBRANCH  23  25
BRANCH  23  30
HETATM   30  O2  UNL     1      25.158   5.508  58.484  1.00  0.00    -0.390 OA
ATOM     31  H2  UNL     1      25.575   6.214  58.966  1.00  0.00     0.210 HD
ENDBRANCH  23  30
ENDBRANCH  22  23
ENDBRANCH  21  22
ENDBRANCH  20  21
ENDBRANCH  18  20
ENDBRANCH   1  18
BRANCH  12  32
HETATM   32  O4  UNL     1      20.506  -2.417  56.697  1.00  0.00    -0.386 OA
ATOM     33  H4  UNL     1      19.779  -3.030  56.704  1.00  0.00     0.210 HD
ENDBRANCH  12  32
BRANCH  11  34
HETATM   34  O3  UNL     1      20.183  -0.477  55.191  1.00  0.00    -0.393 OA
ATOM     35  H3  UNL     1      20.376   0.323  54.716  1.00  0.00     0.210 HD
ENDBRANCH  11  34
TORSDOF 12
ENDMDL
MODEL 4
REMARK VINA RESULT: -7.369947101      3.037      5.309
REMARK  12 active torsions:
REMARK  status: ('A' for Active; 'I' for Inactive)
REMARK    1  A    between atoms: O1_2  and  C2_3 
REMARK    2  A    between atoms: C2_3  and  C3_4 
REMARK    3  A    between atoms: C3_4  and  C4_5 
REMARK    4  A    between atoms: C4_5  and  C5_6 
REMARK    5  A    between atoms: C5_6  and  O2_8 
REMARK    6  A    between atoms: C5_6  and  C7_10 
REMARK    7  A    between atoms: C7_10  and  C8_11 
REMARK    8  A    between atoms: C8_11  and  C9_12 
REMARK    9  A    between atoms: C9_12  and  C10_13 
REMARK   10  A    between atoms: C10_13  and  C12_15 
REMARK   11  A    between atoms: C22_25  and  O3_26 
REMARK   12  A    between atoms: C23_28  and  O4_29 
ROOT
HETATM    1  C12 UNL     1      23.420   0.749  61.349  1.00  0.00    -0.002 C 
HETATM    2  C13 UNL     1      22.209   1.603  61.886  1.00  0.00     0.006 C 
HETATM    3  C14 UNL     1      21.082   0.638  61.597  1.00  0.00     0.006 C 
HETATM    4  C15 UNL     1      21.448   0.415  60.141  1.00  0.00    -0.002 C 
HETATM    5  C16 UNL     1      20.505  -0.342  59.353  1.00  0.00    -0.003 C 
HETATM    6  C17 UNL     1      19.368  -1.002  60.093  1.00  0.00     0.006 C 
HETATM    7  C18 UNL     1      19.080  -2.320  59.384  1.00  0.00     0.008 C 
HETATM    8  C19 UNL     1      18.981  -2.131  57.907  1.00  0.00     0.023 A 
HETATM    9  C20 UNL     1      17.827  -1.281  57.478  1.00  0.00     0.010 A 
HETATM   10  C21 UNL     1      18.340  -0.209  56.574  1.00  0.00     0.035 A 
HETATM   11  C22 UNL     1      19.837  -0.393  56.445  1.00  0.00     0.153 A 
HETATM   12  C23 UNL     1      20.219  -1.560  57.268  1.00  0.00     0.091 A 
HETATM   13  C24 UNL     1      21.195  -1.279  58.392  1.00  0.00     0.027 C 
HETATM   14  C25 UNL     1      22.417  -0.592  57.892  1.00  0.00     0.009 C 
HETATM   15  C26 UNL     1      23.418  -0.268  58.981  1.00  0.00     0.010 C 
HETATM   16  C27 UNL     1      22.869  -0.122  60.332  1.00  0.00    -0.036 C 
HETATM   17  C28 UNL     1      22.769  -1.556  60.922  1.00  0.00     0.016 C 
ENDROOT
BRANCH   1  18
HETATM   18  C10 UNL     1      24.503   1.725  61.180  1.00  0.00    -0.014 C 
HETATM   19  C11 UNL     1      25.742   1.435  62.019  1.00  0.00     0.010 C 
BRANCH  18  20
HETATM   20  C9  UNL     1      24.146   3.194  61.289  1.00  0.00     0.005 C 
BRANCH  20  21
HETATM   21  C8  UNL     1      24.864   4.055  60.301  1.00  0.00     0.003 C 
BRANCH  21  22
HETATM   22  C7  UNL     1      25.878   5.006  60.758  1.00  0.00     0.037 C 
BRANCH  22  23
HETATM   23  C5  UNL     1      27.232   5.044  60.193  1.00  0.00     0.054 C 
HETATM   24  C6  UNL     1      27.659   3.669  59.715  1.00  0.00     0.045 C 
BRANCH  23  25
HETATM   25  C4  UNL     1      28.246   5.438  61.295  1.00  0.00     0.039 C 
BRANCH  25  26
HETATM   26  C3  UNL     1      27.842   6.677  62.031  1.00  0.00     0.029 C 
BRANCH  26  27
HETATM   27  C2  UNL     1      28.992   7.675  61.826  1.00  0.00     0.167 C 
BRANCH  27  28
HETATM   28  O1  UNL     1      29.515   7.644  60.562  1.00  0.00    -0.396 OA
HETATM   29  C1  UNL     1      29.384   8.790  59.820  1.00  0.00     0.201 C 
ENDBRANCH  27  28
ENDBRANCH  26  27
ENDBRANCH  25  26
ENDBRANCH  23  25
BRANCH  23  30
HETATM   30  O2  UNL     1      27.425   5.937  59.170  1.00  0.00    -0.390 OA
ATOM     31  H2  UNL     1      27.971   5.489  58.534  1.00  0.00     0.210 HD
ENDBRANCH  23  30
ENDBRANCH  22  23
ENDBRANCH  21  22
ENDBRANCH  20  21
ENDBRANCH  18  20
ENDBRANCH   1  18
BRANCH  12  32
HETATM   32  O4  UNL     1      20.853  -2.520  56.443  1.00  0.00    -0.386 OA
ATOM     33  H4  UNL     1      20.784  -3.390  56.820  1.00  0.00     0.210 HD
ENDBRANCH  12  32
BRANCH  11  34
HETATM   34  O3  UNL     1      20.078  -0.614  55.065  1.00  0.00    -0.393 OA
ATOM     35  H3  UNL     1      19.820  -1.514  54.901  1.00  0.00     0.210 HD
ENDBRANCH  11  34
TORSDOF 12
ENDMDL
MODEL 5
REMARK VINA RESULT: -7.360367885      1.072      1.293
REMARK  12 active torsions:
REMARK  status: ('A' for Active; 'I' for Inactive)
REMARK    1  A    between atoms: O1_2  and  C2_3 
REMARK    2  A    between atoms: C2_3  and  C3_4 
REMARK    3  A    between atoms: C3_4  and  C4_5 
REMARK    4  A    between atoms: C4_5  and  C5_6 
REMARK    5  A    between atoms: C5_6  and  O2_8 
REMARK    6  A    between atoms: C5_6  and  C7_10 
REMARK    7  A    between atoms: C7_10  and  C8_11 
REMARK    8  A    between atoms: C8_11  and  C9_12 
REMARK    9  A    between atoms: C9_12  and  C10_13 
REMARK   10  A    between atoms: C10_13  and  C12_15 
REMARK   11  A    between atoms: C22_25  and  O3_26 
REMARK   12  A    between atoms: C23_28  and  O4_29 
ROOT
HETATM    1  C12 UNL     1      24.216   1.422  61.103  1.00  0.00    -0.002 C 
HETATM    2  C13 UNL     1      23.136   2.360  61.763  1.00  0.00     0.006 C 
HETATM    3  C14 UNL     1      22.093   1.324  62.116  1.00  0.00     0.006 C 
HETATM    4  C15 UNL     1      22.021   0.710  60.729  1.00  0.00    -0.002 C 
HETATM    5  C16 UNL     1      20.976  -0.262  60.513  1.00  0.00    -0.003 C 
HETATM    6  C17 UNL     1      20.202  -0.716  61.725  1.00  0.00     0.006 C 
HETATM    7  C18 UNL     1      19.865  -2.187  61.513  1.00  0.00     0.008 C 
HETATM    8  C19 UNL     1      19.300  -2.423  60.153  1.00  0.00     0.023 A 
HETATM    9  C20 UNL     1      17.981  -1.758  59.917  1.00  0.00     0.010 A 
HETATM   10  C21 UNL     1      18.067  -0.971  58.652  1.00  0.00     0.035 A 
HETATM   11  C22 UNL     1      19.465  -1.145  58.096  1.00  0.00     0.153 A 
HETATM   12  C23 UNL     1      20.211  -2.023  59.023  1.00  0.00     0.091 A 
HETATM   13  C24 UNL     1      21.444  -1.413  59.656  1.00  0.00     0.027 C 
HETATM   14  C25 UNL     1      22.368  -0.863  58.628  1.00  0.00     0.009 C 
HETATM   15  C26 UNL     1      23.610  -0.220  59.210  1.00  0.00     0.010 C 
HETATM   16  C27 UNL     1      23.485   0.285  60.580  1.00  0.00    -0.036 C 
HETATM   17  C28 UNL     1      23.734  -0.926  61.520  1.00  0.00     0.016 C 
ENDROOT
BRANCH   1  18
HETATM   18  C10 UNL     1      25.076   2.337  60.345  1.00  0.00    -0.014 C 
HETATM   19  C11 UNL     1      26.438   2.587  60.984  1.00  0.00     0.010 C 
BRANCH  18  20
HETATM   20  C9  UNL     1      24.475   3.655  59.897  1.00  0.00     0.005 C 
BRANCH  20  21
HETATM   21  C8  UNL     1      24.079   3.669  58.457  1.00  0.00     0.003 C 
BRANCH  21  22
HETATM   22  C7  UNL     1      22.796   3.101  58.044  1.00  0.00     0.037 C 
BRANCH  22  23
HETATM   23  C5  UNL     1      22.563   2.582  56.690  1.00  0.00     0.054 C 
HETATM   24  C6  UNL     1      22.547   3.709  55.674  1.00  0.00     0.045 C 
BRANCH  23  25
HETATM   25  C4  UNL     1      21.161   1.930  56.616  1.00  0.00     0.039 C 
BRANCH  25  26
HETATM   26  C3  UNL     1      20.304   2.275  57.793  1.00  0.00     0.029 C 
BRANCH  26  27
HETATM   27  C2  UNL     1      18.961   2.741  57.206  1.00  0.00     0.167 C 
BRANCH  27  28
HETATM   28  O1  UNL     1      19.074   3.849  56.412  1.00  0.00    -0.396 OA
HETATM   29  C1  UNL     1      19.192   5.053  57.058  1.00  0.00     0.201 C 
ENDBRANCH  27  28
ENDBRANCH  26  27
ENDBRANCH  25  26
ENDBRANCH  23  25
BRANCH  23  30
HETATM   30  O2  UNL     1      23.445   1.625  56.260  1.00  0.00    -0.390 OA
ATOM     31  H2  UNL     1      23.104   1.311  55.431  1.00  0.00     0.210 HD
ENDBRANCH  23  30
ENDBRANCH  22  23
ENDBRANCH  21  22
ENDBRANCH  20  21
ENDBRANCH  18  20
ENDBRANCH   1  18
BRANCH  12  32
HETATM   32  O4  UNL     1      20.669  -3.160  58.314  1.00  0.00    -0.386 OA
ATOM     33  H4  UNL     1      21.004  -2.916  57.459  1.00  0.00     0.210 HD
ENDBRANCH  12  32
BRANCH  11  34
HETATM   34  O3  UNL     1      19.298  -1.738  56.820  1.00  0.00    -0.393 OA
ATOM     35  H3  UNL     1      18.380  -1.977  56.767  1.00  0.00     0.210 HD
ENDBRANCH  11  34
TORSDOF 12
ENDMDL
