MODEL 1
REMARK VINA RESULT: -6.612526168      0.000      0.000
REMARK  12 active torsions:
REMARK  status: ('A' for Active; 'I' for Inactive)
REMARK    1  A    between atoms: C2_2  and  C4_4 
REMARK    2  A    between atoms: C4_4  and  C5_5 
REMARK    3  A    between atoms: C5_5  and  C6_6 
REMARK    4  A    between atoms: C5_5  and  N1_9 
REMARK    5  A    between atoms: C6_6  and  O1_7 
REMARK       I    between atoms: N1_9  and  C7_11 
REMARK    6  A    between atoms: C7_11  and  C8_13 
REMARK    7  A    between atoms: C8_13  and  C9_14 
REMARK    8  A    between atoms: C8_13  and  N3_21 
REMARK    9  A    between atoms: C9_14  and  S1_15 
REMARK   10  A    between atoms: S1_15  and  C10_16 
REMARK   11  A    between atoms: C10_16  and  C11_17 
REMARK       I    between atoms: N3_21  and  C12_23 
REMARK   12  A    between atoms: C12_23  and  C13_25 
ROOT
HETATM    1  C8  UNL     1      24.447 -78.494  10.161  1.00  0.00     0.186 C 
ENDROOT
BRANCH   1   2
HETATM    2  C7  UNL     1      24.043 -77.754  11.339  1.00  0.00     0.245 C 
HETATM    3  N1  UNL     1      24.279 -78.227  12.691  1.00  0.00    -0.331 N 
ATOM      4  H1  UNL     1      24.745 -79.127  12.817  1.00  0.00     0.168 HD
HETATM    5  O2  UNL     1      23.454 -76.659  11.252  1.00  0.00    -0.271 OA
BRANCH   3   6
HETATM    6  C5  UNL     1      23.893 -77.496  13.854  1.00  0.00     0.013 C 
BRANCH   6   7
HETATM    7  C4  UNL     1      24.929 -76.640  14.477  1.00  0.00     0.058 C 
BRANCH   7   8
HETATM    8  C2  UNL     1      24.549 -75.275  14.899  1.00  0.00    -0.017 C 
HETATM    9  C1  UNL     1      23.269 -74.885  14.133  1.00  0.00     0.010 C 
HETATM   10  C3  UNL     1      25.527 -74.178  14.625  1.00  0.00     0.010 C 
ENDBRANCH   7   8
ENDBRANCH   6   7
BRANCH   6  11
HETATM   11  C6  UNL     1      23.041 -78.273  14.842  1.00  0.00     0.216 C 
BRANCH  11  12
HETATM   12  O1  UNL     1      23.499 -78.302  16.121  1.00  0.00    -0.395 OA
ATOM     13  H1  UNL     1      23.828 -79.141  16.421  1.00  0.00     0.209 HD
ENDBRANCH  11  12
ENDBRANCH   6  11
ENDBRANCH   3   6
ENDBRANCH   1   2
BRANCH   1  14
HETATM   14  C9  UNL     1      24.528 -80.005  10.342  1.00  0.00     0.109 C 
BRANCH  14  15
HETATM   15  S1  UNL     1      25.276 -80.950   9.060  1.00  0.00    -0.162 SA
BRANCH  15  16
HETATM   16  C10 UNL     1      26.597 -82.018   9.557  1.00  0.00     0.117 C 
BRANCH  16  17
HETATM   17  C11 UNL     1      26.566 -82.117  11.060  1.00  0.00     0.063 C 
HETATM   18  N2  UNL     1      27.584 -82.547  11.694  1.00  0.00    -0.410 N 
ATOM     19  H22 UNL     1      28.414 -82.821  11.168  1.00  0.00     0.155 HD
ATOM     20  H21 UNL     1      27.563 -82.614  12.712  1.00  0.00     0.155 HD
ENDBRANCH  16  17
ENDBRANCH  15  16
ENDBRANCH  14  15
ENDBRANCH   1  14
BRANCH   1  21
HETATM   21  N3  UNL     1      25.781 -78.085   9.681  1.00  0.00    -0.344 N 
HETATM   22  C12 UNL     1      25.937 -77.190   8.601  1.00  0.00     0.255 C 
HETATM   23  O3  UNL     1      24.904 -76.748   8.064  1.00  0.00    -0.270 OA
ATOM     24  H3  UNL     1      26.612 -78.459  10.141  1.00  0.00     0.163 HD
BRANCH  22  25
HETATM   25  C13 UNL     1      27.258 -76.782   8.115  1.00  0.00     0.159 A 
HETATM   26  C14 UNL     1      28.279 -77.876   7.796  1.00  0.00     0.059 C 
HETATM   27  C15 UNL     1      27.935 -75.578   8.787  1.00  0.00     0.217 A 
HETATM   28  O4  UNL     1      27.459 -75.568   7.502  1.00  0.00    -0.365 OA
ENDBRANCH  22  25
ENDBRANCH   1  21
TORSDOF 12
ENDMDL
MODEL 2
REMARK VINA RESULT: -6.554010026      1.643      2.012
REMARK  12 active torsions:
REMARK  status: ('A' for Active; 'I' for Inactive)
REMARK    1  A    between atoms: C2_2  and  C4_4 
REMARK    2  A    between atoms: C4_4  and  C5_5 
REMARK    3  A    between atoms: C5_5  and  C6_6 
REMARK    4  A    between atoms: C5_5  and  N1_9 
REMARK    5  A    between atoms: C6_6  and  O1_7 
REMARK       I    between atoms: N1_9  and  C7_11 
REMARK    6  A    between atoms: C7_11  and  C8_13 
REMARK    7  A    between atoms: C8_13  and  C9_14 
REMARK    8  A    between atoms: C8_13  and  N3_21 
REMARK    9  A    between atoms: C9_14  and  S1_15 
REMARK   10  A    between atoms: S1_15  and  C10_16 
REMARK   11  A    between atoms: C10_16  and  C11_17 
REMARK       I    between atoms: N3_21  and  C12_23 
REMARK   12  A    between atoms: C12_23  and  C13_25 
ROOT
HETATM    1  C8  UNL     1      25.021 -79.242  10.161  1.00  0.00     0.186 C 
ENDROOT
BRANCH   1   2
HETATM    2  C7  UNL     1      24.605 -78.360  11.233  1.00  0.00     0.245 C 
HETATM    3  N1  UNL     1      24.736 -78.704  12.638  1.00  0.00    -0.331 N 
ATOM      4  H1  UNL     1      25.132 -79.613  12.880  1.00  0.00     0.168 HD
HETATM    5  O2  UNL     1      24.098 -77.245  11.002  1.00  0.00    -0.271 OA
BRANCH   3   6
HETATM    6  C5  UNL     1      24.339 -77.834  13.696  1.00  0.00     0.013 C 
BRANCH   6   7
HETATM    7  C4  UNL     1      25.376 -76.925  14.236  1.00  0.00     0.058 C 
BRANCH   7   8
HETATM    8  C2  UNL     1      25.147 -75.468  14.143  1.00  0.00    -0.017 C 
HETATM    9  C1  UNL     1      25.366 -74.866  15.545  1.00  0.00     0.010 C 
HETATM   10  C3  UNL     1      23.785 -75.015  13.723  1.00  0.00     0.010 C 
ENDBRANCH   7   8
ENDBRANCH   6   7
BRANCH   6  11
HETATM   11  C6  UNL     1      23.454 -78.475  14.751  1.00  0.00     0.216 C 
BRANCH  11  12
HETATM   12  O1  UNL     1      23.760 -78.173  16.040  1.00  0.00    -0.395 OA
ATOM     13  H1  UNL     1      23.630 -78.873  16.669  1.00  0.00     0.209 HD
ENDBRANCH  11  12
ENDBRANCH   6  11
ENDBRANCH   3   6
ENDBRANCH   1   2
BRANCH   1  14
HETATM   14  C9  UNL     1      25.145 -80.711  10.543  1.00  0.00     0.109 C 
BRANCH  14  15
HETATM   15  S1  UNL     1      26.574 -81.585  10.005  1.00  0.00    -0.162 SA
BRANCH  15  16
HETATM   16  C10 UNL     1      26.398 -82.504   8.502  1.00  0.00     0.117 C 
BRANCH  16  17
HETATM   17  C11 UNL     1      26.917 -81.646   7.377  1.00  0.00     0.063 C 
HETATM   18  N2  UNL     1      27.624 -82.163   6.452  1.00  0.00    -0.410 N 
ATOM     19  H22 UNL     1      27.829 -83.161   6.487  1.00  0.00     0.155 HD
ATOM     20  H21 UNL     1      27.975 -81.583   5.690  1.00  0.00     0.155 HD
ENDBRANCH  16  17
ENDBRANCH  15  16
ENDBRANCH  14  15
ENDBRANCH   1  14
BRANCH   1  21
HETATM   21  N3  UNL     1      26.339 -78.866   9.614  1.00  0.00    -0.344 N 
HETATM   22  C12 UNL     1      26.460 -78.093   8.440  1.00  0.00     0.255 C 
HETATM   23  O3  UNL     1      25.411 -77.729   7.877  1.00  0.00    -0.270 OA
ATOM     24  H3  UNL     1      27.183 -79.173  10.097  1.00  0.00     0.163 HD
BRANCH  22  25
HETATM   25  C13 UNL     1      27.765 -77.719   7.889  1.00  0.00     0.159 A 
HETATM   26  C14 UNL     1      28.259 -76.288   8.111  1.00  0.00     0.059 C 
HETATM   27  C15 UNL     1      28.121 -78.210   6.478  1.00  0.00     0.217 A 
HETATM   28  O4  UNL     1      28.733 -78.658   7.620  1.00  0.00    -0.365 OA
ENDBRANCH  22  25
ENDBRANCH   1  21
TORSDOF 12
ENDMDL
MODEL 3
REMARK VINA RESULT: -6.344353832      3.168      4.867
REMARK  12 active torsions:
REMARK  status: ('A' for Active; 'I' for Inactive)
REMARK    1  A    between atoms: C2_2  and  C4_4 
REMARK    2  A    between atoms: C4_4  and  C5_5 
REMARK    3  A    between atoms: C5_5  and  C6_6 
REMARK    4  A    between atoms: C5_5  and  N1_9 
REMARK    5  A    between atoms: C6_6  and  O1_7 
REMARK       I    between atoms: N1_9  and  C7_11 
REMARK    6  A    between atoms: C7_11  and  C8_13 
REMARK    7  A    between atoms: C8_13  and  C9_14 
REMARK    8  A    between atoms: C8_13  and  N3_21 
REMARK    9  A    between atoms: C9_14  and  S1_15 
REMARK   10  A    between atoms: S1_15  and  C10_16 
REMARK   11  A    between atoms: C10_16  and  C11_17 
REMARK       I    between atoms: N3_21  and  C12_23 
REMARK   12  A    between atoms: C12_23  and  C13_25 
ROOT
HETATM    1  C8  UNL     1      22.496 -78.335  10.752  1.00  0.00     0.186 C 
ENDROOT
BRANCH   1   2
HETATM    2  C7  UNL     1      22.862 -77.616  11.956  1.00  0.00     0.245 C 
HETATM    3  N1  UNL     1      23.837 -78.114  12.910  1.00  0.00    -0.331 N 
ATOM      4  H1  UNL     1      24.279 -79.016  12.727  1.00  0.00     0.168 HD
HETATM    5  O2  UNL     1      22.345 -76.518  12.244  1.00  0.00    -0.271 OA
BRANCH   3   6
HETATM    6  C5  UNL     1      24.210 -77.403  14.090  1.00  0.00     0.013 C 
BRANCH   6   7
HETATM    7  C4  UNL     1      25.607 -76.917  14.161  1.00  0.00     0.058 C 
BRANCH   7   8
HETATM    8  C2  UNL     1      25.903 -75.561  13.653  1.00  0.00    -0.017 C 
HETATM    9  C1  UNL     1      24.789 -74.618  14.147  1.00  0.00     0.010 C 
HETATM   10  C3  UNL     1      25.947 -75.382  12.168  1.00  0.00     0.010 C 
ENDBRANCH   7   8
ENDBRANCH   6   7
BRANCH   6  11
HETATM   11  C6  UNL     1      23.683 -77.996  15.385  1.00  0.00     0.216 C 
BRANCH  11  12
HETATM   12  O1  UNL     1      22.566 -78.763  15.271  1.00  0.00    -0.395 OA
ATOM     13  H1  UNL     1      22.637 -79.646  15.613  1.00  0.00     0.209 HD
ENDBRANCH  11  12
ENDBRANCH   6  11
ENDBRANCH   3   6
ENDBRANCH   1   2
BRANCH   1  14
HETATM   14  C9  UNL     1      23.480 -78.207   9.597  1.00  0.00     0.109 C 
BRANCH  14  15
HETATM   15  S1  UNL     1      24.766 -79.400   9.473  1.00  0.00    -0.162 SA
BRANCH  15  16
HETATM   16  C10 UNL     1      24.480 -80.935  10.306  1.00  0.00     0.117 C 
BRANCH  16  17
HETATM   17  C11 UNL     1      25.527 -81.075  11.382  1.00  0.00     0.063 C 
HETATM   18  N2  UNL     1      25.466 -82.040  12.212  1.00  0.00    -0.410 N 
ATOM     19  H22 UNL     1      24.701 -82.710  12.135  1.00  0.00     0.155 HD
ATOM     20  H21 UNL     1      26.175 -82.135  12.939  1.00  0.00     0.155 HD
ENDBRANCH  16  17
ENDBRANCH  15  16
ENDBRANCH  14  15
ENDBRANCH   1  14
BRANCH   1  21
HETATM   21  N3  UNL     1      21.197 -77.887  10.213  1.00  0.00    -0.344 N 
HETATM   22  C12 UNL     1      19.984 -78.490  10.607  1.00  0.00     0.255 C 
HETATM   23  O3  UNL     1      20.042 -79.416  11.436  1.00  0.00    -0.270 OA
ATOM     24  H3  UNL     1      21.177 -77.122   9.538  1.00  0.00     0.163 HD
BRANCH  22  25
HETATM   25  C13 UNL     1      18.691 -78.053  10.073  1.00  0.00     0.159 A 
HETATM   26  C14 UNL     1      17.546 -77.815  11.060  1.00  0.00     0.059 C 
HETATM   27  C15 UNL     1      18.179 -78.716   8.787  1.00  0.00     0.217 A 
HETATM   28  O4  UNL     1      18.589 -77.410   8.862  1.00  0.00    -0.365 OA
ENDBRANCH  22  25
ENDBRANCH   1  21
TORSDOF 12
ENDMDL
MODEL 4
REMARK VINA RESULT: -6.316219559      2.893      4.173
REMARK  12 active torsions:
REMARK  status: ('A' for Active; 'I' for Inactive)
REMARK    1  A    between atoms: C2_2  and  C4_4 
REMARK    2  A    between atoms: C4_4  and  C5_5 
REMARK    3  A    between atoms: C5_5  and  C6_6 
REMARK    4  A    between atoms: C5_5  and  N1_9 
REMARK    5  A    between atoms: C6_6  and  O1_7 
REMARK       I    between atoms: N1_9  and  C7_11 
REMARK    6  A    between atoms: C7_11  and  C8_13 
REMARK    7  A    between atoms: C8_13  and  C9_14 
REMARK    8  A    between atoms: C8_13  and  N3_21 
REMARK    9  A    between atoms: C9_14  and  S1_15 
REMARK   10  A    between atoms: S1_15  and  C10_16 
REMARK   11  A    between atoms: C10_16  and  C11_17 
REMARK       I    between atoms: N3_21  and  C12_23 
REMARK   12  A    between atoms: C12_23  and  C13_25 
ROOT
HETATM    1  C8  UNL     1      23.033 -78.855  10.437  1.00  0.00     0.186 C 
ENDROOT
BRANCH   1   2
HETATM    2  C7  UNL     1      23.158 -77.937  11.551  1.00  0.00     0.245 C 
HETATM    3  N1  UNL     1      23.821 -78.286  12.795  1.00  0.00    -0.331 N 
ATOM      4  H1  UNL     1      24.210 -79.225  12.891  1.00  0.00     0.168 HD
HETATM    5  O2  UNL     1      22.688 -76.783  11.503  1.00  0.00    -0.271 OA
BRANCH   3   6
HETATM    6  C5  UNL     1      23.956 -77.381  13.890  1.00  0.00     0.013 C 
BRANCH   6   7
HETATM    7  C4  UNL     1      25.336 -77.035  14.301  1.00  0.00     0.058 C 
BRANCH   7   8
HETATM    8  C2  UNL     1      25.891 -75.736  13.866  1.00  0.00    -0.017 C 
HETATM    9  C1  UNL     1      25.073 -74.621  14.550  1.00  0.00     0.010 C 
HETATM   10  C3  UNL     1      25.841 -75.426  12.404  1.00  0.00     0.010 C 
ENDBRANCH   7   8
ENDBRANCH   6   7
BRANCH   6  11
HETATM   11  C6  UNL     1      22.999 -77.628  15.043  1.00  0.00     0.216 C 
BRANCH  11  12
HETATM   12  O1  UNL     1      23.497 -78.354  16.078  1.00  0.00    -0.395 OA
ATOM     13  H1  UNL     1      22.917 -79.017  16.433  1.00  0.00     0.209 HD
ENDBRANCH  11  12
ENDBRANCH   6  11
ENDBRANCH   3   6
ENDBRANCH   1   2
BRANCH   1  14
HETATM   14  C9  UNL     1      21.618 -79.340  10.153  1.00  0.00     0.109 C 
BRANCH  14  15
HETATM   15  S1  UNL     1      21.416 -80.960   9.497  1.00  0.00    -0.162 SA
BRANCH  15  16
HETATM   16  C10 UNL     1      19.757 -81.572   9.445  1.00  0.00     0.117 C 
BRANCH  16  17
HETATM   17  C11 UNL     1      19.106 -81.246  10.764  1.00  0.00     0.063 C 
HETATM   18  N2  UNL     1      19.067 -82.120  11.692  1.00  0.00    -0.410 N 
ATOM     19  H22 UNL     1      19.483 -83.035  11.524  1.00  0.00     0.155 HD
ATOM     20  H21 UNL     1      18.627 -81.899  12.585  1.00  0.00     0.155 HD
ENDBRANCH  16  17
ENDBRANCH  15  16
ENDBRANCH  14  15
ENDBRANCH   1  14
BRANCH   1  21
HETATM   21  N3  UNL     1      23.834 -80.079  10.635  1.00  0.00    -0.344 N 
HETATM   22  C12 UNL     1      25.152 -80.188  10.143  1.00  0.00     0.255 C 
HETATM   23  O3  UNL     1      25.625 -79.210   9.536  1.00  0.00    -0.270 OA
ATOM     24  H3  UNL     1      23.424 -80.864  11.141  1.00  0.00     0.163 HD
BRANCH  22  25
HETATM   25  C13 UNL     1      25.952 -81.401  10.333  1.00  0.00     0.159 A 
HETATM   26  C14 UNL     1      26.262 -81.845  11.764  1.00  0.00     0.059 C 
HETATM   27  C15 UNL     1      27.165 -81.617   9.416  1.00  0.00     0.217 A 
HETATM   28  O4  UNL     1      26.026 -82.377   9.367  1.00  0.00    -0.365 OA
ENDBRANCH  22  25
ENDBRANCH   1  21
TORSDOF 12
ENDMDL
MODEL 5
REMARK VINA RESULT: -6.289871791      2.829      3.879
REMARK  12 active torsions:
REMARK  status: ('A' for Active; 'I' for Inactive)
REMARK    1  A    between atoms: C2_2  and  C4_4 
REMARK    2  A    between atoms: C4_4  and  C5_5 
REMARK    3  A    between atoms: C5_5  and  C6_6 
REMARK    4  A    between atoms: C5_5  and  N1_9 
REMARK    5  A    between atoms: C6_6  and  O1_7 
REMARK       I    between atoms: N1_9  and  C7_11 
REMARK    6  A    between atoms: C7_11  and  C8_13 
REMARK    7  A    between atoms: C8_13  and  C9_14 
REMARK    8  A    between atoms: C8_13  and  N3_21 
REMARK    9  A    between atoms: C9_14  and  S1_15 
REMARK   10  A    between atoms: S1_15  and  C10_16 
REMARK   11  A    between atoms: C10_16  and  C11_17 
REMARK       I    between atoms: N3_21  and  C12_23 
REMARK   12  A    between atoms: C12_23  and  C13_25 
ROOT
HETATM    1  C8  UNL     1      23.190 -78.763  10.210  1.00  0.00     0.186 C 
ENDROOT
BRANCH   1   2
HETATM    2  C7  UNL     1      23.185 -77.924  11.391  1.00  0.00     0.245 C 
HETATM    3  N1  UNL     1      23.892 -78.271  12.611  1.00  0.00    -0.331 N 
ATOM      4  H1  UNL     1      24.410 -79.150  12.640  1.00  0.00     0.168 HD
HETATM    5  O2  UNL     1      22.557 -76.848  11.426  1.00  0.00    -0.271 OA
BRANCH   3   6
HETATM    6  C5  UNL     1      23.899 -77.442  13.773  1.00  0.00     0.013 C 
BRANCH   6   7
HETATM    7  C4  UNL     1      25.215 -76.924  14.213  1.00  0.00     0.058 C 
BRANCH   7   8
HETATM    8  C2  UNL     1      25.378 -75.463  14.363  1.00  0.00    -0.017 C 
HETATM    9  C1  UNL     1      25.301 -75.131  15.866  1.00  0.00     0.010 C 
HETATM   10  C3  UNL     1      24.353 -74.590  13.710  1.00  0.00     0.010 C 
ENDBRANCH   7   8
ENDBRANCH   6   7
BRANCH   6  11
HETATM   11  C6  UNL     1      23.000 -77.917  14.901  1.00  0.00     0.216 C 
BRANCH  11  12
HETATM   12  O1  UNL     1      23.635 -78.289  16.044  1.00  0.00    -0.395 OA
ATOM     13  H1  UNL     1      24.238 -77.651  16.405  1.00  0.00     0.209 HD
ENDBRANCH  11  12
ENDBRANCH   6  11
ENDBRANCH   3   6
ENDBRANCH   1   2
BRANCH   1  14
HETATM   14  C9  UNL     1      22.057 -79.777  10.131  1.00  0.00     0.109 C 
BRANCH  14  15
HETATM   15  S1  UNL     1      20.578 -79.299   9.306  1.00  0.00    -0.162 SA
BRANCH  15  16
HETATM   16  C10 UNL     1      19.096 -80.103   9.846  1.00  0.00     0.117 C 
BRANCH  16  17
HETATM   17  C11 UNL     1      19.300 -80.526  11.278  1.00  0.00     0.063 C 
HETATM   18  N2  UNL     1      19.220 -81.756  11.599  1.00  0.00    -0.410 N 
ATOM     19  H22 UNL     1      19.018 -82.443  10.874  1.00  0.00     0.155 HD
ATOM     20  H21 UNL     1      19.358 -82.043  12.569  1.00  0.00     0.155 HD
ENDBRANCH  16  17
ENDBRANCH  15  16
ENDBRANCH  14  15
ENDBRANCH   1  14
BRANCH   1  21
HETATM   21  N3  UNL     1      24.431 -79.553  10.096  1.00  0.00    -0.344 N 
HETATM   22  C12 UNL     1      25.183 -79.583   8.903  1.00  0.00     0.255 C 
HETATM   23  O3  UNL     1      24.767 -78.912   7.940  1.00  0.00    -0.270 OA
ATOM     24  H3  UNL     1      24.753 -80.091  10.901  1.00  0.00     0.163 HD
BRANCH  22  25
HETATM   25  C13 UNL     1      26.415 -80.368   8.781  1.00  0.00     0.159 A 
HETATM   26  C14 UNL     1      27.618 -79.721   8.093  1.00  0.00     0.059 C 
HETATM   27  C15 UNL     1      26.293 -81.849   8.395  1.00  0.00     0.217 A 
HETATM   28  O4  UNL     1      26.693 -81.413   9.631  1.00  0.00    -0.365 OA
ENDBRANCH  22  25
ENDBRANCH   1  21
TORSDOF 12
ENDMDL
