MODEL 1
REMARK VINA RESULT: -6.706833640      0.000      0.000
REMARK  12 active torsions:
REMARK  status: ('A' for Active; 'I' for Inactive)
REMARK    1  A    between atoms: O1_2  and  N1_3 
REMARK    2  A    between atoms: N1_3  and  C2_4 
REMARK    3  A    between atoms: C2_4  and  C3_5 
REMARK    4  A    between atoms: C3_5  and  O2_6 
REMARK    5  A    between atoms: C3_5  and  C4_8 
REMARK    6  A    between atoms: C4_8  and  C5_9 
REMARK    7  A    between atoms: C4_8  and  N3_14 
REMARK    8  A    between atoms: C5_9  and  N2_10 
REMARK       I    between atoms: N3_14  and  C8_16 
REMARK    9  A    between atoms: C8_16  and  C9_18 
REMARK   10  A    between atoms: C9_18  and  N4_19 
REMARK   11  A    between atoms: C9_18  and  C10_23 
REMARK   12  A    between atoms: C10_23  and  C11_24 
ROOT
HETATM    1  N3  UNL     1      24.680 -79.442   9.097  1.00  0.00    -0.351 N 
ATOM      2  H3  UNL     1      23.753 -79.684   8.749  1.00  0.00     0.163 HD
HETATM    3  C8  UNL     1      24.795 -78.741  10.302  1.00  0.00     0.249 C 
HETATM    4  O4  UNL     1      25.943 -78.441  10.731  1.00  0.00    -0.271 OA
ENDROOT
BRANCH   1   5
HETATM    5  C4  UNL     1      25.851 -79.832   8.329  1.00  0.00     0.132 C 
BRANCH   5   6
HETATM    6  C3  UNL     1      25.707 -81.230   7.782  1.00  0.00     0.159 C 
BRANCH   6   7
HETATM    7  C2  UNL     1      26.594 -82.183   8.530  1.00  0.00     0.176 C 
BRANCH   7   8
HETATM    8  N1  UNL     1      26.776 -81.738   9.920  1.00  0.00    -0.099 NA
BRANCH   8   9
HETATM    9  O1  UNL     1      25.707 -82.019  10.668  1.00  0.00    -0.291 OA
HETATM   10  C1  UNL     1      25.906 -81.875  12.026  1.00  0.00     0.231 C 
ENDBRANCH   8   9
ENDBRANCH   7   8
ENDBRANCH   6   7
BRANCH   6  11
HETATM   11  O2  UNL     1      24.355 -81.598   7.929  1.00  0.00    -0.392 OA
ATOM     12  H2  UNL     1      24.269 -82.543   7.956  1.00  0.00     0.210 HD
ENDBRANCH   6  11
ENDBRANCH   5   6
BRANCH   5  13
HETATM   13  C5  UNL     1      26.155 -78.880   7.224  1.00  0.00     0.154 C 
BRANCH  13  14
HETATM   14  N2  UNL     1      27.340 -78.082   7.490  1.00  0.00    -0.340 N 
HETATM   15  C6  UNL     1      27.940 -76.898   8.060  1.00  0.00     0.228 A 
HETATM   16  C7  UNL     1      28.756 -77.894   7.378  1.00  0.00     0.238 A 
HETATM   17  O3  UNL     1      29.886 -78.283   6.988  1.00  0.00    -0.272 OA
ENDBRANCH  13  14
ENDBRANCH   5  13
ENDBRANCH   1   5
BRANCH   3  18
HETATM   18  C9  UNL     1      23.644 -78.315  11.131  1.00  0.00     0.278 C 
BRANCH  18  19
HETATM   19  N4  UNL     1      22.437 -79.019  10.841  1.00  0.00    -0.066 N 
ATOM     20  H43 UNL     1      22.424 -79.326   9.869  1.00  0.00     0.275 HD
ATOM     21  H42 UNL     1      22.428 -79.926  11.307  1.00  0.00     0.275 HD
ATOM     22  H41 UNL     1      21.592 -78.492  11.063  1.00  0.00     0.275 HD
ENDBRANCH  18  19
BRANCH  18  23
HETATM   23  C10 UNL     1      23.494 -76.816  11.054  1.00  0.00     0.081 C 
BRANCH  23  24
HETATM   24  C11 UNL     1      23.808 -76.136  12.311  1.00  0.00    -0.056 A 
HETATM   25  C12 UNL     1      25.086 -75.639  12.485  1.00  0.00     0.007 A 
HETATM   26  C13 UNL     1      25.461 -74.985  13.644  1.00  0.00     0.001 A 
HETATM   27  C14 UNL     1      24.509 -74.845  14.628  1.00  0.00     0.000 A 
HETATM   28  C15 UNL     1      23.214 -75.340  14.470  1.00  0.00     0.001 A 
HETATM   29  C16 UNL     1      22.865 -75.990  13.304  1.00  0.00     0.007 A 
ENDBRANCH  23  24
ENDBRANCH  18  23
ENDBRANCH   3  18
TORSDOF 12
ENDMDL
MODEL 2
REMARK VINA RESULT: -6.684095816      1.924      4.206
REMARK  12 active torsions:
REMARK  status: ('A' for Active; 'I' for Inactive)
REMARK    1  A    between atoms: O1_2  and  N1_3 
REMARK    2  A    between atoms: N1_3  and  C2_4 
REMARK    3  A    between atoms: C2_4  and  C3_5 
REMARK    4  A    between atoms: C3_5  and  O2_6 
REMARK    5  A    between atoms: C3_5  and  C4_8 
REMARK    6  A    between atoms: C4_8  and  C5_9 
REMARK    7  A    between atoms: C4_8  and  N3_14 
REMARK    8  A    between atoms: C5_9  and  N2_10 
REMARK       I    between atoms: N3_14  and  C8_16 
REMARK    9  A    between atoms: C8_16  and  C9_18 
REMARK   10  A    between atoms: C9_18  and  N4_19 
REMARK   11  A    between atoms: C9_18  and  C10_23 
REMARK   12  A    between atoms: C10_23  and  C11_24 
ROOT
HETATM    1  N3  UNL     1      26.570 -78.354   9.726  1.00  0.00    -0.351 N 
ATOM      2  H3  UNL     1      27.351 -78.049  10.307  1.00  0.00     0.163 HD
HETATM    3  C8  UNL     1      25.362 -78.705  10.337  1.00  0.00     0.249 C 
HETATM    4  O4  UNL     1      24.397 -79.083   9.617  1.00  0.00    -0.271 OA
ENDROOT
BRANCH   1   5
HETATM    5  C4  UNL     1      26.739 -78.413   8.284  1.00  0.00     0.132 C 
BRANCH   5   6
HETATM    6  C3  UNL     1      27.257 -77.106   7.739  1.00  0.00     0.159 C 
BRANCH   6   7
HETATM    7  C2  UNL     1      26.686 -75.950   8.509  1.00  0.00     0.176 C 
BRANCH   7   8
HETATM    8  N1  UNL     1      27.673 -75.429   9.468  1.00  0.00    -0.099 NA
BRANCH   8   9
HETATM    9  O1  UNL     1      28.365 -74.410   8.955  1.00  0.00    -0.291 OA
HETATM   10  C1  UNL     1      27.595 -73.331   8.575  1.00  0.00     0.231 C 
ENDBRANCH   8   9
ENDBRANCH   7   8
ENDBRANCH   6   7
BRANCH   6  11
HETATM   11  O2  UNL     1      28.661 -77.131   7.858  1.00  0.00    -0.392 OA
ATOM     12  H2  UNL     1      29.066 -77.151   7.000  1.00  0.00     0.210 HD
ENDBRANCH   6  11
ENDBRANCH   5   6
BRANCH   5  13
HETATM   13  C5  UNL     1      27.625 -79.532   7.856  1.00  0.00     0.154 C 
BRANCH  13  14
HETATM   14  N2  UNL     1      27.082 -80.833   8.206  1.00  0.00    -0.340 N 
HETATM   15  C6  UNL     1      26.568 -82.119   7.795  1.00  0.00     0.228 A 
HETATM   16  C7  UNL     1      26.667 -81.772   9.207  1.00  0.00     0.238 A 
HETATM   17  O3  UNL     1      26.501 -82.087  10.412  1.00  0.00    -0.272 OA
ENDBRANCH  13  14
ENDBRANCH   5  13
ENDBRANCH   1   5
BRANCH   3  18
HETATM   18  C9  UNL     1      25.125 -78.667  11.799  1.00  0.00     0.278 C 
BRANCH  18  19
HETATM   19  N4  UNL     1      25.126 -79.955  12.414  1.00  0.00    -0.066 N 
ATOM     20  H43 UNL     1      24.397 -80.545  12.014  1.00  0.00     0.275 HD
ATOM     21  H42 UNL     1      25.949 -80.488  12.133  1.00  0.00     0.275 HD
ATOM     22  H41 UNL     1      25.046 -79.924  13.430  1.00  0.00     0.275 HD
ENDBRANCH  18  19
BRANCH  18  23
HETATM   23  C10 UNL     1      23.878 -77.869  12.087  1.00  0.00     0.081 C 
BRANCH  23  24
HETATM   24  C11 UNL     1      24.132 -76.661  12.874  1.00  0.00    -0.056 A 
HETATM   25  C12 UNL     1      25.443 -76.284  13.090  1.00  0.00     0.007 A 
HETATM   26  C13 UNL     1      25.766 -75.156  13.823  1.00  0.00     0.001 A 
HETATM   27  C14 UNL     1      24.725 -74.416  14.335  1.00  0.00     0.000 A 
HETATM   28  C15 UNL     1      23.394 -74.781  14.127  1.00  0.00     0.001 A 
HETATM   29  C16 UNL     1      23.099 -75.911  13.392  1.00  0.00     0.007 A 
ENDBRANCH  23  24
ENDBRANCH  18  23
ENDBRANCH   3  18
TORSDOF 12
ENDMDL
MODEL 3
REMARK VINA RESULT: -6.638155708      2.667      3.593
REMARK  12 active torsions:
REMARK  status: ('A' for Active; 'I' for Inactive)
REMARK    1  A    between atoms: O1_2  and  N1_3 
REMARK    2  A    between atoms: N1_3  and  C2_4 
REMARK    3  A    between atoms: C2_4  and  C3_5 
REMARK    4  A    between atoms: C3_5  and  O2_6 
REMARK    5  A    between atoms: C3_5  and  C4_8 
REMARK    6  A    between atoms: C4_8  and  C5_9 
REMARK    7  A    between atoms: C4_8  and  N3_14 
REMARK    8  A    between atoms: C5_9  and  N2_10 
REMARK       I    between atoms: N3_14  and  C8_16 
REMARK    9  A    between atoms: C8_16  and  C9_18 
REMARK   10  A    between atoms: C9_18  and  N4_19 
REMARK   11  A    between atoms: C9_18  and  C10_23 
REMARK   12  A    between atoms: C10_23  and  C11_24 
ROOT
HETATM    1  N3  UNL     1      26.457 -76.733   8.535  1.00  0.00    -0.351 N 
ATOM      2  H3  UNL     1      25.769 -77.455   8.321  1.00  0.00     0.163 HD
HETATM    3  C8  UNL     1      26.666 -76.363   9.868  1.00  0.00     0.249 C 
HETATM    4  O4  UNL     1      27.516 -75.469  10.133  1.00  0.00    -0.271 OA
ENDROOT
BRANCH   1   5
HETATM    5  C4  UNL     1      27.196 -76.111   7.449  1.00  0.00     0.132 C 
BRANCH   5   6
HETATM    6  C3  UNL     1      27.813 -77.146   6.543  1.00  0.00     0.159 C 
BRANCH   6   7
HETATM    7  C2  UNL     1      28.761 -78.022   7.312  1.00  0.00     0.176 C 
BRANCH   7   8
HETATM    8  N1  UNL     1      28.230 -79.390   7.418  1.00  0.00    -0.099 NA
BRANCH   8   9
HETATM    9  O1  UNL     1      27.444 -79.530   8.487  1.00  0.00    -0.291 OA
HETATM   10  C1  UNL     1      26.850 -80.770   8.600  1.00  0.00     0.231 C 
ENDBRANCH   8   9
ENDBRANCH   7   8
ENDBRANCH   6   7
BRANCH   6  11
HETATM   11  O2  UNL     1      26.759 -77.912   6.007  1.00  0.00    -0.392 OA
ATOM     12  H2  UNL     1      26.028 -77.353   5.774  1.00  0.00     0.210 HD
ENDBRANCH   6  11
ENDBRANCH   5   6
BRANCH   5  13
HETATM   13  C5  UNL     1      26.361 -75.168   6.653  1.00  0.00     0.154 C 
BRANCH  13  14
HETATM   14  N2  UNL     1      26.563 -73.783   7.044  1.00  0.00    -0.340 N 
HETATM   15  C6  UNL     1      26.194 -72.391   6.928  1.00  0.00     0.228 A 
HETATM   16  C7  UNL     1      27.271 -72.807   7.818  1.00  0.00     0.238 A 
HETATM   17  O3  UNL     1      28.161 -72.505   8.652  1.00  0.00    -0.272 OA
ENDBRANCH  13  14
ENDBRANCH   5  13
ENDBRANCH   1   5
BRANCH   3  18
HETATM   18  C9  UNL     1      25.946 -76.957  11.020  1.00  0.00     0.278 C 
BRANCH  18  19
HETATM   19  N4  UNL     1      25.645 -78.342  10.855  1.00  0.00    -0.066 N 
ATOM     20  H43 UNL     1      25.625 -78.591   9.867  1.00  0.00     0.275 HD
ATOM     21  H42 UNL     1      26.429 -78.920  11.160  1.00  0.00     0.275 HD
ATOM     22  H41 UNL     1      24.784 -78.632  11.317  1.00  0.00     0.275 HD
ENDBRANCH  18  19
BRANCH  18  23
HETATM   23  C10 UNL     1      24.736 -76.118  11.345  1.00  0.00     0.081 C 
BRANCH  23  24
HETATM   24  C11 UNL     1      24.611 -75.808  12.770  1.00  0.00    -0.056 A 
HETATM   25  C12 UNL     1      25.753 -75.456  13.465  1.00  0.00     0.007 A 
HETATM   26  C13 UNL     1      25.719 -75.148  14.813  1.00  0.00     0.001 A 
HETATM   27  C14 UNL     1      24.497 -75.207  15.445  1.00  0.00     0.000 A 
HETATM   28  C15 UNL     1      23.334 -75.561  14.759  1.00  0.00     0.001 A 
HETATM   29  C16 UNL     1      23.395 -75.863  13.414  1.00  0.00     0.007 A 
ENDBRANCH  23  24
ENDBRANCH  18  23
ENDBRANCH   3  18
TORSDOF 12
ENDMDL
MODEL 4
REMARK VINA RESULT: -6.627327448      2.062      2.472
REMARK  12 active torsions:
REMARK  status: ('A' for Active; 'I' for Inactive)
REMARK    1  A    between atoms: O1_2  and  N1_3 
REMARK    2  A    between atoms: N1_3  and  C2_4 
REMARK    3  A    between atoms: C2_4  and  C3_5 
REMARK    4  A    between atoms: C3_5  and  O2_6 
REMARK    5  A    between atoms: C3_5  and  C4_8 
REMARK    6  A    between atoms: C4_8  and  C5_9 
REMARK    7  A    between atoms: C4_8  and  N3_14 
REMARK    8  A    between atoms: C5_9  and  N2_10 
REMARK       I    between atoms: N3_14  and  C8_16 
REMARK    9  A    between atoms: C8_16  and  C9_18 
REMARK   10  A    between atoms: C9_18  and  N4_19 
REMARK   11  A    between atoms: C9_18  and  C10_23 
REMARK   12  A    between atoms: C10_23  and  C11_24 
ROOT
HETATM    1  N3  UNL     1      24.740 -78.248  10.463  1.00  0.00    -0.351 N 
ATOM      2  H3  UNL     1      24.066 -77.951   9.757  1.00  0.00     0.163 HD
HETATM    3  C8  UNL     1      24.358 -78.261  11.808  1.00  0.00     0.249 C 
HETATM    4  O4  UNL     1      25.193 -78.629  12.680  1.00  0.00    -0.271 OA
ENDROOT
BRANCH   1   5
HETATM    5  C4  UNL     1      26.074 -78.648  10.046  1.00  0.00     0.132 C 
BRANCH   5   6
HETATM    6  C3  UNL     1      26.108 -80.101   9.641  1.00  0.00     0.159 C 
BRANCH   6   7
HETATM    7  C2  UNL     1      24.829 -80.488   8.957  1.00  0.00     0.176 C 
BRANCH   7   8
HETATM    8  N1  UNL     1      23.940 -81.200   9.889  1.00  0.00    -0.099 NA
BRANCH   8   9
HETATM    9  O1  UNL     1      22.716 -80.667   9.902  1.00  0.00    -0.291 OA
HETATM   10  C1  UNL     1      21.747 -81.451   9.309  1.00  0.00     0.231 C 
ENDBRANCH   8   9
ENDBRANCH   7   8
ENDBRANCH   6   7
BRANCH   6  11
HETATM   11  O2  UNL     1      27.202 -80.263   8.768  1.00  0.00    -0.392 OA
ATOM     12  H2  UNL     1      27.627 -81.099   8.920  1.00  0.00     0.210 HD
ENDBRANCH   6  11
ENDBRANCH   5   6
BRANCH   5  13
HETATM   13  C5  UNL     1      26.611 -77.798   8.947  1.00  0.00     0.154 C 
BRANCH  13  14
HETATM   14  N2  UNL     1      26.997 -76.475   9.408  1.00  0.00    -0.340 N 
HETATM   15  C6  UNL     1      26.876 -75.410  10.376  1.00  0.00     0.228 A 
HETATM   16  C7  UNL     1      27.771 -75.281   9.233  1.00  0.00     0.238 A 
HETATM   17  O3  UNL     1      28.607 -74.602   8.586  1.00  0.00    -0.272 OA
ENDBRANCH  13  14
ENDBRANCH   5  13
ENDBRANCH   1   5
BRANCH   3  18
HETATM   18  C9  UNL     1      23.017 -77.866  12.297  1.00  0.00     0.278 C 
BRANCH  18  19
HETATM   19  N4  UNL     1      21.943 -78.410  11.530  1.00  0.00    -0.066 N 
ATOM     20  H43 UNL     1      22.300 -78.911  10.717  1.00  0.00     0.275 HD
ATOM     21  H42 UNL     1      21.501 -79.183  12.027  1.00  0.00     0.275 HD
ATOM     22  H41 UNL     1      21.249 -77.718  11.250  1.00  0.00     0.275 HD
ENDBRANCH  18  19
BRANCH  18  23
HETATM   23  C10 UNL     1      22.952 -76.365  12.435  1.00  0.00     0.081 C 
BRANCH  23  24
HETATM   24  C11 UNL     1      23.743 -75.850  13.553  1.00  0.00    -0.056 A 
HETATM   25  C12 UNL     1      24.671 -74.859  13.296  1.00  0.00     0.007 A 
HETATM   26  C13 UNL     1      25.457 -74.320  14.298  1.00  0.00     0.001 A 
HETATM   27  C14 UNL     1      25.282 -74.811  15.572  1.00  0.00     0.000 A 
HETATM   28  C15 UNL     1      24.350 -75.811  15.851  1.00  0.00     0.001 A 
HETATM   29  C16 UNL     1      23.577 -76.332  14.832  1.00  0.00     0.007 A 
ENDBRANCH  23  24
ENDBRANCH  18  23
ENDBRANCH   3  18
TORSDOF 12
ENDMDL
MODEL 5
REMARK VINA RESULT: -6.587199981      1.614      2.033
REMARK  12 active torsions:
REMARK  status: ('A' for Active; 'I' for Inactive)
REMARK    1  A    between atoms: O1_2  and  N1_3 
REMARK    2  A    between atoms: N1_3  and  C2_4 
REMARK    3  A    between atoms: C2_4  and  C3_5 
REMARK    4  A    between atoms: C3_5  and  O2_6 
REMARK    5  A    between atoms: C3_5  and  C4_8 
REMARK    6  A    between atoms: C4_8  and  C5_9 
REMARK    7  A    between atoms: C4_8  and  N3_14 
REMARK    8  A    between atoms: C5_9  and  N2_10 
REMARK       I    between atoms: N3_14  and  C8_16 
REMARK    9  A    between atoms: C8_16  and  C9_18 
REMARK   10  A    between atoms: C9_18  and  N4_19 
REMARK   11  A    between atoms: C9_18  and  C10_23 
REMARK   12  A    between atoms: C10_23  and  C11_24 
ROOT
HETATM    1  N3  UNL     1      25.819 -78.670   9.449  1.00  0.00    -0.351 N 
ATOM      2  H3  UNL     1      25.137 -79.409   9.279  1.00  0.00     0.163 HD
HETATM    3  C8  UNL     1      25.654 -77.832  10.557  1.00  0.00     0.249 C 
HETATM    4  O4  UNL     1      26.498 -76.916  10.766  1.00  0.00    -0.271 OA
ENDROOT
BRANCH   1   5
HETATM    5  C4  UNL     1      26.937 -78.511   8.534  1.00  0.00     0.132 C 
BRANCH   5   6
HETATM    6  C3  UNL     1      27.552 -79.843   8.184  1.00  0.00     0.159 C 
BRANCH   6   7
HETATM    7  C2  UNL     1      26.575 -80.956   8.432  1.00  0.00     0.176 C 
BRANCH   7   8
HETATM    8  N1  UNL     1      26.746 -81.502   9.788  1.00  0.00    -0.099 NA
BRANCH   8   9
HETATM    9  O1  UNL     1      25.630 -81.381  10.509  1.00  0.00    -0.291 OA
HETATM   10  C1  UNL     1      25.772 -81.714  11.841  1.00  0.00     0.231 C 
ENDBRANCH   8   9
ENDBRANCH   7   8
ENDBRANCH   6   7
BRANCH   6  11
HETATM   11  O2  UNL     1      27.906 -79.793   6.822  1.00  0.00    -0.392 OA
ATOM     12  H2  UNL     1      28.838 -79.943   6.716  1.00  0.00     0.210 HD
ENDBRANCH   6  11
ENDBRANCH   5   6
BRANCH   5  13
HETATM   13  C5  UNL     1      26.562 -77.779   7.292  1.00  0.00     0.154 C 
BRANCH  13  14
HETATM   14  N2  UNL     1      26.793 -76.348   7.401  1.00  0.00    -0.340 N 
HETATM   15  C6  UNL     1      26.396 -74.996   7.082  1.00  0.00     0.228 A 
HETATM   16  C7  UNL     1      27.577 -75.256   7.896  1.00  0.00     0.238 A 
HETATM   17  O3  UNL     1      28.557 -74.818   8.549  1.00  0.00    -0.272 OA
ENDBRANCH  13  14
ENDBRANCH   5  13
ENDBRANCH   1   5
BRANCH   3  18
HETATM   18  C9  UNL     1      24.538 -77.940  11.525  1.00  0.00     0.278 C 
BRANCH  18  19
HETATM   19  N4  UNL     1      23.552 -78.904  11.158  1.00  0.00    -0.066 N 
ATOM     20  H43 UNL     1      23.962 -79.636  10.580  1.00  0.00     0.275 HD
ATOM     21  H42 UNL     1      23.273 -79.460  11.967  1.00  0.00     0.275 HD
ATOM     22  H41 UNL     1      22.735 -78.500  10.700  1.00  0.00     0.275 HD
ENDBRANCH  18  19
BRANCH  18  23
HETATM   23  C10 UNL     1      23.965 -76.571  11.790  1.00  0.00     0.081 C 
BRANCH  23  24
HETATM   24  C11 UNL     1      24.327 -76.034  13.103  1.00  0.00    -0.056 A 
HETATM   25  C12 UNL     1      23.982 -76.762  14.225  1.00  0.00     0.007 A 
HETATM   26  C13 UNL     1      24.287 -76.323  15.500  1.00  0.00     0.001 A 
HETATM   27  C14 UNL     1      24.953 -75.123  15.614  1.00  0.00     0.000 A 
HETATM   28  C15 UNL     1      25.309 -74.374  14.492  1.00  0.00     0.001 A 
HETATM   29  C16 UNL     1      24.992 -74.835  13.230  1.00  0.00     0.007 A 
ENDBRANCH  23  24
ENDBRANCH  18  23
ENDBRANCH   3  18
TORSDOF 12
ENDMDL
