MODEL 1
REMARK VINA RESULT: -8.326655964      0.000      0.000
REMARK  5 active torsions:
REMARK  status: ('A' for Active; 'I' for Inactive)
REMARK    1  A    between atoms: C2_2  and  O1_3 
REMARK    2  A    between atoms: O1_3  and  C3_4 
REMARK       I    between atoms: C3_4  and  N1_6 
REMARK    3  A    between atoms: C8_12  and  C9_13 
REMARK    4  A    between atoms: C10_15  and  N2_16 
REMARK    5  A    between atoms: N2_16  and  O5_18 
ROOT
HETATM    1  C3  UNL     1      21.669  11.704  44.947  1.00  0.00     0.363 C 
HETATM    2  O2  UNL     1      22.111  11.202  43.884  1.00  0.00    -0.238 OA
HETATM    3  N1  UNL     1      20.258  11.772  45.115  1.00  0.00    -0.323 N 
HETATM    4  C4  UNL     1      19.683  12.336  46.316  1.00  0.00     0.136 C 
HETATM    5  C5  UNL     1      18.410  13.105  46.083  1.00  0.00     0.103 C 
HETATM    6  C6  UNL     1      18.229  13.442  44.625  1.00  0.00     0.158 C 
HETATM    7  O3  UNL     1      17.813  14.553  44.222  1.00  0.00    -0.293 OA
HETATM    8  C7  UNL     1      18.553  12.425  43.605  1.00  0.00     0.008 C 
HETATM    9  C8  UNL     1      18.118  12.579  42.369  1.00  0.00     0.050 C 
HETATM   10  C15 UNL     1      19.380  11.266  44.057  1.00  0.00     0.170 C 
ENDROOT
BRANCH   9  11
HETATM   11  C9  UNL     1      18.382  11.640  41.307  1.00  0.00     0.086 A 
HETATM   12  O4  UNL     1      18.842  10.437  41.457  1.00  0.00    -0.290 OA
HETATM   13  C10 UNL     1      18.984   9.809  40.316  1.00  0.00     0.192 A 
HETATM   14  C12 UNL     1      18.580  10.682  39.336  1.00  0.00     0.096 A 
HETATM   15 CL1  UNL     1      18.552  10.390  37.612  1.00  0.00    -0.079 Cl
HETATM   16  C13 UNL     1      18.192  11.854  39.946  1.00  0.00    -0.002 A 
HETATM   17  C14 UNL     1      17.688  13.075  39.309  1.00  0.00     0.053 C 
BRANCH  13  18
HETATM   18  N2  UNL     1      19.456   8.498  40.104  1.00  0.00    -0.241 N 
HETATM   19  C11 UNL     1      20.842   8.202  40.340  1.00  0.00     0.188 C 
BRANCH  18  20
HETATM   20  O5  UNL     1      18.703   7.599  39.720  1.00  0.00    -0.286 OA
ATOM     21  H5  UNL     1      18.941   6.684  39.808  1.00  0.00     0.244 HD
ENDBRANCH  18  20
ENDBRANCH  13  18
ENDBRANCH   9  11
BRANCH   1  22
HETATM   22  O1  UNL     1      22.545  12.173  45.923  1.00  0.00    -0.304 OA
BRANCH  22  23
HETATM   23  C2  UNL     1      23.794  11.494  46.062  1.00  0.00     0.176 C 
HETATM   24  C1  UNL     1      23.767  10.659  47.314  1.00  0.00     0.034 C 
ENDBRANCH  22  23
ENDBRANCH   1  22
TORSDOF 5
ENDMDL
MODEL 2
REMARK VINA RESULT: -7.807824703      3.241      7.545
REMARK  5 active torsions:
REMARK  status: ('A' for Active; 'I' for Inactive)
REMARK    1  A    between atoms: C2_2  and  O1_3 
REMARK    2  A    between atoms: O1_3  and  C3_4 
REMARK       I    between atoms: C3_4  and  N1_6 
REMARK    3  A    between atoms: C8_12  and  C9_13 
REMARK    4  A    between atoms: C10_15  and  N2_16 
REMARK    5  A    between atoms: N2_16  and  O5_18 
ROOT
HETATM    1  C3  UNL     1      19.113  10.407  41.096  1.00  0.00     0.363 C 
HETATM    2  O2  UNL     1      19.317  11.254  42.000  1.00  0.00    -0.238 OA
HETATM    3  N1  UNL     1      19.885   9.212  41.117  1.00  0.00    -0.323 N 
HETATM    4  C4  UNL     1      19.699   8.194  40.107  1.00  0.00     0.136 C 
HETATM    5  C5  UNL     1      20.968   7.491  39.704  1.00  0.00     0.103 C 
HETATM    6  C6  UNL     1      22.187   8.258  40.149  1.00  0.00     0.158 C 
HETATM    7  O3  UNL     1      23.206   8.405  39.436  1.00  0.00    -0.293 OA
HETATM    8  C7  UNL     1      22.200   8.874  41.491  1.00  0.00     0.008 C 
HETATM    9  C8  UNL     1      23.343   9.272  42.014  1.00  0.00     0.050 C 
HETATM   10  C15 UNL     1      20.879   9.013  42.174  1.00  0.00     0.170 C 
ENDROOT
BRANCH   9  11
HETATM   11  C9  UNL     1      23.456   9.883  43.316  1.00  0.00     0.086 A 
HETATM   12  O4  UNL     1      22.666  10.792  43.796  1.00  0.00    -0.290 OA
HETATM   13  C10 UNL     1      23.007  11.165  45.005  1.00  0.00     0.192 A 
HETATM   14  C12 UNL     1      24.119  10.432  45.341  1.00  0.00     0.096 A 
HETATM   15 CL1  UNL     1      25.017  10.507  46.840  1.00  0.00    -0.079 Cl
HETATM   16  C13 UNL     1      24.422   9.609  44.278  1.00  0.00    -0.002 A 
HETATM   17  C14 UNL     1      25.523   8.648  44.171  1.00  0.00     0.053 C 
BRANCH  13  18
HETATM   18  N2  UNL     1      22.379  12.124  45.824  1.00  0.00    -0.241 N 
HETATM   19  C11 UNL     1      21.521  11.685  46.890  1.00  0.00     0.188 C 
BRANCH  18  20
HETATM   20  O5  UNL     1      22.551  13.332  45.644  1.00  0.00    -0.286 OA
ATOM     21  H5  UNL     1      22.070  13.805  44.976  1.00  0.00     0.244 HD
ENDBRANCH  18  20
ENDBRANCH  13  18
ENDBRANCH   9  11
BRANCH   1  22
HETATM   22  O1  UNL     1      18.158  10.643  40.110  1.00  0.00    -0.304 OA
BRANCH  22  23
HETATM   23  C2  UNL     1      18.511  11.544  39.060  1.00  0.00     0.176 C 
HETATM   24  C1  UNL     1      17.729  12.821  39.219  1.00  0.00     0.034 C 
ENDBRANCH  22  23
ENDBRANCH   1  22
TORSDOF 5
ENDMDL
MODEL 3
REMARK VINA RESULT: -7.420394557      2.693      4.458
REMARK  5 active torsions:
REMARK  status: ('A' for Active; 'I' for Inactive)
REMARK    1  A    between atoms: C2_2  and  O1_3 
REMARK    2  A    between atoms: O1_3  and  C3_4 
REMARK       I    between atoms: C3_4  and  N1_6 
REMARK    3  A    between atoms: C8_12  and  C9_13 
REMARK    4  A    between atoms: C10_15  and  N2_16 
REMARK    5  A    between atoms: N2_16  and  O5_18 
ROOT
HETATM    1  C3  UNL     1      17.097  14.536  44.516  1.00  0.00     0.363 C 
HETATM    2  O2  UNL     1      16.849  14.480  43.286  1.00  0.00    -0.238 OA
HETATM    3  N1  UNL     1      18.160  13.734  45.018  1.00  0.00    -0.323 N 
HETATM    4  C4  UNL     1      18.499  13.754  46.424  1.00  0.00     0.136 C 
HETATM    5  C5  UNL     1      18.940  12.420  46.966  1.00  0.00     0.103 C 
HETATM    6  C6  UNL     1      18.564  11.295  46.035  1.00  0.00     0.158 C 
HETATM    7  O3  UNL     1      18.109  10.198  46.432  1.00  0.00    -0.293 OA
HETATM    8  C7  UNL     1      18.732  11.478  44.580  1.00  0.00     0.008 C 
HETATM    9  C8  UNL     1      18.708  10.426  43.784  1.00  0.00     0.050 C 
HETATM   10  C15 UNL     1      18.915  12.880  44.099  1.00  0.00     0.170 C 
ENDROOT
BRANCH   9  11
HETATM   11  C9  UNL     1      18.865  10.504  42.353  1.00  0.00     0.086 A 
HETATM   12  O4  UNL     1      18.178  11.263  41.556  1.00  0.00    -0.290 OA
HETATM   13  C10 UNL     1      18.535  11.127  40.303  1.00  0.00     0.192 A 
HETATM   14  C12 UNL     1      19.544  10.196  40.282  1.00  0.00     0.096 A 
HETATM   15 CL1  UNL     1      20.410   9.611  38.880  1.00  0.00    -0.079 Cl
HETATM   16  C13 UNL     1      19.770   9.787  41.578  1.00  0.00    -0.002 A 
HETATM   17  C14 UNL     1      20.750   8.805  42.053  1.00  0.00     0.053 C 
BRANCH  13  18
HETATM   18  N2  UNL     1      18.007  11.790  39.177  1.00  0.00    -0.241 N 
HETATM   19  C11 UNL     1      17.744  13.201  39.251  1.00  0.00     0.188 C 
BRANCH  18  20
HETATM   20  O5  UNL     1      17.766  11.184  38.130  1.00  0.00    -0.286 OA
ATOM     21  H5  UNL     1      17.364  11.620  37.388  1.00  0.00     0.244 HD
ENDBRANCH  18  20
ENDBRANCH  13  18
ENDBRANCH   9  11
BRANCH   1  22
HETATM   22  O1  UNL     1      16.347  15.363  45.350  1.00  0.00    -0.304 OA
BRANCH  22  23
HETATM   23  C2  UNL     1      16.820  16.696  45.544  1.00  0.00     0.176 C 
HETATM   24  C1  UNL     1      17.022  16.941  47.015  1.00  0.00     0.034 C 
ENDBRANCH  22  23
ENDBRANCH   1  22
TORSDOF 5
ENDMDL
MODEL 4
REMARK VINA RESULT: -7.280331632      3.058      6.785
REMARK  5 active torsions:
REMARK  status: ('A' for Active; 'I' for Inactive)
REMARK    1  A    between atoms: C2_2  and  O1_3 
REMARK    2  A    between atoms: O1_3  and  C3_4 
REMARK       I    between atoms: C3_4  and  N1_6 
REMARK    3  A    between atoms: C8_12  and  C9_13 
REMARK    4  A    between atoms: C10_15  and  N2_16 
REMARK    5  A    between atoms: N2_16  and  O5_18 
ROOT
HETATM    1  C3  UNL     1      18.938  10.101  40.333  1.00  0.00     0.363 C 
HETATM    2  O2  UNL     1      18.195  11.083  40.579  1.00  0.00    -0.238 OA
HETATM    3  N1  UNL     1      19.564   9.447  41.430  1.00  0.00    -0.323 N 
HETATM    4  C4  UNL     1      20.429   8.308  41.216  1.00  0.00     0.136 C 
HETATM    5  C5  UNL     1      21.601   8.244  42.159  1.00  0.00     0.103 C 
HETATM    6  C6  UNL     1      21.826   9.565  42.849  1.00  0.00     0.158 C 
HETATM    7  O3  UNL     1      22.962  10.058  43.038  1.00  0.00    -0.293 OA
HETATM    8  C7  UNL     1      20.661  10.332  43.334  1.00  0.00     0.008 C 
HETATM    9  C8  UNL     1      20.841  11.313  44.197  1.00  0.00     0.050 C 
HETATM   10  C15 UNL     1      19.328   9.935  42.791  1.00  0.00     0.170 C 
ENDROOT
BRANCH   9  11
HETATM   11  C9  UNL     1      19.767  12.116  44.728  1.00  0.00     0.086 A 
HETATM   12  O4  UNL     1      19.139  13.056  44.091  1.00  0.00    -0.290 OA
HETATM   13  C10 UNL     1      18.208  13.620  44.821  1.00  0.00     0.192 A 
HETATM   14  C12 UNL     1      18.232  12.989  46.041  1.00  0.00     0.096 A 
HETATM   15 CL1  UNL     1      17.208  13.323  47.419  1.00  0.00    -0.079 Cl
HETATM   16  C13 UNL     1      19.218  12.028  46.002  1.00  0.00    -0.002 A 
HETATM   17  C14 UNL     1      19.615  11.105  47.069  1.00  0.00     0.053 C 
BRANCH  13  18
HETATM   18  N2  UNL     1      17.338  14.666  44.455  1.00  0.00    -0.241 N 
HETATM   19  C11 UNL     1      17.132  15.760  45.363  1.00  0.00     0.188 C 
BRANCH  18  20
HETATM   20  O5  UNL     1      16.750  14.662  43.370  1.00  0.00    -0.286 OA
ATOM     21  H5  UNL     1      15.805  14.744  43.320  1.00  0.00     0.244 HD
ENDBRANCH  18  20
ENDBRANCH  13  18
ENDBRANCH   9  11
BRANCH   1  22
HETATM   22  O1  UNL     1      19.133   9.676  39.020  1.00  0.00    -0.304 OA
BRANCH  22  23
HETATM   23  C2  UNL     1      20.018  10.448  38.208  1.00  0.00     0.176 C 
HETATM   24  C1  UNL     1      21.315   9.702  38.042  1.00  0.00     0.034 C 
ENDBRANCH  22  23
ENDBRANCH   1  22
TORSDOF 5
ENDMDL
MODEL 5
REMARK VINA RESULT: -7.278671519      3.115      7.093
REMARK  5 active torsions:
REMARK  status: ('A' for Active; 'I' for Inactive)
REMARK    1  A    between atoms: C2_2  and  O1_3 
REMARK    2  A    between atoms: O1_3  and  C3_4 
REMARK       I    between atoms: C3_4  and  N1_6 
REMARK    3  A    between atoms: C8_12  and  C9_13 
REMARK    4  A    between atoms: C10_15  and  N2_16 
REMARK    5  A    between atoms: N2_16  and  O5_18 
ROOT
HETATM    1  C3  UNL     1      18.795  10.864  40.823  1.00  0.00     0.363 C 
HETATM    2  O2  UNL     1      18.043  11.821  41.132  1.00  0.00    -0.238 OA
HETATM    3  N1  UNL     1      19.362  10.094  41.878  1.00  0.00    -0.323 N 
HETATM    4  C4  UNL     1      20.235   8.978  41.591  1.00  0.00     0.136 C 
HETATM    5  C5  UNL     1      21.356   8.807  42.581  1.00  0.00     0.103 C 
HETATM    6  C6  UNL     1      21.547  10.047  43.417  1.00  0.00     0.158 C 
HETATM    7  O3  UNL     1      22.673  10.509  43.714  1.00  0.00    -0.293 OA
HETATM    8  C7  UNL     1      20.360  10.768  43.918  1.00  0.00     0.008 C 
HETATM    9  C8  UNL     1      20.496  11.653  44.887  1.00  0.00     0.050 C 
HETATM   10  C15 UNL     1      19.056  10.440  43.268  1.00  0.00     0.170 C 
ENDROOT
BRANCH   9  11
HETATM   11  C9  UNL     1      19.398  12.404  45.442  1.00  0.00     0.086 A 
HETATM   12  O4  UNL     1      18.794  13.399  44.867  1.00  0.00    -0.290 OA
HETATM   13  C10 UNL     1      17.830  13.893  45.605  1.00  0.00     0.192 A 
HETATM   14  C12 UNL     1      17.805  13.154  46.762  1.00  0.00     0.096 A 
HETATM   15 CL1  UNL     1      16.723  13.361  48.121  1.00  0.00    -0.079 Cl
HETATM   16  C13 UNL     1      18.796  12.201  46.678  1.00  0.00    -0.002 A 
HETATM   17  C14 UNL     1      19.150  11.184  47.673  1.00  0.00     0.053 C 
BRANCH  13  18
HETATM   18  N2  UNL     1      16.973  14.969  45.299  1.00  0.00    -0.241 N 
HETATM   19  C11 UNL     1      17.138  16.218  45.989  1.00  0.00     0.188 C 
BRANCH  18  20
HETATM   20  O5  UNL     1      16.084  14.859  44.450  1.00  0.00    -0.286 OA
ATOM     21  H5  UNL     1      16.291  14.723  43.533  1.00  0.00     0.244 HD
ENDBRANCH  18  20
ENDBRANCH  13  18
ENDBRANCH   9  11
BRANCH   1  22
HETATM   22  O1  UNL     1      19.058  10.576  39.486  1.00  0.00    -0.304 OA
BRANCH  22  23
HETATM   23  C2  UNL     1      18.234  11.211  38.507  1.00  0.00     0.176 C 
HETATM   24  C1  UNL     1      17.848  10.205  37.456  1.00  0.00     0.034 C 
ENDBRANCH  22  23
ENDBRANCH   1  22
TORSDOF 5
ENDMDL
