MODEL 1
REMARK VINA RESULT: -8.520362243      0.000      0.000
REMARK  4 active torsions:
REMARK  status: ('A' for Active; 'I' for Inactive)
REMARK    1  A    between atoms: C5_6  and  C6_7 
REMARK    2  A    between atoms: C6_7  and  O3_9 
REMARK    3  A    between atoms: O3_9  and  C7_10 
REMARK    4  A    between atoms: C7_10  and  C8_11 
ROOT
HETATM    1  C7  UNL     1      18.926  10.190  40.013  1.00  0.00     0.211 C 
ENDROOT
BRANCH   1   2
HETATM    2  O3  UNL     1      19.006   8.829  40.169  1.00  0.00    -0.315 OA
BRANCH   2   3
HETATM    3  C6  UNL     1      19.991   7.941  39.882  1.00  0.00     0.297 C 
HETATM    4  O2  UNL     1      19.671   6.801  39.447  1.00  0.00    -0.259 OA
BRANCH   3   5
HETATM    5  C5  UNL     1      21.427   8.274  40.063  1.00  0.00     0.092 A 
HETATM    6  C3  UNL     1      22.319   8.555  39.058  1.00  0.00     0.067 A 
HETATM    7  O1  UNL     1      23.497   8.803  39.590  1.00  0.00    -0.317 OA
HETATM    8  C4  UNL     1      21.990   8.569  37.604  1.00  0.00     0.078 C 
HETATM    9  C2  UNL     1      23.472   8.712  40.898  1.00  0.00     0.072 A 
HETATM   10  C1  UNL     1      24.589   8.919  41.861  1.00  0.00     0.078 C 
HETATM   11  C16 UNL     1      22.153   8.374  41.224  1.00  0.00     0.082 A 
HETATM   12 CL1  UNL     1      21.510   8.115  42.824  1.00  0.00    -0.081 Cl
ENDBRANCH   3   5
ENDBRANCH   2   3
ENDBRANCH   1   2
BRANCH   1  13
HETATM   13  C8  UNL     1      18.614  10.928  41.280  1.00  0.00     0.149 C 
HETATM   14  C9  UNL     1      18.507  12.412  40.866  1.00  0.00     0.037 C 
HETATM   15  C10 UNL     1      17.877  13.083  42.072  1.00  0.00     0.040 C 
HETATM   16  C11 UNL     1      18.676  12.798  43.279  1.00  0.00     0.180 C 
HETATM   17  O4  UNL     1      17.813  12.492  44.350  1.00  0.00    -0.346 OA
HETATM   18  C15 UNL     1      19.605  11.676  43.243  1.00  0.00     0.292 C 
HETATM   19  C12 UNL     1      18.597  11.762  45.236  1.00  0.00     0.160 C 
HETATM   20  C13 UNL     1      17.660  10.970  46.120  1.00  0.00     0.078 C 
HETATM   21  C14 UNL     1      19.423  12.654  46.119  1.00  0.00     0.078 C 
HETATM   22  O5  UNL     1      19.353  10.955  44.416  1.00  0.00    -0.324 OA
HETATM   23  O6  UNL     1      19.585  10.830  42.189  1.00  0.00    -0.351 OA
ENDBRANCH   1  13
TORSDOF 4
ENDMDL
MODEL 2
REMARK VINA RESULT: -8.310137157      1.735      5.606
REMARK  4 active torsions:
REMARK  status: ('A' for Active; 'I' for Inactive)
REMARK    1  A    between atoms: C5_6  and  C6_7 
REMARK    2  A    between atoms: C6_7  and  O3_9 
REMARK    3  A    between atoms: O3_9  and  C7_10 
REMARK    4  A    between atoms: C7_10  and  C8_11 
ROOT
HETATM    1  C7  UNL     1      19.806   8.024  39.741  1.00  0.00     0.211 C 
ENDROOT
BRANCH   1   2
HETATM    2  O3  UNL     1      18.823   8.980  39.802  1.00  0.00    -0.315 OA
BRANCH   2   3
HETATM    3  C6  UNL     1      18.858  10.327  39.645  1.00  0.00     0.297 C 
HETATM    4  O2  UNL     1      19.169  10.798  38.517  1.00  0.00    -0.259 OA
BRANCH   3   5
HETATM    5  C5  UNL     1      18.539  11.256  40.759  1.00  0.00     0.092 A 
HETATM    6  C3  UNL     1      17.965  12.497  40.631  1.00  0.00     0.067 A 
HETATM    7  O1  UNL     1      17.833  13.032  41.827  1.00  0.00    -0.317 OA
HETATM    8  C4  UNL     1      17.563  13.122  39.339  1.00  0.00     0.078 C 
HETATM    9  C2  UNL     1      18.280  12.237  42.769  1.00  0.00     0.072 A 
HETATM   10  C1  UNL     1      18.308  12.472  44.240  1.00  0.00     0.078 C 
HETATM   11  C16 UNL     1      18.738  11.092  42.107  1.00  0.00     0.082 A 
HETATM   12 CL1  UNL     1      19.447   9.678  42.843  1.00  0.00    -0.081 Cl
ENDBRANCH   3   5
ENDBRANCH   2   3
ENDBRANCH   1   2
BRANCH   1  13
HETATM   13  C8  UNL     1      21.133   8.485  40.262  1.00  0.00     0.149 C 
HETATM   14  C9  UNL     1      22.127   8.240  39.106  1.00  0.00     0.037 C 
HETATM   15  C10 UNL     1      23.369   9.005  39.524  1.00  0.00     0.040 C 
HETATM   16  C11 UNL     1      23.804   8.561  40.862  1.00  0.00     0.180 C 
HETATM   17  O4  UNL     1      24.166   9.684  41.632  1.00  0.00    -0.346 OA
HETATM   18  C15 UNL     1      22.844   7.853  41.701  1.00  0.00     0.292 C 
HETATM   19  C12 UNL     1      24.052   9.257  42.951  1.00  0.00     0.160 C 
HETATM   20  C13 UNL     1      23.909  10.492  43.813  1.00  0.00     0.078 C 
HETATM   21  C14 UNL     1      25.276   8.514  43.407  1.00  0.00     0.078 C 
HETATM   22  O5  UNL     1      22.914   8.484  42.947  1.00  0.00    -0.324 OA
HETATM   23  O6  UNL     1      21.552   7.777  41.312  1.00  0.00    -0.351 OA
ENDBRANCH   1  13
TORSDOF 4
ENDMDL
MODEL 3
REMARK VINA RESULT: -8.102522772      1.026      1.177
REMARK  4 active torsions:
REMARK  status: ('A' for Active; 'I' for Inactive)
REMARK    1  A    between atoms: C5_6  and  C6_7 
REMARK    2  A    between atoms: C6_7  and  O3_9 
REMARK    3  A    between atoms: O3_9  and  C7_10 
REMARK    4  A    between atoms: C7_10  and  C8_11 
ROOT
HETATM    1  C7  UNL     1      18.779  10.899  41.203  1.00  0.00     0.211 C 
ENDROOT
BRANCH   1   2
HETATM    2  O3  UNL     1      18.824   9.528  41.173  1.00  0.00    -0.315 OA
BRANCH   2   3
HETATM    3  C6  UNL     1      19.517   8.661  40.392  1.00  0.00     0.297 C 
HETATM    4  O2  UNL     1      18.878   7.807  39.719  1.00  0.00    -0.259 OA
BRANCH   3   5
HETATM    5  C5  UNL     1      21.000   8.691  40.311  1.00  0.00     0.092 A 
HETATM    6  C3  UNL     1      21.737   8.940  39.179  1.00  0.00     0.067 A 
HETATM    7  O1  UNL     1      23.016   8.886  39.482  1.00  0.00    -0.317 OA
HETATM    8  C4  UNL     1      21.163   9.222  37.832  1.00  0.00     0.078 C 
HETATM    9  C2  UNL     1      23.207   8.617  40.751  1.00  0.00     0.072 A 
HETATM   10  C1  UNL     1      24.497   8.472  41.482  1.00  0.00     0.078 C 
HETATM   11  C16 UNL     1      21.927   8.488  41.303  1.00  0.00     0.082 A 
HETATM   12 CL1  UNL     1      21.541   8.128  42.965  1.00  0.00    -0.081 Cl
ENDBRANCH   3   5
ENDBRANCH   2   3
ENDBRANCH   1   2
BRANCH   1  13
HETATM   13  C8  UNL     1      18.561  11.468  42.573  1.00  0.00     0.149 C 
HETATM   14  C9  UNL     1      18.503  12.998  42.368  1.00  0.00     0.037 C 
HETATM   15  C10 UNL     1      17.961  13.522  43.685  1.00  0.00     0.040 C 
HETATM   16  C11 UNL     1      18.802  13.044  44.799  1.00  0.00     0.180 C 
HETATM   17  O4  UNL     1      17.977  12.629  45.863  1.00  0.00    -0.346 OA
HETATM   18  C15 UNL     1      19.677  11.902  44.564  1.00  0.00     0.292 C 
HETATM   19  C12 UNL     1      18.768  11.754  46.599  1.00  0.00     0.160 C 
HETATM   20  C13 UNL     1      17.838  10.885  47.418  1.00  0.00     0.078 C 
HETATM   21  C14 UNL     1      19.674  12.484  47.551  1.00  0.00     0.078 C 
HETATM   22  O5  UNL     1      19.446  11.038  45.640  1.00  0.00    -0.324 OA
HETATM   23  O6  UNL     1      19.568  11.209  43.408  1.00  0.00    -0.351 OA
ENDBRANCH   1  13
TORSDOF 4
ENDMDL
MODEL 4
REMARK VINA RESULT: -7.922892410      2.614      7.552
REMARK  4 active torsions:
REMARK  status: ('A' for Active; 'I' for Inactive)
REMARK    1  A    between atoms: C5_6  and  C6_7 
REMARK    2  A    between atoms: C6_7  and  O3_9 
REMARK    3  A    between atoms: O3_9  and  C7_10 
REMARK    4  A    between atoms: C7_10  and  C8_11 
ROOT
HETATM    1  C7  UNL     1      19.906  11.841  44.296  1.00  0.00     0.211 C 
ENDROOT
BRANCH   1   2
HETATM    2  O3  UNL     1      19.103  11.199  45.204  1.00  0.00    -0.315 OA
BRANCH   2   3
HETATM    3  C6  UNL     1      17.944  11.565  45.807  1.00  0.00     0.297 C 
HETATM    4  O2  UNL     1      17.004  10.726  45.874  1.00  0.00    -0.259 OA
BRANCH   3   5
HETATM    5  C5  UNL     1      17.755  12.918  46.389  1.00  0.00     0.092 A 
HETATM    6  C3  UNL     1      17.897  13.248  47.715  1.00  0.00     0.067 A 
HETATM    7  O1  UNL     1      17.653  14.533  47.862  1.00  0.00    -0.317 OA
HETATM    8  C4  UNL     1      18.265  12.294  48.798  1.00  0.00     0.078 C 
HETATM    9  C2  UNL     1      17.353  15.108  46.723  1.00  0.00     0.072 A 
HETATM   10  C1  UNL     1      17.016  16.536  46.467  1.00  0.00     0.078 C 
HETATM   11  C16 UNL     1      17.413  14.090  45.763  1.00  0.00     0.082 A 
HETATM   12 CL1  UNL     1      17.108  14.252  44.054  1.00  0.00    -0.081 Cl
ENDBRANCH   3   5
ENDBRANCH   2   3
ENDBRANCH   1   2
BRANCH   1  13
HETATM   13  C8  UNL     1      19.921  11.202  42.940  1.00  0.00     0.149 C 
HETATM   14  C9  UNL     1      18.517  11.467  42.354  1.00  0.00     0.037 C 
HETATM   15  C10 UNL     1      18.662  11.111  40.886  1.00  0.00     0.040 C 
HETATM   16  C11 UNL     1      19.175   9.735  40.752  1.00  0.00     0.180 C 
HETATM   17  O4  UNL     1      20.162   9.699  39.747  1.00  0.00    -0.346 OA
HETATM   18  C15 UNL     1      19.824   9.124  41.905  1.00  0.00     0.292 C 
HETATM   19  C12 UNL     1      20.919   8.571  40.038  1.00  0.00     0.160 C 
HETATM   20  C13 UNL     1      22.262   8.742  39.361  1.00  0.00     0.078 C 
HETATM   21  C14 UNL     1      20.288   7.317  39.501  1.00  0.00     0.078 C 
HETATM   22  O5  UNL     1      21.018   8.587  41.410  1.00  0.00    -0.324 OA
HETATM   23  O6  UNL     1      20.095   9.881  42.993  1.00  0.00    -0.351 OA
ENDBRANCH   1  13
TORSDOF 4
ENDMDL
MODEL 5
REMARK VINA RESULT: -7.758043856      2.610      7.252
REMARK  4 active torsions:
REMARK  status: ('A' for Active; 'I' for Inactive)
REMARK    1  A    between atoms: C5_6  and  C6_7 
REMARK    2  A    between atoms: C6_7  and  O3_9 
REMARK    3  A    between atoms: O3_9  and  C7_10 
REMARK    4  A    between atoms: C7_10  and  C8_11 
ROOT
HETATM    1  C7  UNL     1      18.038  12.552  41.561  1.00  0.00     0.211 C 
ENDROOT
BRANCH   1   2
HETATM    2  O3  UNL     1      18.618  12.742  42.790  1.00  0.00    -0.315 OA
BRANCH   2   3
HETATM    3  C6  UNL     1      18.265  12.328  44.033  1.00  0.00     0.297 C 
HETATM    4  O2  UNL     1      18.048  11.100  44.224  1.00  0.00    -0.259 OA
BRANCH   3   5
HETATM    5  C5  UNL     1      18.130  13.276  45.168  1.00  0.00     0.092 A 
HETATM    6  C3  UNL     1      18.851  13.238  46.336  1.00  0.00     0.067 A 
HETATM    7  O1  UNL     1      18.464  14.231  47.109  1.00  0.00    -0.317 OA
HETATM    8  C4  UNL     1      19.899  12.229  46.660  1.00  0.00     0.078 C 
HETATM    9  C2  UNL     1      17.523  14.950  46.547  1.00  0.00     0.072 A 
HETATM   10  C1  UNL     1      16.826  16.149  47.089  1.00  0.00     0.078 C 
HETATM   11  C16 UNL     1      17.292  14.355  45.300  1.00  0.00     0.082 A 
HETATM   12 CL1  UNL     1      16.141  14.873  44.097  1.00  0.00    -0.081 Cl
ENDBRANCH   3   5
ENDBRANCH   2   3
ENDBRANCH   1   2
BRANCH   1  13
HETATM   13  C8  UNL     1      18.780  11.590  40.683  1.00  0.00     0.149 C 
HETATM   14  C9  UNL     1      18.025  11.611  39.336  1.00  0.00     0.037 C 
HETATM   15  C10 UNL     1      18.965  10.902  38.380  1.00  0.00     0.040 C 
HETATM   16  C11 UNL     1      19.312   9.571  38.912  1.00  0.00     0.180 C 
HETATM   17  O4  UNL     1      20.690   9.339  38.734  1.00  0.00    -0.346 OA
HETATM   18  C15 UNL     1      19.091   9.315  40.330  1.00  0.00     0.292 C 
HETATM   19  C12 UNL     1      21.009   8.371  39.679  1.00  0.00     0.160 C 
HETATM   20  C13 UNL     1      22.502   8.444  39.915  1.00  0.00     0.078 C 
HETATM   21  C14 UNL     1      20.686   6.986  39.193  1.00  0.00     0.078 C 
HETATM   22  O5  UNL     1      20.284   8.743  40.787  1.00  0.00    -0.324 OA
HETATM   23  O6  UNL     1      18.749  10.339  41.144  1.00  0.00    -0.351 OA
ENDBRANCH   1  13
TORSDOF 4
ENDMDL
