MODEL 1
REMARK VINA RESULT: -7.539802566      0.000      0.000
REMARK  4 active torsions:
REMARK  status: ('A' for Active; 'I' for Inactive)
REMARK    1  A    between atoms: C2_2  and  O1_3 
REMARK    2  A    between atoms: O1_3  and  C3_4 
REMARK    3  A    between atoms: C3_4  and  C4_6 
REMARK    4  A    between atoms: C5_7  and  C6_8 
ROOT
HETATM    1  C4  UNL     1      19.812  12.355  44.653  1.00  0.00     0.133 C 
HETATM    2  C5  UNL     1      19.067  12.695  45.929  1.00  0.00     0.087 C 
HETATM    3  C10 UNL     1      18.372  11.524  46.561  1.00  0.00     0.203 C 
HETATM    4  C11 UNL     1      17.506  12.042  47.615  1.00  0.00     0.075 C 
HETATM    5  N1  UNL     1      16.810  12.471  48.444  1.00  0.00    -0.196 NA
HETATM    6  C12 UNL     1      17.543  10.841  45.556  1.00  0.00     0.278 C 
HETATM    7  O4  UNL     1      16.381  10.397  45.829  1.00  0.00    -0.264 OA
HETATM    8  O5  UNL     1      18.051  10.689  44.309  1.00  0.00    -0.308 OA
HETATM    9  C13 UNL     1      19.245  11.279  43.825  1.00  0.00     0.084 C 
HETATM   10  C14 UNL     1      18.832  11.812  42.436  1.00  0.00     0.039 C 
HETATM   11  C15 UNL     1      18.706  10.483  41.679  1.00  0.00     0.003 C 
HETATM   12  C16 UNL     1      20.057   9.882  41.992  1.00  0.00     0.003 C 
HETATM   13  C17 UNL     1      20.162  10.137  43.481  1.00  0.00     0.039 C 
ENDROOT
BRANCH   2  14
HETATM   14  C6  UNL     1      18.159  13.860  45.756  1.00  0.00     0.061 A 
HETATM   15  C7  UNL     1      17.153  14.050  44.853  1.00  0.00     0.037 A 
HETATM   16  C8  UNL     1      16.605  15.286  45.095  1.00  0.00     0.052 A 
HETATM   17  C9  UNL     1      17.321  15.796  46.156  1.00  0.00     0.145 A 
HETATM   18 CL1  UNL     1      16.976  17.391  46.837  1.00  0.00    -0.057 Cl
HETATM   19  O3  UNL     1      18.215  14.929  46.507  1.00  0.00    -0.302 OA
ENDBRANCH   2  14
BRANCH   1  20
HETATM   20  C3  UNL     1      21.271  12.237  44.931  1.00  0.00     0.266 C 
HETATM   21  O2  UNL     1      22.164  12.588  44.124  1.00  0.00    -0.265 OA
BRANCH  20  22
HETATM   22  O1  UNL     1      21.699  11.712  46.141  1.00  0.00    -0.321 OA
BRANCH  22  23
HETATM   23  C2  UNL     1      22.954  12.134  46.699  1.00  0.00     0.174 C 
HETATM   24  C1  UNL     1      22.817  13.351  47.551  1.00  0.00     0.034 C 
ENDBRANCH  22  23
ENDBRANCH  20  22
ENDBRANCH   1  20
TORSDOF 4
ENDMDL
MODEL 2
REMARK VINA RESULT: -6.281738389      3.441      5.825
REMARK  4 active torsions:
REMARK  status: ('A' for Active; 'I' for Inactive)
REMARK    1  A    between atoms: C2_2  and  O1_3 
REMARK    2  A    between atoms: O1_3  and  C3_4 
REMARK    3  A    between atoms: C3_4  and  C4_6 
REMARK    4  A    between atoms: C5_7  and  C6_8 
ROOT
HETATM    1  C4  UNL     1      18.018  11.359  44.662  1.00  0.00     0.133 C 
HETATM    2  C5  UNL     1      19.132  10.492  44.108  1.00  0.00     0.087 C 
HETATM    3  C10 UNL     1      20.509  10.948  44.492  1.00  0.00     0.203 C 
HETATM    4  C11 UNL     1      21.464  10.185  43.695  1.00  0.00     0.075 C 
HETATM    5  N1  UNL     1      22.214   9.577  43.044  1.00  0.00    -0.196 NA
HETATM    6  C12 UNL     1      20.661  12.377  44.178  1.00  0.00     0.278 C 
HETATM    7  O4  UNL     1      21.734  12.848  43.676  1.00  0.00    -0.264 OA
HETATM    8  O5  UNL     1      19.616  13.200  44.438  1.00  0.00    -0.308 OA
HETATM    9  C13 UNL     1      18.318  12.790  44.829  1.00  0.00     0.084 C 
HETATM   10  C14 UNL     1      17.397  13.654  43.939  1.00  0.00     0.039 C 
HETATM   11  C15 UNL     1      17.604  15.020  44.607  1.00  0.00     0.003 C 
HETATM   12  C16 UNL     1      17.301  14.651  46.041  1.00  0.00     0.003 C 
HETATM   13  C17 UNL     1      18.094  13.371  46.198  1.00  0.00     0.039 C 
ENDROOT
BRANCH   2  14
HETATM   14  C6  UNL     1      19.000  10.274  42.643  1.00  0.00     0.061 A 
HETATM   15  C7  UNL     1      18.736  11.175  41.652  1.00  0.00     0.037 A 
HETATM   16  C8  UNL     1      18.715  10.491  40.462  1.00  0.00     0.052 A 
HETATM   17  C9  UNL     1      18.974   9.178  40.797  1.00  0.00     0.145 A 
HETATM   18 CL1  UNL     1      19.049   7.900  39.578  1.00  0.00    -0.057 Cl
HETATM   19  O3  UNL     1      19.133   9.102  42.078  1.00  0.00    -0.302 OA
ENDBRANCH   2  14
BRANCH   1  20
HETATM   20  C3  UNL     1      17.399  10.701  45.845  1.00  0.00     0.266 C 
HETATM   21  O2  UNL     1      16.182  10.404  45.920  1.00  0.00    -0.265 OA
BRANCH  20  22
HETATM   22  O1  UNL     1      18.183  10.384  46.944  1.00  0.00    -0.321 OA
BRANCH  22  23
HETATM   23  C2  UNL     1      17.605  10.378  48.258  1.00  0.00     0.174 C 
HETATM   24  C1  UNL     1      18.339   9.485  49.199  1.00  0.00     0.034 C 
ENDBRANCH  22  23
ENDBRANCH  20  22
ENDBRANCH   1  20
TORSDOF 4
ENDMDL
MODEL 3
REMARK VINA RESULT: -6.280849660      2.480      4.399
REMARK  4 active torsions:
REMARK  status: ('A' for Active; 'I' for Inactive)
REMARK    1  A    between atoms: C2_2  and  O1_3 
REMARK    2  A    between atoms: O1_3  and  C3_4 
REMARK    3  A    between atoms: C3_4  and  C4_6 
REMARK    4  A    between atoms: C5_7  and  C6_8 
ROOT
HETATM    1  C4  UNL     1      17.714  12.948  46.030  1.00  0.00     0.133 C 
HETATM    2  C5  UNL     1      17.974  13.077  47.518  1.00  0.00     0.087 C 
HETATM    3  C10 UNL     1      19.423  12.966  47.896  1.00  0.00     0.203 C 
HETATM    4  C11 UNL     1      19.492  12.855  49.350  1.00  0.00     0.075 C 
HETATM    5  N1  UNL     1      19.531  12.756  50.510  1.00  0.00    -0.196 NA
HETATM    6  C12 UNL     1      19.997  11.750  47.299  1.00  0.00     0.278 C 
HETATM    7  O4  UNL     1      20.809  11.003  47.936  1.00  0.00    -0.264 OA
HETATM    8  O5  UNL     1      19.639  11.434  46.031  1.00  0.00    -0.308 OA
HETATM    9  C13 UNL     1      18.624  12.072  45.275  1.00  0.00     0.084 C 
HETATM   10  C14 UNL     1      17.857  10.886  44.650  1.00  0.00     0.039 C 
HETATM   11  C15 UNL     1      18.896  10.425  43.619  1.00  0.00     0.003 C 
HETATM   12  C16 UNL     1      19.155  11.737  42.914  1.00  0.00     0.003 C 
HETATM   13  C17 UNL     1      19.314  12.682  44.086  1.00  0.00     0.039 C 
ENDROOT
BRANCH   2  14
HETATM   14  C6  UNL     1      17.114  12.168  48.321  1.00  0.00     0.061 A 
HETATM   15  C7  UNL     1      16.998  10.809  48.268  1.00  0.00     0.037 A 
HETATM   16  C8  UNL     1      16.074  10.432  49.210  1.00  0.00     0.052 A 
HETATM   17  C9  UNL     1      15.664  11.607  49.803  1.00  0.00     0.145 A 
HETATM   18 CL1  UNL     1      14.459  11.632  51.096  1.00  0.00    -0.057 Cl
HETATM   19  O3  UNL     1      16.298  12.591  49.252  1.00  0.00    -0.302 OA
ENDBRANCH   2  14
BRANCH   1  20
HETATM   20  C3  UNL     1      17.490  14.293  45.433  1.00  0.00     0.266 C 
HETATM   21  O2  UNL     1      16.992  14.476  44.297  1.00  0.00    -0.265 OA
BRANCH  20  22
HETATM   22  O1  UNL     1      17.842  15.429  46.147  1.00  0.00    -0.321 OA
BRANCH  22  23
HETATM   23  C2  UNL     1      16.885  16.484  46.328  1.00  0.00     0.174 C 
HETATM   24  C1  UNL     1      17.501  17.718  46.897  1.00  0.00     0.034 C 
ENDBRANCH  22  23
ENDBRANCH  20  22
ENDBRANCH   1  20
TORSDOF 4
ENDMDL
MODEL 4
REMARK VINA RESULT: -6.228546611      2.615      4.648
REMARK  4 active torsions:
REMARK  status: ('A' for Active; 'I' for Inactive)
REMARK    1  A    between atoms: C2_2  and  O1_3 
REMARK    2  A    between atoms: O1_3  and  C3_4 
REMARK    3  A    between atoms: C3_4  and  C4_6 
REMARK    4  A    between atoms: C5_7  and  C6_8 
ROOT
HETATM    1  C4  UNL     1      17.982  12.756  46.114  1.00  0.00     0.133 C 
HETATM    2  C5  UNL     1      18.586  12.816  47.504  1.00  0.00     0.087 C 
HETATM    3  C10 UNL     1      20.082  12.934  47.514  1.00  0.00     0.203 C 
HETATM    4  C11 UNL     1      20.531  12.727  48.888  1.00  0.00     0.075 C 
HETATM    5  N1  UNL     1      20.875  12.548  49.986  1.00  0.00    -0.196 NA
HETATM    6  C12 UNL     1      20.666  11.889  46.660  1.00  0.00     0.278 C 
HETATM    7  O4  UNL     1      21.716  11.251  46.996  1.00  0.00    -0.264 OA
HETATM    8  O5  UNL     1      20.052  11.612  45.484  1.00  0.00    -0.308 OA
HETATM    9  C13 UNL     1      18.795  12.116  45.068  1.00  0.00     0.084 C 
HETATM   10  C14 UNL     1      18.086  10.864  44.507  1.00  0.00     0.039 C 
HETATM   11  C15 UNL     1      18.890  10.674  43.213  1.00  0.00     0.003 C 
HETATM   12  C16 UNL     1      18.760  12.061  42.626  1.00  0.00     0.003 C 
HETATM   13  C17 UNL     1      19.062  12.927  43.830  1.00  0.00     0.039 C 
ENDROOT
BRANCH   2  14
HETATM   14  C6  UNL     1      18.104  11.711  48.374  1.00  0.00     0.061 A 
HETATM   15  C7  UNL     1      18.237  10.361  48.218  1.00  0.00     0.037 A 
HETATM   16  C8  UNL     1      17.624   9.756  49.287  1.00  0.00     0.052 A 
HETATM   17  C9  UNL     1      17.138  10.790  50.057  1.00  0.00     0.145 A 
HETATM   18 CL1  UNL     1      16.258  10.502  51.562  1.00  0.00    -0.057 Cl
HETATM   19  O3  UNL     1      17.443  11.910  49.485  1.00  0.00    -0.302 OA
ENDBRANCH   2  14
BRANCH   1  20
HETATM   20  C3  UNL     1      17.412  14.083  45.749  1.00  0.00     0.266 C 
HETATM   21  O2  UNL     1      16.504  14.240  44.897  1.00  0.00    -0.265 OA
BRANCH  20  22
HETATM   22  O1  UNL     1      17.890  15.229  46.365  1.00  0.00    -0.321 OA
BRANCH  22  23
HETATM   23  C2  UNL     1      16.969  16.180  46.920  1.00  0.00     0.174 C 
HETATM   24  C1  UNL     1      17.313  17.585  46.557  1.00  0.00     0.034 C 
ENDBRANCH  22  23
ENDBRANCH  20  22
ENDBRANCH   1  20
TORSDOF 4
ENDMDL
MODEL 5
REMARK VINA RESULT: -6.134651059      2.824      4.850
REMARK  4 active torsions:
REMARK  status: ('A' for Active; 'I' for Inactive)
REMARK    1  A    between atoms: C2_2  and  O1_3 
REMARK    2  A    between atoms: O1_3  and  C3_4 
REMARK    3  A    between atoms: C3_4  and  C4_6 
REMARK    4  A    between atoms: C5_7  and  C6_8 
ROOT
HETATM    1  C4  UNL     1      18.155  12.680  46.108  1.00  0.00     0.133 C 
HETATM    2  C5  UNL     1      18.850  12.752  47.453  1.00  0.00     0.087 C 
HETATM    3  C10 UNL     1      20.337  12.938  47.363  1.00  0.00     0.203 C 
HETATM    4  C11 UNL     1      20.889  12.736  48.699  1.00  0.00     0.075 C 
HETATM    5  N1  UNL     1      21.315  12.561  49.768  1.00  0.00    -0.196 NA
HETATM    6  C12 UNL     1      20.906  11.929  46.457  1.00  0.00     0.278 C 
HETATM    7  O4  UNL     1      22.005  11.335  46.711  1.00  0.00    -0.264 OA
HETATM    8  O5  UNL     1      20.226  11.637  45.321  1.00  0.00    -0.308 OA
HETATM    9  C13 UNL     1      18.922  12.089  45.000  1.00  0.00     0.084 C 
HETATM   10  C14 UNL     1      18.232  10.812  44.471  1.00  0.00     0.039 C 
HETATM   11  C15 UNL     1      18.951  10.672  43.123  1.00  0.00     0.003 C 
HETATM   12  C16 UNL     1      18.720  12.058  42.565  1.00  0.00     0.003 C 
HETATM   13  C17 UNL     1      19.067  12.924  43.758  1.00  0.00     0.039 C 
ENDROOT
BRANCH   2  14
HETATM   14  C6  UNL     1      18.480  11.617  48.340  1.00  0.00     0.061 A 
HETATM   15  C7  UNL     1      17.517  11.549  49.305  1.00  0.00     0.037 A 
HETATM   16  C8  UNL     1      17.560  10.288  49.848  1.00  0.00     0.052 A 
HETATM   17  C9  UNL     1      18.570   9.639  49.169  1.00  0.00     0.145 A 
HETATM   18 CL1  UNL     1      19.006   7.963  49.523  1.00  0.00    -0.057 Cl
HETATM   19  O3  UNL     1      19.075  10.453  48.301  1.00  0.00    -0.302 OA
ENDBRANCH   2  14
BRANCH   1  20
HETATM   20  C3  UNL     1      17.504  13.984  45.801  1.00  0.00     0.266 C 
HETATM   21  O2  UNL     1      16.550  14.113  44.996  1.00  0.00    -0.265 OA
BRANCH  20  22
HETATM   22  O1  UNL     1      17.953  15.139  46.420  1.00  0.00    -0.321 OA
BRANCH  22  23
HETATM   23  C2  UNL     1      17.007  16.070  46.970  1.00  0.00     0.174 C 
HETATM   24  C1  UNL     1      17.332  17.484  46.622  1.00  0.00     0.034 C 
ENDBRANCH  22  23
ENDBRANCH  20  22
ENDBRANCH   1  20
TORSDOF 4
ENDMDL
