MODEL 1
REMARK VINA RESULT: -8.177570645      0.000      0.000
REMARK  4 active torsions:
REMARK  status: ('A' for Active; 'I' for Inactive)
REMARK    1  A    between atoms: C3_5  and  N2_6 
REMARK    2  A    between atoms: C10_14  and  C11_15 
REMARK    3  A    between atoms: C11_15  and  O2_17 
REMARK    4  A    between atoms: O2_17  and  C12_18 
ROOT
HETATM    1  C1  UNL     1      18.366  81.460   3.208  1.00  0.00     0.070 C 
HETATM    2  C2  UNL     1      18.745  82.896   3.519  1.00  0.00     0.030 A 
HETATM    3  N1  UNL     1      18.934  83.316   4.733  1.00  0.00    -0.339 N 
ATOM      4  H1  UNL     1      18.830  82.666   5.511  1.00  0.00     0.168 HD
HETATM    5  C3  UNL     1      19.256  84.562   4.974  1.00  0.00     0.147 A 
HETATM    6  S1  UNL     1      19.305  85.214   3.378  1.00  0.00    -0.046 SA
HETATM    7  C10 UNL     1      18.898  83.805   2.508  1.00  0.00     0.105 A 
ENDROOT
BRANCH   7   8
HETATM    8  C11 UNL     1      18.742  83.616   1.065  1.00  0.00     0.303 C 
HETATM    9  O1  UNL     1      17.576  83.643   0.538  1.00  0.00    -0.259 OA
BRANCH   8  10
HETATM   10  O2  UNL     1      19.792  83.407   0.208  1.00  0.00    -0.304 OA
BRANCH  10  11
HETATM   11  C12 UNL     1      20.489  82.156   0.136  1.00  0.00     0.203 C 
HETATM   12  C13 UNL     1      20.546  81.591  -1.243  1.00  0.00     0.050 C 
HETATM   13  C14 UNL     1      21.413  82.294  -2.217  1.00  0.00     0.077 C 
HETATM   14  S2  UNL     1      22.898  83.011  -1.484  1.00  0.00    -0.162 SA
HETATM   15  C15 UNL     1      22.968  82.802   0.287  1.00  0.00     0.154 C 
HETATM   16  C16 UNL     1      21.757  82.195   0.865  1.00  0.00     0.165 C 
HETATM   17  O3  UNL     1      21.891  81.725   2.004  1.00  0.00    -0.294 OA
ENDBRANCH  10  11
ENDBRANCH   8  10
ENDBRANCH   7   8
BRANCH   5  18
HETATM   18  N2  UNL     1      19.510  85.231   6.229  1.00  0.00    -0.361 N 
HETATM   19  C4  UNL     1      20.065  84.471   7.302  1.00  0.00     0.125 C 
HETATM   20  C5  UNL     1      21.459  84.899   7.700  1.00  0.00     0.020 C 
HETATM   21  C6  UNL     1      21.465  86.224   8.427  1.00  0.00     0.002 C 
HETATM   22  C7  UNL     1      21.112  87.335   7.449  1.00  0.00     0.002 C 
HETATM   23  C8  UNL     1      19.613  87.397   7.395  1.00  0.00     0.020 C 
HETATM   24  C9  UNL     1      19.137  86.625   6.203  1.00  0.00     0.125 C 
ENDBRANCH   5  18
TORSDOF 4
ENDMDL
MODEL 2
REMARK VINA RESULT: -7.660722839      1.920      2.580
REMARK  4 active torsions:
REMARK  status: ('A' for Active; 'I' for Inactive)
REMARK    1  A    between atoms: C3_5  and  N2_6 
REMARK    2  A    between atoms: C10_14  and  C11_15 
REMARK    3  A    between atoms: C11_15  and  O2_17 
REMARK    4  A    between atoms: O2_17  and  C12_18 
ROOT
HETATM    1  C1  UNL     1      18.346  81.202   2.790  1.00  0.00     0.070 C 
HETATM    2  C2  UNL     1      18.927  82.550   3.171  1.00  0.00     0.030 A 
HETATM    3  N1  UNL     1      18.723  83.091   4.333  1.00  0.00    -0.339 N 
ATOM      4  H1  UNL     1      18.156  82.598   5.023  1.00  0.00     0.168 HD
HETATM    5  C3  UNL     1      19.234  84.257   4.635  1.00  0.00     0.147 A 
HETATM    6  S1  UNL     1      20.076  84.645   3.181  1.00  0.00    -0.046 SA
HETATM    7  C10 UNL     1      19.696  83.248   2.279  1.00  0.00     0.105 A 
ENDROOT
BRANCH   7   8
HETATM    8  C11 UNL     1      20.080  82.891   0.913  1.00  0.00     0.303 C 
HETATM    9  O1  UNL     1      21.120  82.174   0.706  1.00  0.00    -0.259 OA
BRANCH   8  10
HETATM   10  O2  UNL     1      19.380  83.282  -0.199  1.00  0.00    -0.304 OA
BRANCH  10  11
HETATM   11  C12 UNL     1      18.203  82.597  -0.649  1.00  0.00     0.203 C 
HETATM   12  C13 UNL     1      17.233  83.488  -1.348  1.00  0.00     0.050 C 
HETATM   13  C14 UNL     1      17.628  83.985  -2.686  1.00  0.00     0.077 C 
HETATM   14  S2  UNL     1      18.607  82.806  -3.641  1.00  0.00    -0.162 SA
HETATM   15  C15 UNL     1      18.974  81.314  -2.734  1.00  0.00     0.154 C 
HETATM   16  C16 UNL     1      18.529  81.343  -1.331  1.00  0.00     0.165 C 
HETATM   17  O3  UNL     1      18.451  80.237  -0.775  1.00  0.00    -0.294 OA
ENDBRANCH  10  11
ENDBRANCH   8  10
ENDBRANCH   7   8
BRANCH   5  18
HETATM   18  N2  UNL     1      19.134  85.030   5.852  1.00  0.00    -0.361 N 
HETATM   19  C4  UNL     1      18.969  84.332   7.086  1.00  0.00     0.125 C 
HETATM   20  C5  UNL     1      20.141  84.470   8.031  1.00  0.00     0.020 C 
HETATM   21  C6  UNL     1      20.224  85.849   8.642  1.00  0.00     0.002 C 
HETATM   22  C7  UNL     1      20.627  86.850   7.567  1.00  0.00     0.002 C 
HETATM   23  C8  UNL     1      19.361  87.260   6.871  1.00  0.00     0.020 C 
HETATM   24  C9  UNL     1      19.213  86.451   5.619  1.00  0.00     0.125 C 
ENDBRANCH   5  18
TORSDOF 4
ENDMDL
MODEL 3
REMARK VINA RESULT: -7.624386709      3.473      7.229
REMARK  4 active torsions:
REMARK  status: ('A' for Active; 'I' for Inactive)
REMARK    1  A    between atoms: C3_5  and  N2_6 
REMARK    2  A    between atoms: C10_14  and  C11_15 
REMARK    3  A    between atoms: C11_15  and  O2_17 
REMARK    4  A    between atoms: O2_17  and  C12_18 
ROOT
HETATM    1  C1  UNL     1      17.476  81.112   6.827  1.00  0.00     0.070 C 
HETATM    2  C2  UNL     1      18.106  81.984   5.757  1.00  0.00     0.030 A 
HETATM    3  N1  UNL     1      18.155  81.626   4.511  1.00  0.00    -0.339 N 
ATOM      4  H1  UNL     1      17.756  80.731   4.230  1.00  0.00     0.168 HD
HETATM    5  C3  UNL     1      18.707  82.396   3.608  1.00  0.00     0.147 A 
HETATM    6  S1  UNL     1      19.204  83.740   4.567  1.00  0.00    -0.046 SA
HETATM    7  C10 UNL     1      18.652  83.195   6.086  1.00  0.00     0.105 A 
ENDROOT
BRANCH   7   8
HETATM    8  C11 UNL     1      18.744  83.842   7.395  1.00  0.00     0.303 C 
HETATM    9  O1  UNL     1      17.692  84.003   8.107  1.00  0.00    -0.259 OA
BRANCH   8  10
HETATM   10  O2  UNL     1      19.918  84.303   7.934  1.00  0.00    -0.304 OA
BRANCH  10  11
HETATM   11  C12 UNL     1      20.150  85.694   8.195  1.00  0.00     0.203 C 
HETATM   12  C13 UNL     1      21.563  85.997   8.566  1.00  0.00     0.050 C 
HETATM   13  C14 UNL     1      22.574  85.883   7.490  1.00  0.00     0.077 C 
HETATM   14  S2  UNL     1      21.959  86.353   5.859  1.00  0.00    -0.162 SA
HETATM   15  C15 UNL     1      20.224  86.773   5.867  1.00  0.00     0.154 C 
HETATM   16  C16 UNL     1      19.562  86.549   7.163  1.00  0.00     0.165 C 
HETATM   17  O3  UNL     1      18.478  87.133   7.313  1.00  0.00    -0.294 OA
ENDBRANCH  10  11
ENDBRANCH   8  10
ENDBRANCH   7   8
BRANCH   5  18
HETATM   18  N2  UNL     1      18.867  82.195   2.186  1.00  0.00    -0.361 N 
HETATM   19  C4  UNL     1      17.696  82.140   1.373  1.00  0.00     0.125 C 
HETATM   20  C5  UNL     1      17.571  83.287   0.396  1.00  0.00     0.020 C 
HETATM   21  C6  UNL     1      18.557  83.177  -0.743  1.00  0.00     0.002 C 
HETATM   22  C7  UNL     1      19.963  83.424  -0.216  1.00  0.00     0.002 C 
HETATM   23  C8  UNL     1      20.460  82.108   0.310  1.00  0.00     0.020 C 
HETATM   24  C9  UNL     1      20.250  82.069   1.792  1.00  0.00     0.125 C 
ENDBRANCH   5  18
TORSDOF 4
ENDMDL
MODEL 4
REMARK VINA RESULT: -7.560754182      1.661      2.641
REMARK  4 active torsions:
REMARK  status: ('A' for Active; 'I' for Inactive)
REMARK    1  A    between atoms: C3_5  and  N2_6 
REMARK    2  A    between atoms: C10_14  and  C11_15 
REMARK    3  A    between atoms: C11_15  and  O2_17 
REMARK    4  A    between atoms: O2_17  and  C12_18 
ROOT
HETATM    1  C1  UNL     1      18.267  81.102   2.823  1.00  0.00     0.070 C 
HETATM    2  C2  UNL     1      19.013  82.341   3.284  1.00  0.00     0.030 A 
HETATM    3  N1  UNL     1      18.657  83.014   4.335  1.00  0.00    -0.339 N 
ATOM      4  H1  UNL     1      17.851  82.707   4.878  1.00  0.00     0.168 HD
HETATM    5  C3  UNL     1      19.315  84.082   4.709  1.00  0.00     0.147 A 
HETATM    6  S1  UNL     1      20.542  84.163   3.500  1.00  0.00    -0.046 SA
HETATM    7  C10 UNL     1      20.102  82.790   2.588  1.00  0.00     0.105 A 
ENDROOT
BRANCH   7   8
HETATM    8  C11 UNL     1      20.716  82.242   1.379  1.00  0.00     0.303 C 
HETATM    9  O1  UNL     1      21.928  81.831   1.405  1.00  0.00    -0.259 OA
BRANCH   8  10
HETATM   10  O2  UNL     1      20.064  82.133   0.178  1.00  0.00    -0.304 OA
BRANCH  10  11
HETATM   11  C12 UNL     1      19.507  83.267  -0.502  1.00  0.00     0.203 C 
HETATM   12  C13 UNL     1      20.226  83.610  -1.762  1.00  0.00     0.050 C 
HETATM   13  C14 UNL     1      20.068  82.672  -2.897  1.00  0.00     0.077 C 
HETATM   14  S2  UNL     1      18.440  81.898  -2.981  1.00  0.00    -0.162 SA
HETATM   15  C15 UNL     1      17.383  82.356  -1.618  1.00  0.00     0.154 C 
HETATM   16  C16 UNL     1      18.049  83.183  -0.598  1.00  0.00     0.165 C 
HETATM   17  O3  UNL     1      17.290  83.797   0.167  1.00  0.00    -0.294 OA
ENDBRANCH  10  11
ENDBRANCH   8  10
ENDBRANCH   7   8
BRANCH   5  18
HETATM   18  N2  UNL     1      19.094  84.967   5.829  1.00  0.00    -0.361 N 
HETATM   19  C4  UNL     1      18.759  84.392   7.092  1.00  0.00     0.125 C 
HETATM   20  C5  UNL     1      19.813  84.593   8.157  1.00  0.00     0.020 C 
HETATM   21  C6  UNL     1      19.865  86.022   8.646  1.00  0.00     0.002 C 
HETATM   22  C7  UNL     1      20.425  86.909   7.543  1.00  0.00     0.002 C 
HETATM   23  C8  UNL     1      19.267  87.277   6.662  1.00  0.00     0.020 C 
HETATM   24  C9  UNL     1      19.245  86.358   5.479  1.00  0.00     0.125 C 
ENDBRANCH   5  18
TORSDOF 4
ENDMDL
MODEL 5
REMARK VINA RESULT: -7.504252578      1.590      2.083
REMARK  4 active torsions:
REMARK  status: ('A' for Active; 'I' for Inactive)
REMARK    1  A    between atoms: C3_5  and  N2_6 
REMARK    2  A    between atoms: C10_14  and  C11_15 
REMARK    3  A    between atoms: C11_15  and  O2_17 
REMARK    4  A    between atoms: O2_17  and  C12_18 
ROOT
HETATM    1  C1  UNL     1      18.123  81.269   2.868  1.00  0.00     0.070 C 
HETATM    2  C2  UNL     1      18.608  82.665   3.211  1.00  0.00     0.030 A 
HETATM    3  N1  UNL     1      18.963  83.001   4.413  1.00  0.00    -0.339 N 
ATOM      4  H1  UNL     1      18.921  82.309   5.160  1.00  0.00     0.168 HD
HETATM    5  C3  UNL     1      19.374  84.214   4.683  1.00  0.00     0.147 A 
HETATM    6  S1  UNL     1      19.264  84.961   3.133  1.00  0.00    -0.046 SA
HETATM    7  C10 UNL     1      18.684  83.628   2.241  1.00  0.00     0.105 A 
ENDROOT
BRANCH   7   8
HETATM    8  C11 UNL     1      18.346  83.536   0.820  1.00  0.00     0.303 C 
HETATM    9  O1  UNL     1      17.160  83.808   0.424  1.00  0.00    -0.259 OA
BRANCH   8  10
HETATM   10  O2  UNL     1      19.241  83.167  -0.152  1.00  0.00    -0.304 OA
BRANCH  10  11
HETATM   11  C12 UNL     1      19.594  81.798  -0.393  1.00  0.00     0.203 C 
HETATM   12  C13 UNL     1      18.433  80.950  -0.789  1.00  0.00     0.050 C 
HETATM   13  C14 UNL     1      17.861  81.189  -2.134  1.00  0.00     0.077 C 
HETATM   14  S2  UNL     1      19.085  81.662  -3.373  1.00  0.00    -0.162 SA
HETATM   15  C15 UNL     1      20.727  81.833  -2.696  1.00  0.00     0.154 C 
HETATM   16  C16 UNL     1      20.788  81.683  -1.232  1.00  0.00     0.165 C 
HETATM   17  O3  UNL     1      21.915  81.455  -0.769  1.00  0.00    -0.294 OA
ENDBRANCH  10  11
ENDBRANCH   8  10
ENDBRANCH   7   8
BRANCH   5  18
HETATM   18  N2  UNL     1      19.810  84.792   5.933  1.00  0.00    -0.361 N 
HETATM   19  C4  UNL     1      21.018  85.553   5.944  1.00  0.00     0.125 C 
HETATM   20  C5  UNL     1      20.816  87.020   6.246  1.00  0.00     0.020 C 
HETATM   21  C6  UNL     1      20.467  87.263   7.695  1.00  0.00     0.002 C 
HETATM   22  C7  UNL     1      19.064  86.737   7.968  1.00  0.00     0.002 C 
HETATM   23  C8  UNL     1      19.208  85.274   8.271  1.00  0.00     0.020 C 
HETATM   24  C9  UNL     1      18.920  84.490   7.028  1.00  0.00     0.125 C 
ENDBRANCH   5  18
TORSDOF 4
ENDMDL
