MODEL 1
REMARK VINA RESULT: -7.321861259      0.000      0.000
REMARK  5 active torsions:
REMARK  status: ('A' for Active; 'I' for Inactive)
REMARK    1  A    between atoms: O1_2  and  C2_3 
REMARK    2  A    between atoms: C2_3  and  C3_5 
REMARK    3  A    between atoms: C7_9  and  O3_10 
REMARK    4  A    between atoms: C9_12  and  O4_13 
REMARK    5  A    between atoms: O4_13  and  C10_14 
ROOT
HETATM    1  C3  UNL     1      19.198  83.309   3.322  1.00  0.00     0.079 A 
HETATM    2  C4  UNL     1      18.857  83.590   4.649  1.00  0.00     0.058 A 
HETATM    3  C5  UNL     1      19.565  84.563   5.347  1.00  0.00     0.083 A 
HETATM    4  C6  UNL     1      20.594  85.220   4.684  1.00  0.00     0.021 A 
HETATM    5  C7  UNL     1      20.942  84.962   3.393  1.00  0.00     0.112 A 
HETATM    6  C9  UNL     1      20.229  83.995   2.716  1.00  0.00     0.129 A 
HETATM    7  C12 UNL     1      21.150  86.172   5.676  1.00  0.00     0.087 C 
HETATM    8  C13 UNL     1      22.129  85.389   6.514  1.00  0.00     0.015 C 
HETATM    9  C14 UNL     1      22.875  86.204   7.505  1.00  0.00     0.003 C 
HETATM   10  C15 UNL     1      22.154  86.357   8.824  1.00  0.00     0.026 C 
HETATM   11  C16 UNL     1      20.651  86.231   8.673  1.00  0.00     0.171 C 
HETATM   12  O6  UNL     1      20.148  87.049   7.692  1.00  0.00    -0.354 OA
HETATM   13  C17 UNL     1      19.908  86.430   6.501  1.00  0.00     0.174 C 
HETATM   14  C18 UNL     1      18.832  87.107   5.677  1.00  0.00     0.080 C 
HETATM   15  O7  UNL     1      19.469  85.067   6.661  1.00  0.00    -0.313 OA
ENDROOT
BRANCH   1  16
HETATM   16  C2  UNL     1      18.461  82.284   2.588  1.00  0.00     0.295 C 
HETATM   17  O2  UNL     1      18.363  81.114   3.018  1.00  0.00    -0.259 OA
BRANCH  16  18
HETATM   18  O1  UNL     1      17.832  82.579   1.369  1.00  0.00    -0.322 OA
HETATM   19  C1  UNL     1      17.986  81.713   0.261  1.00  0.00     0.213 C 
ENDBRANCH  16  18
ENDBRANCH   1  16
BRANCH   6  20
HETATM   20  O4  UNL     1      20.614  83.755   1.383  1.00  0.00    -0.275 OA
BRANCH  20  21
HETATM   21  C10 UNL     1      21.569  82.762   1.084  1.00  0.00     0.260 C 
HETATM   22  C11 UNL     1      22.217  82.669  -0.242  1.00  0.00     0.126 C 
HETATM   23  O5  UNL     1      21.823  81.966   2.030  1.00  0.00    -0.265 OA
ENDBRANCH  20  21
ENDBRANCH   6  20
BRANCH   5  24
HETATM   24  O3  UNL     1      21.970  85.653   2.805  1.00  0.00    -0.352 OA
HETATM   25  C8  UNL     1      23.330  85.426   2.933  1.00  0.00     0.210 C 
ENDBRANCH   5  24
TORSDOF 5
ENDMDL
MODEL 2
REMARK VINA RESULT: -7.153692170      1.893      6.415
REMARK  5 active torsions:
REMARK  status: ('A' for Active; 'I' for Inactive)
REMARK    1  A    between atoms: O1_2  and  C2_3 
REMARK    2  A    between atoms: C2_3  and  C3_5 
REMARK    3  A    between atoms: C7_9  and  O3_10 
REMARK    4  A    between atoms: C9_12  and  O4_13 
REMARK    5  A    between atoms: O4_13  and  C10_14 
ROOT
HETATM    1  C3  UNL     1      18.500  83.017   5.761  1.00  0.00     0.079 A 
HETATM    2  C4  UNL     1      18.345  81.969   4.847  1.00  0.00     0.058 A 
HETATM    3  C5  UNL     1      18.606  82.191   3.500  1.00  0.00     0.083 A 
HETATM    4  C6  UNL     1      19.014  83.464   3.116  1.00  0.00     0.021 A 
HETATM    5  C7  UNL     1      19.170  84.497   3.989  1.00  0.00     0.112 A 
HETATM    6  C9  UNL     1      18.908  84.259   5.323  1.00  0.00     0.129 A 
HETATM    7  C12 UNL     1      19.202  83.386   1.647  1.00  0.00     0.087 C 
HETATM    8  C13 UNL     1      17.838  83.589   1.034  1.00  0.00     0.015 C 
HETATM    9  C14 UNL     1      17.839  83.650  -0.449  1.00  0.00     0.003 C 
HETATM   10  C15 UNL     1      17.729  82.295  -1.108  1.00  0.00     0.026 C 
HETATM   11  C16 UNL     1      18.268  81.185  -0.229  1.00  0.00     0.171 C 
HETATM   12  O6  UNL     1      19.531  81.449   0.241  1.00  0.00    -0.354 OA
HETATM   13  C17 UNL     1      19.576  81.926   1.518  1.00  0.00     0.174 C 
HETATM   14  C18 UNL     1      20.882  81.629   2.226  1.00  0.00     0.080 C 
HETATM   15  O7  UNL     1      18.548  81.365   2.357  1.00  0.00    -0.313 OA
ENDROOT
BRANCH   1  16
HETATM   16  C2  UNL     1      18.221  82.789   7.176  1.00  0.00     0.295 C 
HETATM   17  O2  UNL     1      18.337  81.655   7.691  1.00  0.00    -0.259 OA
BRANCH  16  18
HETATM   18  O1  UNL     1      17.811  83.840   8.011  1.00  0.00    -0.322 OA
HETATM   19  C1  UNL     1      18.597  84.210   9.127  1.00  0.00     0.213 C 
ENDBRANCH  16  18
ENDBRANCH   1  16
BRANCH   6  20
HETATM   20  O4  UNL     1      19.081  85.349   6.196  1.00  0.00    -0.275 OA
BRANCH  20  21
HETATM   21  C10 UNL     1      20.375  85.762   6.575  1.00  0.00     0.260 C 
HETATM   22  C11 UNL     1      20.769  87.186   6.600  1.00  0.00     0.126 C 
HETATM   23  O5  UNL     1      21.161  84.826   6.888  1.00  0.00    -0.265 OA
ENDBRANCH  20  21
ENDBRANCH   6  20
BRANCH   5  24
HETATM   24  O3  UNL     1      19.576  85.726   3.537  1.00  0.00    -0.352 OA
HETATM   25  C8  UNL     1      20.823  86.086   3.053  1.00  0.00     0.210 C 
ENDBRANCH   5  24
TORSDOF 5
ENDMDL
MODEL 3
REMARK VINA RESULT: -6.806760970      1.709      6.274
REMARK  5 active torsions:
REMARK  status: ('A' for Active; 'I' for Inactive)
REMARK    1  A    between atoms: O1_2  and  C2_3 
REMARK    2  A    between atoms: C2_3  and  C3_5 
REMARK    3  A    between atoms: C7_9  and  O3_10 
REMARK    4  A    between atoms: C9_12  and  O4_13 
REMARK    5  A    between atoms: O4_13  and  C10_14 
ROOT
HETATM    1  C3  UNL     1      19.210  84.363   5.987  1.00  0.00     0.079 A 
HETATM    2  C4  UNL     1      18.663  83.223   5.388  1.00  0.00     0.058 A 
HETATM    3  C5  UNL     1      18.792  83.042   4.015  1.00  0.00     0.083 A 
HETATM    4  C6  UNL     1      19.468  84.017   3.290  1.00  0.00     0.021 A 
HETATM    5  C7  UNL     1      20.008  85.132   3.854  1.00  0.00     0.112 A 
HETATM    6  C9  UNL     1      19.871  85.295   5.217  1.00  0.00     0.129 A 
HETATM    7  C12 UNL     1      19.431  83.550   1.883  1.00  0.00     0.087 C 
HETATM    8  C13 UNL     1      18.102  83.992   1.324  1.00  0.00     0.015 C 
HETATM    9  C14 UNL     1      17.921  83.707  -0.121  1.00  0.00     0.003 C 
HETATM   10  C15 UNL     1      17.368  82.328  -0.399  1.00  0.00     0.026 C 
HETATM   11  C16 UNL     1      17.705  81.344   0.703  1.00  0.00     0.171 C 
HETATM   12  O6  UNL     1      19.044  81.331   1.009  1.00  0.00    -0.354 OA
HETATM   13  C17 UNL     1      19.383  82.056   2.113  1.00  0.00     0.174 C 
HETATM   14  C18 UNL     1      20.646  81.564   2.791  1.00  0.00     0.080 C 
HETATM   15  O7  UNL     1      18.365  82.027   3.132  1.00  0.00    -0.313 OA
ENDROOT
BRANCH   1  16
HETATM   16  C2  UNL     1      19.071  84.559   7.427  1.00  0.00     0.295 C 
HETATM   17  O2  UNL     1      19.795  83.948   8.243  1.00  0.00    -0.259 OA
BRANCH  16  18
HETATM   18  O1  UNL     1      18.116  85.445   7.947  1.00  0.00    -0.322 OA
HETATM   19  C1  UNL     1      18.497  86.746   8.350  1.00  0.00     0.213 C 
ENDBRANCH  16  18
ENDBRANCH   1  16
BRANCH   6  20
HETATM   20  O4  UNL     1      20.442  86.459   5.765  1.00  0.00    -0.275 OA
BRANCH  20  21
HETATM   21  C10 UNL     1      21.663  86.394   6.466  1.00  0.00     0.260 C 
HETATM   22  C11 UNL     1      21.815  86.935   7.834  1.00  0.00     0.126 C 
HETATM   23  O5  UNL     1      22.608  85.840   5.838  1.00  0.00    -0.265 OA
ENDBRANCH  20  21
ENDBRANCH   6  20
BRANCH   5  24
HETATM   24  O3  UNL     1      20.661  86.051   3.074  1.00  0.00    -0.352 OA
HETATM   25  C8  UNL     1      22.009  86.095   2.758  1.00  0.00     0.210 C 
ENDBRANCH   5  24
TORSDOF 5
ENDMDL
MODEL 4
REMARK VINA RESULT: -6.458933618      3.001      6.387
REMARK  5 active torsions:
REMARK  status: ('A' for Active; 'I' for Inactive)
REMARK    1  A    between atoms: O1_2  and  C2_3 
REMARK    2  A    between atoms: C2_3  and  C3_5 
REMARK    3  A    between atoms: C7_9  and  O3_10 
REMARK    4  A    between atoms: C9_12  and  O4_13 
REMARK    5  A    between atoms: O4_13  and  C10_14 
ROOT
HETATM    1  C3  UNL     1      17.629  81.469  -1.648  1.00  0.00     0.079 A 
HETATM    2  C4  UNL     1      18.471  82.545  -1.346  1.00  0.00     0.058 A 
HETATM    3  C5  UNL     1      19.002  82.660  -0.065  1.00  0.00     0.083 A 
HETATM    4  C6  UNL     1      18.666  81.687   0.869  1.00  0.00     0.021 A 
HETATM    5  C7  UNL     1      17.849  80.633   0.595  1.00  0.00     0.112 A 
HETATM    6  C9  UNL     1      17.332  80.534  -0.680  1.00  0.00     0.129 A 
HETATM    7  C12 UNL     1      19.367  82.085   2.114  1.00  0.00     0.087 C 
HETATM    8  C13 UNL     1      18.485  83.104   2.791  1.00  0.00     0.015 C 
HETATM    9  C14 UNL     1      18.973  83.547   4.120  1.00  0.00     0.003 C 
HETATM   10  C15 UNL     1      19.941  84.706   4.051  1.00  0.00     0.026 C 
HETATM   11  C16 UNL     1      20.682  84.754   2.731  1.00  0.00     0.171 C 
HETATM   12  O6  UNL     1      21.264  83.553   2.407  1.00  0.00    -0.354 OA
HETATM   13  C17 UNL     1      20.558  82.801   1.515  1.00  0.00     0.174 C 
HETATM   14  C18 UNL     1      21.423  81.850   0.712  1.00  0.00     0.080 C 
HETATM   15  O7  UNL     1      19.861  83.601   0.541  1.00  0.00    -0.313 OA
ENDROOT
BRANCH   1  16
HETATM   16  C2  UNL     1      17.065  81.349  -2.990  1.00  0.00     0.295 C 
HETATM   17  O2  UNL     1      17.760  80.974  -3.960  1.00  0.00    -0.259 OA
BRANCH  16  18
HETATM   18  O1  UNL     1      15.718  81.650  -3.238  1.00  0.00    -0.322 OA
HETATM   19  C1  UNL     1      14.832  80.640  -3.678  1.00  0.00     0.213 C 
ENDBRANCH  16  18
ENDBRANCH   1  16
BRANCH   6  20
HETATM   20  O4  UNL     1      16.492  79.431  -0.928  1.00  0.00    -0.275 OA
BRANCH  20  21
HETATM   21  C10 UNL     1      17.040  78.186  -1.296  1.00  0.00     0.260 C 
HETATM   22  C11 UNL     1      17.135  77.058  -0.345  1.00  0.00     0.126 C 
HETATM   23  O5  UNL     1      17.439  78.112  -2.491  1.00  0.00    -0.265 OA
ENDBRANCH  20  21
ENDBRANCH   6  20
BRANCH   5  24
HETATM   24  O3  UNL     1      17.562  79.712   1.569  1.00  0.00    -0.352 OA
HETATM   25  C8  UNL     1      16.403  79.597   2.318  1.00  0.00     0.210 C 
ENDBRANCH   5  24
TORSDOF 5
ENDMDL
MODEL 5
REMARK VINA RESULT: -6.350522511      1.765      6.673
REMARK  5 active torsions:
REMARK  status: ('A' for Active; 'I' for Inactive)
REMARK    1  A    between atoms: O1_2  and  C2_3 
REMARK    2  A    between atoms: C2_3  and  C3_5 
REMARK    3  A    between atoms: C7_9  and  O3_10 
REMARK    4  A    between atoms: C9_12  and  O4_13 
REMARK    5  A    between atoms: O4_13  and  C10_14 
ROOT
HETATM    1  C3  UNL     1      21.256  85.097   3.843  1.00  0.00     0.079 A 
HETATM    2  C4  UNL     1      21.092  84.588   2.550  1.00  0.00     0.058 A 
HETATM    3  C5  UNL     1      20.006  83.763   2.272  1.00  0.00     0.083 A 
HETATM    4  C6  UNL     1      19.122  83.479   3.306  1.00  0.00     0.021 A 
HETATM    5  C7  UNL     1      19.265  83.964   4.570  1.00  0.00     0.112 A 
HETATM    6  C9  UNL     1      20.346  84.781   4.828  1.00  0.00     0.129 A 
HETATM    7  C12 UNL     1      18.099  82.587   2.708  1.00  0.00     0.087 C 
HETATM    8  C13 UNL     1      18.671  81.193   2.753  1.00  0.00     0.015 C 
HETATM    9  C14 UNL     1      17.739  80.135   2.291  1.00  0.00     0.003 C 
HETATM   10  C15 UNL     1      17.783  79.903   0.798  1.00  0.00     0.026 C 
HETATM   11  C16 UNL     1      18.230  81.138   0.041  1.00  0.00     0.171 C 
HETATM   12  O6  UNL     1      17.515  82.258   0.387  1.00  0.00    -0.354 OA
HETATM   13  C17 UNL     1      18.140  83.079   1.278  1.00  0.00     0.174 C 
HETATM   14  C18 UNL     1      17.693  84.524   1.181  1.00  0.00     0.080 C 
HETATM   15  O7  UNL     1      19.569  83.107   1.101  1.00  0.00    -0.313 OA
ENDROOT
BRANCH   1  16
HETATM   16  C2  UNL     1      22.397  85.958   4.140  1.00  0.00     0.295 C 
HETATM   17  O2  UNL     1      22.342  87.197   3.979  1.00  0.00    -0.259 OA
BRANCH  16  18
HETATM   18  O1  UNL     1      23.602  85.422   4.619  1.00  0.00    -0.322 OA
HETATM   19  C1  UNL     1      24.813  85.664   3.930  1.00  0.00     0.213 C 
ENDBRANCH  16  18
ENDBRANCH   1  16
BRANCH   6  20
HETATM   20  O4  UNL     1      20.461  85.265   6.145  1.00  0.00    -0.275 OA
BRANCH  20  21
HETATM   21  C10 UNL     1      19.975  86.546   6.480  1.00  0.00     0.260 C 
HETATM   22  C11 UNL     1      20.822  87.557   7.147  1.00  0.00     0.126 C 
HETATM   23  O5  UNL     1      18.771  86.756   6.167  1.00  0.00    -0.265 OA
ENDBRANCH  20  21
ENDBRANCH   6  20
BRANCH   5  24
HETATM   24  O3  UNL     1      18.351  83.639   5.539  1.00  0.00    -0.352 OA
HETATM   25  C8  UNL     1      18.382  82.564   6.412  1.00  0.00     0.210 C 
ENDBRANCH   5  24
TORSDOF 5
ENDMDL
