MODEL 1
REMARK VINA RESULT: -7.982997342      0.000      0.000
REMARK  4 active torsions:
REMARK  status: ('A' for Active; 'I' for Inactive)
REMARK    1  A    between atoms: O1_2  and  C2_3 
REMARK    2  A    between atoms: C2_3  and  C3_5 
REMARK    3  A    between atoms: C8_10  and  S1_11 
REMARK    4  A    between atoms: S1_11  and  C9_12 
ROOT
HETATM    1  C3  UNL     1      19.707  84.676   3.891  1.00  0.00     0.059 A 
HETATM    2  C4  UNL     1      18.874  85.182   4.867  1.00  0.00     0.058 A 
HETATM    3  C5  UNL     1      19.321  86.084   5.780  1.00  0.00     0.101 A 
HETATM    4  C6  UNL     1      20.642  86.506   5.729  1.00  0.00    -0.001 A 
HETATM    5  C7  UNL     1      21.464  85.995   4.750  1.00  0.00     0.031 A 
HETATM    6  C8  UNL     1      21.040  85.082   3.815  1.00  0.00     0.018 A 
HETATM    7  C14 UNL     1      20.786  87.462   6.841  1.00  0.00     0.122 C 
HETATM    8  C15 UNL     1      21.990  87.211   7.687  1.00  0.00     0.028 C 
HETATM    9  C16 UNL     1      21.592  85.986   8.504  1.00  0.00     0.019 C 
HETATM   10  C17 UNL     1      20.087  85.912   8.418  1.00  0.00     0.122 C 
HETATM   11  N1  UNL     1      19.668  87.127   7.713  1.00  0.00    -0.182 NA
HETATM   12  O5  UNL     1      18.686  86.727   6.840  1.00  0.00    -0.260 OA
ENDROOT
BRANCH   6  13
HETATM   13  S1  UNL     1      22.092  84.414   2.543  1.00  0.00    -0.111 SA
BRANCH  13  14
HETATM   14  C9  UNL     1      23.587  85.424   2.412  1.00  0.00     0.186 C 
HETATM   15  C10 UNL     1      24.524  85.092   3.516  1.00  0.00     0.277 C 
HETATM   16  O3  UNL     1      24.798  85.511   4.665  1.00  0.00    -0.264 OA
HETATM   17  O4  UNL     1      25.041  84.054   2.757  1.00  0.00    -0.308 OA
HETATM   18  C11 UNL     1      24.711  84.823   1.615  1.00  0.00     0.085 C 
HETATM   19  C12 UNL     1      25.778  85.851   1.322  1.00  0.00     0.048 C 
HETATM   20  C13 UNL     1      24.346  84.053   0.395  1.00  0.00     0.048 C 
ENDBRANCH  13  14
ENDBRANCH   6  13
BRANCH   1  21
HETATM   21  C2  UNL     1      19.156  83.715   2.952  1.00  0.00     0.294 C 
HETATM   22  O2  UNL     1      18.568  84.129   1.932  1.00  0.00    -0.259 OA
BRANCH  21  23
HETATM   23  O1  UNL     1      19.249  82.344   3.130  1.00  0.00    -0.322 OA
HETATM   24  C1  UNL     1      18.349  81.582   3.895  1.00  0.00     0.213 C 
ENDBRANCH  21  23
ENDBRANCH   1  21
TORSDOF 4
ENDMDL
MODEL 2
REMARK VINA RESULT: -7.388118935      2.734      3.416
REMARK  4 active torsions:
REMARK  status: ('A' for Active; 'I' for Inactive)
REMARK    1  A    between atoms: O1_2  and  C2_3 
REMARK    2  A    between atoms: C2_3  and  C3_5 
REMARK    3  A    between atoms: C8_10  and  S1_11 
REMARK    4  A    between atoms: S1_11  and  C9_12 
ROOT
HETATM    1  C3  UNL     1      18.521  82.880   4.557  1.00  0.00     0.059 A 
HETATM    2  C4  UNL     1      18.626  83.086   5.916  1.00  0.00     0.058 A 
HETATM    3  C5  UNL     1      19.076  84.265   6.419  1.00  0.00     0.101 A 
HETATM    4  C6  UNL     1      19.436  85.284   5.548  1.00  0.00    -0.001 A 
HETATM    5  C7  UNL     1      19.326  85.067   4.194  1.00  0.00     0.031 A 
HETATM    6  C8  UNL     1      18.875  83.886   3.657  1.00  0.00     0.018 A 
HETATM    7  C14 UNL     1      19.871  86.395   6.413  1.00  0.00     0.122 C 
HETATM    8  C15 UNL     1      21.173  86.995   5.998  1.00  0.00     0.028 C 
HETATM    9  C16 UNL     1      22.195  85.956   6.450  1.00  0.00     0.019 C 
HETATM   10  C17 UNL     1      21.480  85.101   7.468  1.00  0.00     0.122 C 
HETATM   11  N1  UNL     1      20.175  85.736   7.675  1.00  0.00    -0.182 NA
HETATM   12  O5  UNL     1      19.268  84.705   7.728  1.00  0.00    -0.260 OA
ENDROOT
BRANCH   6  13
HETATM   13  S1  UNL     1      18.727  83.593   1.906  1.00  0.00    -0.111 SA
BRANCH  13  14
HETATM   14  C9  UNL     1      20.377  83.548   1.167  1.00  0.00     0.186 C 
HETATM   15  C10 UNL     1      21.021  82.238   1.439  1.00  0.00     0.277 C 
HETATM   16  O3  UNL     1      21.801  81.739   2.284  1.00  0.00    -0.264 OA
HETATM   17  O4  UNL     1      20.399  81.705   0.321  1.00  0.00    -0.308 OA
HETATM   18  C11 UNL     1      20.448  83.007  -0.234  1.00  0.00     0.085 C 
HETATM   19  C12 UNL     1      21.796  83.285  -0.856  1.00  0.00     0.048 C 
HETATM   20  C13 UNL     1      19.337  83.362  -1.159  1.00  0.00     0.048 C 
ENDBRANCH  13  14
ENDBRANCH   6  13
BRANCH   1  21
HETATM   21  C2  UNL     1      18.032  81.592   4.095  1.00  0.00     0.294 C 
HETATM   22  O2  UNL     1      17.187  80.981   4.780  1.00  0.00    -0.259 OA
BRANCH  21  23
HETATM   23  O1  UNL     1      18.460  80.998   2.918  1.00  0.00    -0.322 OA
HETATM   24  C1  UNL     1      17.639  80.232   2.074  1.00  0.00     0.213 C 
ENDBRANCH  21  23
ENDBRANCH   1  21
TORSDOF 4
ENDMDL
MODEL 3
REMARK VINA RESULT: -7.176024335      3.317      6.202
REMARK  4 active torsions:
REMARK  status: ('A' for Active; 'I' for Inactive)
REMARK    1  A    between atoms: O1_2  and  C2_3 
REMARK    2  A    between atoms: C2_3  and  C3_5 
REMARK    3  A    between atoms: C8_10  and  S1_11 
REMARK    4  A    between atoms: S1_11  and  C9_12 
ROOT
HETATM    1  C3  UNL     1      18.594  82.956   5.078  1.00  0.00     0.059 A 
HETATM    2  C4  UNL     1      18.372  81.816   4.334  1.00  0.00     0.058 A 
HETATM    3  C5  UNL     1      18.733  81.744   3.027  1.00  0.00     0.101 A 
HETATM    4  C6  UNL     1      19.339  82.839   2.427  1.00  0.00    -0.001 A 
HETATM    5  C7  UNL     1      19.556  83.971   3.179  1.00  0.00     0.031 A 
HETATM    6  C8  UNL     1      19.201  84.072   4.502  1.00  0.00     0.018 A 
HETATM    7  C14 UNL     1      19.590  82.426   1.035  1.00  0.00     0.122 C 
HETATM    8  C15 UNL     1      19.148  83.436   0.028  1.00  0.00     0.028 C 
HETATM    9  C16 UNL     1      17.630  83.285   0.027  1.00  0.00     0.019 C 
HETATM   10  C17 UNL     1      17.356  81.939   0.651  1.00  0.00     0.122 C 
HETATM   11  N1  UNL     1      18.669  81.315   0.846  1.00  0.00    -0.182 NA
HETATM   12  O5  UNL     1      18.616  80.724   2.085  1.00  0.00    -0.260 OA
ENDROOT
BRANCH   6  13
HETATM   13  S1  UNL     1      19.477  85.530   5.487  1.00  0.00    -0.111 SA
BRANCH  13  14
HETATM   14  C9  UNL     1      21.059  85.377   6.351  1.00  0.00     0.186 C 
HETATM   15  C10 UNL     1      22.098  86.178   5.656  1.00  0.00     0.277 C 
HETATM   16  O3  UNL     1      22.987  86.004   4.790  1.00  0.00    -0.264 OA
HETATM   17  O4  UNL     1      21.705  87.299   6.371  1.00  0.00    -0.308 OA
HETATM   18  C11 UNL     1      21.327  86.412   7.408  1.00  0.00     0.085 C 
HETATM   19  C12 UNL     1      22.514  86.026   8.257  1.00  0.00     0.048 C 
HETATM   20  C13 UNL     1      20.175  86.844   8.246  1.00  0.00     0.048 C 
ENDBRANCH  13  14
ENDBRANCH   6  13
BRANCH   1  21
HETATM   21  C2  UNL     1      18.178  82.957   6.470  1.00  0.00     0.294 C 
HETATM   22  O2  UNL     1      17.909  81.872   7.026  1.00  0.00    -0.259 OA
BRANCH  21  23
HETATM   23  O1  UNL     1      18.063  84.114   7.225  1.00  0.00    -0.322 OA
HETATM   24  C1  UNL     1      18.091  84.149   8.629  1.00  0.00     0.213 C 
ENDBRANCH  21  23
ENDBRANCH   1  21
TORSDOF 4
ENDMDL
MODEL 4
REMARK VINA RESULT: -7.065438336      1.654      2.290
REMARK  4 active torsions:
REMARK  status: ('A' for Active; 'I' for Inactive)
REMARK    1  A    between atoms: O1_2  and  C2_3 
REMARK    2  A    between atoms: C2_3  and  C3_5 
REMARK    3  A    between atoms: C8_10  and  S1_11 
REMARK    4  A    between atoms: S1_11  and  C9_12 
ROOT
HETATM    1  C3  UNL     1      19.165  83.425   4.082  1.00  0.00     0.059 A 
HETATM    2  C4  UNL     1      18.580  83.571   5.322  1.00  0.00     0.058 A 
HETATM    3  C5  UNL     1      18.905  84.606   6.139  1.00  0.00     0.101 A 
HETATM    4  C6  UNL     1      19.846  85.535   5.719  1.00  0.00    -0.001 A 
HETATM    5  C7  UNL     1      20.423  85.380   4.479  1.00  0.00     0.031 A 
HETATM    6  C8  UNL     1      20.113  84.344   3.631  1.00  0.00     0.018 A 
HETATM    7  C14 UNL     1      19.958  86.500   6.827  1.00  0.00     0.122 C 
HETATM    8  C15 UNL     1      21.368  86.798   7.214  1.00  0.00     0.028 C 
HETATM    9  C16 UNL     1      21.794  85.546   7.972  1.00  0.00     0.019 C 
HETATM   10  C17 UNL     1      20.512  84.851   8.361  1.00  0.00     0.122 C 
HETATM   11  N1  UNL     1      19.431  85.760   7.966  1.00  0.00    -0.182 NA
HETATM   12  O5  UNL     1      18.461  84.961   7.411  1.00  0.00    -0.260 OA
ENDROOT
BRANCH   6  13
HETATM   13  S1  UNL     1      20.852  84.132   2.025  1.00  0.00    -0.111 SA
BRANCH  13  14
HETATM   14  C9  UNL     1      22.509  83.434   2.217  1.00  0.00     0.186 C 
HETATM   15  C10 UNL     1      23.061  83.056   0.891  1.00  0.00     0.277 C 
HETATM   16  O3  UNL     1      23.128  82.037   0.165  1.00  0.00    -0.264 OA
HETATM   17  O4  UNL     1      23.520  84.352   0.719  1.00  0.00    -0.308 OA
HETATM   18  C11 UNL     1      23.644  84.416   2.128  1.00  0.00     0.085 C 
HETATM   19  C12 UNL     1      24.940  83.793   2.591  1.00  0.00     0.048 C 
HETATM   20  C13 UNL     1      23.435  85.757   2.739  1.00  0.00     0.048 C 
ENDBRANCH  13  14
ENDBRANCH   6  13
BRANCH   1  21
HETATM   21  C2  UNL     1      18.766  82.292   3.265  1.00  0.00     0.294 C 
HETATM   22  O2  UNL     1      18.967  81.135   3.689  1.00  0.00    -0.259 OA
BRANCH  21  23
HETATM   23  O1  UNL     1      18.167  82.428   2.022  1.00  0.00    -0.322 OA
HETATM   24  C1  UNL     1      18.177  81.437   1.026  1.00  0.00     0.213 C 
ENDBRANCH  21  23
ENDBRANCH   1  21
TORSDOF 4
ENDMDL
MODEL 5
REMARK VINA RESULT: -6.984028329      1.723      4.724
REMARK  4 active torsions:
REMARK  status: ('A' for Active; 'I' for Inactive)
REMARK    1  A    between atoms: O1_2  and  C2_3 
REMARK    2  A    between atoms: C2_3  and  C3_5 
REMARK    3  A    between atoms: C8_10  and  S1_11 
REMARK    4  A    between atoms: S1_11  and  C9_12 
ROOT
HETATM    1  C3  UNL     1      22.219  85.449   3.860  1.00  0.00     0.059 A 
HETATM    2  C4  UNL     1      22.727  85.826   5.085  1.00  0.00     0.058 A 
HETATM    3  C5  UNL     1      21.909  86.091   6.137  1.00  0.00     0.101 A 
HETATM    4  C6  UNL     1      20.535  85.980   5.976  1.00  0.00    -0.001 A 
HETATM    5  C7  UNL     1      20.040  85.602   4.749  1.00  0.00     0.031 A 
HETATM    6  C8  UNL     1      20.842  85.328   3.668  1.00  0.00     0.018 A 
HETATM    7  C14 UNL     1      19.963  86.334   7.288  1.00  0.00     0.122 C 
HETATM    8  C15 UNL     1      18.845  87.319   7.201  1.00  0.00     0.028 C 
HETATM    9  C16 UNL     1      19.561  88.635   6.914  1.00  0.00     0.019 C 
HETATM   10  C17 UNL     1      20.999  88.409   7.311  1.00  0.00     0.122 C 
HETATM   11  N1  UNL     1      21.038  87.079   7.929  1.00  0.00    -0.182 NA
HETATM   12  O5  UNL     1      22.178  86.482   7.447  1.00  0.00    -0.260 OA
ENDROOT
BRANCH   6  13
HETATM   13  S1  UNL     1      20.214  84.837   2.076  1.00  0.00    -0.111 SA
BRANCH  13  14
HETATM   14  C9  UNL     1      18.909  83.606   2.302  1.00  0.00     0.186 C 
HETATM   15  C10 UNL     1      18.150  83.429   1.038  1.00  0.00     0.277 C 
HETATM   16  O3  UNL     1      17.109  83.879   0.504  1.00  0.00    -0.264 OA
HETATM   17  O4  UNL     1      19.086  82.502   0.610  1.00  0.00    -0.308 OA
HETATM   18  C11 UNL     1      19.288  82.188   1.976  1.00  0.00     0.085 C 
HETATM   19  C12 UNL     1      18.243  81.218   2.473  1.00  0.00     0.048 C 
HETATM   20  C13 UNL     1      20.661  81.747   2.346  1.00  0.00     0.048 C 
ENDBRANCH  13  14
ENDBRANCH   6  13
BRANCH   1  21
HETATM   21  C2  UNL     1      23.156  85.183   2.782  1.00  0.00     0.294 C 
HETATM   22  O2  UNL     1      23.967  86.071   2.448  1.00  0.00    -0.259 OA
BRANCH  21  23
HETATM   23  O1  UNL     1      23.199  83.979   2.096  1.00  0.00    -0.322 OA
HETATM   24  C1  UNL     1      24.060  83.714   1.018  1.00  0.00     0.213 C 
ENDBRANCH  21  23
ENDBRANCH   1  21
TORSDOF 4
ENDMDL
