MODEL 1
REMARK VINA RESULT: -7.156129349      0.000      0.000
REMARK  5 active torsions:
REMARK  status: ('A' for Active; 'I' for Inactive)
REMARK    1  A    between atoms: C2_2  and  C3_3 
REMARK    2  A    between atoms: C3_3  and  C4_4 
REMARK    3  A    between atoms: C12_15  and  O4_16 
REMARK    4  A    between atoms: O4_16  and  C13_17 
REMARK    5  A    between atoms: C18_23  and  O6_24 
ROOT
HETATM    1  C4  UNL     1      23.911  84.210   2.106  1.00  0.00     0.272 C 
HETATM    2  O1  UNL     1      22.828  83.530   1.705  1.00  0.00    -0.290 OA
HETATM    3  C5  UNL     1      22.189  82.408   1.486  1.00  0.00     0.261 C 
HETATM    4  O2  UNL     1      22.360  81.701   0.429  1.00  0.00    -0.265 OA
HETATM    5  C6  UNL     1      21.175  81.782   2.405  1.00  0.00     0.111 C 
HETATM    6  C7  UNL     1      19.762  82.065   2.120  1.00  0.00     0.012 C 
HETATM    7  C8  UNL     1      19.541  83.088   1.060  1.00  0.00     0.027 C 
HETATM    8  C9  UNL     1      18.285  83.872   1.287  1.00  0.00     0.175 C 
HETATM    9  O3  UNL     1      18.432  84.991   2.170  1.00  0.00    -0.351 OA
HETATM   10  C10 UNL     1      19.513  85.274   3.026  1.00  0.00     0.072 A 
HETATM   11  C11 UNL     1      19.176  85.188   4.378  1.00  0.00     0.074 A 
HETATM   12  C12 UNL     1      20.078  85.400   5.392  1.00  0.00     0.082 A 
HETATM   13  C15 UNL     1      21.350  85.703   4.984  1.00  0.00     0.049 A 
HETATM   14  C16 UNL     1      21.738  85.803   3.630  1.00  0.00     0.002 A 
HETATM   15  C17 UNL     1      20.809  85.593   2.652  1.00  0.00     0.049 A 
HETATM   16  C18 UNL     1      23.232  85.974   3.522  1.00  0.00     0.297 C 
HETATM   17  O7  UNL     1      23.831  84.711   3.371  1.00  0.00    -0.327 OA
ENDROOT
BRANCH  12  18
HETATM   18  O4  UNL     1      19.725  85.313   6.734  1.00  0.00    -0.279 OA
BRANCH  18  19
HETATM   19  C13 UNL     1      19.524  86.411   7.537  1.00  0.00     0.260 C 
HETATM   20  C14 UNL     1      19.045  87.725   6.993  1.00  0.00     0.126 C 
HETATM   21  O5  UNL     1      19.754  86.288   8.768  1.00  0.00    -0.265 OA
ENDBRANCH  18  19
ENDBRANCH  12  18
BRANCH  16  22
HETATM   22  O6  UNL     1      23.780  86.415   4.751  1.00  0.00    -0.362 OA
HETATM   23  C19 UNL     1      25.171  86.363   4.762  1.00  0.00     0.205 C 
ENDBRANCH  16  22
BRANCH   1  24
HETATM   24  C3  UNL     1      24.244  85.295   1.073  1.00  0.00     0.061 C 
BRANCH  24  25
HETATM   25  C2  UNL     1      25.745  85.420   0.907  1.00  0.00     0.000 C 
HETATM   26  C1  UNL     1      26.301  84.012   0.889  1.00  0.00     0.005 C 
ENDBRANCH  24  25
ENDBRANCH   1  24
TORSDOF 5
ENDMDL
MODEL 2
REMARK VINA RESULT: -6.886753313      2.544      5.801
REMARK  5 active torsions:
REMARK  status: ('A' for Active; 'I' for Inactive)
REMARK    1  A    between atoms: C2_2  and  C3_3 
REMARK    2  A    between atoms: C3_3  and  C4_4 
REMARK    3  A    between atoms: C12_15  and  O4_16 
REMARK    4  A    between atoms: O4_16  and  C13_17 
REMARK    5  A    between atoms: C18_23  and  O6_24 
ROOT
HETATM    1  C4  UNL     1      17.803  81.659   1.212  1.00  0.00     0.272 C 
HETATM    2  O1  UNL     1      18.645  81.718   0.172  1.00  0.00    -0.290 OA
HETATM    3  C5  UNL     1      18.935  82.064  -1.058  1.00  0.00     0.261 C 
HETATM    4  O2  UNL     1      18.574  81.376  -2.080  1.00  0.00    -0.265 OA
HETATM    5  C6  UNL     1      19.715  83.283  -1.467  1.00  0.00     0.111 C 
HETATM    6  C7  UNL     1      21.152  83.097  -1.709  1.00  0.00     0.012 C 
HETATM    7  C8  UNL     1      21.669  81.751  -1.337  1.00  0.00     0.027 C 
HETATM    8  C9  UNL     1      23.097  81.802  -0.885  1.00  0.00     0.175 C 
HETATM    9  O3  UNL     1      23.272  82.122   0.501  1.00  0.00    -0.351 OA
HETATM   10  C10 UNL     1      22.312  82.636   1.392  1.00  0.00     0.072 A 
HETATM   11  C11 UNL     1      22.598  83.937   1.811  1.00  0.00     0.074 A 
HETATM   12  C12 UNL     1      21.787  84.646   2.663  1.00  0.00     0.082 A 
HETATM   13  C15 UNL     1      20.662  83.986   3.079  1.00  0.00     0.049 A 
HETATM   14  C16 UNL     1      20.331  82.671   2.684  1.00  0.00     0.002 A 
HETATM   15  C17 UNL     1      21.168  81.997   1.842  1.00  0.00     0.049 A 
HETATM   16  C18 UNL     1      18.952  82.307   3.171  1.00  0.00     0.297 C 
HETATM   17  O7  UNL     1      18.014  82.608   2.168  1.00  0.00    -0.327 OA
ENDROOT
BRANCH  12  18
HETATM   18  O4  UNL     1      22.088  85.941   3.073  1.00  0.00    -0.279 OA
BRANCH  18  19
HETATM   19  C13 UNL     1      22.814  86.228   4.206  1.00  0.00     0.260 C 
HETATM   20  C14 UNL     1      24.315  86.224   4.219  1.00  0.00     0.126 C 
HETATM   21  O5  UNL     1      22.180  86.500   5.256  1.00  0.00    -0.265 OA
ENDBRANCH  18  19
ENDBRANCH  12  18
BRANCH  16  22
HETATM   22  O6  UNL     1      18.544  83.164   4.223  1.00  0.00    -0.362 OA
HETATM   23  C19 UNL     1      18.289  82.472   5.403  1.00  0.00     0.205 C 
ENDBRANCH  16  22
BRANCH   1  24
HETATM   24  C3  UNL     1      17.808  80.239   1.794  1.00  0.00     0.061 C 
BRANCH  24  25
HETATM   25  C2  UNL     1      16.619  79.455   1.277  1.00  0.00     0.000 C 
HETATM   26  C1  UNL     1      17.169  78.381   0.362  1.00  0.00     0.005 C 
ENDBRANCH  24  25
ENDBRANCH   1  24
TORSDOF 5
ENDMDL
MODEL 3
REMARK VINA RESULT: -6.551345511      3.264      6.534
REMARK  5 active torsions:
REMARK  status: ('A' for Active; 'I' for Inactive)
REMARK    1  A    between atoms: C2_2  and  C3_3 
REMARK    2  A    between atoms: C3_3  and  C4_4 
REMARK    3  A    between atoms: C12_15  and  O4_16 
REMARK    4  A    between atoms: O4_16  and  C13_17 
REMARK    5  A    between atoms: C18_23  and  O6_24 
ROOT
HETATM    1  C4  UNL     1      21.136  83.653   2.675  1.00  0.00     0.272 C 
HETATM    2  O1  UNL     1      21.575  83.374   1.440  1.00  0.00    -0.290 OA
HETATM    3  C5  UNL     1      22.462  82.870   0.620  1.00  0.00     0.261 C 
HETATM    4  O2  UNL     1      23.528  83.495   0.275  1.00  0.00    -0.265 OA
HETATM    5  C6  UNL     1      22.382  81.519  -0.038  1.00  0.00     0.111 C 
HETATM    6  C7  UNL     1      21.832  81.480  -1.400  1.00  0.00     0.012 C 
HETATM    7  C8  UNL     1      21.259  82.772  -1.870  1.00  0.00     0.027 C 
HETATM    8  C9  UNL     1      20.122  82.570  -2.823  1.00  0.00     0.175 C 
HETATM    9  O3  UNL     1      18.848  82.370  -2.197  1.00  0.00    -0.351 OA
HETATM   10  C10 UNL     1      18.591  82.086  -0.844  1.00  0.00     0.072 A 
HETATM   11  C11 UNL     1      18.068  80.807  -0.644  1.00  0.00     0.074 A 
HETATM   12  C12 UNL     1      17.763  80.306   0.598  1.00  0.00     0.082 A 
HETATM   13  C15 UNL     1      18.013  81.153   1.644  1.00  0.00     0.049 A 
HETATM   14  C16 UNL     1      18.539  82.455   1.492  1.00  0.00     0.002 A 
HETATM   15  C17 UNL     1      18.821  82.919   0.239  1.00  0.00     0.049 A 
HETATM   16  C18 UNL     1      18.858  83.054   2.838  1.00  0.00     0.297 C 
HETATM   17  O7  UNL     1      20.201  82.786   3.156  1.00  0.00    -0.327 OA
ENDROOT
BRANCH  12  18
HETATM   18  O4  UNL     1      17.240  79.029   0.779  1.00  0.00    -0.279 OA
BRANCH  18  19
HETATM   19  C13 UNL     1      17.032  78.143  -0.252  1.00  0.00     0.260 C 
HETATM   20  C14 UNL     1      17.395  76.691  -0.147  1.00  0.00     0.126 C 
HETATM   21  O5  UNL     1      16.517  78.585  -1.311  1.00  0.00    -0.265 OA
ENDBRANCH  18  19
ENDBRANCH  12  18
BRANCH  16  22
HETATM   22  O6  UNL     1      18.170  82.371   3.871  1.00  0.00    -0.362 OA
HETATM   23  C19 UNL     1      18.481  82.866   5.134  1.00  0.00     0.205 C 
ENDBRANCH  16  22
BRANCH   1  24
HETATM   24  C3  UNL     1      20.658  85.110   2.731  1.00  0.00     0.061 C 
BRANCH  24  25
HETATM   25  C2  UNL     1      21.687  85.976   3.430  1.00  0.00     0.000 C 
HETATM   26  C1  UNL     1      21.274  86.056   4.884  1.00  0.00     0.005 C 
ENDBRANCH  24  25
ENDBRANCH   1  24
TORSDOF 5
ENDMDL
MODEL 4
REMARK VINA RESULT: -6.442030212      3.636      6.885
REMARK  5 active torsions:
REMARK  status: ('A' for Active; 'I' for Inactive)
REMARK    1  A    between atoms: C2_2  and  C3_3 
REMARK    2  A    between atoms: C3_3  and  C4_4 
REMARK    3  A    between atoms: C12_15  and  O4_16 
REMARK    4  A    between atoms: O4_16  and  C13_17 
REMARK    5  A    between atoms: C18_23  and  O6_24 
ROOT
HETATM    1  C4  UNL     1      21.205  82.761   2.034  1.00  0.00     0.272 C 
HETATM    2  O1  UNL     1      21.360  82.781   0.703  1.00  0.00    -0.290 OA
HETATM    3  C5  UNL     1      22.021  82.471  -0.384  1.00  0.00     0.261 C 
HETATM    4  O2  UNL     1      23.039  83.135  -0.795  1.00  0.00    -0.265 OA
HETATM    5  C6  UNL     1      21.707  81.325  -1.306  1.00  0.00     0.111 C 
HETATM    6  C7  UNL     1      20.889  81.633  -2.488  1.00  0.00     0.012 C 
HETATM    7  C8  UNL     1      20.333  83.014  -2.508  1.00  0.00     0.027 C 
HETATM    8  C9  UNL     1      19.013  83.080  -3.213  1.00  0.00     0.175 C 
HETATM    9  O3  UNL     1      17.882  82.764  -2.392  1.00  0.00    -0.351 OA
HETATM   10  C10 UNL     1      17.885  82.164  -1.119  1.00  0.00     0.072 A 
HETATM   11  C11 UNL     1      17.317  80.889  -1.116  1.00  0.00     0.074 A 
HETATM   12  C12 UNL     1      17.235  80.107   0.010  1.00  0.00     0.082 A 
HETATM   13  C15 UNL     1      17.756  80.666   1.146  1.00  0.00     0.049 A 
HETATM   14  C16 UNL     1      18.338  81.952   1.192  1.00  0.00     0.002 A 
HETATM   15  C17 UNL     1      18.393  82.702   0.052  1.00  0.00     0.049 A 
HETATM   16  C18 UNL     1      18.969  82.196   2.540  1.00  0.00     0.297 C 
HETATM   17  O7  UNL     1      20.324  81.826   2.488  1.00  0.00    -0.327 OA
ENDROOT
BRANCH  12  18
HETATM   18  O4  UNL     1      16.663  78.838  -0.003  1.00  0.00    -0.279 OA
BRANCH  18  19
HETATM   19  C13 UNL     1      17.130  77.806  -0.783  1.00  0.00     0.260 C 
HETATM   20  C14 UNL     1      17.474  76.461  -0.210  1.00  0.00     0.126 C 
HETATM   21  O5  UNL     1      17.266  78.015  -2.015  1.00  0.00    -0.265 OA
ENDBRANCH  18  19
ENDBRANCH  12  18
BRANCH  16  22
HETATM   22  O6  UNL     1      18.454  81.299   3.508  1.00  0.00    -0.362 OA
HETATM   23  C19 UNL     1      18.233  81.914   4.737  1.00  0.00     0.205 C 
ENDBRANCH  16  22
BRANCH   1  24
HETATM   24  C3  UNL     1      20.860  84.171   2.530  1.00  0.00     0.061 C 
BRANCH  24  25
HETATM   25  C2  UNL     1      22.126  84.969   2.769  1.00  0.00     0.000 C 
HETATM   26  C1  UNL     1      21.799  85.998   3.830  1.00  0.00     0.005 C 
ENDBRANCH  24  25
ENDBRANCH   1  24
TORSDOF 5
ENDMDL
MODEL 5
REMARK VINA RESULT: -6.358054679      3.234      6.121
REMARK  5 active torsions:
REMARK  status: ('A' for Active; 'I' for Inactive)
REMARK    1  A    between atoms: C2_2  and  C3_3 
REMARK    2  A    between atoms: C3_3  and  C4_4 
REMARK    3  A    between atoms: C12_15  and  O4_16 
REMARK    4  A    between atoms: O4_16  and  C13_17 
REMARK    5  A    between atoms: C18_23  and  O6_24 
ROOT
HETATM    1  C4  UNL     1      22.553  82.514   1.675  1.00  0.00     0.272 C 
HETATM    2  O1  UNL     1      22.786  82.393   0.361  1.00  0.00    -0.290 OA
HETATM    3  C5  UNL     1      23.372  81.813  -0.656  1.00  0.00     0.261 C 
HETATM    4  O2  UNL     1      24.575  82.083  -1.015  1.00  0.00    -0.265 OA
HETATM    5  C6  UNL     1      22.757  80.770  -1.548  1.00  0.00     0.111 C 
HETATM    6  C7  UNL     1      22.157  81.245  -2.803  1.00  0.00     0.012 C 
HETATM    7  C8  UNL     1      22.085  82.727  -2.928  1.00  0.00     0.027 C 
HETATM    8  C9  UNL     1      20.904  83.168  -3.738  1.00  0.00     0.175 C 
HETATM    9  O3  UNL     1      19.685  83.291  -2.995  1.00  0.00    -0.351 OA
HETATM   10  C10 UNL     1      19.416  82.809  -1.700  1.00  0.00     0.072 A 
HETATM   11  C11 UNL     1      18.463  81.789  -1.685  1.00  0.00     0.074 A 
HETATM   12  C12 UNL     1      18.062  81.154  -0.535  1.00  0.00     0.082 A 
HETATM   13  C15 UNL     1      18.668  81.591   0.613  1.00  0.00     0.049 A 
HETATM   14  C16 UNL     1      19.635  82.620   0.647  1.00  0.00     0.002 A 
HETATM   15  C17 UNL     1      20.000  83.232  -0.517  1.00  0.00     0.049 A 
HETATM   16  C18 UNL     1      20.229  82.737   2.028  1.00  0.00     0.297 C 
HETATM   17  O7  UNL     1      21.389  81.947   2.100  1.00  0.00    -0.327 OA
ENDROOT
BRANCH  12  18
HETATM   18  O4  UNL     1      17.109  80.140  -0.537  1.00  0.00    -0.279 OA
BRANCH  18  19
HETATM   19  C13 UNL     1      17.062  79.143   0.409  1.00  0.00     0.260 C 
HETATM   20  C14 UNL     1      16.257  79.269   1.669  1.00  0.00     0.126 C 
HETATM   21  O5  UNL     1      17.724  78.096   0.191  1.00  0.00    -0.265 OA
ENDBRANCH  18  19
ENDBRANCH  12  18
BRANCH  16  22
HETATM   22  O6  UNL     1      19.392  82.122   2.992  1.00  0.00    -0.362 OA
HETATM   23  C19 UNL     1      18.886  83.033   3.915  1.00  0.00     0.205 C 
ENDBRANCH  16  22
BRANCH   1  24
HETATM   24  C3  UNL     1      22.659  83.991   2.078  1.00  0.00     0.061 C 
BRANCH  24  25
HETATM   25  C2  UNL     1      24.107  84.437   2.066  1.00  0.00     0.000 C 
HETATM   26  C1  UNL     1      24.199  85.645   2.975  1.00  0.00     0.005 C 
ENDBRANCH  24  25
ENDBRANCH   1  24
TORSDOF 5
ENDMDL
