MODEL 1
REMARK VINA RESULT: -8.619059982      0.000      0.000
REMARK  3 active torsions:
REMARK  status: ('A' for Active; 'I' for Inactive)
REMARK    1  A    between atoms: C3_5  and  C4_6 
REMARK       I    between atoms: N2_10  and  C8_11 
REMARK    2  A    between atoms: C8_11  and  C9_13 
REMARK    3  A    between atoms: C11_16  and  C12_17 
ROOT
HETATM    1  C4  UNL     1      20.132  82.838   1.505  1.00  0.00     0.072 C 
HETATM    2  C5  UNL     1      21.112  83.694   2.219  1.00  0.00     0.015 C 
HETATM    3  C6  UNL     1      20.618  85.030   2.682  1.00  0.00     0.021 C 
HETATM    4  C7  UNL     1      19.165  84.998   3.113  1.00  0.00     0.126 C 
HETATM    5  N2  UNL     1      18.805  83.637   3.298  1.00  0.00    -0.346 N 
HETATM    6  C8  UNL     1      18.546  82.903   4.469  1.00  0.00     0.270 C 
HETATM    7  O1  UNL     1      18.219  81.655   4.358  1.00  0.00    -0.266 OA
HETATM    8  C16 UNL     1      18.717  82.893   2.021  1.00  0.00     0.138 C 
ENDROOT
BRANCH   6   9
HETATM    9  C9  UNL     1      18.615  83.448   5.846  1.00  0.00     0.108 A 
HETATM   10  C10 UNL     1      18.228  82.699   6.936  1.00  0.00     0.086 A 
HETATM   11  S1  UNL     1      18.516  83.805   8.227  1.00  0.00    -0.086 SA
HETATM   12  C11 UNL     1      19.097  85.116   7.309  1.00  0.00     0.057 A 
HETATM   13  N3  UNL     1      19.040  84.649   6.097  1.00  0.00    -0.349 N 
ATOM     14  H3  UNL     1      19.337  85.242   5.322  1.00  0.00     0.166 HD
BRANCH  12  15
HETATM   15  C12 UNL     1      19.563  86.470   7.718  1.00  0.00     0.069 C 
HETATM   16  C13 UNL     1      20.898  86.395   8.434  1.00  0.00     0.040 C 
HETATM   17  C14 UNL     1      21.861  86.529   7.280  1.00  0.00     0.168 C 
HETATM   18  O2  UNL     1      21.241  87.208   6.272  1.00  0.00    -0.390 OA
HETATM   19  C15 UNL     1      19.907  87.323   6.523  1.00  0.00     0.179 C 
ENDBRANCH  12  15
ENDBRANCH   6   9
BRANCH   1  20
HETATM   20  C3  UNL     1      20.120  83.156   0.017  1.00  0.00     0.093 A 
HETATM   21  N1  UNL     1      19.005  83.333  -0.637  1.00  0.00    -0.342 N 
HETATM   22  C2  UNL     1      19.050  83.606  -1.929  1.00  0.00     0.065 A 
ATOM     23  H1  UNL     1      18.108  83.261  -0.157  1.00  0.00     0.167 HD
HETATM   24  C1  UNL     1      17.892  83.845  -2.874  1.00  0.00     0.078 C 
HETATM   25  S2  UNL     1      20.726  83.617  -2.234  1.00  0.00    -0.000 SA
HETATM   26  N4  UNL     1      21.260  83.268  -0.682  1.00  0.00    -0.314 N 
ATOM     27  H4  UNL     1      22.219  83.166  -0.351  1.00  0.00     0.175 HD
ENDBRANCH   1  20
TORSDOF 3
ENDMDL
MODEL 2
REMARK VINA RESULT: -8.452432859      0.969      1.275
REMARK  3 active torsions:
REMARK  status: ('A' for Active; 'I' for Inactive)
REMARK    1  A    between atoms: C3_5  and  C4_6 
REMARK       I    between atoms: N2_10  and  C8_11 
REMARK    2  A    between atoms: C8_11  and  C9_13 
REMARK    3  A    between atoms: C11_16  and  C12_17 
ROOT
HETATM    1  C4  UNL     1      19.902  82.810   1.721  1.00  0.00     0.072 C 
HETATM    2  C5  UNL     1      20.982  83.639   2.309  1.00  0.00     0.015 C 
HETATM    3  C6  UNL     1      20.598  85.017   2.756  1.00  0.00     0.021 C 
HETATM    4  C7  UNL     1      19.190  85.077   3.312  1.00  0.00     0.126 C 
HETATM    5  N2  UNL     1      18.781  83.745   3.587  1.00  0.00    -0.346 N 
HETATM    6  C8  UNL     1      18.591  83.072   4.806  1.00  0.00     0.270 C 
HETATM    7  O1  UNL     1      18.195  81.839   4.777  1.00  0.00    -0.266 OA
HETATM    8  C16 UNL     1      18.543  82.959   2.355  1.00  0.00     0.138 C 
ENDROOT
BRANCH   6   9
HETATM    9  C9  UNL     1      18.810  83.664   6.147  1.00  0.00     0.108 A 
HETATM   10  C10 UNL     1      18.226  83.128   7.275  1.00  0.00     0.086 A 
HETATM   11  S1  UNL     1      18.814  84.191   8.498  1.00  0.00    -0.086 SA
HETATM   12  C11 UNL     1      19.741  85.222   7.512  1.00  0.00     0.057 A 
HETATM   13  N3  UNL     1      19.556  84.711   6.330  1.00  0.00    -0.349 N 
ATOM     14  H3  UNL     1      20.009  85.144   5.526  1.00  0.00     0.166 HD
BRANCH  12  15
HETATM   15  C12 UNL     1      20.570  86.414   7.844  1.00  0.00     0.069 C 
HETATM   16  C13 UNL     1      21.930  86.003   8.375  1.00  0.00     0.040 C 
HETATM   17  C14 UNL     1      22.737  85.930   7.102  1.00  0.00     0.168 C 
HETATM   18  O2  UNL     1      22.171  86.763   6.180  1.00  0.00    -0.390 OA
HETATM   19  C15 UNL     1      20.950  87.189   6.607  1.00  0.00     0.179 C 
ENDBRANCH  12  15
ENDBRANCH   6   9
BRANCH   1  20
HETATM   20  C3  UNL     1      19.773  83.071   0.227  1.00  0.00     0.093 A 
HETATM   21  N1  UNL     1      20.812  83.351  -0.512  1.00  0.00    -0.342 N 
HETATM   22  C2  UNL     1      20.645  83.569  -1.805  1.00  0.00     0.065 A 
ATOM     23  H1  UNL     1      21.742  83.400  -0.097  1.00  0.00     0.167 HD
HETATM   24  C1  UNL     1      21.698  83.907  -2.838  1.00  0.00     0.078 C 
HETATM   25  S2  UNL     1      18.963  83.370  -1.987  1.00  0.00    -0.000 SA
HETATM   26  N4  UNL     1      18.582  83.021  -0.390  1.00  0.00    -0.314 N 
ATOM     27  H4  UNL     1      17.668  82.820   0.013  1.00  0.00     0.175 HD
ENDBRANCH   1  20
TORSDOF 3
ENDMDL
MODEL 3
REMARK VINA RESULT: -8.322792269      2.866      3.788
REMARK  3 active torsions:
REMARK  status: ('A' for Active; 'I' for Inactive)
REMARK    1  A    between atoms: C3_5  and  C4_6 
REMARK       I    between atoms: N2_10  and  C8_11 
REMARK    2  A    between atoms: C8_11  and  C9_13 
REMARK    3  A    between atoms: C11_16  and  C12_17 
ROOT
HETATM    1  C4  UNL     1      18.384  82.264   1.975  1.00  0.00     0.072 C 
HETATM    2  C5  UNL     1      19.457  81.617   2.771  1.00  0.00     0.015 C 
HETATM    3  C6  UNL     1      20.860  81.811   2.281  1.00  0.00     0.021 C 
HETATM    4  C7  UNL     1      21.077  83.177   1.662  1.00  0.00     0.126 C 
HETATM    5  N2  UNL     1      19.991  84.003   2.056  1.00  0.00    -0.346 N 
HETATM    6  C8  UNL     1      19.934  85.082   2.955  1.00  0.00     0.270 C 
HETATM    7  O1  UNL     1      18.800  85.684   3.128  1.00  0.00    -0.266 OA
HETATM    8  C16 UNL     1      18.718  83.618   1.405  1.00  0.00     0.138 C 
ENDROOT
BRANCH   6   9
HETATM    9  C9  UNL     1      21.082  85.602   3.735  1.00  0.00     0.108 A 
HETATM   10  C10 UNL     1      22.234  86.039   3.117  1.00  0.00     0.086 A 
HETATM   11  S1  UNL     1      23.187  86.513   4.473  1.00  0.00    -0.086 SA
HETATM   12  C11 UNL     1      22.078  86.130   5.706  1.00  0.00     0.057 A 
HETATM   13  N3  UNL     1      21.065  85.672   5.031  1.00  0.00    -0.349 N 
ATOM     14  H3  UNL     1      20.234  85.360   5.534  1.00  0.00     0.166 HD
BRANCH  12  15
HETATM   15  C12 UNL     1      22.174  86.258   7.186  1.00  0.00     0.069 C 
HETATM   16  C13 UNL     1      21.130  87.218   7.722  1.00  0.00     0.040 C 
HETATM   17  C14 UNL     1      19.975  86.283   7.984  1.00  0.00     0.168 C 
HETATM   18  O2  UNL     1      20.471  85.031   8.208  1.00  0.00    -0.390 OA
HETATM   19  C15 UNL     1      21.792  84.975   7.881  1.00  0.00     0.179 C 
ENDBRANCH  12  15
ENDBRANCH   6   9
BRANCH   1  20
HETATM   20  C3  UNL     1      17.930  81.356   0.841  1.00  0.00     0.093 A 
HETATM   21  N1  UNL     1      17.750  80.076   1.018  1.00  0.00    -0.342 N 
HETATM   22  C2  UNL     1      17.355  79.332  -0.001  1.00  0.00     0.065 A 
ATOM     23  H1  UNL     1      17.912  79.654   1.932  1.00  0.00     0.167 HD
HETATM   24  C1  UNL     1      17.088  77.843  -0.021  1.00  0.00     0.078 C 
HETATM   25  S2  UNL     1      17.231  80.480  -1.254  1.00  0.00    -0.000 SA
HETATM   26  N4  UNL     1      17.696  81.840  -0.389  1.00  0.00    -0.314 N 
ATOM     27  H4  UNL     1      17.780  82.802  -0.717  1.00  0.00     0.175 HD
ENDBRANCH   1  20
TORSDOF 3
ENDMDL
MODEL 4
REMARK VINA RESULT: -8.059782399      0.868      1.180
REMARK  3 active torsions:
REMARK  status: ('A' for Active; 'I' for Inactive)
REMARK    1  A    between atoms: C3_5  and  C4_6 
REMARK       I    between atoms: N2_10  and  C8_11 
REMARK    2  A    between atoms: C8_11  and  C9_13 
REMARK    3  A    between atoms: C11_16  and  C12_17 
ROOT
HETATM    1  C4  UNL     1      20.083  82.770   1.263  1.00  0.00     0.072 C 
HETATM    2  C5  UNL     1      21.109  83.546   2.002  1.00  0.00     0.015 C 
HETATM    3  C6  UNL     1      20.685  84.882   2.528  1.00  0.00     0.021 C 
HETATM    4  C7  UNL     1      19.237  84.899   2.975  1.00  0.00     0.126 C 
HETATM    5  N2  UNL     1      18.814  83.549   3.106  1.00  0.00    -0.346 N 
HETATM    6  C8  UNL     1      18.532  82.778   4.246  1.00  0.00     0.270 C 
HETATM    7  O1  UNL     1      18.145  81.552   4.084  1.00  0.00    -0.266 OA
HETATM    8  C16 UNL     1      18.677  82.868   1.798  1.00  0.00     0.138 C 
ENDROOT
BRANCH   6   9
HETATM    9  C9  UNL     1      18.641  83.257   5.645  1.00  0.00     0.108 A 
HETATM   10  C10 UNL     1      18.138  82.523   6.698  1.00  0.00     0.086 A 
HETATM   11  S1  UNL     1      18.539  83.534   8.036  1.00  0.00    -0.086 SA
HETATM   12  C11 UNL     1      19.302  84.793   7.181  1.00  0.00     0.057 A 
HETATM   13  N3  UNL     1      19.211  84.383   5.950  1.00  0.00    -0.349 N 
ATOM     14  H3  UNL     1      19.599  84.961   5.205  1.00  0.00     0.166 HD
BRANCH  12  15
HETATM   15  C12 UNL     1      19.930  86.058   7.651  1.00  0.00     0.069 C 
HETATM   16  C13 UNL     1      20.169  87.012   6.497  1.00  0.00     0.040 C 
HETATM   17  C14 UNL     1      18.874  87.787   6.479  1.00  0.00     0.168 C 
HETATM   18  O2  UNL     1      18.334  87.761   7.732  1.00  0.00    -0.390 OA
HETATM   19  C15 UNL     1      18.988  86.858   8.516  1.00  0.00     0.179 C 
ENDBRANCH  12  15
ENDBRANCH   6   9
BRANCH   1  20
HETATM   20  C3  UNL     1      20.071  83.153  -0.210  1.00  0.00     0.093 A 
HETATM   21  N1  UNL     1      18.955  83.354  -0.857  1.00  0.00    -0.342 N 
HETATM   22  C2  UNL     1      19.000  83.685  -2.135  1.00  0.00     0.065 A 
ATOM     23  H1  UNL     1      18.058  83.256  -0.381  1.00  0.00     0.167 HD
HETATM   24  C1  UNL     1      17.842  83.960  -3.069  1.00  0.00     0.078 C 
HETATM   25  S2  UNL     1      20.676  83.717  -2.438  1.00  0.00    -0.000 SA
HETATM   26  N4  UNL     1      21.211  83.301  -0.902  1.00  0.00    -0.314 N 
ATOM     27  H4  UNL     1      22.170  83.189  -0.574  1.00  0.00     0.175 HD
ENDBRANCH   1  20
TORSDOF 3
ENDMDL
MODEL 5
REMARK VINA RESULT: -7.859231952      1.209      1.688
REMARK  3 active torsions:
REMARK  status: ('A' for Active; 'I' for Inactive)
REMARK    1  A    between atoms: C3_5  and  C4_6 
REMARK       I    between atoms: N2_10  and  C8_11 
REMARK    2  A    between atoms: C8_11  and  C9_13 
REMARK    3  A    between atoms: C11_16  and  C12_17 
ROOT
HETATM    1  C4  UNL     1      20.042  82.670   1.206  1.00  0.00     0.072 C 
HETATM    2  C5  UNL     1      21.087  83.434   1.930  1.00  0.00     0.015 C 
HETATM    3  C6  UNL     1      20.689  84.782   2.449  1.00  0.00     0.021 C 
HETATM    4  C7  UNL     1      19.245  84.827   2.907  1.00  0.00     0.126 C 
HETATM    5  N2  UNL     1      18.800  83.486   3.051  1.00  0.00    -0.346 N 
HETATM    6  C8  UNL     1      18.514  82.729   4.200  1.00  0.00     0.270 C 
HETATM    7  O1  UNL     1      18.105  81.508   4.052  1.00  0.00    -0.266 OA
HETATM    8  C16 UNL     1      18.642  82.796   1.750  1.00  0.00     0.138 C 
ENDROOT
BRANCH   6   9
HETATM    9  C9  UNL     1      18.641  83.217   5.594  1.00  0.00     0.108 A 
HETATM   10  C10 UNL     1      18.117  82.511   6.655  1.00  0.00     0.086 A 
HETATM   11  S1  UNL     1      18.553  83.521   7.983  1.00  0.00    -0.086 SA
HETATM   12  C11 UNL     1      19.356  84.745   7.114  1.00  0.00     0.057 A 
HETATM   13  N3  UNL     1      19.249  84.327   5.888  1.00  0.00    -0.349 N 
ATOM     14  H3  UNL     1      19.653  84.884   5.136  1.00  0.00     0.166 HD
BRANCH  12  15
HETATM   15  C12 UNL     1      20.026  85.994   7.571  1.00  0.00     0.069 C 
HETATM   16  C13 UNL     1      20.159  86.990   6.436  1.00  0.00     0.040 C 
HETATM   17  C14 UNL     1      18.868  87.762   6.565  1.00  0.00     0.168 C 
HETATM   18  O2  UNL     1      18.446  87.689   7.861  1.00  0.00    -0.390 OA
HETATM   19  C15 UNL     1      19.168  86.759   8.547  1.00  0.00     0.179 C 
ENDBRANCH  12  15
ENDBRANCH   6   9
BRANCH   1  20
HETATM   20  C3  UNL     1      20.025  83.041  -0.270  1.00  0.00     0.093 A 
HETATM   21  N1  UNL     1      21.114  83.385  -0.902  1.00  0.00    -0.342 N 
HETATM   22  C2  UNL     1      21.045  83.699  -2.184  1.00  0.00     0.065 A 
ATOM     23  H1  UNL     1      22.008  83.412  -0.413  1.00  0.00     0.167 HD
HETATM   24  C1  UNL     1      22.169  84.123  -3.103  1.00  0.00     0.078 C 
HETATM   25  S2  UNL     1      19.385  83.500  -2.512  1.00  0.00    -0.000 SA
HETATM   26  N4  UNL     1      18.887  83.028  -0.980  1.00  0.00    -0.314 N 
ATOM     27  H4  UNL     1      17.947  82.789  -0.666  1.00  0.00     0.175 HD
ENDBRANCH   1  20
TORSDOF 3
ENDMDL
