MODEL 1
REMARK VINA RESULT: -5.110678408      0.000      0.000
REMARK  4 active torsions:
REMARK  status: ('A' for Active; 'I' for Inactive)
REMARK    1  A    between atoms: C2_2  and  C3_3 
REMARK    2  A    between atoms: C3_3  and  C6_6 
REMARK    3  A    between atoms: C11_13  and  O3_14 
REMARK    4  A    between atoms: O3_14  and  C12_15 
ROOT
HETATM    1  C6  UNL     1      27.114  78.133  -4.165  1.00  0.00     0.049 C 
HETATM    2  C7  UNL     1      27.661  78.854  -5.366  1.00  0.00     0.015 C 
HETATM    3  C8  UNL     1      28.774  79.807  -5.182  1.00  0.00     0.074 C 
HETATM    4  C9  UNL     1      29.980  79.225  -4.487  1.00  0.00     0.226 C 
HETATM    5  C10 UNL     1      31.264  79.428  -5.261  1.00  0.00     0.085 C 
HETATM    6  O1  UNL     1      30.125  79.767  -3.233  1.00  0.00    -0.195 OA
HETATM    7  O2  UNL     1      28.932  80.252  -2.897  1.00  0.00    -0.189 OA
HETATM    8  C11 UNL     1      28.260  79.259  -2.183  1.00  0.00     0.265 C 
HETATM    9  C14 UNL     1      29.189  78.868  -1.090  1.00  0.00     0.044 C 
HETATM   10  C15 UNL     1      28.852  77.864  -0.289  1.00  0.00    -0.018 C 
HETATM   11  C16 UNL     1      27.537  77.197  -0.564  1.00  0.00     0.109 C 
HETATM   12  C17 UNL     1      27.454  76.985  -2.058  1.00  0.00     0.174 C 
HETATM   13  O5  UNL     1      26.984  75.951  -2.429  1.00  0.00    -0.294 OA
HETATM   14  C18 UNL     1      27.953  78.051  -2.972  1.00  0.00     0.223 C 
HETATM   15  O6  UNL     1      29.215  77.546  -3.326  1.00  0.00    -0.212 OA
HETATM   16  O7  UNL     1      29.695  77.840  -4.450  1.00  0.00    -0.197 OA
ENDROOT
BRANCH   1  17
HETATM   17  C3  UNL     1      25.689  78.516  -4.114  1.00  0.00    -0.024 C 
HETATM   18  C4  UNL     1      25.328  79.867  -4.673  1.00  0.00     0.019 C 
HETATM   19  C5  UNL     1      24.891  78.313  -2.873  1.00  0.00     0.019 C 
BRANCH  17  20
HETATM   20  C2  UNL     1      25.025  77.521  -5.064  1.00  0.00    -0.028 C 
HETATM   21  C1  UNL     1      24.252  76.565  -4.585  1.00  0.00     0.007 C 
ENDBRANCH  17  20
ENDBRANCH   1  17
BRANCH   8  22
HETATM   22  O3  UNL     1      27.162  79.877  -1.563  1.00  0.00    -0.273 OA
BRANCH  22  23
HETATM   23  C12 UNL     1      27.208  81.238  -1.304  1.00  0.00     0.257 C 
HETATM   24  C13 UNL     1      26.914  82.273  -2.319  1.00  0.00     0.126 C 
HETATM   25  O4  UNL     1      27.515  81.612  -0.157  1.00  0.00    -0.266 OA
ENDBRANCH  22  23
ENDBRANCH   8  22
TORSDOF 4
ENDMDL
MODEL 2
REMARK VINA RESULT: -4.996827337      8.595     11.085
REMARK  4 active torsions:
REMARK  status: ('A' for Active; 'I' for Inactive)
REMARK    1  A    between atoms: C2_2  and  C3_3 
REMARK    2  A    between atoms: C3_3  and  C6_6 
REMARK    3  A    between atoms: C11_13  and  O3_14 
REMARK    4  A    between atoms: O3_14  and  C12_15 
ROOT
HETATM    1  C6  UNL     1      16.907  81.987  -2.431  1.00  0.00     0.049 C 
HETATM    2  C7  UNL     1      17.102  81.256  -1.132  1.00  0.00     0.015 C 
HETATM    3  C8  UNL     1      18.318  81.522  -0.337  1.00  0.00     0.074 C 
HETATM    4  C9  UNL     1      18.539  82.978  -0.009  1.00  0.00     0.226 C 
HETATM    5  C10 UNL     1      18.736  83.228   1.471  1.00  0.00     0.085 C 
HETATM    6  O1  UNL     1      19.625  83.469  -0.692  1.00  0.00    -0.195 OA
HETATM    7  O2  UNL     1      19.816  82.652  -1.725  1.00  0.00    -0.189 OA
HETATM    8  C11 UNL     1      19.128  83.183  -2.816  1.00  0.00     0.265 C 
HETATM    9  C14 UNL     1      19.609  84.585  -2.935  1.00  0.00     0.044 C 
HETATM   10  C15 UNL     1      19.056  85.379  -3.845  1.00  0.00    -0.018 C 
HETATM   11  C16 UNL     1      17.970  84.779  -4.689  1.00  0.00     0.109 C 
HETATM   12  C17 UNL     1      17.062  84.009  -3.758  1.00  0.00     0.174 C 
HETATM   13  O5  UNL     1      15.889  84.082  -3.970  1.00  0.00    -0.294 OA
HETATM   14  C18 UNL     1      17.663  83.219  -2.646  1.00  0.00     0.223 C 
HETATM   15  O6  UNL     1      17.467  84.080  -1.554  1.00  0.00    -0.212 OA
HETATM   16  O7  UNL     1      17.326  83.586  -0.407  1.00  0.00    -0.197 OA
ENDROOT
BRANCH   1  17
HETATM   17  C3  UNL     1      16.808  80.923  -3.449  1.00  0.00    -0.024 C 
HETATM   18  C4  UNL     1      17.740  79.750  -3.299  1.00  0.00     0.019 C 
HETATM   19  C5  UNL     1      16.737  81.261  -4.898  1.00  0.00     0.019 C 
BRANCH  17  20
HETATM   20  C2  UNL     1      15.418  80.337  -3.209  1.00  0.00    -0.028 C 
HETATM   21  C1  UNL     1      14.345  81.006  -3.586  1.00  0.00     0.007 C 
ENDBRANCH  17  20
ENDBRANCH   1  17
BRANCH   8  22
HETATM   22  O3  UNL     1      19.592  82.509  -3.957  1.00  0.00    -0.273 OA
BRANCH  22  23
HETATM   23  C12 UNL     1      20.828  81.880  -3.916  1.00  0.00     0.257 C 
HETATM   24  C13 UNL     1      22.090  82.533  -4.328  1.00  0.00     0.126 C 
HETATM   25  O4  UNL     1      20.880  80.704  -3.513  1.00  0.00    -0.266 OA
ENDBRANCH  22  23
ENDBRANCH   8  22
TORSDOF 4
ENDMDL
MODEL 3
REMARK VINA RESULT: -4.975904460      7.727      9.992
REMARK  4 active torsions:
REMARK  status: ('A' for Active; 'I' for Inactive)
REMARK    1  A    between atoms: C2_2  and  C3_3 
REMARK    2  A    between atoms: C3_3  and  C6_6 
REMARK    3  A    between atoms: C11_13  and  O3_14 
REMARK    4  A    between atoms: O3_14  and  C12_15 
ROOT
HETATM    1  C6  UNL     1      18.964  81.335  -1.201  1.00  0.00     0.049 C 
HETATM    2  C7  UNL     1      17.545  80.912  -1.457  1.00  0.00     0.015 C 
HETATM    3  C8  UNL     1      16.949  81.170  -2.784  1.00  0.00     0.074 C 
HETATM    4  C9  UNL     1      17.744  80.614  -3.940  1.00  0.00     0.226 C 
HETATM    5  C10 UNL     1      16.918  79.738  -4.857  1.00  0.00     0.085 C 
HETATM    6  O1  UNL     1      18.303  81.629  -4.677  1.00  0.00    -0.195 OA
HETATM    7  O2  UNL     1      18.339  82.693  -3.879  1.00  0.00    -0.189 OA
HETATM    8  C11 UNL     1      19.588  82.712  -3.257  1.00  0.00     0.265 C 
HETATM    9  C14 UNL     1      20.576  82.636  -4.365  1.00  0.00     0.044 C 
HETATM   10  C15 UNL     1      21.867  82.544  -4.070  1.00  0.00    -0.018 C 
HETATM   11  C16 UNL     1      22.223  82.522  -2.613  1.00  0.00     0.109 C 
HETATM   12  C17 UNL     1      21.261  81.572  -1.938  1.00  0.00     0.174 C 
HETATM   13  O5  UNL     1      21.713  80.861  -1.091  1.00  0.00    -0.294 OA
HETATM   14  C18 UNL     1      19.830  81.570  -2.355  1.00  0.00     0.223 C 
HETATM   15  O6  UNL     1      19.788  80.451  -3.201  1.00  0.00    -0.212 OA
HETATM   16  O7  UNL     1      18.715  79.805  -3.305  1.00  0.00    -0.197 OA
ENDROOT
BRANCH   1  17
HETATM   17  C3  UNL     1      18.876  82.274  -0.065  1.00  0.00    -0.024 C 
HETATM   18  C4  UNL     1      17.731  83.251  -0.078  1.00  0.00     0.019 C 
HETATM   19  C5  UNL     1      20.084  82.999   0.417  1.00  0.00     0.019 C 
BRANCH  17  20
HETATM   20  C2  UNL     1      18.582  81.359   1.123  1.00  0.00    -0.028 C 
HETATM   21  C1  UNL     1      18.584  81.845   2.350  1.00  0.00     0.007 C 
ENDBRANCH  17  20
ENDBRANCH   1  17
BRANCH   8  22
HETATM   22  O3  UNL     1      19.737  83.984  -2.683  1.00  0.00    -0.273 OA
BRANCH  22  23
HETATM   23  C12 UNL     1      18.999  85.045  -3.186  1.00  0.00     0.257 C 
HETATM   24  C13 UNL     1      19.588  86.147  -3.977  1.00  0.00     0.126 C 
HETATM   25  O4  UNL     1      17.775  85.074  -2.959  1.00  0.00    -0.266 OA
ENDBRANCH  22  23
ENDBRANCH   8  22
TORSDOF 4
ENDMDL
MODEL 4
REMARK VINA RESULT: -4.894747740      7.955     10.434
REMARK  4 active torsions:
REMARK  status: ('A' for Active; 'I' for Inactive)
REMARK    1  A    between atoms: C2_2  and  C3_3 
REMARK    2  A    between atoms: C3_3  and  C6_6 
REMARK    3  A    between atoms: C11_13  and  O3_14 
REMARK    4  A    between atoms: O3_14  and  C12_15 
ROOT
HETATM    1  C6  UNL     1      19.441  83.000  -1.088  1.00  0.00     0.049 C 
HETATM    2  C7  UNL     1      20.746  82.373  -0.684  1.00  0.00     0.015 C 
HETATM    3  C8  UNL     1      21.253  81.219  -1.454  1.00  0.00     0.074 C 
HETATM    4  C9  UNL     1      21.375  81.468  -2.937  1.00  0.00     0.226 C 
HETATM    5  C10 UNL     1      22.752  81.151  -3.479  1.00  0.00     0.085 C 
HETATM    6  O1  UNL     1      20.444  80.735  -3.630  1.00  0.00    -0.195 OA
HETATM    7  O2  UNL     1      19.486  80.430  -2.759  1.00  0.00    -0.189 OA
HETATM    8  C11 UNL     1      18.502  81.414  -2.852  1.00  0.00     0.265 C 
HETATM    9  C14 UNL     1      18.143  81.471  -4.293  1.00  0.00     0.044 C 
HETATM   10  C15 UNL     1      17.281  82.394  -4.705  1.00  0.00    -0.018 C 
HETATM   11  C16 UNL     1      16.736  83.319  -3.658  1.00  0.00     0.109 C 
HETATM   12  C17 UNL     1      17.904  83.755  -2.803  1.00  0.00     0.174 C 
HETATM   13  O5  UNL     1      17.921  84.898  -2.458  1.00  0.00    -0.294 OA
HETATM   14  C18 UNL     1      18.952  82.758  -2.443  1.00  0.00     0.223 C 
HETATM   15  O6  UNL     1      19.964  83.074  -3.364  1.00  0.00    -0.212 OA
HETATM   16  O7  UNL     1      21.162  82.862  -3.049  1.00  0.00    -0.197 OA
ENDROOT
BRANCH   1  17
HETATM   17  C3  UNL     1      18.580  82.876   0.106  1.00  0.00    -0.024 C 
HETATM   18  C4  UNL     1      18.497  81.516   0.744  1.00  0.00     0.019 C 
HETATM   19  C5  UNL     1      17.214  83.469   0.121  1.00  0.00     0.019 C 
BRANCH  17  20
HETATM   20  C2  UNL     1      19.294  83.741   1.143  1.00  0.00    -0.028 C 
HETATM   21  C1  UNL     1      18.911  83.711   2.406  1.00  0.00     0.007 C 
ENDBRANCH  17  20
ENDBRANCH   1  17
BRANCH   8  22
HETATM   22  O3  UNL     1      17.369  80.922  -2.184  1.00  0.00    -0.273 OA
BRANCH  22  23
HETATM   23  C12 UNL     1      17.105  79.561  -2.211  1.00  0.00     0.257 C 
HETATM   24  C13 UNL     1      16.422  78.885  -3.336  1.00  0.00     0.126 C 
HETATM   25  O4  UNL     1      17.459  78.870  -1.238  1.00  0.00    -0.266 OA
ENDBRANCH  22  23
ENDBRANCH   8  22
TORSDOF 4
ENDMDL
MODEL 5
REMARK VINA RESULT: -4.735877266      8.598     11.221
REMARK  4 active torsions:
REMARK  status: ('A' for Active; 'I' for Inactive)
REMARK    1  A    between atoms: C2_2  and  C3_3 
REMARK    2  A    between atoms: C3_3  and  C6_6 
REMARK    3  A    between atoms: C11_13  and  O3_14 
REMARK    4  A    between atoms: O3_14  and  C12_15 
ROOT
HETATM    1  C6  UNL     1      18.717  83.901  -2.929  1.00  0.00     0.049 C 
HETATM    2  C7  UNL     1      17.770  84.493  -3.935  1.00  0.00     0.015 C 
HETATM    3  C8  UNL     1      16.575  83.722  -4.333  1.00  0.00     0.074 C 
HETATM    4  C9  UNL     1      15.706  83.285  -3.180  1.00  0.00     0.226 C 
HETATM    5  C10 UNL     1      14.257  83.693  -3.344  1.00  0.00     0.085 C 
HETATM    6  O1  UNL     1      15.770  81.924  -3.012  1.00  0.00    -0.195 OA
HETATM    7  O2  UNL     1      16.895  81.528  -3.602  1.00  0.00    -0.189 OA
HETATM    8  C11 UNL     1      17.895  81.504  -2.629  1.00  0.00     0.265 C 
HETATM    9  C14 UNL     1      17.349  80.665  -1.530  1.00  0.00     0.044 C 
HETATM   10  C15 UNL     1      18.053  80.533  -0.412  1.00  0.00    -0.018 C 
HETATM   11  C16 UNL     1      19.364  81.261  -0.353  1.00  0.00     0.109 C 
HETATM   12  C17 UNL     1      19.121  82.652  -0.892  1.00  0.00     0.174 C 
HETATM   13  O5  UNL     1      19.673  83.550  -0.330  1.00  0.00    -0.294 OA
HETATM   14  C18 UNL     1      18.223  82.829  -2.068  1.00  0.00     0.223 C 
HETATM   15  O6  UNL     1      17.032  83.242  -1.450  1.00  0.00    -0.212 OA
HETATM   16  O7  UNL     1      16.247  83.994  -2.082  1.00  0.00    -0.197 OA
ENDROOT
BRANCH   1  17
HETATM   17  C3  UNL     1      20.013  83.827  -3.632  1.00  0.00    -0.024 C 
HETATM   18  C4  UNL     1      19.968  83.585  -5.117  1.00  0.00     0.019 C 
HETATM   19  C5  UNL     1      21.134  83.020  -3.076  1.00  0.00     0.019 C 
BRANCH  17  20
HETATM   20  C2  UNL     1      20.567  85.245  -3.494  1.00  0.00    -0.028 C 
HETATM   21  C1  UNL     1      21.801  85.513  -3.878  1.00  0.00     0.007 C 
ENDBRANCH  17  20
ENDBRANCH   1  17
BRANCH   8  22
HETATM   22  O3  UNL     1      18.974  80.789  -3.172  1.00  0.00    -0.273 OA
BRANCH  22  23
HETATM   23  C12 UNL     1      18.744  79.906  -4.217  1.00  0.00     0.257 C 
HETATM   24  C13 UNL     1      18.879  80.277  -5.643  1.00  0.00     0.126 C 
HETATM   25  O4  UNL     1      18.403  78.741  -3.943  1.00  0.00    -0.266 OA
ENDBRANCH  22  23
ENDBRANCH   8  22
TORSDOF 4
ENDMDL
