MODEL 1
REMARK VINA RESULT: -7.069644813      0.000      0.000
REMARK  9 active torsions:
REMARK  status: ('A' for Active; 'I' for Inactive)
REMARK    1  A    between atoms: C2_2  and  O1_3 
REMARK    2  A    between atoms: C2_2  and  C15_19 
REMARK    3  A    between atoms: O1_3  and  C3_4 
REMARK    4  A    between atoms: C3_4  and  C4_6 
REMARK    5  A    between atoms: C5_7  and  C6_8 
REMARK    6  A    between atoms: C6_8  and  O4_10 
REMARK    7  A    between atoms: O4_10  and  C7_11 
REMARK    8  A    between atoms: C15_19  and  O5_20 
REMARK    9  A    between atoms: N1_22  and  O6_24 
ROOT
HETATM    1  C4  UNL     1      19.411  83.947   4.441  1.00  0.00     0.029 C 
HETATM    2  C5  UNL     1      19.347  82.880   3.701  1.00  0.00     0.029 C 
HETATM    3  C11 UNL     1      18.282  81.844   4.103  1.00  0.00     0.045 C 
HETATM    4  C12 UNL     1      18.558  81.583   5.571  1.00  0.00     0.005 C 
HETATM    5  C13 UNL     1      18.282  82.828   6.367  1.00  0.00     0.005 C 
HETATM    6  C14 UNL     1      18.473  84.091   5.598  1.00  0.00     0.045 C 
ENDROOT
BRANCH   1   7
HETATM    7  C3  UNL     1      20.346  85.003   4.198  1.00  0.00     0.290 C 
HETATM    8  O2  UNL     1      20.273  86.030   3.504  1.00  0.00    -0.260 OA
BRANCH   7   9
HETATM    9  O1  UNL     1      21.628  84.935   4.840  1.00  0.00    -0.304 OA
BRANCH   9  10
HETATM   10  C2  UNL     1      22.191  86.047   5.500  1.00  0.00     0.204 C 
HETATM   11  C1  UNL     1      21.358  86.209   6.783  1.00  0.00     0.049 C 
BRANCH  10  12
HETATM   12  C15 UNL     1      23.610  85.896   5.798  1.00  0.00     0.165 C 
HETATM   13  N1  UNL     1      24.450  85.709   4.849  1.00  0.00    -0.249 N 
ATOM     14  H1  UNL     1      25.438  85.606   5.081  1.00  0.00     0.196 HD
BRANCH  12  15
HETATM   15  O5  UNL     1      24.081  85.950   7.090  1.00  0.00    -0.346 OA
ATOM     16  H5  UNL     1      25.010  86.022   7.276  1.00  0.00     0.219 HD
ENDBRANCH  12  15
BRANCH  13  17
HETATM   17  O6  UNL     1      24.068  85.642   3.526  1.00  0.00    -0.288 OA
ATOM     18  H6  UNL     1      24.675  85.416   2.831  1.00  0.00     0.244 HD
ENDBRANCH  13  17
ENDBRANCH  10  12
ENDBRANCH   9  10
ENDBRANCH   7   9
ENDBRANCH   1   7
BRANCH   2  19
HETATM   19  C6  UNL     1      20.129  82.535   2.565  1.00  0.00     0.290 C 
HETATM   20  O3  UNL     1      21.034  81.706   2.518  1.00  0.00    -0.260 OA
BRANCH  19  21
HETATM   21  O4  UNL     1      19.899  83.168   1.334  1.00  0.00    -0.307 OA
BRANCH  21  22
HETATM   22  C7  UNL     1      18.844  82.747   0.480  1.00  0.00     0.060 C 
HETATM   23  C8  UNL     1      18.658  81.248   0.496  1.00  0.00     0.046 C 
HETATM   24  C9  UNL     1      17.532  83.397   0.771  1.00  0.00     0.046 C 
HETATM   25  C10 UNL     1      19.301  83.111  -0.912  1.00  0.00     0.046 C 
ENDBRANCH  21  22
ENDBRANCH  19  21
ENDBRANCH   2  19
TORSDOF 9
ENDMDL
MODEL 2
REMARK VINA RESULT: -7.066265020      1.467      2.023
REMARK  9 active torsions:
REMARK  status: ('A' for Active; 'I' for Inactive)
REMARK    1  A    between atoms: C2_2  and  O1_3 
REMARK    2  A    between atoms: C2_2  and  C15_19 
REMARK    3  A    between atoms: O1_3  and  C3_4 
REMARK    4  A    between atoms: C3_4  and  C4_6 
REMARK    5  A    between atoms: C5_7  and  C6_8 
REMARK    6  A    between atoms: C6_8  and  O4_10 
REMARK    7  A    between atoms: O4_10  and  C7_11 
REMARK    8  A    between atoms: C15_19  and  O5_20 
REMARK    9  A    between atoms: N1_22  and  O6_24 
ROOT
HETATM    1  C4  UNL     1      18.542  83.654   5.973  1.00  0.00     0.029 C 
HETATM    2  C5  UNL     1      18.548  82.927   4.896  1.00  0.00     0.029 C 
HETATM    3  C11 UNL     1      17.813  81.578   4.988  1.00  0.00     0.045 C 
HETATM    4  C12 UNL     1      18.422  80.910   6.207  1.00  0.00     0.005 C 
HETATM    5  C13 UNL     1      18.065  81.690   7.441  1.00  0.00     0.005 C 
HETATM    6  C14 UNL     1      17.843  83.144   7.194  1.00  0.00     0.045 C 
ENDROOT
BRANCH   1   7
HETATM    7  C3  UNL     1      19.179  84.933   6.049  1.00  0.00     0.290 C 
HETATM    8  O2  UNL     1      18.720  86.087   6.064  1.00  0.00    -0.260 OA
BRANCH   7   9
HETATM    9  O1  UNL     1      20.612  84.974   6.124  1.00  0.00    -0.304 OA
BRANCH   9  10
HETATM   10  C2  UNL     1      21.338  86.158   5.878  1.00  0.00     0.204 C 
HETATM   11  C1  UNL     1      22.121  86.419   7.176  1.00  0.00     0.049 C 
BRANCH  10  12
HETATM   12  C15 UNL     1      22.225  86.075   4.724  1.00  0.00     0.165 C 
HETATM   13  N1  UNL     1      21.736  86.022   3.541  1.00  0.00    -0.249 N 
ATOM     14  H1  UNL     1      22.376  85.963   2.749  1.00  0.00     0.196 HD
BRANCH  12  15
HETATM   15  O5  UNL     1      23.593  86.050   4.872  1.00  0.00    -0.346 OA
ATOM     16  H5  UNL     1      24.100  86.852   4.912  1.00  0.00     0.219 HD
ENDBRANCH  12  15
BRANCH  13  17
HETATM   17  O6  UNL     1      20.379  86.041   3.299  1.00  0.00    -0.288 OA
ATOM     18  H6  UNL     1      20.011  86.357   2.481  1.00  0.00     0.244 HD
ENDBRANCH  13  17
ENDBRANCH  10  12
ENDBRANCH   9  10
ENDBRANCH   7   9
ENDBRANCH   1   7
BRANCH   2  19
HETATM   19  C6  UNL     1      19.142  83.209   3.635  1.00  0.00     0.290 C 
HETATM   20  O3  UNL     1      20.325  83.076   3.333  1.00  0.00    -0.260 OA
BRANCH  19  21
HETATM   21  O4  UNL     1      18.355  83.690   2.578  1.00  0.00    -0.307 OA
BRANCH  21  22
HETATM   22  C7  UNL     1      18.245  82.970   1.359  1.00  0.00     0.060 C 
HETATM   23  C8  UNL     1      19.462  83.141   0.481  1.00  0.00     0.046 C 
HETATM   24  C9  UNL     1      17.982  81.512   1.538  1.00  0.00     0.046 C 
HETATM   25  C10 UNL     1      17.091  83.614   0.628  1.00  0.00     0.046 C 
ENDBRANCH  21  22
ENDBRANCH  19  21
ENDBRANCH   2  19
TORSDOF 9
ENDMDL
MODEL 3
REMARK VINA RESULT: -6.870117903      1.626      2.337
REMARK  9 active torsions:
REMARK  status: ('A' for Active; 'I' for Inactive)
REMARK    1  A    between atoms: C2_2  and  O1_3 
REMARK    2  A    between atoms: C2_2  and  C15_19 
REMARK    3  A    between atoms: O1_3  and  C3_4 
REMARK    4  A    between atoms: C3_4  and  C4_6 
REMARK    5  A    between atoms: C5_7  and  C6_8 
REMARK    6  A    between atoms: C6_8  and  O4_10 
REMARK    7  A    between atoms: O4_10  and  C7_11 
REMARK    8  A    between atoms: C15_19  and  O5_20 
REMARK    9  A    between atoms: N1_22  and  O6_24 
ROOT
HETATM    1  C4  UNL     1      19.060  84.636   5.824  1.00  0.00     0.029 C 
HETATM    2  C5  UNL     1      18.557  83.439   5.896  1.00  0.00     0.029 C 
HETATM    3  C11 UNL     1      17.692  83.144   7.134  1.00  0.00     0.045 C 
HETATM    4  C12 UNL     1      18.579  83.530   8.302  1.00  0.00     0.005 C 
HETATM    5  C13 UNL     1      18.825  85.013   8.282  1.00  0.00     0.005 C 
HETATM    6  C14 UNL     1      18.773  85.615   6.919  1.00  0.00     0.045 C 
ENDROOT
BRANCH   1   7
HETATM    7  C3  UNL     1      19.884  85.066   4.736  1.00  0.00     0.290 C 
HETATM    8  O2  UNL     1      19.606  85.580   3.640  1.00  0.00    -0.260 OA
BRANCH   7   9
HETATM    9  O1  UNL     1      21.305  84.908   4.858  1.00  0.00    -0.304 OA
BRANCH   9  10
HETATM   10  C2  UNL     1      22.154  85.995   5.151  1.00  0.00     0.204 C 
HETATM   11  C1  UNL     1      22.151  86.097   6.686  1.00  0.00     0.049 C 
BRANCH  10  12
HETATM   12  C15 UNL     1      23.506  85.843   4.627  1.00  0.00     0.165 C 
HETATM   13  N1  UNL     1      23.687  85.528   3.399  1.00  0.00    -0.249 N 
ATOM     14  H1  UNL     1      24.642  85.427   3.054  1.00  0.00     0.196 HD
BRANCH  12  15
HETATM   15  O5  UNL     1      24.610  86.031   5.427  1.00  0.00    -0.346 OA
ATOM     16  H5  UNL     1      25.489  86.032   5.065  1.00  0.00     0.219 HD
ENDBRANCH  12  15
BRANCH  13  17
HETATM   17  O6  UNL     1      22.641  85.322   2.525  1.00  0.00    -0.288 OA
ATOM     18  H6  UNL     1      22.159  84.504   2.491  1.00  0.00     0.244 HD
ENDBRANCH  13  17
ENDBRANCH  10  12
ENDBRANCH   9  10
ENDBRANCH   7   9
ENDBRANCH   1   7
BRANCH   2  19
HETATM   19  C6  UNL     1      18.695  82.358   4.981  1.00  0.00     0.290 C 
HETATM   20  O3  UNL     1      19.374  81.346   5.135  1.00  0.00    -0.260 OA
BRANCH  19  21
HETATM   21  O4  UNL     1      18.013  82.383   3.756  1.00  0.00    -0.307 OA
BRANCH  21  22
HETATM   22  C7  UNL     1      18.702  82.186   2.530  1.00  0.00     0.060 C 
HETATM   23  C8  UNL     1      18.306  83.199   1.481  1.00  0.00     0.046 C 
HETATM   24  C9  UNL     1      20.189  82.189   2.663  1.00  0.00     0.046 C 
HETATM   25  C10 UNL     1      18.234  80.840   2.030  1.00  0.00     0.046 C 
ENDBRANCH  21  22
ENDBRANCH  19  21
ENDBRANCH   2  19
TORSDOF 9
ENDMDL
MODEL 4
REMARK VINA RESULT: -6.854609363      1.016      1.410
REMARK  9 active torsions:
REMARK  status: ('A' for Active; 'I' for Inactive)
REMARK    1  A    between atoms: C2_2  and  O1_3 
REMARK    2  A    between atoms: C2_2  and  C15_19 
REMARK    3  A    between atoms: O1_3  and  C3_4 
REMARK    4  A    between atoms: C3_4  and  C4_6 
REMARK    5  A    between atoms: C5_7  and  C6_8 
REMARK    6  A    between atoms: C6_8  and  O4_10 
REMARK    7  A    between atoms: O4_10  and  C7_11 
REMARK    8  A    between atoms: C15_19  and  O5_20 
REMARK    9  A    between atoms: N1_22  and  O6_24 
ROOT
HETATM    1  C4  UNL     1      19.059  83.757   4.766  1.00  0.00     0.029 C 
HETATM    2  C5  UNL     1      18.884  82.555   4.304  1.00  0.00     0.029 C 
HETATM    3  C11 UNL     1      17.918  81.660   5.100  1.00  0.00     0.045 C 
HETATM    4  C12 UNL     1      18.445  81.722   6.521  1.00  0.00     0.005 C 
HETATM    5  C13 UNL     1      18.291  83.119   7.056  1.00  0.00     0.005 C 
HETATM    6  C14 UNL     1      18.331  84.176   6.005  1.00  0.00     0.045 C 
ENDROOT
BRANCH   1   7
HETATM    7  C3  UNL     1      19.923  84.710   4.140  1.00  0.00     0.290 C 
HETATM    8  O2  UNL     1      19.710  85.584   3.284  1.00  0.00    -0.260 OA
BRANCH   7   9
HETATM    9  O1  UNL     1      21.308  84.722   4.519  1.00  0.00    -0.304 OA
BRANCH   9  10
HETATM   10  C2  UNL     1      21.971  85.912   4.885  1.00  0.00     0.204 C 
HETATM   11  C1  UNL     1      21.520  86.189   6.329  1.00  0.00     0.049 C 
BRANCH  10  12
HETATM   12  C15 UNL     1      23.423  85.830   4.783  1.00  0.00     0.165 C 
HETATM   13  N1  UNL     1      23.977  85.612   3.648  1.00  0.00    -0.249 N 
ATOM     14  H1  UNL     1      24.994  85.558   3.602  1.00  0.00     0.196 HD
BRANCH  12  15
HETATM   15  O5  UNL     1      24.229  85.981   5.889  1.00  0.00    -0.346 OA
ATOM     16  H5  UNL     1      25.049  85.509   5.971  1.00  0.00     0.219 HD
ENDBRANCH  12  15
BRANCH  13  17
HETATM   17  O6  UNL     1      23.249  85.448   2.489  1.00  0.00    -0.288 OA
ATOM     18  H6  UNL     1      23.640  85.137   1.681  1.00  0.00     0.244 HD
ENDBRANCH  13  17
ENDBRANCH  10  12
ENDBRANCH   9  10
ENDBRANCH   7   9
ENDBRANCH   1   7
BRANCH   2  19
HETATM   19  C6  UNL     1      19.465  81.949   3.156  1.00  0.00     0.290 C 
HETATM   20  O3  UNL     1      20.650  81.970   2.833  1.00  0.00    -0.260 OA
BRANCH  19  21
HETATM   21  O4  UNL     1      18.662  81.235   2.255  1.00  0.00    -0.307 OA
BRANCH  21  22
HETATM   22  C7  UNL     1      18.317  81.781   0.990  1.00  0.00     0.060 C 
HETATM   23  C8  UNL     1      17.815  83.202   1.096  1.00  0.00     0.046 C 
HETATM   24  C9  UNL     1      19.422  81.736  -0.012  1.00  0.00     0.046 C 
HETATM   25  C10 UNL     1      17.154  80.947   0.508  1.00  0.00     0.046 C 
ENDBRANCH  21  22
ENDBRANCH  19  21
ENDBRANCH   2  19
TORSDOF 9
ENDMDL
MODEL 5
REMARK VINA RESULT: -6.561292712      1.453      1.828
REMARK  9 active torsions:
REMARK  status: ('A' for Active; 'I' for Inactive)
REMARK    1  A    between atoms: C2_2  and  O1_3 
REMARK    2  A    between atoms: C2_2  and  C15_19 
REMARK    3  A    between atoms: O1_3  and  C3_4 
REMARK    4  A    between atoms: C3_4  and  C4_6 
REMARK    5  A    between atoms: C5_7  and  C6_8 
REMARK    6  A    between atoms: C6_8  and  O4_10 
REMARK    7  A    between atoms: O4_10  and  C7_11 
REMARK    8  A    between atoms: C15_19  and  O5_20 
REMARK    9  A    between atoms: N1_22  and  O6_24 
ROOT
HETATM    1  C4  UNL     1      18.768  83.731   5.602  1.00  0.00     0.029 C 
HETATM    2  C5  UNL     1      18.659  82.828   4.674  1.00  0.00     0.029 C 
HETATM    3  C11 UNL     1      17.770  81.617   5.011  1.00  0.00     0.045 C 
HETATM    4  C12 UNL     1      18.327  81.109   6.328  1.00  0.00     0.005 C 
HETATM    5  C13 UNL     1      18.097  82.135   7.402  1.00  0.00     0.005 C 
HETATM    6  C14 UNL     1      18.045  83.537   6.898  1.00  0.00     0.045 C 
ENDROOT
BRANCH   1   7
HETATM    7  C3  UNL     1      19.555  84.915   5.443  1.00  0.00     0.290 C 
HETATM    8  O2  UNL     1      20.260  85.320   4.504  1.00  0.00    -0.260 OA
BRANCH   7   9
HETATM    9  O1  UNL     1      19.588  85.859   6.524  1.00  0.00    -0.304 OA
BRANCH   9  10
HETATM   10  C2  UNL     1      20.666  86.751   6.702  1.00  0.00     0.204 C 
HETATM   11  C1  UNL     1      20.097  87.893   7.561  1.00  0.00     0.049 C 
BRANCH  10  12
HETATM   12  C15 UNL     1      21.835  86.143   7.326  1.00  0.00     0.165 C 
HETATM   13  N1  UNL     1      22.862  85.850   6.619  1.00  0.00    -0.249 N 
ATOM     14  H1  UNL     1      23.668  85.425   7.077  1.00  0.00     0.196 HD
BRANCH  12  15
HETATM   15  O5  UNL     1      21.867  85.869   8.675  1.00  0.00    -0.346 OA
ATOM     16  H5  UNL     1      21.073  85.673   9.158  1.00  0.00     0.219 HD
ENDBRANCH  12  15
BRANCH  13  17
HETATM   17  O6  UNL     1      22.919  86.089   5.262  1.00  0.00    -0.288 OA
ATOM     18  H6  UNL     1      23.722  86.339   4.821  1.00  0.00     0.244 HD
ENDBRANCH  13  17
ENDBRANCH  10  12
ENDBRANCH   9  10
ENDBRANCH   7   9
ENDBRANCH   1   7
BRANCH   2  19
HETATM   19  C6  UNL     1      19.250  82.805   3.380  1.00  0.00     0.290 C 
HETATM   20  O3  UNL     1      20.294  82.244   3.058  1.00  0.00    -0.260 OA
BRANCH  19  21
HETATM   21  O4  UNL     1      18.630  83.469   2.312  1.00  0.00    -0.307 OA
BRANCH  21  22
HETATM   22  C7  UNL     1      18.271  82.775   1.126  1.00  0.00     0.060 C 
HETATM   23  C8  UNL     1      19.387  82.765   0.108  1.00  0.00     0.046 C 
HETATM   24  C9  UNL     1      17.821  81.371   1.358  1.00  0.00     0.046 C 
HETATM   25  C10 UNL     1      17.145  83.582   0.526  1.00  0.00     0.046 C 
ENDBRANCH  21  22
ENDBRANCH  19  21
ENDBRANCH   2  19
TORSDOF 9
ENDMDL
