MODEL 1
REMARK VINA RESULT: -6.360561985      0.000      0.000
REMARK  4 active torsions:
REMARK  status: ('A' for Active; 'I' for Inactive)
REMARK    1  A    between atoms: N1_3  and  C3_4 
REMARK    2  A    between atoms: C3_4  and  C4_5 
REMARK    3  A    between atoms: C4_5  and  C5_6 
REMARK    4  A    between atoms: C5_6  and  N2_7 
ROOT
HETATM    1  C4  UNL     1    -102.328  39.624  26.258  1.00  0.00     0.042 C 
ENDROOT
BRANCH   1   2
HETATM    2  C3  UNL     1    -100.882  39.351  26.224  1.00  0.00     0.129 C 
BRANCH   2   3
HETATM    3  N1  UNL     1    -100.409  38.224  26.974  1.00  0.00    -0.364 N 
HETATM    4  C2  UNL     1     -99.147  37.764  26.705  1.00  0.00     0.107 A 
HETATM    5  C1  UNL     1     -98.592  36.700  27.380  1.00  0.00     0.104 A 
HETATM    6  N5  UNL     1     -99.288  36.074  28.340  1.00  0.00    -0.373 N 
HETATM    7  C9  UNL     1    -100.514  36.495  28.625  1.00  0.00     0.104 A 
ATOM      8  H5  UNL     1     -98.881  35.286  28.845  1.00  0.00     0.164 HD
HETATM    9  C8  UNL     1    -101.055  37.575  27.928  1.00  0.00     0.107 A 
ENDBRANCH   2   3
ENDBRANCH   1   2
BRANCH   1  10
HETATM   10  C5  UNL     1    -103.232  39.034  25.260  1.00  0.00     0.151 C 
BRANCH  10  11
HETATM   11  N2  UNL     1    -103.069  39.558  23.930  1.00  0.00    -0.287 N 
HETATM   12  C6  UNL     1    -104.018  40.283  23.258  1.00  0.00     0.201 A 
HETATM   13  N3  UNL     1    -103.559  40.636  22.058  1.00  0.00    -0.346 N 
HETATM   14  C7  UNL     1    -102.303  40.123  21.981  1.00  0.00     0.198 A 
ATOM     15  H3  UNL     1    -104.048  41.178  21.346  1.00  0.00     0.167 HD
HETATM   16  N4  UNL     1    -102.061  39.490  23.124  1.00  0.00    -0.293 N 
ATOM     17  H4  UNL     1    -101.187  39.009  23.340  1.00  0.00     0.188 HD
ENDBRANCH  10  11
ENDBRANCH   1  10
TORSDOF 4
ENDMDL
MODEL 2
REMARK VINA RESULT: -6.320317615      0.887      1.122
REMARK  4 active torsions:
REMARK  status: ('A' for Active; 'I' for Inactive)
REMARK    1  A    between atoms: N1_3  and  C3_4 
REMARK    2  A    between atoms: C3_4  and  C4_5 
REMARK    3  A    between atoms: C4_5  and  C5_6 
REMARK    4  A    between atoms: C5_6  and  N2_7 
ROOT
HETATM    1  C4  UNL     1    -102.392  39.240  26.324  1.00  0.00     0.042 C 
ENDROOT
BRANCH   1   2
HETATM    2  C3  UNL     1    -102.068  38.181  27.294  1.00  0.00     0.129 C 
BRANCH   2   3
HETATM    3  N1  UNL     1    -100.682  37.873  27.492  1.00  0.00    -0.364 N 
HETATM    4  C2  UNL     1     -99.758  38.660  26.857  1.00  0.00     0.107 A 
HETATM    5  C1  UNL     1     -98.402  38.460  26.995  1.00  0.00     0.104 A 
HETATM    6  N5  UNL     1     -97.942  37.469  27.773  1.00  0.00    -0.373 N 
HETATM    7  C9  UNL     1     -98.813  36.689  28.402  1.00  0.00     0.104 A 
ATOM      8  H5  UNL     1     -96.939  37.317  27.880  1.00  0.00     0.164 HD
HETATM    9  C8  UNL     1    -100.180  36.910  28.248  1.00  0.00     0.107 A 
ENDBRANCH   2   3
ENDBRANCH   1   2
BRANCH   1  10
HETATM   10  C5  UNL     1    -103.491  39.072  25.361  1.00  0.00     0.151 C 
BRANCH  10  11
HETATM   11  N2  UNL     1    -103.193  39.543  24.035  1.00  0.00    -0.287 N 
HETATM   12  C6  UNL     1    -104.078  40.215  23.232  1.00  0.00     0.201 A 
HETATM   13  N3  UNL     1    -103.497  40.529  22.074  1.00  0.00    -0.346 N 
HETATM   14  C7  UNL     1    -102.230  40.045  22.157  1.00  0.00     0.198 A 
ATOM     15  H3  UNL     1    -103.916  41.029  21.290  1.00  0.00     0.167 HD
HETATM   16  N4  UNL     1    -102.102  39.466  23.347  1.00  0.00    -0.293 N 
ATOM     17  H4  UNL     1    -101.248  39.017  23.678  1.00  0.00     0.188 HD
ENDBRANCH  10  11
ENDBRANCH   1  10
TORSDOF 4
ENDMDL
MODEL 3
REMARK VINA RESULT: -6.297491697      0.868      1.430
REMARK  4 active torsions:
REMARK  status: ('A' for Active; 'I' for Inactive)
REMARK    1  A    between atoms: N1_3  and  C3_4 
REMARK    2  A    between atoms: C3_4  and  C4_5 
REMARK    3  A    between atoms: C4_5  and  C5_6 
REMARK    4  A    between atoms: C5_6  and  N2_7 
ROOT
HETATM    1  C4  UNL     1    -102.491  39.286  26.323  1.00  0.00     0.042 C 
ENDROOT
BRANCH   1   2
HETATM    2  C3  UNL     1    -102.077  38.218  27.247  1.00  0.00     0.129 C 
BRANCH   2   3
HETATM    3  N1  UNL     1    -100.670  38.001  27.413  1.00  0.00    -0.364 N 
HETATM    4  C2  UNL     1    -100.275  36.960  28.210  1.00  0.00     0.107 A 
HETATM    5  C1  UNL     1     -98.948  36.657  28.421  1.00  0.00     0.104 A 
HETATM    6  N5  UNL     1     -97.987  37.388  27.837  1.00  0.00    -0.373 N 
HETATM    7  C9  UNL     1     -98.338  38.404  27.058  1.00  0.00     0.104 A 
ATOM      8  H5  UNL     1     -97.003  37.167  27.988  1.00  0.00     0.164 HD
HETATM    9  C8  UNL     1     -99.687  38.693  26.859  1.00  0.00     0.107 A 
ENDBRANCH   2   3
ENDBRANCH   1   2
BRANCH   1  10
HETATM   10  C5  UNL     1    -103.542  39.053  25.321  1.00  0.00     0.151 C 
BRANCH  10  11
HETATM   11  N2  UNL     1    -103.222  39.535  24.004  1.00  0.00    -0.287 N 
HETATM   12  C6  UNL     1    -104.095  40.206  23.188  1.00  0.00     0.201 A 
HETATM   13  N3  UNL     1    -103.494  40.531  22.044  1.00  0.00    -0.346 N 
HETATM   14  C7  UNL     1    -102.225  40.053  22.148  1.00  0.00     0.198 A 
ATOM     15  H3  UNL     1    -103.901  41.033  21.254  1.00  0.00     0.167 HD
HETATM   16  N4  UNL     1    -102.117  39.469  23.337  1.00  0.00    -0.293 N 
ATOM     17  H4  UNL     1    -101.266  39.023  23.681  1.00  0.00     0.188 HD
ENDBRANCH  10  11
ENDBRANCH   1  10
TORSDOF 4
ENDMDL
MODEL 4
REMARK VINA RESULT: -6.233717348      1.111      6.274
REMARK  4 active torsions:
REMARK  status: ('A' for Active; 'I' for Inactive)
REMARK    1  A    between atoms: N1_3  and  C3_4 
REMARK    2  A    between atoms: C3_4  and  C4_5 
REMARK    3  A    between atoms: C4_5  and  C5_6 
REMARK    4  A    between atoms: C5_6  and  N2_7 
ROOT
HETATM    1  C4  UNL     1    -101.873  38.877  26.675  1.00  0.00     0.042 C 
ENDROOT
BRANCH   1   2
HETATM    2  C3  UNL     1    -103.125  39.066  25.924  1.00  0.00     0.129 C 
BRANCH   2   3
HETATM    3  N1  UNL     1    -103.014  39.429  24.542  1.00  0.00    -0.364 N 
HETATM    4  C2  UNL     1    -104.128  39.934  23.924  1.00  0.00     0.107 A 
HETATM    5  C1  UNL     1    -104.121  40.329  22.604  1.00  0.00     0.104 A 
HETATM    6  N5  UNL     1    -103.000  40.230  21.876  1.00  0.00    -0.373 N 
HETATM    7  C9  UNL     1    -101.904  39.745  22.445  1.00  0.00     0.104 A 
ATOM      8  H5  UNL     1    -102.990  40.523  20.899  1.00  0.00     0.164 HD
HETATM    9  C8  UNL     1    -101.933  39.351  23.782  1.00  0.00     0.107 A 
ENDBRANCH   2   3
ENDBRANCH   1   2
BRANCH   1  10
HETATM   10  C5  UNL     1    -101.787  37.896  27.766  1.00  0.00     0.151 C 
BRANCH  10  11
HETATM   11  N2  UNL     1    -100.446  37.486  28.090  1.00  0.00    -0.287 N 
HETATM   12  C6  UNL     1    -100.028  36.183  28.158  1.00  0.00     0.201 A 
HETATM   13  N3  UNL     1     -98.731  36.134  28.464  1.00  0.00    -0.346 N 
HETATM   14  C7  UNL     1     -98.336  37.429  28.588  1.00  0.00     0.198 A 
ATOM     15  H3  UNL     1     -98.156  35.301  28.580  1.00  0.00     0.167 HD
HETATM   16  N4  UNL     1     -99.398  38.194  28.354  1.00  0.00    -0.293 N 
ATOM     17  H4  UNL     1     -99.388  39.213  28.380  1.00  0.00     0.188 HD
ENDBRANCH  10  11
ENDBRANCH   1  10
TORSDOF 4
ENDMDL
MODEL 5
REMARK VINA RESULT: -6.226162980      1.131      6.153
REMARK  4 active torsions:
REMARK  status: ('A' for Active; 'I' for Inactive)
REMARK    1  A    between atoms: N1_3  and  C3_4 
REMARK    2  A    between atoms: C3_4  and  C4_5 
REMARK    3  A    between atoms: C4_5  and  C5_6 
REMARK    4  A    between atoms: C5_6  and  N2_7 
ROOT
HETATM    1  C4  UNL     1    -101.912  38.825  26.681  1.00  0.00     0.042 C 
ENDROOT
BRANCH   1   2
HETATM    2  C3  UNL     1    -103.210  39.044  26.022  1.00  0.00     0.129 C 
BRANCH   2   3
HETATM    3  N1  UNL     1    -103.188  39.467  24.652  1.00  0.00    -0.364 N 
HETATM    4  C2  UNL     1    -102.003  39.365  23.973  1.00  0.00     0.107 A 
HETATM    5  C1  UNL     1    -101.879  39.729  22.650  1.00  0.00     0.104 A 
HETATM    6  N5  UNL     1    -102.940  40.199  21.978  1.00  0.00    -0.373 N 
HETATM    7  C9  UNL     1    -104.103  40.310  22.608  1.00  0.00     0.104 A 
ATOM      8  H5  UNL     1    -102.855  40.468  20.998  1.00  0.00     0.164 HD
HETATM    9  C8  UNL     1    -104.205  39.936  23.947  1.00  0.00     0.107 A 
ENDBRANCH   2   3
ENDBRANCH   1   2
BRANCH   1  10
HETATM   10  C5  UNL     1    -101.787  37.891  27.810  1.00  0.00     0.151 C 
BRANCH  10  11
HETATM   11  N2  UNL     1    -100.435  37.505  28.112  1.00  0.00    -0.287 N 
HETATM   12  C6  UNL     1     -99.989  36.209  28.161  1.00  0.00     0.201 A 
HETATM   13  N3  UNL     1     -98.688  36.184  28.449  1.00  0.00    -0.346 N 
HETATM   14  C7  UNL     1     -98.317  37.485  28.582  1.00  0.00     0.198 A 
ATOM     15  H3  UNL     1     -98.095  35.361  28.549  1.00  0.00     0.167 HD
HETATM   16  N4  UNL     1     -99.397  38.230  28.370  1.00  0.00    -0.293 N 
ATOM     17  H4  UNL     1     -99.407  39.250  28.407  1.00  0.00     0.188 HD
ENDBRANCH  10  11
ENDBRANCH   1  10
TORSDOF 4
ENDMDL
