MODEL 1
REMARK VINA RESULT: -6.967957987      0.000      0.000
REMARK  4 active torsions:
REMARK  status: ('A' for Active; 'I' for Inactive)
REMARK    1  A    between atoms: N1_4  and  C4_5 
REMARK    2  A    between atoms: C4_5  and  C5_6 
REMARK    3  A    between atoms: C5_6  and  C6_7 
REMARK    4  A    between atoms: C6_7  and  C7_8 
ROOT
HETATM    1  C5  UNL     1    -102.260  39.415  26.234  1.00  0.00     0.022 C 
ENDROOT
BRANCH   1   2
HETATM    2  C4  UNL     1    -102.037  38.298  27.222  1.00  0.00     0.128 C 
BRANCH   2   3
HETATM    3  N1  UNL     1    -100.674  37.962  27.451  1.00  0.00    -0.366 N 
HETATM    4  C3  UNL     1     -99.684  38.655  26.862  1.00  0.00     0.090 A 
HETATM    5  C2  UNL     1     -98.346  38.349  27.067  1.00  0.00     0.017 A 
HETATM    6  C1  UNL     1     -98.017  37.312  27.892  1.00  0.00     0.003 A 
HETATM    7  C11 UNL     1     -99.031  36.587  28.508  1.00  0.00     0.017 A 
HETATM    8  C10 UNL     1    -100.341  36.954  28.254  1.00  0.00     0.090 A 
ENDBRANCH   2   3
ENDBRANCH   1   2
BRANCH   1   9
HETATM    9  C6  UNL     1    -103.639  39.380  25.612  1.00  0.00     0.037 C 
BRANCH   9  10
HETATM   10  C7  UNL     1    -103.441  39.355  24.117  1.00  0.00     0.212 C 
HETATM   11  C8  UNL     1    -103.517  40.737  23.510  1.00  0.00     0.203 C 
HETATM   12  O1  UNL     1    -102.953  40.462  22.241  1.00  0.00    -0.362 OA
HETATM   13  C9  UNL     1    -101.817  39.757  22.570  1.00  0.00     0.399 C 
HETATM   14  N2  UNL     1    -102.101  38.967  23.736  1.00  0.00    -0.048 N 
ATOM     15  H22 UNL     1    -101.411  39.062  24.481  1.00  0.00     0.280 HD
ATOM     16  H21 UNL     1    -101.981  37.963  23.598  1.00  0.00     0.280 HD
ENDBRANCH   9  10
ENDBRANCH   1   9
TORSDOF 4
ENDMDL
MODEL 2
REMARK VINA RESULT: -6.965579118      0.024      1.249
REMARK  4 active torsions:
REMARK  status: ('A' for Active; 'I' for Inactive)
REMARK    1  A    between atoms: N1_4  and  C4_5 
REMARK    2  A    between atoms: C4_5  and  C5_6 
REMARK    3  A    between atoms: C5_6  and  C6_7 
REMARK    4  A    between atoms: C6_7  and  C7_8 
ROOT
HETATM    1  C5  UNL     1    -102.233  39.421  26.235  1.00  0.00     0.022 C 
ENDROOT
BRANCH   1   2
HETATM    2  C4  UNL     1    -102.015  38.298  27.218  1.00  0.00     0.128 C 
BRANCH   2   3
HETATM    3  N1  UNL     1    -100.654  37.956  27.447  1.00  0.00    -0.366 N 
HETATM    4  C3  UNL     1    -100.328  36.923  28.244  1.00  0.00     0.090 A 
HETATM    5  C2  UNL     1     -99.009  36.566  28.486  1.00  0.00     0.017 A 
HETATM    6  C1  UNL     1     -98.005  37.283  27.900  1.00  0.00     0.003 A 
HETATM    7  C11 UNL     1     -98.328  38.353  27.073  1.00  0.00     0.017 A 
HETATM    8  C10 UNL     1     -99.668  38.646  26.881  1.00  0.00     0.090 A 
ENDBRANCH   2   3
ENDBRANCH   1   2
BRANCH   1   9
HETATM    9  C6  UNL     1    -103.617  39.404  25.624  1.00  0.00     0.037 C 
BRANCH   9  10
HETATM   10  C7  UNL     1    -103.431  39.368  24.128  1.00  0.00     0.212 C 
HETATM   11  C8  UNL     1    -103.509  40.745  23.511  1.00  0.00     0.203 C 
HETATM   12  O1  UNL     1    -102.957  40.461  22.240  1.00  0.00    -0.362 OA
HETATM   13  C9  UNL     1    -101.819  39.756  22.565  1.00  0.00     0.399 C 
HETATM   14  N2  UNL     1    -102.095  38.974  23.739  1.00  0.00    -0.048 N 
ATOM     15  H22 UNL     1    -101.400  39.073  24.478  1.00  0.00     0.280 HD
ATOM     16  H21 UNL     1    -101.979  37.969  23.607  1.00  0.00     0.280 HD
ENDBRANCH   9  10
ENDBRANCH   1   9
TORSDOF 4
ENDMDL
MODEL 3
REMARK VINA RESULT: -6.691643602      2.039      2.650
REMARK  4 active torsions:
REMARK  status: ('A' for Active; 'I' for Inactive)
REMARK    1  A    between atoms: N1_4  and  C4_5 
REMARK    2  A    between atoms: C4_5  and  C5_6 
REMARK    3  A    between atoms: C5_6  and  C6_7 
REMARK    4  A    between atoms: C6_7  and  C7_8 
ROOT
HETATM    1  C5  UNL     1    -101.345  39.703  25.679  1.00  0.00     0.022 C 
ENDROOT
BRANCH   1   2
HETATM    2  C4  UNL     1     -99.981  39.119  25.411  1.00  0.00     0.128 C 
BRANCH   2   3
HETATM    3  N1  UNL     1     -99.390  38.443  26.514  1.00  0.00    -0.366 N 
HETATM    4  C3  UNL     1     -98.944  39.126  27.583  1.00  0.00     0.090 A 
HETATM    5  C2  UNL     1     -98.363  38.493  28.672  1.00  0.00     0.017 A 
HETATM    6  C1  UNL     1     -98.236  37.134  28.665  1.00  0.00     0.003 A 
HETATM    7  C11 UNL     1     -98.694  36.415  27.566  1.00  0.00     0.017 A 
HETATM    8  C10 UNL     1     -99.262  37.119  26.518  1.00  0.00     0.090 A 
ENDBRANCH   2   3
ENDBRANCH   1   2
BRANCH   1   9
HETATM    9  C6  UNL     1    -102.232  39.707  24.453  1.00  0.00     0.037 C 
BRANCH   9  10
HETATM   10  C7  UNL     1    -103.481  38.944  24.817  1.00  0.00     0.212 C 
HETATM   11  C8  UNL     1    -103.444  38.440  26.242  1.00  0.00     0.203 C 
HETATM   12  O1  UNL     1    -104.812  38.117  26.408  1.00  0.00    -0.362 OA
HETATM   13  C9  UNL     1    -105.440  39.249  25.940  1.00  0.00     0.399 C 
HETATM   14  N2  UNL     1    -104.658  39.783  24.859  1.00  0.00    -0.048 N 
ATOM     15  H22 UNL     1    -104.457  40.779  24.944  1.00  0.00     0.280 HD
ATOM     16  H21 UNL     1    -105.158  39.843  23.973  1.00  0.00     0.280 HD
ENDBRANCH   9  10
ENDBRANCH   1   9
TORSDOF 4
ENDMDL
MODEL 4
REMARK VINA RESULT: -6.632800082      2.694      5.736
REMARK  4 active torsions:
REMARK  status: ('A' for Active; 'I' for Inactive)
REMARK    1  A    between atoms: N1_4  and  C4_5 
REMARK    2  A    between atoms: C4_5  and  C5_6 
REMARK    3  A    between atoms: C5_6  and  C6_7 
REMARK    4  A    between atoms: C6_7  and  C7_8 
ROOT
HETATM    1  C5  UNL     1    -100.000  38.967  25.667  1.00  0.00     0.022 C 
ENDROOT
BRANCH   1   2
HETATM    2  C4  UNL     1    -101.179  39.438  26.481  1.00  0.00     0.128 C 
BRANCH   2   3
HETATM    3  N1  UNL     1    -102.427  39.416  25.800  1.00  0.00    -0.366 N 
HETATM    4  C3  UNL     1    -102.570  40.012  24.603  1.00  0.00     0.090 A 
HETATM    5  C2  UNL     1    -103.775  40.007  23.916  1.00  0.00     0.017 A 
HETATM    6  C1  UNL     1    -104.855  39.379  24.467  1.00  0.00     0.003 A 
HETATM    7  C11 UNL     1    -104.721  38.758  25.704  1.00  0.00     0.017 A 
HETATM    8  C10 UNL     1    -103.486  38.807  26.327  1.00  0.00     0.090 A 
ENDBRANCH   2   3
ENDBRANCH   1   2
BRANCH   1   9
HETATM    9  C6  UNL     1     -98.707  38.968  26.452  1.00  0.00     0.037 C 
BRANCH   9  10
HETATM   10  C7  UNL     1     -98.534  37.576  27.006  1.00  0.00     0.212 C 
HETATM   11  C8  UNL     1     -98.696  37.537  28.508  1.00  0.00     0.203 C 
HETATM   12  O1  UNL     1     -98.850  36.142  28.687  1.00  0.00    -0.362 OA
HETATM   13  C9  UNL     1     -99.796  35.825  27.738  1.00  0.00     0.399 C 
HETATM   14  N2  UNL     1     -99.589  36.675  26.598  1.00  0.00    -0.048 N 
ATOM     15  H22 UNL     1    -100.433  37.143  26.270  1.00  0.00     0.280 HD
ATOM     16  H21 UNL     1     -99.395  36.171  25.733  1.00  0.00     0.280 HD
ENDBRANCH   9  10
ENDBRANCH   1   9
TORSDOF 4
ENDMDL
MODEL 5
REMARK VINA RESULT: -6.617071726      2.682      5.873
REMARK  4 active torsions:
REMARK  status: ('A' for Active; 'I' for Inactive)
REMARK    1  A    between atoms: N1_4  and  C4_5 
REMARK    2  A    between atoms: C4_5  and  C5_6 
REMARK    3  A    between atoms: C5_6  and  C6_7 
REMARK    4  A    between atoms: C6_7  and  C7_8 
ROOT
HETATM    1  C5  UNL     1     -99.998  38.953  25.656  1.00  0.00     0.022 C 
ENDROOT
BRANCH   1   2
HETATM    2  C4  UNL     1    -101.197  39.370  26.471  1.00  0.00     0.128 C 
BRANCH   2   3
HETATM    3  N1  UNL     1    -102.428  39.392  25.760  1.00  0.00    -0.366 N 
HETATM    4  C3  UNL     1    -103.534  38.830  26.279  1.00  0.00     0.090 A 
HETATM    5  C2  UNL     1    -104.749  38.837  25.608  1.00  0.00     0.017 A 
HETATM    6  C1  UNL     1    -104.831  39.431  24.381  1.00  0.00     0.003 A 
HETATM    7  C11 UNL     1    -103.695  40.016  23.833  1.00  0.00     0.017 A 
HETATM    8  C10 UNL     1    -102.521  39.969  24.564  1.00  0.00     0.090 A 
ENDBRANCH   2   3
ENDBRANCH   1   2
BRANCH   1   9
HETATM    9  C6  UNL     1     -98.716  38.949  26.459  1.00  0.00     0.037 C 
BRANCH   9  10
HETATM   10  C7  UNL     1     -98.552  37.554  27.007  1.00  0.00     0.212 C 
HETATM   11  C8  UNL     1     -98.708  37.510  28.510  1.00  0.00     0.203 C 
HETATM   12  O1  UNL     1     -98.871  36.116  28.685  1.00  0.00    -0.362 OA
HETATM   13  C9  UNL     1     -99.824  35.810  27.739  1.00  0.00     0.399 C 
HETATM   14  N2  UNL     1     -99.616  36.663  26.601  1.00  0.00    -0.048 N 
ATOM     15  H22 UNL     1    -100.458  37.139  26.278  1.00  0.00     0.280 HD
ATOM     16  H21 UNL     1     -99.430  36.160  25.733  1.00  0.00     0.280 HD
ENDBRANCH   9  10
ENDBRANCH   1   9
TORSDOF 4
ENDMDL
