MODEL 1
REMARK VINA RESULT: -6.869629448      0.000      0.000
REMARK  6 active torsions:
REMARK  status: ('A' for Active; 'I' for Inactive)
REMARK    1  A    between atoms: C2_2  and  C3_3 
REMARK    2  A    between atoms: C3_3  and  C4_4 
REMARK    3  A    between atoms: C4_4  and  C5_5 
REMARK    4  A    between atoms: C5_5  and  N1_6 
REMARK    5  A    between atoms: N2_12  and  N3_14 
REMARK    6  A    between atoms: N3_14  and  N4_16 
ROOT
HETATM    1  N1  UNL     1    -101.414  39.325  25.242  1.00  0.00    -0.366 N 
HETATM    2  C6  UNL     1    -102.281  39.253  26.393  1.00  0.00     0.150 C 
HETATM    3  C7  UNL     1    -103.558  38.578  25.894  1.00  0.00     0.188 C 
HETATM    4  O1  UNL     1    -104.170  39.203  24.857  1.00  0.00    -0.382 OA
HETATM    5  C8  UNL     1    -103.445  40.086  24.107  1.00  0.00     0.245 C 
HETATM    6  C9  UNL     1    -102.039  39.626  24.002  1.00  0.00     0.119 C 
HETATM    7  N2  UNL     1    -101.427  39.509  22.875  1.00  0.00    -0.273 N 
ATOM      8  H2  UNL     1    -100.459  39.188  22.880  1.00  0.00     0.190 HD
ENDROOT
BRANCH   1   9
HETATM    9  C5  UNL     1     -99.994  39.106  25.351  1.00  0.00     0.124 C 
BRANCH   9  10
HETATM   10  C4  UNL     1     -99.764  38.614  26.767  1.00  0.00     0.023 C 
BRANCH  10  11
HETATM   11  C3  UNL     1     -98.319  38.451  27.101  1.00  0.00     0.028 C 
BRANCH  11  12
HETATM   12  C2  UNL     1     -98.222  37.326  28.092  1.00  0.00    -0.037 C 
HETATM   13  C1  UNL     1     -99.271  36.585  28.308  1.00  0.00     0.007 C 
ENDBRANCH  11  12
ENDBRANCH  10  11
ENDBRANCH   9  10
ENDBRANCH   1   9
BRANCH   7  14
HETATM   14  N3  UNL     1    -102.025  39.801  21.651  1.00  0.00    -0.248 N 
ATOM     15  H3  UNL     1    -103.014  40.046  21.611  1.00  0.00     0.207 HD
BRANCH  14  16
HETATM   16  N4  UNL     1    -101.326  39.759  20.574  1.00  0.00    -0.331 N 
ATOM     17  H42 UNL     1    -100.313  39.654  20.642  1.00  0.00     0.178 HD
ATOM     18  H41 UNL     1    -101.787  39.831  19.667  1.00  0.00     0.178 HD
ENDBRANCH  14  16
ENDBRANCH   7  14
TORSDOF 6
ENDMDL
MODEL 2
REMARK VINA RESULT: -6.518333642      2.268      3.527
REMARK  6 active torsions:
REMARK  status: ('A' for Active; 'I' for Inactive)
REMARK    1  A    between atoms: C2_2  and  C3_3 
REMARK    2  A    between atoms: C3_3  and  C4_4 
REMARK    3  A    between atoms: C4_4  and  C5_5 
REMARK    4  A    between atoms: C5_5  and  N1_6 
REMARK    5  A    between atoms: N2_12  and  N3_14 
REMARK    6  A    between atoms: N3_14  and  N4_16 
ROOT
HETATM    1  N1  UNL     1    -102.415  39.284  25.160  1.00  0.00    -0.366 N 
HETATM    2  C6  UNL     1    -101.985  39.618  23.824  1.00  0.00     0.150 C 
HETATM    3  C7  UNL     1    -102.979  40.670  23.332  1.00  0.00     0.188 C 
HETATM    4  O1  UNL     1    -104.279  40.281  23.348  1.00  0.00    -0.382 OA
HETATM    5  C8  UNL     1    -104.635  39.220  24.133  1.00  0.00     0.245 C 
HETATM    6  C9  UNL     1    -103.817  39.209  25.369  1.00  0.00     0.119 C 
HETATM    7  N2  UNL     1    -104.336  39.135  26.546  1.00  0.00    -0.273 N 
ATOM      8  H2  UNL     1    -103.712  39.131  27.352  1.00  0.00     0.190 HD
ENDROOT
BRANCH   1   9
HETATM    9  C5  UNL     1    -101.467  39.038  26.219  1.00  0.00     0.124 C 
BRANCH   9  10
HETATM   10  C4  UNL     1    -100.115  38.935  25.541  1.00  0.00     0.023 C 
BRANCH  10  11
HETATM   11  C3  UNL     1     -98.983  38.840  26.508  1.00  0.00     0.028 C 
BRANCH  11  12
HETATM   12  C2  UNL     1     -98.909  37.409  26.958  1.00  0.00    -0.037 C 
HETATM   13  C1  UNL     1     -98.055  37.083  27.886  1.00  0.00     0.007 C 
ENDBRANCH  11  12
ENDBRANCH  10  11
ENDBRANCH   9  10
ENDBRANCH   1   9
BRANCH   7  14
HETATM   14  N3  UNL     1    -105.709  39.060  26.768  1.00  0.00    -0.248 N 
ATOM     15  H3  UNL     1    -106.254  38.302  26.356  1.00  0.00     0.207 HD
BRANCH  14  16
HETATM   16  N4  UNL     1    -106.287  39.949  27.495  1.00  0.00    -0.331 N 
ATOM     17  H42 UNL     1    -106.594  40.820  27.063  1.00  0.00     0.178 HD
ATOM     18  H41 UNL     1    -106.433  39.774  28.489  1.00  0.00     0.178 HD
ENDBRANCH  14  16
ENDBRANCH   7  14
TORSDOF 6
ENDMDL
MODEL 3
REMARK VINA RESULT: -6.212522425      1.323      1.585
REMARK  6 active torsions:
REMARK  status: ('A' for Active; 'I' for Inactive)
REMARK    1  A    between atoms: C2_2  and  C3_3 
REMARK    2  A    between atoms: C3_3  and  C4_4 
REMARK    3  A    between atoms: C4_4  and  C5_5 
REMARK    4  A    between atoms: C5_5  and  N1_6 
REMARK    5  A    between atoms: N2_12  and  N3_14 
REMARK    6  A    between atoms: N3_14  and  N4_16 
ROOT
HETATM    1  N1  UNL     1    -102.166  39.567  24.292  1.00  0.00    -0.366 N 
HETATM    2  C6  UNL     1    -103.352  39.738  25.096  1.00  0.00     0.150 C 
HETATM    3  C7  UNL     1    -104.513  39.312  24.197  1.00  0.00     0.188 C 
HETATM    4  O1  UNL     1    -104.611  39.992  23.027  1.00  0.00    -0.382 OA
HETATM    5  C8  UNL     1    -103.513  40.665  22.569  1.00  0.00     0.245 C 
HETATM    6  C9  UNL     1    -102.280  39.922  22.921  1.00  0.00     0.119 C 
HETATM    7  N2  UNL     1    -101.377  39.620  22.054  1.00  0.00    -0.273 N 
ATOM      8  H2  UNL     1    -100.553  39.108  22.369  1.00  0.00     0.190 HD
ENDROOT
BRANCH   1   9
HETATM    9  C5  UNL     1    -100.937  39.067  24.855  1.00  0.00     0.124 C 
BRANCH   9  10
HETATM   10  C4  UNL     1    -101.095  39.193  26.358  1.00  0.00     0.023 C 
BRANCH  10  11
HETATM   11  C3  UNL     1    -100.111  38.371  27.120  1.00  0.00     0.028 C 
BRANCH  11  12
HETATM   12  C2  UNL     1    -100.900  37.477  28.033  1.00  0.00    -0.037 C 
HETATM   13  C1  UNL     1    -100.379  36.345  28.412  1.00  0.00     0.007 C 
ENDBRANCH  11  12
ENDBRANCH  10  11
ENDBRANCH   9  10
ENDBRANCH   1   9
BRANCH   7  14
HETATM   14  N3  UNL     1    -101.473  39.961  20.707  1.00  0.00    -0.248 N 
ATOM     15  H3  UNL     1    -101.970  40.806  20.427  1.00  0.00     0.207 HD
BRANCH  14  16
HETATM   16  N4  UNL     1    -100.933  39.206  19.818  1.00  0.00    -0.331 N 
ATOM     17  H42 UNL     1    -100.416  38.379  20.115  1.00  0.00     0.178 HD
ATOM     18  H41 UNL     1    -101.026  39.441  18.829  1.00  0.00     0.178 HD
ENDBRANCH  14  16
ENDBRANCH   7  14
TORSDOF 6
ENDMDL
MODEL 4
REMARK VINA RESULT: -6.058931119      2.512      3.819
REMARK  6 active torsions:
REMARK  status: ('A' for Active; 'I' for Inactive)
REMARK    1  A    between atoms: C2_2  and  C3_3 
REMARK    2  A    between atoms: C3_3  and  C4_4 
REMARK    3  A    between atoms: C4_4  and  C5_5 
REMARK    4  A    between atoms: C5_5  and  N1_6 
REMARK    5  A    between atoms: N2_12  and  N3_14 
REMARK    6  A    between atoms: N3_14  and  N4_16 
ROOT
HETATM    1  N1  UNL     1    -102.575  39.272  25.655  1.00  0.00    -0.366 N 
HETATM    2  C6  UNL     1    -102.002  39.368  24.334  1.00  0.00     0.150 C 
HETATM    3  C7  UNL     1    -102.904  40.339  23.573  1.00  0.00     0.188 C 
HETATM    4  O1  UNL     1    -104.211  39.982  23.516  1.00  0.00    -0.382 OA
HETATM    5  C8  UNL     1    -104.681  39.076  24.424  1.00  0.00     0.245 C 
HETATM    6  C9  UNL     1    -103.994  39.258  25.724  1.00  0.00     0.119 C 
HETATM    7  N2  UNL     1    -104.631  39.394  26.836  1.00  0.00    -0.273 N 
ATOM      8  H2  UNL     1    -104.091  39.515  27.693  1.00  0.00     0.190 HD
ENDROOT
BRANCH   1   9
HETATM    9  C5  UNL     1    -101.749  39.191  26.833  1.00  0.00     0.124 C 
BRANCH   9  10
HETATM   10  C4  UNL     1    -101.754  37.730  27.237  1.00  0.00     0.023 C 
BRANCH  10  11
HETATM   11  C3  UNL     1    -101.078  37.483  28.544  1.00  0.00     0.028 C 
BRANCH  11  12
HETATM   12  C2  UNL     1    -100.064  36.399  28.316  1.00  0.00    -0.037 C 
HETATM   13  C1  UNL     1     -98.799  36.710  28.306  1.00  0.00     0.007 C 
ENDBRANCH  11  12
ENDBRANCH  10  11
ENDBRANCH   9  10
ENDBRANCH   1   9
BRANCH   7  14
HETATM   14  N3  UNL     1    -106.021  39.382  26.922  1.00  0.00    -0.248 N 
ATOM     15  H3  UNL     1    -106.576  38.956  26.180  1.00  0.00     0.207 HD
BRANCH  14  16
HETATM   16  N4  UNL     1    -106.602  39.910  27.939  1.00  0.00    -0.331 N 
ATOM     17  H42 UNL     1    -106.220  40.767  28.341  1.00  0.00     0.178 HD
ATOM     18  H41 UNL     1    -107.434  39.470  28.333  1.00  0.00     0.178 HD
ENDBRANCH  14  16
ENDBRANCH   7  14
TORSDOF 6
ENDMDL
MODEL 5
REMARK VINA RESULT: -6.018191798      2.468      3.632
REMARK  6 active torsions:
REMARK  status: ('A' for Active; 'I' for Inactive)
REMARK    1  A    between atoms: C2_2  and  C3_3 
REMARK    2  A    between atoms: C3_3  and  C4_4 
REMARK    3  A    between atoms: C4_4  and  C5_5 
REMARK    4  A    between atoms: C5_5  and  N1_6 
REMARK    5  A    between atoms: N2_12  and  N3_14 
REMARK    6  A    between atoms: N3_14  and  N4_16 
ROOT
HETATM    1  N1  UNL     1    -102.302  38.738  26.278  1.00  0.00    -0.366 N 
HETATM    2  C6  UNL     1    -101.339  39.269  25.343  1.00  0.00     0.150 C 
HETATM    3  C7  UNL     1    -102.004  40.507  24.741  1.00  0.00     0.188 C 
HETATM    4  O1  UNL     1    -103.199  40.281  24.140  1.00  0.00    -0.382 OA
HETATM    5  C8  UNL     1    -103.882  39.140  24.453  1.00  0.00     0.245 C 
HETATM    6  C9  UNL     1    -103.663  38.793  25.877  1.00  0.00     0.119 C 
HETATM    7  N2  UNL     1    -104.631  38.557  26.693  1.00  0.00    -0.273 N 
ATOM      8  H2  UNL     1    -104.406  38.323  27.660  1.00  0.00     0.190 HD
ENDROOT
BRANCH   1   9
HETATM    9  C5  UNL     1    -101.896  38.182  27.544  1.00  0.00     0.124 C 
BRANCH   9  10
HETATM   10  C4  UNL     1    -100.478  37.688  27.338  1.00  0.00     0.023 C 
BRANCH  10  11
HETATM   11  C3  UNL     1    -100.092  36.606  28.291  1.00  0.00     0.028 C 
BRANCH  11  12
HETATM   12  C2  UNL     1     -98.604  36.692  28.473  1.00  0.00    -0.037 C 
HETATM   13  C1  UNL     1     -97.912  37.443  27.665  1.00  0.00     0.007 C 
ENDBRANCH  11  12
ENDBRANCH  10  11
ENDBRANCH   9  10
ENDBRANCH   1   9
BRANCH   7  14
HETATM   14  N3  UNL     1    -105.972  38.606  26.317  1.00  0.00    -0.248 N 
ATOM     15  H3  UNL     1    -106.240  38.407  25.353  1.00  0.00     0.207 HD
BRANCH  14  16
HETATM   16  N4  UNL     1    -106.869  38.902  27.188  1.00  0.00    -0.331 N 
ATOM     17  H42 UNL     1    -107.102  39.882  27.348  1.00  0.00     0.178 HD
ATOM     18  H41 UNL     1    -107.335  38.158  27.708  1.00  0.00     0.178 HD
ENDBRANCH  14  16
ENDBRANCH   7  14
TORSDOF 6
ENDMDL
