MODEL 1
REMARK VINA RESULT: -7.522441748      0.000      0.000
REMARK  4 active torsions:
REMARK  status: ('A' for Active; 'I' for Inactive)
REMARK    1  A    between atoms: N1_4  and  C4_5 
REMARK    2  A    between atoms: C4_5  and  C5_6 
REMARK    3  A    between atoms: C5_6  and  C6_7 
REMARK    4  A    between atoms: C6_7  and  N2_8 
ROOT
HETATM    1  C6  UNL     1    -103.338  39.755  25.327  1.00  0.00     0.153 C 
ENDROOT
BRANCH   1   2
HETATM    2  C5  UNL     1    -101.989  39.343  25.840  1.00  0.00     0.042 C 
BRANCH   2   3
HETATM    3  C4  UNL     1    -102.050  38.455  27.047  1.00  0.00     0.129 C 
BRANCH   3   4
HETATM    4  N1  UNL     1    -100.680  38.049  27.348  1.00  0.00    -0.366 N 
HETATM    5  C3  UNL     1    -100.413  37.002  28.155  1.00  0.00     0.090 A 
HETATM    6  C2  UNL     1     -99.132  36.598  28.455  1.00  0.00     0.017 A 
HETATM    7  C1  UNL     1     -98.069  37.278  27.918  1.00  0.00     0.003 A 
HETATM    8  C9  UNL     1     -98.321  38.349  27.092  1.00  0.00     0.017 A 
HETATM    9  C8  UNL     1     -99.624  38.709  26.826  1.00  0.00     0.090 A 
ENDBRANCH   3   4
ENDBRANCH   2   3
ENDBRANCH   1   2
BRANCH   1  10
HETATM   10  N2  UNL     1    -103.192  40.010  23.896  1.00  0.00    -0.271 N 
HETATM   11  C7  UNL     1    -102.167  39.655  23.099  1.00  0.00     0.219 A 
HETATM   12  N3  UNL     1    -102.417  40.082  21.828  1.00  0.00    -0.279 N 
HETATM   13  N4  UNL     1    -103.590  40.690  21.867  1.00  0.00    -0.227 N 
ATOM     14  H3  UNL     1    -101.819  39.956  21.012  1.00  0.00     0.189 HD
HETATM   15  N5  UNL     1    -104.042  40.642  23.095  1.00  0.00    -0.225 N 
ATOM     16  H4  UNL     1    -104.063  41.123  21.074  1.00  0.00     0.210 HD
ATOM     17  H5  UNL     1    -104.931  41.040  23.398  1.00  0.00     0.210 HD
ENDBRANCH   1  10
TORSDOF 4
ENDMDL
MODEL 2
REMARK VINA RESULT: -7.521950510      0.017      1.247
REMARK  4 active torsions:
REMARK  status: ('A' for Active; 'I' for Inactive)
REMARK    1  A    between atoms: N1_4  and  C4_5 
REMARK    2  A    between atoms: C4_5  and  C5_6 
REMARK    3  A    between atoms: C5_6  and  C6_7 
REMARK    4  A    between atoms: C6_7  and  N2_8 
ROOT
HETATM    1  C6  UNL     1    -103.341  39.753  25.322  1.00  0.00     0.153 C 
ENDROOT
BRANCH   1   2
HETATM    2  C5  UNL     1    -101.990  39.345  25.831  1.00  0.00     0.042 C 
BRANCH   2   3
HETATM    3  C4  UNL     1    -102.044  38.459  27.040  1.00  0.00     0.129 C 
BRANCH   3   4
HETATM    4  N1  UNL     1    -100.672  38.052  27.334  1.00  0.00    -0.366 N 
HETATM    5  C3  UNL     1     -99.614  38.702  26.810  1.00  0.00     0.090 A 
HETATM    6  C2  UNL     1     -98.312  38.340  27.069  1.00  0.00     0.017 A 
HETATM    7  C1  UNL     1     -98.062  37.274  27.895  1.00  0.00     0.003 A 
HETATM    8  C9  UNL     1     -99.129  36.598  28.439  1.00  0.00     0.017 A 
HETATM    9  C8  UNL     1    -100.412  37.005  28.144  1.00  0.00     0.090 A 
ENDBRANCH   3   4
ENDBRANCH   2   3
ENDBRANCH   1   2
BRANCH   1  10
HETATM   10  N2  UNL     1    -103.200  40.013  23.892  1.00  0.00    -0.271 N 
HETATM   11  C7  UNL     1    -102.172  39.670  23.093  1.00  0.00     0.219 A 
HETATM   12  N3  UNL     1    -102.428  40.097  21.823  1.00  0.00    -0.279 N 
HETATM   13  N4  UNL     1    -103.607  40.693  21.865  1.00  0.00    -0.227 N 
ATOM     14  H3  UNL     1    -101.830  39.980  21.006  1.00  0.00     0.189 HD
HETATM   15  N5  UNL     1    -104.057  40.638  23.094  1.00  0.00    -0.225 N 
ATOM     16  H4  UNL     1    -104.086  41.124  21.074  1.00  0.00     0.210 HD
ATOM     17  H5  UNL     1    -104.950  41.026  23.399  1.00  0.00     0.210 HD
ENDBRANCH   1  10
TORSDOF 4
ENDMDL
MODEL 3
REMARK VINA RESULT: -7.019326442      2.625      3.439
REMARK  4 active torsions:
REMARK  status: ('A' for Active; 'I' for Inactive)
REMARK    1  A    between atoms: N1_4  and  C4_5 
REMARK    2  A    between atoms: C4_5  and  C5_6 
REMARK    3  A    between atoms: C5_6  and  C6_7 
REMARK    4  A    between atoms: C6_7  and  N2_8 
ROOT
HETATM    1  C6  UNL     1    -103.928  39.444  25.603  1.00  0.00     0.153 C 
ENDROOT
BRANCH   1   2
HETATM    2  C5  UNL     1    -102.873  38.679  26.346  1.00  0.00     0.042 C 
BRANCH   2   3
HETATM    3  C4  UNL     1    -101.521  39.328  26.311  1.00  0.00     0.129 C 
BRANCH   3   4
HETATM    4  N1  UNL     1    -100.599  38.434  27.005  1.00  0.00    -0.366 N 
HETATM    5  C3  UNL     1    -101.033  37.535  27.912  1.00  0.00     0.090 A 
HETATM    6  C2  UNL     1    -100.186  36.681  28.581  1.00  0.00     0.017 A 
HETATM    7  C1  UNL     1     -98.840  36.733  28.327  1.00  0.00     0.003 A 
HETATM    8  C9  UNL     1     -98.378  37.643  27.405  1.00  0.00     0.017 A 
HETATM    9  C8  UNL     1     -99.271  38.474  26.765  1.00  0.00     0.090 A 
ENDBRANCH   3   4
ENDBRANCH   2   3
ENDBRANCH   1   2
BRANCH   1  10
HETATM   10  N2  UNL     1    -105.200  39.178  26.270  1.00  0.00    -0.271 N 
HETATM   11  C7  UNL     1    -105.932  40.030  27.011  1.00  0.00     0.219 A 
HETATM   12  N3  UNL     1    -107.052  39.391  27.455  1.00  0.00    -0.279 N 
HETATM   13  N4  UNL     1    -106.988  38.159  26.980  1.00  0.00    -0.227 N 
ATOM     14  H3  UNL     1    -107.791  39.784  28.038  1.00  0.00     0.189 HD
HETATM   15  N5  UNL     1    -105.887  38.042  26.279  1.00  0.00    -0.225 N 
ATOM     16  H4  UNL     1    -107.678  37.424  27.133  1.00  0.00     0.210 HD
ATOM     17  H5  UNL     1    -105.596  37.189  25.801  1.00  0.00     0.210 HD
ENDBRANCH   1  10
TORSDOF 4
ENDMDL
MODEL 4
REMARK VINA RESULT: -6.990465274      1.930      2.652
REMARK  4 active torsions:
REMARK  status: ('A' for Active; 'I' for Inactive)
REMARK    1  A    between atoms: N1_4  and  C4_5 
REMARK    2  A    between atoms: C4_5  and  C5_6 
REMARK    3  A    between atoms: C5_6  and  C6_7 
REMARK    4  A    between atoms: C6_7  and  N2_8 
ROOT
HETATM    1  C6  UNL     1    -102.138  40.041  25.139  1.00  0.00     0.153 C 
ENDROOT
BRANCH   1   2
HETATM    2  C5  UNL     1    -101.089  38.981  24.975  1.00  0.00     0.042 C 
BRANCH   2   3
HETATM    3  C4  UNL     1     -99.765  39.346  25.578  1.00  0.00     0.129 C 
BRANCH   3   4
HETATM    4  N1  UNL     1     -99.487  38.367  26.625  1.00  0.00    -0.366 N 
HETATM    5  C3  UNL     1    -100.477  37.704  27.256  1.00  0.00     0.090 A 
HETATM    6  C2  UNL     1    -100.243  36.777  28.245  1.00  0.00     0.017 A 
HETATM    7  C1  UNL     1     -98.953  36.502  28.618  1.00  0.00     0.003 A 
HETATM    8  C9  UNL     1     -97.929  37.167  27.986  1.00  0.00     0.017 A 
HETATM    9  C8  UNL     1     -98.221  38.086  27.002  1.00  0.00     0.090 A 
ENDBRANCH   3   4
ENDBRANCH   2   3
ENDBRANCH   1   2
BRANCH   1  10
HETATM   10  N2  UNL     1    -103.407  39.355  25.366  1.00  0.00    -0.271 N 
HETATM   11  C7  UNL     1    -104.477  39.316  24.551  1.00  0.00     0.219 A 
HETATM   12  N3  UNL     1    -105.459  38.569  25.132  1.00  0.00    -0.279 N 
HETATM   13  N4  UNL     1    -104.975  38.162  26.293  1.00  0.00    -0.227 N 
ATOM     14  H3  UNL     1    -106.381  38.365  24.748  1.00  0.00     0.189 HD
HETATM   15  N5  UNL     1    -103.759  38.632  26.423  1.00  0.00    -0.225 N 
ATOM     16  H4  UNL     1    -105.465  37.581  26.972  1.00  0.00     0.210 HD
ATOM     17  H5  UNL     1    -103.160  38.465  27.232  1.00  0.00     0.210 HD
ENDBRANCH   1  10
TORSDOF 4
ENDMDL
MODEL 5
REMARK VINA RESULT: -6.974160799      1.956      2.801
REMARK  4 active torsions:
REMARK  status: ('A' for Active; 'I' for Inactive)
REMARK    1  A    between atoms: N1_4  and  C4_5 
REMARK    2  A    between atoms: C4_5  and  C5_6 
REMARK    3  A    between atoms: C5_6  and  C6_7 
REMARK    4  A    between atoms: C6_7  and  N2_8 
ROOT
HETATM    1  C6  UNL     1    -102.137  40.053  25.248  1.00  0.00     0.153 C 
ENDROOT
BRANCH   1   2
HETATM    2  C5  UNL     1    -101.098  38.997  25.009  1.00  0.00     0.042 C 
BRANCH   2   3
HETATM    3  C4  UNL     1     -99.752  39.336  25.578  1.00  0.00     0.129 C 
BRANCH   3   4
HETATM    4  N1  UNL     1     -99.482  38.371  26.640  1.00  0.00    -0.366 N 
HETATM    5  C3  UNL     1     -98.223  38.059  27.009  1.00  0.00     0.090 A 
HETATM    6  C2  UNL     1     -97.940  37.154  28.006  1.00  0.00     0.017 A 
HETATM    7  C1  UNL     1     -98.971  36.532  28.663  1.00  0.00     0.003 A 
HETATM    8  C9  UNL     1    -100.262  36.837  28.300  1.00  0.00     0.017 A 
HETATM    9  C8  UNL     1    -100.487  37.751  27.295  1.00  0.00     0.090 A 
ENDBRANCH   3   4
ENDBRANCH   2   3
ENDBRANCH   1   2
BRANCH   1  10
HETATM   10  N2  UNL     1    -103.413  39.365  25.426  1.00  0.00    -0.271 N 
HETATM   11  C7  UNL     1    -104.452  39.328  24.572  1.00  0.00     0.219 A 
HETATM   12  N3  UNL     1    -105.454  38.578  25.114  1.00  0.00    -0.279 N 
HETATM   13  N4  UNL     1    -105.012  38.167  26.290  1.00  0.00    -0.227 N 
ATOM     14  H3  UNL     1    -106.361  38.375  24.696  1.00  0.00     0.189 HD
HETATM   15  N5  UNL     1    -103.803  38.637  26.467  1.00  0.00    -0.225 N 
ATOM     16  H4  UNL     1    -105.527  37.583  26.949  1.00  0.00     0.210 HD
ATOM     17  H5  UNL     1    -103.233  38.468  27.296  1.00  0.00     0.210 HD
ENDBRANCH   1  10
TORSDOF 4
ENDMDL
