MODEL 1
REMARK VINA RESULT: -6.844893619      0.000      0.000
REMARK  4 active torsions:
REMARK  status: ('A' for Active; 'I' for Inactive)
REMARK    1  A    between atoms: N2_6  and  C4_7 
REMARK    2  A    between atoms: C4_7  and  C5_8 
REMARK    3  A    between atoms: C5_8  and  C6_9 
REMARK    4  A    between atoms: C6_9  and  N3_10 
ROOT
HETATM    1  C5  UNL     1    -102.191  39.230  26.113  1.00  0.00     0.040 C 
ENDROOT
BRANCH   1   2
HETATM    2  C4  UNL     1    -102.094  38.256  27.262  1.00  0.00     0.130 C 
BRANCH   2   3
HETATM    3  N2  UNL     1    -100.719  37.844  27.465  1.00  0.00    -0.353 N 
HETATM    4  C3  UNL     1    -100.422  36.735  28.183  1.00  0.00     0.182 A 
HETATM    5  N1  UNL     1     -99.164  36.319  28.394  1.00  0.00    -0.362 N 
HETATM    6  C2  UNL     1     -98.100  37.007  27.885  1.00  0.00     0.090 A 
ATOM      7  H1  UNL     1     -99.000  35.475  28.943  1.00  0.00     0.165 HD
HETATM    8  C1  UNL     1     -98.413  38.136  27.155  1.00  0.00     0.034 A 
HETATM    9  C9  UNL     1     -99.708  38.550  26.947  1.00  0.00     0.093 A 
ENDBRANCH   2   3
ENDBRANCH   1   2
BRANCH   1  10
HETATM   10  C6  UNL     1    -103.459  39.105  25.342  1.00  0.00     0.132 C 
BRANCH  10  11
HETATM   11  N3  UNL     1    -103.224  39.593  23.997  1.00  0.00    -0.337 N 
HETATM   12  C7  UNL     1    -102.111  39.475  23.250  1.00  0.00     0.200 A 
HETATM   13  N4  UNL     1    -102.313  40.066  22.069  1.00  0.00    -0.295 N 
HETATM   14  N5  UNL     1    -103.537  40.562  22.046  1.00  0.00    -0.295 N 
ATOM     15  H4  UNL     1    -101.634  40.125  21.311  1.00  0.00     0.187 HD
HETATM   16  C8  UNL     1    -104.092  40.275  23.218  1.00  0.00     0.200 A 
ATOM     17  H5  UNL     1    -103.973  41.068  21.276  1.00  0.00     0.187 HD
ENDBRANCH  10  11
ENDBRANCH   1  10
TORSDOF 4
ENDMDL
MODEL 2
REMARK VINA RESULT: -6.674795738      0.756      1.250
REMARK  4 active torsions:
REMARK  status: ('A' for Active; 'I' for Inactive)
REMARK    1  A    between atoms: N2_6  and  C4_7 
REMARK    2  A    between atoms: C4_7  and  C5_8 
REMARK    3  A    between atoms: C5_8  and  C6_9 
REMARK    4  A    between atoms: C6_9  and  N3_10 
ROOT
HETATM    1  C5  UNL     1    -102.063  39.344  25.978  1.00  0.00     0.040 C 
ENDROOT
BRANCH   1   2
HETATM    2  C4  UNL     1    -102.013  38.376  27.135  1.00  0.00     0.130 C 
BRANCH   2   3
HETATM    3  N2  UNL     1    -100.648  37.961  27.393  1.00  0.00    -0.353 N 
HETATM    4  C3  UNL     1     -99.606  38.579  26.789  1.00  0.00     0.182 A 
HETATM    5  N1  UNL     1     -98.329  38.227  27.000  1.00  0.00    -0.362 N 
HETATM    6  C2  UNL     1     -98.011  37.207  27.851  1.00  0.00     0.090 A 
ATOM      7  H1  UNL     1     -97.583  38.728  26.518  1.00  0.00     0.165 HD
HETATM    8  C1  UNL     1     -99.081  36.583  28.461  1.00  0.00     0.034 A 
HETATM    9  C9  UNL     1    -100.385  36.956  28.235  1.00  0.00     0.093 A 
ENDBRANCH   2   3
ENDBRANCH   1   2
BRANCH   1  10
HETATM   10  C6  UNL     1    -103.397  39.402  25.317  1.00  0.00     0.132 C 
BRANCH  10  11
HETATM   11  N3  UNL     1    -103.199  39.756  23.925  1.00  0.00    -0.337 N 
HETATM   12  C7  UNL     1    -102.092  39.607  23.176  1.00  0.00     0.200 A 
HETATM   13  N4  UNL     1    -102.334  40.062  21.944  1.00  0.00    -0.295 N 
HETATM   14  N5  UNL     1    -103.579  40.501  21.890  1.00  0.00    -0.295 N 
ATOM     15  H4  UNL     1    -101.667  40.069  21.172  1.00  0.00     0.187 HD
HETATM   16  C8  UNL     1    -104.106  40.315  23.094  1.00  0.00     0.200 A 
ATOM     17  H5  UNL     1    -104.045  40.905  21.078  1.00  0.00     0.187 HD
ENDBRANCH  10  11
ENDBRANCH   1  10
TORSDOF 4
ENDMDL
MODEL 3
REMARK VINA RESULT: -6.340001328      1.796      2.703
REMARK  4 active torsions:
REMARK  status: ('A' for Active; 'I' for Inactive)
REMARK    1  A    between atoms: N2_6  and  C4_7 
REMARK    2  A    between atoms: C4_7  and  C5_8 
REMARK    3  A    between atoms: C5_8  and  C6_9 
REMARK    4  A    between atoms: C6_9  and  N3_10 
ROOT
HETATM    1  C5  UNL     1    -101.040  39.088  24.822  1.00  0.00     0.040 C 
ENDROOT
BRANCH   1   2
HETATM    2  C4  UNL     1     -99.886  39.193  25.790  1.00  0.00     0.130 C 
BRANCH   2   3
HETATM    3  N2  UNL     1     -99.927  38.108  26.750  1.00  0.00    -0.353 N 
HETATM    4  C3  UNL     1     -99.092  37.048  26.639  1.00  0.00     0.182 A 
HETATM    5  N1  UNL     1     -99.096  36.023  27.506  1.00  0.00    -0.362 N 
HETATM    6  C2  UNL     1     -99.961  35.999  28.563  1.00  0.00     0.090 A 
ATOM      7  H1  UNL     1     -98.444  35.250  27.372  1.00  0.00     0.165 HD
HETATM    8  C1  UNL     1    -100.807  37.084  28.666  1.00  0.00     0.034 A 
HETATM    9  C9  UNL     1    -100.791  38.127  27.770  1.00  0.00     0.093 A 
ENDBRANCH   2   3
ENDBRANCH   1   2
BRANCH   1  10
HETATM   10  C6  UNL     1    -102.098  40.110  25.056  1.00  0.00     0.132 C 
BRANCH  10  11
HETATM   11  N3  UNL     1    -103.356  39.421  25.268  1.00  0.00    -0.337 N 
HETATM   12  C7  UNL     1    -104.435  39.390  24.466  1.00  0.00     0.200 A 
HETATM   13  N4  UNL     1    -105.382  38.639  25.036  1.00  0.00    -0.295 N 
HETATM   14  N5  UNL     1    -104.927  38.187  26.191  1.00  0.00    -0.295 N 
ATOM     15  H4  UNL     1    -106.303  38.447  24.644  1.00  0.00     0.187 HD
HETATM   16  C8  UNL     1    -103.695  38.662  26.333  1.00  0.00     0.200 A 
ATOM     17  H5  UNL     1    -105.426  37.587  26.848  1.00  0.00     0.187 HD
ENDBRANCH  10  11
ENDBRANCH   1  10
TORSDOF 4
ENDMDL
MODEL 4
REMARK VINA RESULT: -6.314863279      1.878      2.561
REMARK  4 active torsions:
REMARK  status: ('A' for Active; 'I' for Inactive)
REMARK    1  A    between atoms: N2_6  and  C4_7 
REMARK    2  A    between atoms: C4_7  and  C5_8 
REMARK    3  A    between atoms: C5_8  and  C6_9 
REMARK    4  A    between atoms: C6_9  and  N3_10 
ROOT
HETATM    1  C5  UNL     1    -100.946  38.877  24.885  1.00  0.00     0.040 C 
ENDROOT
BRANCH   1   2
HETATM    2  C4  UNL     1     -99.655  39.356  25.505  1.00  0.00     0.130 C 
BRANCH   2   3
HETATM    3  N2  UNL     1     -99.245  38.469  26.576  1.00  0.00    -0.353 N 
HETATM    4  C3  UNL     1     -99.395  37.128  26.466  1.00  0.00     0.182 A 
HETATM    5  N1  UNL     1     -99.028  36.273  27.432  1.00  0.00    -0.362 N 
HETATM    6  C2  UNL     1     -98.475  36.722  28.598  1.00  0.00     0.090 A 
ATOM      7  H1  UNL     1     -99.165  35.272  27.295  1.00  0.00     0.165 HD
HETATM    8  C1  UNL     1     -98.327  38.091  28.699  1.00  0.00     0.034 A 
HETATM    9  C9  UNL     1     -98.708  38.955  27.700  1.00  0.00     0.093 A 
ENDBRANCH   2   3
ENDBRANCH   1   2
BRANCH   1  10
HETATM   10  C6  UNL     1    -102.018  39.911  24.889  1.00  0.00     0.132 C 
BRANCH  10  11
HETATM   11  N3  UNL     1    -103.264  39.271  25.262  1.00  0.00    -0.337 N 
HETATM   12  C7  UNL     1    -103.515  38.495  26.332  1.00  0.00     0.200 A 
HETATM   13  N4  UNL     1    -104.793  38.107  26.300  1.00  0.00    -0.295 N 
HETATM   14  N5  UNL     1    -105.367  38.622  25.227  1.00  0.00    -0.295 N 
ATOM     15  H4  UNL     1    -105.250  37.512  26.991  1.00  0.00     0.187 HD
HETATM   16  C8  UNL     1    -104.438  39.329  24.595  1.00  0.00     0.200 A 
ATOM     17  H5  UNL     1    -106.338  38.499  24.940  1.00  0.00     0.187 HD
ENDBRANCH  10  11
ENDBRANCH   1  10
TORSDOF 4
ENDMDL
MODEL 5
REMARK VINA RESULT: -6.313918492      1.127      6.135
REMARK  4 active torsions:
REMARK  status: ('A' for Active; 'I' for Inactive)
REMARK    1  A    between atoms: N2_6  and  C4_7 
REMARK    2  A    between atoms: C4_7  and  C5_8 
REMARK    3  A    between atoms: C5_8  and  C6_9 
REMARK    4  A    between atoms: C6_9  and  N3_10 
ROOT
HETATM    1  C5  UNL     1    -100.992  39.407  26.384  1.00  0.00     0.040 C 
ENDROOT
BRANCH   1   2
HETATM    2  C4  UNL     1    -100.758  39.138  24.917  1.00  0.00     0.130 C 
BRANCH   2   3
HETATM    3  N2  UNL     1    -101.932  39.489  24.141  1.00  0.00    -0.353 N 
HETATM    4  C3  UNL     1    -101.835  39.777  22.823  1.00  0.00     0.182 A 
HETATM    5  N1  UNL     1    -102.896  40.106  22.069  1.00  0.00    -0.362 N 
HETATM    6  C2  UNL     1    -104.150  40.167  22.607  1.00  0.00     0.090 A 
ATOM      7  H1  UNL     1    -102.763  40.313  21.079  1.00  0.00     0.165 HD
HETATM    8  C1  UNL     1    -104.237  39.872  23.952  1.00  0.00     0.034 A 
HETATM    9  C9  UNL     1    -103.141  39.536  24.712  1.00  0.00     0.093 A 
ENDBRANCH   2   3
ENDBRANCH   1   2
BRANCH   1  10
HETATM   10  C6  UNL     1     -99.864  38.964  27.249  1.00  0.00     0.132 C 
BRANCH  10  11
HETATM   11  N3  UNL     1     -99.920  37.520  27.365  1.00  0.00    -0.337 N 
HETATM   12  C7  UNL     1    -100.858  36.769  27.970  1.00  0.00     0.200 A 
HETATM   13  N4  UNL     1    -100.529  35.479  27.848  1.00  0.00    -0.295 N 
HETATM   14  N5  UNL     1     -99.396  35.391  27.174  1.00  0.00    -0.295 N 
ATOM     15  H4  UNL     1    -101.066  34.693  28.214  1.00  0.00     0.187 HD
HETATM   16  C8  UNL     1     -99.025  36.632  26.880  1.00  0.00     0.200 A 
ATOM     17  H5  UNL     1     -98.902  34.534  26.927  1.00  0.00     0.187 HD
ENDBRANCH  10  11
ENDBRANCH   1  10
TORSDOF 4
ENDMDL
