MODEL 1
REMARK VINA RESULT: -6.495840278      0.000      0.000
REMARK  4 active torsions:
REMARK  status: ('A' for Active; 'I' for Inactive)
REMARK    1  A    between atoms: C4_4  and  C5_5 
REMARK    2  A    between atoms: C5_5  and  N1_6 
REMARK    3  A    between atoms: C8_9  and  N2_10 
REMARK    4  A    between atoms: N2_10  and  C9_12 
ROOT
HETATM    1  C1  UNL     1     -97.715  37.108  28.221  1.00  0.00     0.027 C 
HETATM    2  C2  UNL     1     -98.406  37.633  27.379  1.00  0.00    -0.026 C 
HETATM    3  C3  UNL     1     -99.229  38.236  26.405  1.00  0.00    -0.010 C 
HETATM    4  C4  UNL     1     -99.938  38.753  25.583  1.00  0.00    -0.047 C 
ENDROOT
BRANCH   4   5
HETATM    5  C5  UNL     1    -100.797  39.377  24.607  1.00  0.00     0.156 C 
BRANCH   5   6
HETATM    6  N1  UNL     1    -101.958  39.986  25.130  1.00  0.00    -0.363 N 
HETATM    7  C6  UNL     1    -103.001  40.080  24.182  1.00  0.00     0.130 C 
HETATM    8  C7  UNL     1    -104.075  39.026  24.400  1.00  0.00     0.045 C 
HETATM    9  C8  UNL     1    -104.628  39.359  25.792  1.00  0.00     0.090 C 
HETATM   10  C10 UNL     1    -103.522  38.977  26.746  1.00  0.00     0.069 C 
HETATM   11  C11 UNL     1    -102.289  39.754  26.466  1.00  0.00     0.066 C 
BRANCH   9  12
HETATM   12  N2  UNL     1    -105.862  38.722  26.054  1.00  0.00    -0.363 N 
ATOM     13  H2  UNL     1    -106.174  37.959  25.454  1.00  0.00     0.162 HD
BRANCH  12  14
HETATM   14  C9  UNL     1    -106.666  39.130  27.138  1.00  0.00     0.348 C 
HETATM   15  O1  UNL     1    -107.584  38.375  27.538  1.00  0.00    -0.284 OA
ENDBRANCH  12  14
ENDBRANCH   9  12
ENDBRANCH   5   6
ENDBRANCH   4   5
TORSDOF 4
ENDMDL
MODEL 2
REMARK VINA RESULT: -6.267930319      3.039      4.094
REMARK  4 active torsions:
REMARK  status: ('A' for Active; 'I' for Inactive)
REMARK    1  A    between atoms: C4_4  and  C5_5 
REMARK    2  A    between atoms: C5_5  and  N1_6 
REMARK    3  A    between atoms: C8_9  and  N2_10 
REMARK    4  A    between atoms: N2_10  and  C9_12 
ROOT
HETATM    1  C1  UNL     1     -97.970  37.131  28.588  1.00  0.00     0.027 C 
HETATM    2  C2  UNL     1     -99.108  37.371  28.254  1.00  0.00    -0.026 C 
HETATM    3  C3  UNL     1    -100.427  37.668  27.854  1.00  0.00    -0.010 C 
HETATM    4  C4  UNL     1    -101.548  37.925  27.504  1.00  0.00    -0.047 C 
ENDROOT
BRANCH   4   5
HETATM    5  C5  UNL     1    -102.888  38.235  27.070  1.00  0.00     0.156 C 
BRANCH   5   6
HETATM    6  N1  UNL     1    -103.009  39.393  26.272  1.00  0.00    -0.363 N 
HETATM    7  C6  UNL     1    -101.789  39.777  25.675  1.00  0.00     0.130 C 
HETATM    8  C7  UNL     1    -101.719  39.392  24.206  1.00  0.00     0.045 C 
HETATM    9  C8  UNL     1    -102.864  40.194  23.571  1.00  0.00     0.090 C 
HETATM   10  C10 UNL     1    -104.122  39.531  24.077  1.00  0.00     0.069 C 
HETATM   11  C11 UNL     1    -104.193  39.590  25.559  1.00  0.00     0.066 C 
BRANCH   9  12
HETATM   12  N2  UNL     1    -102.771  40.254  22.162  1.00  0.00    -0.363 N 
ATOM     13  H2  UNL     1    -103.482  40.757  21.630  1.00  0.00     0.162 HD
BRANCH  12  14
HETATM   14  C9  UNL     1    -101.706  39.626  21.484  1.00  0.00     0.348 C 
HETATM   15  O1  UNL     1    -101.294  40.115  20.406  1.00  0.00    -0.284 OA
ENDBRANCH  12  14
ENDBRANCH   9  12
ENDBRANCH   5   6
ENDBRANCH   4   5
TORSDOF 4
ENDMDL
MODEL 3
REMARK VINA RESULT: -5.512439296      0.766      1.476
REMARK  4 active torsions:
REMARK  status: ('A' for Active; 'I' for Inactive)
REMARK    1  A    between atoms: C4_4  and  C5_5 
REMARK    2  A    between atoms: C5_5  and  N1_6 
REMARK    3  A    between atoms: C8_9  and  N2_10 
REMARK    4  A    between atoms: N2_10  and  C9_12 
ROOT
HETATM    1  C1  UNL     1     -97.765  37.010  28.504  1.00  0.00     0.027 C 
HETATM    2  C2  UNL     1     -98.422  37.557  27.648  1.00  0.00    -0.026 C 
HETATM    3  C3  UNL     1     -99.206  38.184  26.657  1.00  0.00    -0.010 C 
HETATM    4  C4  UNL     1     -99.881  38.720  25.820  1.00  0.00    -0.047 C 
ENDROOT
BRANCH   4   5
HETATM    5  C5  UNL     1    -100.702  39.367  24.825  1.00  0.00     0.156 C 
BRANCH   5   6
HETATM    6  N1  UNL     1    -102.007  38.848  24.692  1.00  0.00    -0.363 N 
HETATM    7  C6  UNL     1    -102.530  38.362  25.910  1.00  0.00     0.130 C 
HETATM    8  C7  UNL     1    -103.527  39.325  26.535  1.00  0.00     0.045 C 
HETATM    9  C8  UNL     1    -104.655  39.397  25.497  1.00  0.00     0.090 C 
HETATM   10  C10 UNL     1    -104.062  40.164  24.340  1.00  0.00     0.069 C 
HETATM   11  C11 UNL     1    -102.878  39.458  23.788  1.00  0.00     0.066 C 
BRANCH   9  12
HETATM   12  N2  UNL     1    -105.839  39.966  26.018  1.00  0.00    -0.363 N 
ATOM     13  H2  UNL     1    -106.377  40.621  25.450  1.00  0.00     0.162 HD
BRANCH  12  14
HETATM   14  C9  UNL     1    -106.286  39.637  27.314  1.00  0.00     0.348 C 
HETATM   15  O1  UNL     1    -107.294  38.904  27.447  1.00  0.00    -0.284 OA
ENDBRANCH  12  14
ENDBRANCH   9  12
ENDBRANCH   5   6
ENDBRANCH   4   5
TORSDOF 4
ENDMDL
MODEL 4
REMARK VINA RESULT: -5.418089005      2.396      3.454
REMARK  4 active torsions:
REMARK  status: ('A' for Active; 'I' for Inactive)
REMARK    1  A    between atoms: C4_4  and  C5_5 
REMARK    2  A    between atoms: C5_5  and  N1_6 
REMARK    3  A    between atoms: C8_9  and  N2_10 
REMARK    4  A    between atoms: N2_10  and  C9_12 
ROOT
HETATM    1  C1  UNL     1     -97.141  36.800  28.552  1.00  0.00     0.027 C 
HETATM    2  C2  UNL     1     -98.313  37.031  28.360  1.00  0.00    -0.026 C 
HETATM    3  C3  UNL     1     -99.674  37.312  28.120  1.00  0.00    -0.010 C 
HETATM    4  C4  UNL     1    -100.832  37.553  27.905  1.00  0.00    -0.047 C 
ENDROOT
BRANCH   4   5
HETATM    5  C5  UNL     1    -102.219  37.840  27.633  1.00  0.00     0.156 C 
BRANCH   5   6
HETATM    6  N1  UNL     1    -102.453  38.996  26.858  1.00  0.00    -0.363 N 
HETATM    7  C6  UNL     1    -101.282  39.491  26.244  1.00  0.00     0.130 C 
HETATM    8  C7  UNL     1    -101.212  39.137  24.767  1.00  0.00     0.045 C 
HETATM    9  C8  UNL     1    -102.432  39.850  24.169  1.00  0.00     0.090 C 
HETATM   10  C10 UNL     1    -103.620  39.076  24.688  1.00  0.00     0.069 C 
HETATM   11  C11 UNL     1    -103.664  39.105  26.172  1.00  0.00     0.066 C 
BRANCH   9  12
HETATM   12  N2  UNL     1    -102.374  39.940  22.760  1.00  0.00    -0.363 N 
ATOM     13  H2  UNL     1    -101.587  39.526  22.260  1.00  0.00     0.162 HD
BRANCH  12  14
HETATM   14  C9  UNL     1    -103.392  40.596  22.039  1.00  0.00     0.348 C 
HETATM   15  O1  UNL     1    -104.558  40.137  22.071  1.00  0.00    -0.284 OA
ENDBRANCH  12  14
ENDBRANCH   9  12
ENDBRANCH   5   6
ENDBRANCH   4   5
TORSDOF 4
ENDMDL
MODEL 5
REMARK VINA RESULT: -5.387179350      2.906      6.257
REMARK  4 active torsions:
REMARK  status: ('A' for Active; 'I' for Inactive)
REMARK    1  A    between atoms: C4_4  and  C5_5 
REMARK    2  A    between atoms: C5_5  and  N1_6 
REMARK    3  A    between atoms: C8_9  and  N2_10 
REMARK    4  A    between atoms: N2_10  and  C9_12 
ROOT
HETATM    1  C1  UNL     1    -107.870  40.490  29.106  1.00  0.00     0.027 C 
HETATM    2  C2  UNL     1    -107.142  40.172  28.195  1.00  0.00    -0.026 C 
HETATM    3  C3  UNL     1    -106.275  39.805  27.144  1.00  0.00    -0.010 C 
HETATM    4  C4  UNL     1    -105.531  39.488  26.256  1.00  0.00    -0.047 C 
ENDROOT
BRANCH   4   5
HETATM    5  C5  UNL     1    -104.629  39.098  25.199  1.00  0.00     0.156 C 
BRANCH   5   6
HETATM    6  N1  UNL     1    -103.414  39.813  25.150  1.00  0.00    -0.363 N 
HETATM    7  C6  UNL     1    -102.791  39.922  26.413  1.00  0.00     0.130 C 
HETATM    8  C7  UNL     1    -101.626  38.957  26.565  1.00  0.00     0.045 C 
HETATM    9  C8  UNL     1    -100.641  39.409  25.478  1.00  0.00     0.090 C 
HETATM   10  C10 UNL     1    -101.296  39.009  24.178  1.00  0.00     0.069 C 
HETATM   11  C11 UNL     1    -102.609  39.684  24.017  1.00  0.00     0.066 C 
BRANCH   9  12
HETATM   12  N2  UNL     1     -99.346  38.873  25.659  1.00  0.00    -0.363 N 
ATOM     13  H2  UNL     1     -98.848  38.477  24.862  1.00  0.00     0.162 HD
BRANCH  12  14
HETATM   14  C9  UNL     1     -98.735  38.880  26.930  1.00  0.00     0.348 C 
HETATM   15  O1  UNL     1     -98.003  37.919  27.263  1.00  0.00    -0.284 OA
ENDBRANCH  12  14
ENDBRANCH   9  12
ENDBRANCH   5   6
ENDBRANCH   4   5
TORSDOF 4
ENDMDL
