MODEL 1
REMARK VINA RESULT: -6.709642335      0.000      0.000
REMARK  5 active torsions:
REMARK  status: ('A' for Active; 'I' for Inactive)
REMARK    1  A    between atoms: C1_2  and  S1_3 
REMARK    2  A    between atoms: S1_3  and  C2_5 
REMARK    3  A    between atoms: C2_5  and  O3_6 
REMARK    4  A    between atoms: O3_6  and  C3_7 
REMARK    5  A    between atoms: C3_7  and  C4_9 
ROOT
HETATM    1  C3  UNL     1      55.245  -4.512 -55.912  1.00  0.00     0.263 C 
HETATM    2  O4  UNL     1      54.105  -5.015 -56.095  1.00  0.00    -0.265 OA
ENDROOT
BRANCH   1   3
HETATM    3  O3  UNL     1      55.382  -3.595 -54.911  1.00  0.00    -0.308 OA
BRANCH   3   4
HETATM    4  C2  UNL     1      54.310  -3.046 -54.162  1.00  0.00     0.295 C 
BRANCH   4   5
HETATM    5  S1  UNL     1      54.110  -4.117 -52.750  1.00  0.00     0.102 S 
HETATM    6  O2  UNL     1      54.823  -3.506 -51.390  1.00  0.00    -0.248 OA
BRANCH   5   7
HETATM    7  C1  UNL     1      52.473  -4.624 -52.533  1.00  0.00     0.338 C 
HETATM    8  O1  UNL     1      52.006  -5.514 -53.200  1.00  0.00    -0.292 OA
ENDBRANCH   5   7
ENDBRANCH   4   5
ENDBRANCH   3   4
ENDBRANCH   1   3
BRANCH   1   9
HETATM    9  C4  UNL     1      56.406  -4.886 -56.734  1.00  0.00     0.085 C 
HETATM   10  C5  UNL     1      56.253  -4.466 -58.183  1.00  0.00     0.014 C 
HETATM   11  C6  UNL     1      57.652  -4.842 -58.684  1.00  0.00     0.001 C 
HETATM   12  C7  UNL     1      58.566  -4.472 -57.533  1.00  0.00     0.001 C 
HETATM   13  C8  UNL     1      57.665  -4.136 -56.363  1.00  0.00     0.014 C 
ENDBRANCH   1   9
TORSDOF 5
ENDMDL
MODEL 2
REMARK VINA RESULT: -6.576407720      1.484      2.251
REMARK  5 active torsions:
REMARK  status: ('A' for Active; 'I' for Inactive)
REMARK    1  A    between atoms: C1_2  and  S1_3 
REMARK    2  A    between atoms: S1_3  and  C2_5 
REMARK    3  A    between atoms: C2_5  and  O3_6 
REMARK    4  A    between atoms: O3_6  and  C3_7 
REMARK    5  A    between atoms: C3_7  and  C4_9 
ROOT
HETATM    1  C3  UNL     1      55.137  -4.402 -55.803  1.00  0.00     0.263 C 
HETATM    2  O4  UNL     1      54.096  -5.105 -55.714  1.00  0.00    -0.265 OA
ENDROOT
BRANCH   1   3
HETATM    3  O3  UNL     1      55.183  -3.241 -55.088  1.00  0.00    -0.308 OA
BRANCH   3   4
HETATM    4  C2  UNL     1      54.374  -2.951 -53.960  1.00  0.00     0.295 C 
BRANCH   4   5
HETATM    5  S1  UNL     1      55.439  -3.129 -52.541  1.00  0.00     0.102 S 
HETATM    6  O2  UNL     1      57.017  -3.374 -52.966  1.00  0.00    -0.248 OA
BRANCH   5   7
HETATM    7  C1  UNL     1      55.198  -1.879 -51.373  1.00  0.00     0.338 C 
HETATM    8  O1  UNL     1      56.075  -1.573 -50.603  1.00  0.00    -0.292 OA
ENDBRANCH   5   7
ENDBRANCH   4   5
ENDBRANCH   3   4
ENDBRANCH   1   3
BRANCH   1   9
HETATM    9  C4  UNL     1      56.278  -4.797 -56.643  1.00  0.00     0.085 C 
HETATM   10  C5  UNL     1      56.073  -4.452 -58.105  1.00  0.00     0.014 C 
HETATM   11  C6  UNL     1      57.463  -4.830 -58.630  1.00  0.00     0.001 C 
HETATM   12  C7  UNL     1      58.405  -4.388 -57.529  1.00  0.00     0.001 C 
HETATM   13  C8  UNL     1      57.535  -4.009 -56.348  1.00  0.00     0.014 C 
ENDBRANCH   1   9
TORSDOF 5
ENDMDL
MODEL 3
REMARK VINA RESULT: -6.458518083      1.660      2.314
REMARK  5 active torsions:
REMARK  status: ('A' for Active; 'I' for Inactive)
REMARK    1  A    between atoms: C1_2  and  S1_3 
REMARK    2  A    between atoms: S1_3  and  C2_5 
REMARK    3  A    between atoms: C2_5  and  O3_6 
REMARK    4  A    between atoms: O3_6  and  C3_7 
REMARK    5  A    between atoms: C3_7  and  C4_9 
ROOT
HETATM    1  C3  UNL     1      55.103  -4.305 -55.858  1.00  0.00     0.263 C 
HETATM    2  O4  UNL     1      54.196  -5.113 -55.525  1.00  0.00    -0.265 OA
ENDROOT
BRANCH   1   3
HETATM    3  O3  UNL     1      55.303  -3.213 -55.066  1.00  0.00    -0.308 OA
BRANCH   3   4
HETATM    4  C2  UNL     1      56.088  -3.201 -53.886  1.00  0.00     0.295 C 
BRANCH   4   5
HETATM    5  S1  UNL     1      54.932  -3.047 -52.536  1.00  0.00     0.102 S 
HETATM    6  O2  UNL     1      53.982  -4.387 -52.366  1.00  0.00    -0.248 OA
BRANCH   5   7
HETATM    7  C1  UNL     1      55.688  -2.514 -51.077  1.00  0.00     0.338 C 
HETATM    8  O1  UNL     1      56.005  -1.360 -50.929  1.00  0.00    -0.292 OA
ENDBRANCH   5   7
ENDBRANCH   4   5
ENDBRANCH   3   4
ENDBRANCH   1   3
BRANCH   1   9
HETATM    9  C4  UNL     1      55.931  -4.509 -57.057  1.00  0.00     0.085 C 
HETATM   10  C5  UNL     1      56.472  -3.210 -57.620  1.00  0.00     0.014 C 
HETATM   11  C6  UNL     1      57.385  -3.788 -58.706  1.00  0.00     0.001 C 
HETATM   12  C7  UNL     1      57.977  -5.028 -58.067  1.00  0.00     0.001 C 
HETATM   13  C8  UNL     1      57.221  -5.243 -56.771  1.00  0.00     0.014 C 
ENDBRANCH   1   9
TORSDOF 5
ENDMDL
MODEL 4
REMARK VINA RESULT: -6.451918908      0.664      1.219
REMARK  5 active torsions:
REMARK  status: ('A' for Active; 'I' for Inactive)
REMARK    1  A    between atoms: C1_2  and  S1_3 
REMARK    2  A    between atoms: S1_3  and  C2_5 
REMARK    3  A    between atoms: C2_5  and  O3_6 
REMARK    4  A    between atoms: O3_6  and  C3_7 
REMARK    5  A    between atoms: C3_7  and  C4_9 
ROOT
HETATM    1  C3  UNL     1      55.099  -4.139 -55.928  1.00  0.00     0.263 C 
HETATM    2  O4  UNL     1      54.322  -5.114 -56.106  1.00  0.00    -0.265 OA
ENDROOT
BRANCH   1   3
HETATM    3  O3  UNL     1      54.765  -3.226 -54.971  1.00  0.00    -0.308 OA
BRANCH   3   4
HETATM    4  C2  UNL     1      55.457  -3.044 -53.747  1.00  0.00     0.295 C 
BRANCH   4   5
HETATM    5  S1  UNL     1      54.534  -3.958 -52.526  1.00  0.00     0.102 S 
HETATM    6  O2  UNL     1      54.863  -3.461 -50.985  1.00  0.00    -0.248 OA
BRANCH   5   7
HETATM    7  C1  UNL     1      52.851  -4.051 -52.904  1.00  0.00     0.338 C 
HETATM    8  O1  UNL     1      52.358  -5.082 -53.290  1.00  0.00    -0.292 OA
ENDBRANCH   5   7
ENDBRANCH   4   5
ENDBRANCH   3   4
ENDBRANCH   1   3
BRANCH   1   9
HETATM    9  C4  UNL     1      56.332  -3.968 -56.712  1.00  0.00     0.085 C 
HETATM   10  C5  UNL     1      57.379  -5.016 -56.389  1.00  0.00     0.014 C 
HETATM   11  C6  UNL     1      58.412  -4.652 -57.461  1.00  0.00     0.001 C 
HETATM   12  C7  UNL     1      57.574  -4.285 -58.669  1.00  0.00     0.001 C 
HETATM   13  C8  UNL     1      56.138  -4.219 -58.190  1.00  0.00     0.014 C 
ENDBRANCH   1   9
TORSDOF 5
ENDMDL
MODEL 5
REMARK VINA RESULT: -6.414693580      1.187      2.379
REMARK  5 active torsions:
REMARK  status: ('A' for Active; 'I' for Inactive)
REMARK    1  A    between atoms: C1_2  and  S1_3 
REMARK    2  A    between atoms: S1_3  and  C2_5 
REMARK    3  A    between atoms: C2_5  and  O3_6 
REMARK    4  A    between atoms: O3_6  and  C3_7 
REMARK    5  A    between atoms: C3_7  and  C4_9 
ROOT
HETATM    1  C3  UNL     1      56.036  -3.403 -55.209  1.00  0.00     0.263 C 
HETATM    2  O4  UNL     1      56.711  -3.073 -54.199  1.00  0.00    -0.265 OA
ENDROOT
BRANCH   1   3
HETATM    3  O3  UNL     1      54.695  -3.589 -55.045  1.00  0.00    -0.308 OA
BRANCH   3   4
HETATM    4  C2  UNL     1      54.105  -4.698 -54.388  1.00  0.00     0.295 C 
BRANCH   4   5
HETATM    5  S1  UNL     1      53.170  -4.017 -53.030  1.00  0.00     0.102 S 
HETATM    6  O2  UNL     1      51.779  -4.859 -52.739  1.00  0.00    -0.248 OA
BRANCH   5   7
HETATM    7  C1  UNL     1      54.145  -3.738 -51.632  1.00  0.00     0.338 C 
HETATM    8  O1  UNL     1      54.741  -2.699 -51.489  1.00  0.00    -0.292 OA
ENDBRANCH   5   7
ENDBRANCH   4   5
ENDBRANCH   3   4
ENDBRANCH   1   3
BRANCH   1   9
HETATM    9  C4  UNL     1      56.649  -3.587 -56.534  1.00  0.00     0.085 C 
HETATM   10  C5  UNL     1      58.010  -4.253 -56.459  1.00  0.00     0.014 C 
HETATM   11  C6  UNL     1      58.263  -4.435 -57.960  1.00  0.00     0.001 C 
HETATM   12  C7  UNL     1      56.903  -4.795 -58.522  1.00  0.00     0.001 C 
HETATM   13  C8  UNL     1      55.906  -4.577 -57.402  1.00  0.00     0.014 C 
ENDBRANCH   1   9
TORSDOF 5
ENDMDL
