MODEL 1
REMARK VINA RESULT: -6.269865885      0.000      0.000
REMARK  5 active torsions:
REMARK  status: ('A' for Active; 'I' for Inactive)
REMARK    1  A    between atoms: C2_3  and  C3_4 
REMARK    2  A    between atoms: C3_4  and  N2_5 
REMARK    3  A    between atoms: N2_5  and  C4_6 
REMARK       I    between atoms: N2_5  and  C6_10 
REMARK    4  A    between atoms: C4_6  and  C5_7 
REMARK    5  A    between atoms: C6_10  and  C7_12 
ROOT
HETATM    1  N1  UNL     1      51.649  -5.138 -52.493  1.00  0.00    -0.197 NA
HETATM    2  C1  UNL     1      52.610  -5.069 -53.126  1.00  0.00     0.060 C 
HETATM    3  C2  UNL     1      53.848  -4.973 -53.929  1.00  0.00     0.143 C 
ENDROOT
BRANCH   3   4
HETATM    4  C3  UNL     1      54.252  -3.519 -53.924  1.00  0.00     0.140 C 
BRANCH   4   5
HETATM    5  N2  UNL     1      55.683  -3.351 -54.033  1.00  0.00    -0.343 N 
HETATM    6  C6  UNL     1      56.303  -3.284 -55.303  1.00  0.00     0.224 C 
HETATM    7  O2  UNL     1      55.581  -3.375 -56.326  1.00  0.00    -0.273 OA
BRANCH   5   8
HETATM    8  C4  UNL     1      56.423  -3.257 -52.789  1.00  0.00     0.225 C 
BRANCH   8   9
HETATM    9  C5  UNL     1      55.629  -2.684 -51.697  1.00  0.00     0.249 C 
HETATM   10  N3  UNL     1      55.591  -1.293 -51.519  1.00  0.00    -0.061 NA
HETATM   11  O1  UNL     1      54.992  -3.410 -50.928  1.00  0.00    -0.275 OA
ENDBRANCH   8   9
ENDBRANCH   5   8
BRANCH   6  12
HETATM   12  C7  UNL     1      57.769  -3.113 -55.479  1.00  0.00     0.078 A 
HETATM   13  C8  UNL     1      58.381  -3.357 -56.820  1.00  0.00     0.015 A 
HETATM   14  C9  UNL     1      58.551  -4.374 -55.776  1.00  0.00     0.015 A 
ENDBRANCH   6  12
ENDBRANCH   4   5
ENDBRANCH   3   4
TORSDOF 5
ENDMDL
MODEL 2
REMARK VINA RESULT: -5.896967261      2.024      5.403
REMARK  5 active torsions:
REMARK  status: ('A' for Active; 'I' for Inactive)
REMARK    1  A    between atoms: C2_3  and  C3_4 
REMARK    2  A    between atoms: C3_4  and  N2_5 
REMARK    3  A    between atoms: N2_5  and  C4_6 
REMARK       I    between atoms: N2_5  and  C6_10 
REMARK    4  A    between atoms: C4_6  and  C5_7 
REMARK    5  A    between atoms: C6_10  and  C7_12 
ROOT
HETATM    1  N1  UNL     1      59.423  -4.829 -56.311  1.00  0.00    -0.197 NA
HETATM    2  C1  UNL     1      58.691  -3.979 -56.047  1.00  0.00     0.060 C 
HETATM    3  C2  UNL     1      57.757  -2.887 -55.696  1.00  0.00     0.143 C 
ENDROOT
BRANCH   3   4
HETATM    4  C3  UNL     1      57.189  -3.226 -54.339  1.00  0.00     0.140 C 
BRANCH   4   5
HETATM    5  N2  UNL     1      55.745  -3.262 -54.347  1.00  0.00    -0.343 N 
HETATM    6  C6  UNL     1      55.024  -3.418 -53.139  1.00  0.00     0.224 C 
HETATM    7  O2  UNL     1      55.669  -3.524 -52.067  1.00  0.00    -0.273 OA
BRANCH   5   8
HETATM    8  C4  UNL     1      55.097  -3.131 -55.639  1.00  0.00     0.225 C 
BRANCH   8   9
HETATM    9  C5  UNL     1      54.958  -4.412 -56.337  1.00  0.00     0.249 C 
HETATM   10  N3  UNL     1      55.298  -4.505 -57.695  1.00  0.00    -0.061 NA
HETATM   11  O1  UNL     1      54.545  -5.415 -55.747  1.00  0.00    -0.275 OA
ENDBRANCH   8   9
ENDBRANCH   5   8
BRANCH   6  12
HETATM   12  C7  UNL     1      53.539  -3.462 -53.083  1.00  0.00     0.078 A 
HETATM   13  C8  UNL     1      52.864  -3.852 -51.808  1.00  0.00     0.015 A 
HETATM   14  C9  UNL     1      52.926  -4.833 -52.899  1.00  0.00     0.015 A 
ENDBRANCH   6  12
ENDBRANCH   4   5
ENDBRANCH   3   4
TORSDOF 5
ENDMDL
MODEL 3
REMARK VINA RESULT: -5.807345258      2.210      3.684
REMARK  5 active torsions:
REMARK  status: ('A' for Active; 'I' for Inactive)
REMARK    1  A    between atoms: C2_3  and  C3_4 
REMARK    2  A    between atoms: C3_4  and  N2_5 
REMARK    3  A    between atoms: N2_5  and  C4_6 
REMARK       I    between atoms: N2_5  and  C6_10 
REMARK    4  A    between atoms: C4_6  and  C5_7 
REMARK    5  A    between atoms: C6_10  and  C7_12 
ROOT
HETATM    1  N1  UNL     1      55.972  -1.451 -50.623  1.00  0.00    -0.197 NA
HETATM    2  C1  UNL     1      55.838  -2.223 -51.468  1.00  0.00     0.060 C 
HETATM    3  C2  UNL     1      55.679  -3.214 -52.554  1.00  0.00     0.143 C 
ENDROOT
BRANCH   3   4
HETATM    4  C3  UNL     1      56.705  -2.868 -53.606  1.00  0.00     0.140 C 
BRANCH   4   5
HETATM    5  N2  UNL     1      56.307  -3.313 -54.922  1.00  0.00    -0.343 N 
HETATM    6  C6  UNL     1      57.274  -3.769 -55.849  1.00  0.00     0.224 C 
HETATM    7  O2  UNL     1      58.481  -3.775 -55.499  1.00  0.00    -0.273 OA
BRANCH   5   8
HETATM    8  C4  UNL     1      54.889  -3.266 -55.224  1.00  0.00     0.225 C 
BRANCH   8   9
HETATM    9  C5  UNL     1      54.294  -4.598 -55.369  1.00  0.00     0.249 C 
HETATM   10  N3  UNL     1      53.825  -5.278 -54.235  1.00  0.00    -0.061 NA
HETATM   11  O1  UNL     1      54.199  -5.133 -56.477  1.00  0.00    -0.275 OA
ENDBRANCH   8   9
ENDBRANCH   5   8
BRANCH   6  12
HETATM   12  C7  UNL     1      56.927  -4.239 -57.216  1.00  0.00     0.078 A 
HETATM   13  C8  UNL     1      57.999  -4.342 -58.251  1.00  0.00     0.015 A 
HETATM   14  C9  UNL     1      57.062  -3.214 -58.321  1.00  0.00     0.015 A 
ENDBRANCH   6  12
ENDBRANCH   4   5
ENDBRANCH   3   4
TORSDOF 5
ENDMDL
MODEL 4
REMARK VINA RESULT: -5.801295505      1.772      3.550
REMARK  5 active torsions:
REMARK  status: ('A' for Active; 'I' for Inactive)
REMARK    1  A    between atoms: C2_3  and  C3_4 
REMARK    2  A    between atoms: C3_4  and  N2_5 
REMARK    3  A    between atoms: N2_5  and  C4_6 
REMARK       I    between atoms: N2_5  and  C6_10 
REMARK    4  A    between atoms: C4_6  and  C5_7 
REMARK    5  A    between atoms: C6_10  and  C7_12 
ROOT
HETATM    1  N1  UNL     1      56.716  -1.576 -49.940  1.00  0.00    -0.197 NA
HETATM    2  C1  UNL     1      56.083  -1.898 -50.848  1.00  0.00     0.060 C 
HETATM    3  C2  UNL     1      55.277  -2.323 -52.013  1.00  0.00     0.143 C 
ENDROOT
BRANCH   3   4
HETATM    4  C3  UNL     1      56.213  -3.064 -52.936  1.00  0.00     0.140 C 
BRANCH   4   5
HETATM    5  N2  UNL     1      55.664  -3.212 -54.265  1.00  0.00    -0.343 N 
HETATM    6  C6  UNL     1      56.518  -3.392 -55.379  1.00  0.00     0.224 C 
HETATM    7  O2  UNL     1      57.758  -3.418 -55.183  1.00  0.00    -0.273 OA
BRANCH   5   8
HETATM    8  C4  UNL     1      54.219  -3.167 -54.380  1.00  0.00     0.225 C 
BRANCH   8   9
HETATM    9  C5  UNL     1      53.584  -4.452 -54.070  1.00  0.00     0.249 C 
HETATM   10  N3  UNL     1      52.551  -4.508 -53.122  1.00  0.00    -0.061 NA
HETATM   11  O1  UNL     1      53.945  -5.490 -54.632  1.00  0.00    -0.275 OA
ENDBRANCH   8   9
ENDBRANCH   5   8
BRANCH   6  12
HETATM   12  C7  UNL     1      56.013  -3.549 -56.768  1.00  0.00     0.078 A 
HETATM   13  C8  UNL     1      56.448  -4.727 -57.578  1.00  0.00     0.015 A 
HETATM   14  C9  UNL     1      57.047  -3.417 -57.866  1.00  0.00     0.015 A 
ENDBRANCH   6  12
ENDBRANCH   4   5
ENDBRANCH   3   4
TORSDOF 5
ENDMDL
MODEL 5
REMARK VINA RESULT: -5.761739884      2.492      4.827
REMARK  5 active torsions:
REMARK  status: ('A' for Active; 'I' for Inactive)
REMARK    1  A    between atoms: C2_3  and  C3_4 
REMARK    2  A    between atoms: C3_4  and  N2_5 
REMARK    3  A    between atoms: N2_5  and  C4_6 
REMARK       I    between atoms: N2_5  and  C6_10 
REMARK    4  A    between atoms: C4_6  and  C5_7 
REMARK    5  A    between atoms: C6_10  and  C7_12 
ROOT
HETATM    1  N1  UNL     1      57.340  -4.969 -58.271  1.00  0.00    -0.197 NA
HETATM    2  C1  UNL     1      56.328  -4.677 -57.804  1.00  0.00     0.060 C 
HETATM    3  C2  UNL     1      55.034  -4.301 -57.193  1.00  0.00     0.143 C 
ENDROOT
BRANCH   3   4
HETATM    4  C3  UNL     1      54.936  -5.061 -55.892  1.00  0.00     0.140 C 
BRANCH   4   5
HETATM    5  N2  UNL     1      54.504  -4.219 -54.801  1.00  0.00    -0.343 N 
HETATM    6  C6  UNL     1      53.515  -4.669 -53.894  1.00  0.00     0.224 C 
HETATM    7  O2  UNL     1      53.026  -5.813 -54.063  1.00  0.00    -0.273 OA
BRANCH   5   8
HETATM    8  C4  UNL     1      55.133  -2.916 -54.696  1.00  0.00     0.225 C 
BRANCH   8   9
HETATM    9  C5  UNL     1      56.486  -2.982 -54.135  1.00  0.00     0.249 C 
HETATM   10  N3  UNL     1      57.596  -2.980 -54.992  1.00  0.00    -0.061 NA
HETATM   11  O1  UNL     1      56.665  -3.040 -52.914  1.00  0.00    -0.275 OA
ENDBRANCH   8   9
ENDBRANCH   5   8
BRANCH   6  12
HETATM   12  C7  UNL     1      53.030  -3.849 -52.753  1.00  0.00     0.078 A 
HETATM   13  C8  UNL     1      53.766  -3.891 -51.454  1.00  0.00     0.015 A 
HETATM   14  C9  UNL     1      52.496  -4.620 -51.565  1.00  0.00     0.015 A 
ENDBRANCH   6  12
ENDBRANCH   4   5
ENDBRANCH   3   4
TORSDOF 5
ENDMDL
