MODEL 1
REMARK VINA RESULT: -6.809687537      0.000      0.000
REMARK  6 active torsions:
REMARK  status: ('A' for Active; 'I' for Inactive)
REMARK    1  A    between atoms: C2_2  and  C3_3 
REMARK    2  A    between atoms: C3_3  and  N1_4 
REMARK    3  A    between atoms: N1_4  and  C4_5 
REMARK       I    between atoms: N1_4  and  C10_12 
REMARK    4  A    between atoms: C4_5  and  C5_6 
REMARK    5  A    between atoms: C10_12  and  C11_14 
REMARK    6  A    between atoms: C11_14  and  N2_15 
ROOT
HETATM    1  N1  UNL     1      54.850  -3.361 -54.147  1.00  0.00    -0.347 N 
HETATM    2  C10 UNL     1      55.672  -3.082 -53.045  1.00  0.00     0.245 C 
HETATM    3  O2  UNL     1      56.836  -2.617 -53.276  1.00  0.00    -0.272 OA
ENDROOT
BRANCH   1   4
HETATM    4  C3  UNL     1      53.483  -3.807 -53.896  1.00  0.00     0.152 C 
BRANCH   4   5
HETATM    5  C2  UNL     1      53.361  -5.255 -53.665  1.00  0.00    -0.017 C 
HETATM    6  C1  UNL     1      52.268  -5.871 -53.243  1.00  0.00     0.008 C 
ENDBRANCH   4   5
ENDBRANCH   1   4
BRANCH   1   7
HETATM    7  C4  UNL     1      55.320  -3.276 -55.488  1.00  0.00     0.133 C 
BRANCH   7   8
HETATM    8  C5  UNL     1      55.487  -4.517 -56.259  1.00  0.00     0.040 A 
HETATM    9  C6  UNL     1      56.644  -5.181 -56.805  1.00  0.00     0.025 A 
HETATM   10  C7  UNL     1      57.921  -4.648 -57.313  1.00  0.00     0.034 C 
HETATM   11  C9  UNL     1      55.635  -4.442 -57.743  1.00  0.00     0.132 A 
HETATM   12  C8  UNL     1      57.543  -3.856 -58.542  1.00  0.00     0.168 C 
HETATM   13  O1  UNL     1      56.321  -3.314 -58.179  1.00  0.00    -0.385 OA
ENDBRANCH   7   8
ENDBRANCH   1   7
BRANCH   2  14
HETATM   14  C11 UNL     1      55.268  -3.297 -51.614  1.00  0.00     0.332 C 
BRANCH  14  15
HETATM   15  N2  UNL     1      56.225  -2.580 -50.778  1.00  0.00    -0.071 N 
ATOM     16  H23 UNL     1      56.900  -2.040 -51.320  1.00  0.00     0.274 HD
ATOM     17  H22 UNL     1      55.805  -1.800 -50.272  1.00  0.00     0.274 HD
ATOM     18  H21 UNL     1      56.664  -3.264 -50.163  1.00  0.00     0.274 HD
ENDBRANCH  14  15
ENDBRANCH   2  14
TORSDOF 6
ENDMDL
MODEL 2
REMARK VINA RESULT: -6.793930740      2.089      3.008
REMARK  6 active torsions:
REMARK  status: ('A' for Active; 'I' for Inactive)
REMARK    1  A    between atoms: C2_2  and  C3_3 
REMARK    2  A    between atoms: C3_3  and  N1_4 
REMARK    3  A    between atoms: N1_4  and  C4_5 
REMARK       I    between atoms: N1_4  and  C10_12 
REMARK    4  A    between atoms: C4_5  and  C5_6 
REMARK    5  A    between atoms: C10_12  and  C11_14 
REMARK    6  A    between atoms: C11_14  and  N2_15 
ROOT
HETATM    1  N1  UNL     1      54.367  -4.095 -54.229  1.00  0.00    -0.347 N 
HETATM    2  C10 UNL     1      53.296  -4.710 -53.562  1.00  0.00     0.245 C 
HETATM    3  O2  UNL     1      52.883  -5.829 -54.011  1.00  0.00    -0.272 OA
ENDROOT
BRANCH   1   4
HETATM    4  C3  UNL     1      54.911  -2.859 -53.674  1.00  0.00     0.152 C 
BRANCH   4   5
HETATM    5  C2  UNL     1      55.967  -3.069 -52.672  1.00  0.00    -0.017 C 
HETATM    6  C1  UNL     1      55.860  -2.792 -51.382  1.00  0.00     0.008 C 
ENDBRANCH   4   5
ENDBRANCH   1   4
BRANCH   1   7
HETATM    7  C4  UNL     1      54.898  -4.605 -55.448  1.00  0.00     0.133 C 
BRANCH   7   8
HETATM    8  C5  UNL     1      55.411  -3.656 -56.447  1.00  0.00     0.040 A 
HETATM    9  C6  UNL     1      55.980  -3.831 -57.760  1.00  0.00     0.025 A 
HETATM   10  C7  UNL     1      56.779  -4.929 -58.335  1.00  0.00     0.034 C 
HETATM   11  C9  UNL     1      56.882  -3.426 -56.550  1.00  0.00     0.132 A 
HETATM   12  C8  UNL     1      58.071  -4.909 -57.555  1.00  0.00     0.168 C 
HETATM   13  O1  UNL     1      57.644  -4.559 -56.284  1.00  0.00    -0.385 OA
ENDBRANCH   7   8
ENDBRANCH   1   7
BRANCH   2  14
HETATM   14  C11 UNL     1      52.608  -4.133 -52.359  1.00  0.00     0.332 C 
BRANCH  14  15
HETATM   15  N2  UNL     1      51.656  -5.129 -51.881  1.00  0.00    -0.071 N 
ATOM     16  H23 UNL     1      51.044  -4.775 -51.146  1.00  0.00     0.274 HD
ATOM     17  H22 UNL     1      50.931  -5.348 -52.564  1.00  0.00     0.274 HD
ATOM     18  H21 UNL     1      52.192  -5.949 -51.593  1.00  0.00     0.274 HD
ENDBRANCH  14  15
ENDBRANCH   2  14
TORSDOF 6
ENDMDL
MODEL 3
REMARK VINA RESULT: -6.470319792      0.966      1.109
REMARK  6 active torsions:
REMARK  status: ('A' for Active; 'I' for Inactive)
REMARK    1  A    between atoms: C2_2  and  C3_3 
REMARK    2  A    between atoms: C3_3  and  N1_4 
REMARK    3  A    between atoms: N1_4  and  C4_5 
REMARK       I    between atoms: N1_4  and  C10_12 
REMARK    4  A    between atoms: C4_5  and  C5_6 
REMARK    5  A    between atoms: C10_12  and  C11_14 
REMARK    6  A    between atoms: C11_14  and  N2_15 
ROOT
HETATM    1  N1  UNL     1      54.913  -3.801 -54.338  1.00  0.00    -0.347 N 
HETATM    2  C10 UNL     1      55.784  -3.101 -53.489  1.00  0.00     0.245 C 
HETATM    3  O2  UNL     1      57.018  -3.066 -53.806  1.00  0.00    -0.272 OA
ENDROOT
BRANCH   1   4
HETATM    4  C3  UNL     1      53.484  -3.775 -54.039  1.00  0.00     0.152 C 
BRANCH   4   5
HETATM    5  C2  UNL     1      53.025  -4.909 -53.222  1.00  0.00    -0.017 C 
HETATM    6  C1  UNL     1      52.378  -4.808 -52.071  1.00  0.00     0.008 C 
ENDBRANCH   4   5
ENDBRANCH   1   4
BRANCH   1   7
HETATM    7  C4  UNL     1      55.380  -4.575 -55.438  1.00  0.00     0.133 C 
BRANCH   7   8
HETATM    8  C5  UNL     1      55.190  -4.056 -56.800  1.00  0.00     0.040 A 
HETATM    9  C6  UNL     1      55.712  -4.458 -58.082  1.00  0.00     0.025 A 
HETATM   10  C7  UNL     1      56.994  -5.082 -58.457  1.00  0.00     0.034 C 
HETATM   11  C9  UNL     1      56.223  -3.153 -57.389  1.00  0.00     0.132 A 
HETATM   12  C8  UNL     1      58.036  -4.038 -58.132  1.00  0.00     0.168 C 
HETATM   13  O1  UNL     1      57.520  -3.452 -56.987  1.00  0.00    -0.385 OA
ENDBRANCH   7   8
ENDBRANCH   1   7
BRANCH   2  14
HETATM   14  C11 UNL     1      55.355  -2.395 -52.236  1.00  0.00     0.332 C 
BRANCH  14  15
HETATM   15  N2  UNL     1      56.322  -2.726 -51.196  1.00  0.00    -0.071 N 
ATOM     16  H23 UNL     1      56.228  -3.683 -50.855  1.00  0.00     0.274 HD
ATOM     17  H22 UNL     1      57.276  -2.803 -51.548  1.00  0.00     0.274 HD
ATOM     18  H21 UNL     1      56.226  -2.029 -50.457  1.00  0.00     0.274 HD
ENDBRANCH  14  15
ENDBRANCH   2  14
TORSDOF 6
ENDMDL
MODEL 4
REMARK VINA RESULT: -6.451829466      1.989      2.844
REMARK  6 active torsions:
REMARK  status: ('A' for Active; 'I' for Inactive)
REMARK    1  A    between atoms: C2_2  and  C3_3 
REMARK    2  A    between atoms: C3_3  and  N1_4 
REMARK    3  A    between atoms: N1_4  and  C4_5 
REMARK       I    between atoms: N1_4  and  C10_12 
REMARK    4  A    between atoms: C4_5  and  C5_6 
REMARK    5  A    between atoms: C10_12  and  C11_14 
REMARK    6  A    between atoms: C11_14  and  N2_15 
ROOT
HETATM    1  N1  UNL     1      54.281  -4.040 -54.341  1.00  0.00    -0.347 N 
HETATM    2  C10 UNL     1      53.345  -4.718 -53.545  1.00  0.00     0.245 C 
HETATM    3  O2  UNL     1      52.854  -5.802 -54.000  1.00  0.00    -0.272 OA
ENDROOT
BRANCH   1   4
HETATM    4  C3  UNL     1      54.920  -2.846 -53.796  1.00  0.00     0.152 C 
BRANCH   4   5
HETATM    5  C2  UNL     1      55.995  -3.132 -52.833  1.00  0.00    -0.017 C 
HETATM    6  C1  UNL     1      56.002  -2.753 -51.564  1.00  0.00     0.008 C 
ENDBRANCH   4   5
ENDBRANCH   1   4
BRANCH   1   7
HETATM    7  C4  UNL     1      54.583  -4.445 -55.673  1.00  0.00     0.133 C 
BRANCH   7   8
HETATM    8  C5  UNL     1      55.935  -4.936 -55.974  1.00  0.00     0.040 A 
HETATM    9  C6  UNL     1      57.183  -4.264 -56.235  1.00  0.00     0.025 A 
HETATM   10  C7  UNL     1      57.474  -2.961 -56.861  1.00  0.00     0.034 C 
HETATM   11  C9  UNL     1      56.403  -4.967 -57.392  1.00  0.00     0.132 A 
HETATM   12  C8  UNL     1      57.025  -3.118 -58.294  1.00  0.00     0.168 C 
HETATM   13  O1  UNL     1      55.906  -3.925 -58.166  1.00  0.00    -0.385 OA
ENDBRANCH   7   8
ENDBRANCH   1   7
BRANCH   2  14
HETATM   14  C11 UNL     1      52.887  -4.245 -52.195  1.00  0.00     0.332 C 
BRANCH  14  15
HETATM   15  N2  UNL     1      51.683  -4.997 -51.856  1.00  0.00    -0.071 N 
ATOM     16  H23 UNL     1      50.938  -4.886 -52.543  1.00  0.00     0.274 HD
ATOM     17  H22 UNL     1      51.803  -6.005 -51.951  1.00  0.00     0.274 HD
ATOM     18  H21 UNL     1      51.404  -4.715 -50.916  1.00  0.00     0.274 HD
ENDBRANCH  14  15
ENDBRANCH   2  14
TORSDOF 6
ENDMDL
MODEL 5
REMARK VINA RESULT: -6.203709788      2.169      5.093
REMARK  6 active torsions:
REMARK  status: ('A' for Active; 'I' for Inactive)
REMARK    1  A    between atoms: C2_2  and  C3_3 
REMARK    2  A    between atoms: C3_3  and  N1_4 
REMARK    3  A    between atoms: N1_4  and  C4_5 
REMARK       I    between atoms: N1_4  and  C10_12 
REMARK    4  A    between atoms: C4_5  and  C5_6 
REMARK    5  A    between atoms: C10_12  and  C11_14 
REMARK    6  A    between atoms: C11_14  and  N2_15 
ROOT
HETATM    1  N1  UNL     1      55.990  -3.979 -55.734  1.00  0.00    -0.347 N 
HETATM    2  C10 UNL     1      57.173  -3.464 -55.182  1.00  0.00     0.245 C 
HETATM    3  O2  UNL     1      57.092  -2.865 -54.061  1.00  0.00    -0.272 OA
ENDROOT
BRANCH   1   4
HETATM    4  C3  UNL     1      56.078  -4.746 -56.973  1.00  0.00     0.152 C 
BRANCH   4   5
HETATM    5  C2  UNL     1      55.810  -3.956 -58.184  1.00  0.00    -0.017 C 
HETATM    6  C1  UNL     1      56.539  -2.934 -58.605  1.00  0.00     0.008 C 
ENDBRANCH   4   5
ENDBRANCH   1   4
BRANCH   1   7
HETATM    7  C4  UNL     1      54.711  -3.732 -55.158  1.00  0.00     0.133 C 
BRANCH   7   8
HETATM    8  C5  UNL     1      53.984  -4.851 -54.540  1.00  0.00     0.040 A 
HETATM    9  C6  UNL     1      52.831  -4.911 -53.678  1.00  0.00     0.025 A 
HETATM   10  C7  UNL     1      52.330  -3.972 -52.659  1.00  0.00     0.034 C 
HETATM   11  C9  UNL     1      54.260  -5.205 -53.116  1.00  0.00     0.132 A 
HETATM   12  C8  UNL     1      53.388  -3.977 -51.581  1.00  0.00     0.168 C 
HETATM   13  O1  UNL     1      54.556  -4.107 -52.316  1.00  0.00    -0.385 OA
ENDBRANCH   7   8
ENDBRANCH   1   7
BRANCH   2  14
HETATM   14  C11 UNL     1      58.523  -3.573 -55.831  1.00  0.00     0.332 C 
BRANCH  14  15
HETATM   15  N2  UNL     1      59.014  -4.925 -55.592  1.00  0.00    -0.071 N 
ATOM     16  H23 UNL     1      58.452  -5.640 -56.054  1.00  0.00     0.274 HD
ATOM     17  H22 UNL     1      59.894  -5.120 -56.068  1.00  0.00     0.274 HD
ATOM     18  H21 UNL     1      59.070  -5.055 -54.582  1.00  0.00     0.274 HD
ENDBRANCH  14  15
ENDBRANCH   2  14
TORSDOF 6
ENDMDL
