MODEL 1
REMARK VINA RESULT: -6.745620268      0.000      0.000
REMARK  5 active torsions:
REMARK  status: ('A' for Active; 'I' for Inactive)
REMARK    1  A    between atoms: C3_3  and  N1_4 
REMARK       I    between atoms: N1_4  and  C5_7 
REMARK    2  A    between atoms: C5_7  and  C6_9 
REMARK    3  A    between atoms: C6_9  and  N3_10 
REMARK    4  A    between atoms: N3_10  and  C7_13 
REMARK    5  A    between atoms: C7_13  and  C8_14 
ROOT
HETATM    1  C1  UNL     1      55.157  -0.698 -51.028  1.00  0.00     0.014 C 
HETATM    2  C2  UNL     1      55.350  -1.826 -51.398  1.00  0.00    -0.096 C 
HETATM    3  C3  UNL     1      55.592  -3.205 -51.846  1.00  0.00     0.236 C 
ENDROOT
BRANCH   3   4
HETATM    4  N1  UNL     1      54.861  -3.453 -53.062  1.00  0.00    -0.242 N 
HETATM    5  C4  UNL     1      53.535  -3.878 -52.989  1.00  0.00     0.187 C 
HETATM    6  N2  UNL     1      52.412  -4.219 -52.936  1.00  0.00    -0.172 NA
HETATM    7  C5  UNL     1      55.457  -3.275 -54.333  1.00  0.00     0.259 C 
HETATM    8  O1  UNL     1      54.821  -3.492 -55.394  1.00  0.00    -0.270 OA
BRANCH   7   9
HETATM    9  C6  UNL     1      56.858  -2.826 -54.413  1.00  0.00     0.335 C 
BRANCH   9  10
HETATM   10  N3  UNL     1      57.692  -3.867 -54.946  1.00  0.00    -0.067 N 
ATOM     11  H32 UNL     1      58.366  -4.183 -54.248  1.00  0.00     0.277 HD
ATOM     12  H31 UNL     1      57.160  -4.729 -55.069  1.00  0.00     0.277 HD
BRANCH  10  13
HETATM   13  C7  UNL     1      58.354  -3.499 -56.164  1.00  0.00     0.237 C 
BRANCH  13  14
HETATM   14  C8  UNL     1      58.234  -4.634 -57.139  1.00  0.00     0.011 A 
HETATM   15  C9  UNL     1      56.952  -4.978 -57.789  1.00  0.00     0.007 A 
HETATM   16  C10 UNL     1      57.957  -4.237 -58.564  1.00  0.00     0.007 A 
ENDBRANCH  13  14
ENDBRANCH  10  13
ENDBRANCH   9  10
ENDBRANCH   7   9
ENDBRANCH   3   4
TORSDOF 5
ENDMDL
MODEL 2
REMARK VINA RESULT: -6.592181838      1.290      1.571
REMARK  5 active torsions:
REMARK  status: ('A' for Active; 'I' for Inactive)
REMARK    1  A    between atoms: C3_3  and  N1_4 
REMARK       I    between atoms: N1_4  and  C5_7 
REMARK    2  A    between atoms: C5_7  and  C6_9 
REMARK    3  A    between atoms: C6_9  and  N3_10 
REMARK    4  A    between atoms: N3_10  and  C7_13 
REMARK    5  A    between atoms: C7_13  and  C8_14 
ROOT
HETATM    1  C1  UNL     1      55.159  -0.855 -51.037  1.00  0.00     0.014 C 
HETATM    2  C2  UNL     1      55.438  -1.888 -51.587  1.00  0.00    -0.096 C 
HETATM    3  C3  UNL     1      55.785  -3.149 -52.258  1.00  0.00     0.236 C 
ENDROOT
BRANCH   3   4
HETATM    4  N1  UNL     1      54.585  -3.794 -52.726  1.00  0.00    -0.242 N 
HETATM    5  C4  UNL     1      53.607  -4.172 -51.807  1.00  0.00     0.187 C 
HETATM    6  N2  UNL     1      52.771  -4.477 -51.041  1.00  0.00    -0.172 NA
HETATM    7  C5  UNL     1      54.375  -4.053 -54.101  1.00  0.00     0.259 C 
HETATM    8  O1  UNL     1      53.329  -4.616 -54.511  1.00  0.00    -0.270 OA
BRANCH   7   9
HETATM    9  C6  UNL     1      55.406  -3.655 -55.075  1.00  0.00     0.335 C 
BRANCH   9  10
HETATM   10  N3  UNL     1      55.761  -4.765 -55.915  1.00  0.00    -0.067 N 
ATOM     11  H32 UNL     1      56.664  -5.152 -55.641  1.00  0.00     0.277 HD
ATOM     12  H31 UNL     1      55.166  -5.570 -55.722  1.00  0.00     0.277 HD
BRANCH  10  13
HETATM   13  C7  UNL     1      55.747  -4.446 -57.314  1.00  0.00     0.237 C 
BRANCH  13  14
HETATM   14  C8  UNL     1      57.080  -3.866 -57.688  1.00  0.00     0.011 A 
HETATM   15  C9  UNL     1      58.353  -4.497 -57.280  1.00  0.00     0.007 A 
HETATM   16  C10 UNL     1      57.889  -4.680 -58.662  1.00  0.00     0.007 A 
ENDBRANCH  13  14
ENDBRANCH  10  13
ENDBRANCH   9  10
ENDBRANCH   7   9
ENDBRANCH   3   4
TORSDOF 5
ENDMDL
MODEL 3
REMARK VINA RESULT: -6.447897187      1.389      1.512
REMARK  5 active torsions:
REMARK  status: ('A' for Active; 'I' for Inactive)
REMARK    1  A    between atoms: C3_3  and  N1_4 
REMARK       I    between atoms: N1_4  and  C5_7 
REMARK    2  A    between atoms: C5_7  and  C6_9 
REMARK    3  A    between atoms: C6_9  and  N3_10 
REMARK    4  A    between atoms: N3_10  and  C7_13 
REMARK    5  A    between atoms: C7_13  and  C8_14 
ROOT
HETATM    1  C1  UNL     1      55.389  -3.204 -50.991  1.00  0.00     0.014 C 
HETATM    2  C2  UNL     1      54.772  -3.025 -52.008  1.00  0.00    -0.096 C 
HETATM    3  C3  UNL     1      54.015  -2.799 -53.247  1.00  0.00     0.236 C 
ENDROOT
BRANCH   3   4
HETATM    4  N1  UNL     1      53.939  -4.026 -53.997  1.00  0.00    -0.242 N 
HETATM    5  C4  UNL     1      53.039  -5.015 -53.603  1.00  0.00     0.187 C 
HETATM    6  N2  UNL     1      52.270  -5.845 -53.288  1.00  0.00    -0.172 NA
HETATM    7  C5  UNL     1      54.758  -4.252 -55.128  1.00  0.00     0.259 C 
HETATM    8  O1  UNL     1      54.693  -5.322 -55.783  1.00  0.00    -0.270 OA
BRANCH   7   9
HETATM    9  C6  UNL     1      55.711  -3.209 -55.548  1.00  0.00     0.335 C 
BRANCH   9  10
HETATM   10  N3  UNL     1      57.041  -3.539 -55.117  1.00  0.00    -0.067 N 
ATOM     11  H32 UNL     1      57.201  -3.219 -54.161  1.00  0.00     0.277 HD
ATOM     12  H31 UNL     1      57.138  -4.544 -54.977  1.00  0.00     0.277 HD
BRANCH  10  13
HETATM   13  C7  UNL     1      58.062  -3.046 -55.996  1.00  0.00     0.237 C 
BRANCH  13  14
HETATM   14  C8  UNL     1      58.710  -4.213 -56.683  1.00  0.00     0.011 A 
HETATM   15  C9  UNL     1      57.971  -5.459 -56.976  1.00  0.00     0.007 A 
HETATM   16  C10 UNL     1      58.208  -4.508 -58.070  1.00  0.00     0.007 A 
ENDBRANCH  13  14
ENDBRANCH  10  13
ENDBRANCH   9  10
ENDBRANCH   7   9
ENDBRANCH   3   4
TORSDOF 5
ENDMDL
MODEL 4
REMARK VINA RESULT: -6.426987975      1.513      2.653
REMARK  5 active torsions:
REMARK  status: ('A' for Active; 'I' for Inactive)
REMARK    1  A    between atoms: C3_3  and  N1_4 
REMARK       I    between atoms: N1_4  and  C5_7 
REMARK    2  A    between atoms: C5_7  and  C6_9 
REMARK    3  A    between atoms: C6_9  and  N3_10 
REMARK    4  A    between atoms: N3_10  and  C7_13 
REMARK    5  A    between atoms: C7_13  and  C8_14 
ROOT
HETATM    1  C1  UNL     1      52.756  -4.743 -51.070  1.00  0.00     0.014 C 
HETATM    2  C2  UNL     1      53.077  -4.130 -52.054  1.00  0.00    -0.096 C 
HETATM    3  C3  UNL     1      53.464  -3.383 -53.259  1.00  0.00     0.236 C 
ENDROOT
BRANCH   3   4
HETATM    4  N1  UNL     1      54.883  -3.141 -53.243  1.00  0.00    -0.242 N 
HETATM    5  C4  UNL     1      55.497  -2.743 -52.056  1.00  0.00     0.187 C 
HETATM    6  N2  UNL     1      56.025  -2.424 -51.057  1.00  0.00    -0.172 NA
HETATM    7  C5  UNL     1      55.672  -3.299 -54.407  1.00  0.00     0.259 C 
HETATM    8  O1  UNL     1      56.911  -3.088 -54.395  1.00  0.00    -0.270 OA
BRANCH   7   9
HETATM    9  C6  UNL     1      55.026  -3.720 -55.663  1.00  0.00     0.335 C 
BRANCH   9  10
HETATM   10  N3  UNL     1      55.740  -4.818 -56.253  1.00  0.00    -0.067 N 
ATOM     11  H32 UNL     1      56.644  -4.948 -55.798  1.00  0.00     0.277 HD
ATOM     12  H31 UNL     1      55.301  -5.707 -56.013  1.00  0.00     0.277 HD
BRANCH  10  13
HETATM   13  C7  UNL     1      55.898  -4.696 -57.673  1.00  0.00     0.237 C 
BRANCH  13  14
HETATM   14  C8  UNL     1      57.157  -3.929 -57.954  1.00  0.00     0.011 A 
HETATM   15  C9  UNL     1      58.452  -4.296 -57.342  1.00  0.00     0.007 A 
HETATM   16  C10 UNL     1      58.204  -4.669 -58.741  1.00  0.00     0.007 A 
ENDBRANCH  13  14
ENDBRANCH  10  13
ENDBRANCH   9  10
ENDBRANCH   7   9
ENDBRANCH   3   4
TORSDOF 5
ENDMDL
MODEL 5
REMARK VINA RESULT: -6.164310545      1.695      2.661
REMARK  5 active torsions:
REMARK  status: ('A' for Active; 'I' for Inactive)
REMARK    1  A    between atoms: C3_3  and  N1_4 
REMARK       I    between atoms: N1_4  and  C5_7 
REMARK    2  A    between atoms: C5_7  and  C6_9 
REMARK    3  A    between atoms: C6_9  and  N3_10 
REMARK    4  A    between atoms: N3_10  and  C7_13 
REMARK    5  A    between atoms: C7_13  and  C8_14 
ROOT
HETATM    1  C1  UNL     1      52.140  -6.152 -53.200  1.00  0.00     0.014 C 
HETATM    2  C2  UNL     1      52.948  -5.404 -53.685  1.00  0.00    -0.096 C 
HETATM    3  C3  UNL     1      53.934  -4.494 -54.283  1.00  0.00     0.236 C 
ENDROOT
BRANCH   3   4
HETATM    4  N1  UNL     1      54.685  -3.842 -53.241  1.00  0.00    -0.242 N 
HETATM    5  C4  UNL     1      54.211  -3.877 -51.930  1.00  0.00     0.187 C 
HETATM    6  N2  UNL     1      53.827  -3.918 -50.821  1.00  0.00    -0.172 NA
HETATM    7  C5  UNL     1      55.897  -3.165 -53.516  1.00  0.00     0.259 C 
HETATM    8  O1  UNL     1      56.553  -2.596 -52.608  1.00  0.00    -0.270 OA
BRANCH   7   9
HETATM    9  C6  UNL     1      56.401  -3.127 -54.900  1.00  0.00     0.335 C 
BRANCH   9  10
HETATM   10  N3  UNL     1      57.733  -3.660 -54.966  1.00  0.00    -0.067 N 
ATOM     11  H32 UNL     1      58.290  -3.342 -54.173  1.00  0.00     0.277 HD
ATOM     12  H31 UNL     1      57.732  -4.663 -54.780  1.00  0.00     0.277 HD
BRANCH  10  13
HETATM   13  C7  UNL     1      58.400  -3.374 -56.204  1.00  0.00     0.237 C 
BRANCH  13  14
HETATM   14  C8  UNL     1      58.318  -4.585 -57.086  1.00  0.00     0.011 A 
HETATM   15  C9  UNL     1      57.048  -5.022 -57.703  1.00  0.00     0.007 A 
HETATM   16  C10 UNL     1      58.028  -4.311 -58.537  1.00  0.00     0.007 A 
ENDBRANCH  13  14
ENDBRANCH  10  13
ENDBRANCH   9  10
ENDBRANCH   7   9
ENDBRANCH   3   4
TORSDOF 5
ENDMDL
