MODEL 1
REMARK VINA RESULT: -5.921911127      0.000      0.000
REMARK  7 active torsions:
REMARK  status: ('A' for Active; 'I' for Inactive)
REMARK    1  A    between atoms: C1_2  and  C2_4 
REMARK    2  A    between atoms: C2_4  and  N1_5 
REMARK    3  A    between atoms: N1_5  and  C3_6 
REMARK    4  A    between atoms: C3_6  and  C4_7 
REMARK    5  A    between atoms: C4_7  and  C5_8 
REMARK    6  A    between atoms: N2_9  and  C6_11 
REMARK    7  A    between atoms: C6_11  and  O3_12 
ROOT
HETATM    1  N1  UNL     1      56.413  -3.596 -56.341  1.00  0.00    -0.057 N 
HETATM    2  C7  UNL     1      56.187  -3.296 -57.722  1.00  0.00     0.239 C 
HETATM    3  C8  UNL     1      55.321  -4.537 -57.858  1.00  0.00     0.056 C 
HETATM    4  C9  UNL     1      56.174  -5.009 -56.687  1.00  0.00     0.239 C 
ENDROOT
BRANCH   1   5
HETATM    5  C2  UNL     1      57.762  -3.453 -55.871  1.00  0.00     0.349 C 
BRANCH   5   6
HETATM    6  C1  UNL     1      58.685  -4.453 -56.464  1.00  0.00     0.199 C 
HETATM    7  O1  UNL     1      59.342  -5.239 -55.736  1.00  0.00    -0.647 OA
HETATM    8  O2  UNL     1      58.875  -4.577 -57.830  1.00  0.00    -0.647 OA
ENDBRANCH   5   6
ENDBRANCH   1   5
BRANCH   1   9
HETATM    9  C3  UNL     1      55.392  -3.177 -55.434  1.00  0.00     0.243 C 
BRANCH   9  10
HETATM   10  C4  UNL     1      55.779  -3.303 -53.980  1.00  0.00     0.072 C 
BRANCH  10  11
HETATM   11  C5  UNL     1      54.581  -3.799 -53.218  1.00  0.00     0.059 C 
HETATM   12  N2  UNL     1      53.817  -4.670 -53.728  1.00  0.00    -0.382 N 
ATOM     13  H2  UNL     1      54.027  -5.026 -54.661  1.00  0.00     0.160 HD
BRANCH  12  14
HETATM   14  C6  UNL     1      52.670  -5.167 -53.037  1.00  0.00     0.286 C 
BRANCH  14  15
HETATM   15  O3  UNL     1      52.141  -6.248 -53.741  1.00  0.00    -0.382 OA
ATOM     16  H3  UNL     1      52.757  -6.970 -53.715  1.00  0.00     0.211 HD
ENDBRANCH  14  15
ENDBRANCH  12  14
ENDBRANCH  10  11
ENDBRANCH   9  10
ENDBRANCH   1   9
TORSDOF 7
ENDMDL
MODEL 2
REMARK VINA RESULT: -5.848654464      1.705      5.802
REMARK  7 active torsions:
REMARK  status: ('A' for Active; 'I' for Inactive)
REMARK    1  A    between atoms: C1_2  and  C2_4 
REMARK    2  A    between atoms: C2_4  and  N1_5 
REMARK    3  A    between atoms: N1_5  and  C3_6 
REMARK    4  A    between atoms: C3_6  and  C4_7 
REMARK    5  A    between atoms: C4_7  and  C5_8 
REMARK    6  A    between atoms: N2_9  and  C6_11 
REMARK    7  A    between atoms: C6_11  and  O3_12 
ROOT
HETATM    1  N1  UNL     1      54.676  -3.442 -52.996  1.00  0.00    -0.057 N 
HETATM    2  C7  UNL     1      54.342  -2.449 -52.021  1.00  0.00     0.239 C 
HETATM    3  C8  UNL     1      55.802  -2.039 -51.925  1.00  0.00     0.056 C 
HETATM    4  C9  UNL     1      56.021  -3.473 -52.392  1.00  0.00     0.239 C 
ENDROOT
BRANCH   1   5
HETATM    5  C2  UNL     1      54.062  -4.729 -52.832  1.00  0.00     0.349 C 
BRANCH   5   6
HETATM    6  C1  UNL     1      52.719  -4.647 -52.206  1.00  0.00     0.199 C 
HETATM    7  O1  UNL     1      51.701  -4.373 -52.891  1.00  0.00    -0.647 OA
HETATM    8  O2  UNL     1      52.510  -4.865 -50.854  1.00  0.00    -0.647 OA
ENDBRANCH   5   6
ENDBRANCH   1   5
BRANCH   1   9
HETATM    9  C3  UNL     1      54.800  -2.980 -54.342  1.00  0.00     0.243 C 
BRANCH   9  10
HETATM   10  C4  UNL     1      54.705  -4.077 -55.374  1.00  0.00     0.072 C 
BRANCH  10  11
HETATM   11  C5  UNL     1      56.005  -4.123 -56.130  1.00  0.00     0.059 C 
HETATM   12  N2  UNL     1      56.634  -5.216 -56.247  1.00  0.00    -0.382 N 
ATOM     13  H2  UNL     1      56.247  -6.058 -55.822  1.00  0.00     0.160 HD
BRANCH  12  14
HETATM   14  C6  UNL     1      57.871  -5.303 -56.957  1.00  0.00     0.286 C 
BRANCH  14  15
HETATM   15  O3  UNL     1      58.777  -6.056 -56.213  1.00  0.00    -0.382 OA
ATOM     16  H3  UNL     1      59.525  -6.274 -56.757  1.00  0.00     0.211 HD
ENDBRANCH  14  15
ENDBRANCH  12  14
ENDBRANCH  10  11
ENDBRANCH   9  10
ENDBRANCH   1   9
TORSDOF 7
ENDMDL
MODEL 3
REMARK VINA RESULT: -5.823050735      1.938      2.103
REMARK  7 active torsions:
REMARK  status: ('A' for Active; 'I' for Inactive)
REMARK    1  A    between atoms: C1_2  and  C2_4 
REMARK    2  A    between atoms: C2_4  and  N1_5 
REMARK    3  A    between atoms: N1_5  and  C3_6 
REMARK    4  A    between atoms: C3_6  and  C4_7 
REMARK    5  A    between atoms: C4_7  and  C5_8 
REMARK    6  A    between atoms: N2_9  and  C6_11 
REMARK    7  A    between atoms: C6_11  and  O3_12 
ROOT
HETATM    1  N1  UNL     1      56.400  -3.635 -56.414  1.00  0.00    -0.057 N 
HETATM    2  C7  UNL     1      56.261  -3.257 -57.788  1.00  0.00     0.239 C 
HETATM    3  C8  UNL     1      55.396  -4.480 -58.046  1.00  0.00     0.056 C 
HETATM    4  C9  UNL     1      56.173  -5.025 -56.853  1.00  0.00     0.239 C 
ENDROOT
BRANCH   1   5
HETATM    5  C2  UNL     1      57.719  -3.533 -55.857  1.00  0.00     0.349 C 
BRANCH   5   6
HETATM    6  C1  UNL     1      58.671  -4.501 -56.454  1.00  0.00     0.199 C 
HETATM    7  O1  UNL     1      59.322  -5.298 -55.732  1.00  0.00    -0.647 OA
HETATM    8  O2  UNL     1      58.897  -4.584 -57.818  1.00  0.00    -0.647 OA
ENDBRANCH   5   6
ENDBRANCH   1   5
BRANCH   1   9
HETATM    9  C3  UNL     1      55.329  -3.256 -55.549  1.00  0.00     0.243 C 
BRANCH   9  10
HETATM   10  C4  UNL     1      54.715  -4.412 -54.797  1.00  0.00     0.072 C 
BRANCH  10  11
HETATM   11  C5  UNL     1      54.470  -3.973 -53.380  1.00  0.00     0.059 C 
HETATM   12  N2  UNL     1      55.436  -3.596 -52.655  1.00  0.00    -0.382 N 
ATOM     13  H2  UNL     1      56.378  -3.595 -53.046  1.00  0.00     0.160 HD
BRANCH  12  14
HETATM   14  C6  UNL     1      55.246  -3.171 -51.304  1.00  0.00     0.286 C 
BRANCH  14  15
HETATM   15  O3  UNL     1      56.425  -2.599 -50.830  1.00  0.00    -0.382 OA
ATOM     16  H3  UNL     1      56.214  -1.912 -50.209  1.00  0.00     0.211 HD
ENDBRANCH  14  15
ENDBRANCH  12  14
ENDBRANCH  10  11
ENDBRANCH   9  10
ENDBRANCH   1   9
TORSDOF 7
ENDMDL
MODEL 4
REMARK VINA RESULT: -5.762224559      1.865      5.146
REMARK  7 active torsions:
REMARK  status: ('A' for Active; 'I' for Inactive)
REMARK    1  A    between atoms: C1_2  and  C2_4 
REMARK    2  A    between atoms: C2_4  and  N1_5 
REMARK    3  A    between atoms: N1_5  and  C3_6 
REMARK    4  A    between atoms: C3_6  and  C4_7 
REMARK    5  A    between atoms: C4_7  and  C5_8 
REMARK    6  A    between atoms: N2_9  and  C6_11 
REMARK    7  A    between atoms: C6_11  and  O3_12 
ROOT
HETATM    1  N1  UNL     1      55.237  -3.095 -53.140  1.00  0.00    -0.057 N 
HETATM    2  C7  UNL     1      55.146  -1.955 -52.278  1.00  0.00     0.239 C 
HETATM    3  C8  UNL     1      55.399  -2.839 -51.069  1.00  0.00     0.056 C 
HETATM    4  C9  UNL     1      54.813  -3.907 -51.984  1.00  0.00     0.239 C 
ENDROOT
BRANCH   1   5
HETATM    5  C2  UNL     1      54.242  -3.195 -54.170  1.00  0.00     0.349 C 
BRANCH   5   6
HETATM    6  C1  UNL     1      54.020  -4.592 -54.619  1.00  0.00     0.199 C 
HETATM    7  O1  UNL     1      54.611  -5.048 -55.630  1.00  0.00    -0.647 OA
HETATM    8  O2  UNL     1      53.163  -5.461 -53.964  1.00  0.00    -0.647 OA
ENDBRANCH   5   6
ENDBRANCH   1   5
BRANCH   1   9
HETATM    9  C3  UNL     1      56.557  -3.495 -53.511  1.00  0.00     0.243 C 
BRANCH   9  10
HETATM   10  C4  UNL     1      57.145  -2.684 -54.640  1.00  0.00     0.072 C 
BRANCH  10  11
HETATM   11  C5  UNL     1      57.960  -3.606 -55.505  1.00  0.00     0.059 C 
HETATM   12  N2  UNL     1      57.398  -4.547 -56.138  1.00  0.00    -0.382 N 
ATOM     13  H2  UNL     1      56.389  -4.668 -56.052  1.00  0.00     0.160 HD
BRANCH  12  14
HETATM   14  C6  UNL     1      58.135  -5.444 -56.970  1.00  0.00     0.286 C 
BRANCH  14  15
HETATM   15  O3  UNL     1      58.954  -6.243 -56.175  1.00  0.00    -0.382 OA
ATOM     16  H3  UNL     1      59.023  -5.858 -55.309  1.00  0.00     0.211 HD
ENDBRANCH  14  15
ENDBRANCH  12  14
ENDBRANCH  10  11
ENDBRANCH   9  10
ENDBRANCH   1   9
TORSDOF 7
ENDMDL
MODEL 5
REMARK VINA RESULT: -5.687867395      1.883      2.626
REMARK  7 active torsions:
REMARK  status: ('A' for Active; 'I' for Inactive)
REMARK    1  A    between atoms: C1_2  and  C2_4 
REMARK    2  A    between atoms: C2_4  and  N1_5 
REMARK    3  A    between atoms: N1_5  and  C3_6 
REMARK    4  A    between atoms: C3_6  and  C4_7 
REMARK    5  A    between atoms: C4_7  and  C5_8 
REMARK    6  A    between atoms: N2_9  and  C6_11 
REMARK    7  A    between atoms: C6_11  and  O3_12 
ROOT
HETATM    1  N1  UNL     1      56.993  -3.607 -55.728  1.00  0.00    -0.057 N 
HETATM    2  C7  UNL     1      57.662  -4.734 -56.303  1.00  0.00     0.239 C 
HETATM    3  C8  UNL     1      59.000  -4.032 -56.144  1.00  0.00     0.056 C 
HETATM    4  C9  UNL     1      58.121  -2.789 -56.210  1.00  0.00     0.239 C 
ENDROOT
BRANCH   1   5
HETATM    5  C2  UNL     1      55.792  -3.177 -56.386  1.00  0.00     0.349 C 
BRANCH   5   6
HETATM    6  C1  UNL     1      55.012  -4.305 -56.952  1.00  0.00     0.199 C 
HETATM    7  O1  UNL     1      54.300  -5.034 -56.215  1.00  0.00    -0.647 OA
HETATM    8  O2  UNL     1      55.020  -4.618 -58.301  1.00  0.00    -0.647 OA
ENDBRANCH   5   6
ENDBRANCH   1   5
BRANCH   1   9
HETATM    9  C3  UNL     1      56.974  -3.552 -54.301  1.00  0.00     0.243 C 
BRANCH   9  10
HETATM   10  C4  UNL     1      55.797  -2.794 -53.737  1.00  0.00     0.072 C 
BRANCH  10  11
HETATM   11  C5  UNL     1      54.892  -3.778 -53.047  1.00  0.00     0.059 C 
HETATM   12  N2  UNL     1      53.746  -4.030 -53.522  1.00  0.00    -0.382 N 
ATOM     13  H2  UNL     1      53.449  -3.557 -54.375  1.00  0.00     0.160 HD
BRANCH  12  14
HETATM   14  C6  UNL     1      52.857  -4.959 -52.898  1.00  0.00     0.286 C 
BRANCH  14  15
HETATM   15  O3  UNL     1      52.428  -5.891 -53.841  1.00  0.00    -0.382 OA
ATOM     16  H3  UNL     1      53.161  -6.140 -54.392  1.00  0.00     0.211 HD
ENDBRANCH  14  15
ENDBRANCH  12  14
ENDBRANCH  10  11
ENDBRANCH   9  10
ENDBRANCH   1   9
TORSDOF 7
ENDMDL
