MODEL 1
REMARK VINA RESULT: -6.954709921      0.000      0.000
REMARK  7 active torsions:
REMARK  status: ('A' for Active; 'I' for Inactive)
REMARK    1  A    between atoms: C2_2  and  C3_3 
REMARK       I    between atoms: C3_3  and  N1_5 
REMARK    2  A    between atoms: N1_5  and  C4_7 
REMARK    3  A    between atoms: C4_7  and  C5_8 
REMARK    4  A    between atoms: C5_8  and  C6_9 
REMARK    5  A    between atoms: C7_10  and  C8_11 
REMARK    6  A    between atoms: C8_11  and  C9_12 
REMARK    7  A    between atoms: C9_12  and  C10_14 
ROOT
HETATM    1  C10 UNL     1      57.949  -4.665 -58.084  1.00  0.00     0.202 C 
HETATM    2  C11 UNL     1      56.499  -4.526 -58.122  1.00  0.00     0.066 C 
HETATM    3  N2  UNL     1      55.349  -4.420 -58.144  1.00  0.00    -0.197 NA
ENDROOT
BRANCH   1   4
HETATM    4  C9  UNL     1      58.509  -4.347 -56.747  1.00  0.00     0.150 C 
HETATM    5  O2  UNL     1      59.139  -5.176 -56.128  1.00  0.00    -0.296 OA
BRANCH   4   6
HETATM    6  C8  UNL     1      58.295  -3.015 -56.178  1.00  0.00     0.173 C 
BRANCH   6   7
HETATM    7  C7  UNL     1      57.310  -3.114 -55.104  1.00  0.00    -0.099 C 
HETATM    8  C6  UNL     1      56.492  -3.204 -54.226  1.00  0.00    -0.105 C 
BRANCH   8   9
HETATM    9  C5  UNL     1      55.485  -3.328 -53.164  1.00  0.00     0.113 C 
BRANCH   9  10
HETATM   10  C4  UNL     1      56.083  -2.798 -51.901  1.00  0.00     0.135 C 
BRANCH  10  11
HETATM   11  N1  UNL     1      55.600  -1.457 -51.659  1.00  0.00    -0.357 N 
HETATM   12  C3  UNL     1      56.026  -0.690 -50.528  1.00  0.00     0.240 C 
HETATM   13  O1  UNL     1      56.847  -1.241 -49.749  1.00  0.00    -0.269 OA
ATOM     14  H1  UNL     1      54.935  -1.045 -52.313  1.00  0.00     0.162 HD
BRANCH  12  15
HETATM   15  C2  UNL     1      55.544   0.655 -50.281  1.00  0.00     0.064 C 
HETATM   16  C1  UNL     1      54.265   0.961 -50.193  1.00  0.00     0.017 C 
ENDBRANCH  12  15
ENDBRANCH  10  11
ENDBRANCH   9  10
ENDBRANCH   8   9
ENDBRANCH   6   7
ENDBRANCH   4   6
ENDBRANCH   1   4
TORSDOF 7
ENDMDL
MODEL 2
REMARK VINA RESULT: -6.902020350      2.334      2.904
REMARK  7 active torsions:
REMARK  status: ('A' for Active; 'I' for Inactive)
REMARK    1  A    between atoms: C2_2  and  C3_3 
REMARK       I    between atoms: C3_3  and  N1_5 
REMARK    2  A    between atoms: N1_5  and  C4_7 
REMARK    3  A    between atoms: C4_7  and  C5_8 
REMARK    4  A    between atoms: C5_8  and  C6_9 
REMARK    5  A    between atoms: C7_10  and  C8_11 
REMARK    6  A    between atoms: C8_11  and  C9_12 
REMARK    7  A    between atoms: C9_12  and  C10_14 
ROOT
HETATM    1  C10 UNL     1      57.942  -3.183 -56.483  1.00  0.00     0.202 C 
HETATM    2  C11 UNL     1      58.803  -4.322 -56.189  1.00  0.00     0.066 C 
HETATM    3  N2  UNL     1      59.477  -5.230 -55.957  1.00  0.00    -0.197 NA
ENDROOT
BRANCH   1   4
HETATM    4  C9  UNL     1      56.935  -3.494 -57.528  1.00  0.00     0.150 C 
HETATM    5  O2  UNL     1      56.826  -2.792 -58.509  1.00  0.00    -0.296 OA
BRANCH   4   6
HETATM    6  C8  UNL     1      56.069  -4.662 -57.363  1.00  0.00     0.173 C 
BRANCH   6   7
HETATM    7  C7  UNL     1      55.207  -4.450 -56.203  1.00  0.00    -0.099 C 
HETATM    8  C6  UNL     1      54.487  -4.274 -55.255  1.00  0.00    -0.105 C 
BRANCH   8   9
HETATM    9  C5  UNL     1      53.593  -4.060 -54.109  1.00  0.00     0.113 C 
BRANCH   9  10
HETATM   10  C4  UNL     1      54.261  -4.620 -52.895  1.00  0.00     0.135 C 
BRANCH  10  11
HETATM   11  N1  UNL     1      54.416  -3.582 -51.901  1.00  0.00    -0.357 N 
HETATM   12  C3  UNL     1      55.632  -2.839 -51.764  1.00  0.00     0.240 C 
HETATM   13  O1  UNL     1      56.566  -3.133 -52.554  1.00  0.00    -0.269 OA
ATOM     14  H1  UNL     1      53.636  -3.372 -51.279  1.00  0.00     0.162 HD
BRANCH  12  15
HETATM   15  C2  UNL     1      55.791  -1.796 -50.769  1.00  0.00     0.064 C 
HETATM   16  C1  UNL     1      55.418  -0.548 -50.961  1.00  0.00     0.017 C 
ENDBRANCH  12  15
ENDBRANCH  10  11
ENDBRANCH   9  10
ENDBRANCH   8   9
ENDBRANCH   6   7
ENDBRANCH   4   6
ENDBRANCH   1   4
TORSDOF 7
ENDMDL
MODEL 3
REMARK VINA RESULT: -6.745157989      2.955      3.760
REMARK  7 active torsions:
REMARK  status: ('A' for Active; 'I' for Inactive)
REMARK    1  A    between atoms: C2_2  and  C3_3 
REMARK       I    between atoms: C3_3  and  N1_5 
REMARK    2  A    between atoms: N1_5  and  C4_7 
REMARK    3  A    between atoms: C4_7  and  C5_8 
REMARK    4  A    between atoms: C5_8  and  C6_9 
REMARK    5  A    between atoms: C7_10  and  C8_11 
REMARK    6  A    between atoms: C8_11  and  C9_12 
REMARK    7  A    between atoms: C9_12  and  C10_14 
ROOT
HETATM    1  C10 UNL     1      57.693  -4.730 -58.475  1.00  0.00     0.202 C 
HETATM    2  C11 UNL     1      56.254  -4.595 -58.290  1.00  0.00     0.066 C 
HETATM    3  N2  UNL     1      55.114  -4.495 -58.137  1.00  0.00    -0.197 NA
ENDROOT
BRANCH   1   4
HETATM    4  C9  UNL     1      58.415  -4.868 -57.186  1.00  0.00     0.150 C 
HETATM    5  O2  UNL     1      58.642  -5.963 -56.719  1.00  0.00    -0.296 OA
BRANCH   4   6
HETATM    6  C8  UNL     1      58.855  -3.665 -56.478  1.00  0.00     0.173 C 
BRANCH   6   7
HETATM    7  C7  UNL     1      57.937  -3.409 -55.370  1.00  0.00    -0.099 C 
HETATM    8  C6  UNL     1      57.180  -3.211 -54.456  1.00  0.00    -0.105 C 
BRANCH   8   9
HETATM    9  C5  UNL     1      56.255  -2.987 -53.337  1.00  0.00     0.113 C 
BRANCH   9  10
HETATM   10  C4  UNL     1      54.896  -2.743 -53.907  1.00  0.00     0.135 C 
BRANCH  10  11
HETATM   11  N1  UNL     1      53.931  -3.596 -53.250  1.00  0.00    -0.357 N 
HETATM   12  C3  UNL     1      53.506  -4.839 -53.818  1.00  0.00     0.240 C 
HETATM   13  O1  UNL     1      54.014  -5.158 -54.924  1.00  0.00    -0.269 OA
ATOM     14  H1  UNL     1      53.542  -3.303 -52.353  1.00  0.00     0.162 HD
BRANCH  12  15
HETATM   15  C2  UNL     1      52.539  -5.697 -53.161  1.00  0.00     0.064 C 
HETATM   16  C1  UNL     1      51.661  -5.259 -52.282  1.00  0.00     0.017 C 
ENDBRANCH  12  15
ENDBRANCH  10  11
ENDBRANCH   9  10
ENDBRANCH   8   9
ENDBRANCH   6   7
ENDBRANCH   4   6
ENDBRANCH   1   4
TORSDOF 7
ENDMDL
MODEL 4
REMARK VINA RESULT: -6.602075639      2.230      3.109
REMARK  7 active torsions:
REMARK  status: ('A' for Active; 'I' for Inactive)
REMARK    1  A    between atoms: C2_2  and  C3_3 
REMARK       I    between atoms: C3_3  and  N1_5 
REMARK    2  A    between atoms: N1_5  and  C4_7 
REMARK    3  A    between atoms: C4_7  and  C5_8 
REMARK    4  A    between atoms: C5_8  and  C6_9 
REMARK    5  A    between atoms: C7_10  and  C8_11 
REMARK    6  A    between atoms: C8_11  and  C9_12 
REMARK    7  A    between atoms: C9_12  and  C10_14 
ROOT
HETATM    1  C10 UNL     1      58.454  -3.567 -56.528  1.00  0.00     0.202 C 
HETATM    2  C11 UNL     1      57.828  -3.104 -55.295  1.00  0.00     0.066 C 
HETATM    3  N2  UNL     1      57.324  -2.739 -54.323  1.00  0.00    -0.197 NA
ENDROOT
BRANCH   1   4
HETATM    4  C9  UNL     1      57.860  -4.836 -57.017  1.00  0.00     0.150 C 
HETATM    5  O2  UNL     1      58.433  -5.890 -56.850  1.00  0.00    -0.296 OA
BRANCH   4   6
HETATM    6  C8  UNL     1      56.569  -4.806 -57.706  1.00  0.00     0.173 C 
BRANCH   6   7
HETATM    7  C7  UNL     1      55.504  -4.739 -56.708  1.00  0.00    -0.099 C 
HETATM    8  C6  UNL     1      54.634  -4.676 -55.879  1.00  0.00    -0.105 C 
BRANCH   8   9
HETATM    9  C5  UNL     1      53.582  -4.585 -54.858  1.00  0.00     0.113 C 
BRANCH   9  10
HETATM   10  C4  UNL     1      54.108  -5.200 -53.602  1.00  0.00     0.135 C 
BRANCH  10  11
HETATM   11  N1  UNL     1      55.026  -4.285 -52.959  1.00  0.00    -0.357 N 
HETATM   12  C3  UNL     1      54.642  -3.493 -51.831  1.00  0.00     0.240 C 
HETATM   13  O1  UNL     1      53.460  -3.630 -51.421  1.00  0.00    -0.269 OA
ATOM     14  H1  UNL     1      55.976  -4.203 -53.321  1.00  0.00     0.162 HD
BRANCH  12  15
HETATM   15  C2  UNL     1      55.560  -2.575 -51.184  1.00  0.00     0.064 C 
HETATM   16  C1  UNL     1      55.354  -1.276 -51.112  1.00  0.00     0.017 C 
ENDBRANCH  12  15
ENDBRANCH  10  11
ENDBRANCH   9  10
ENDBRANCH   8   9
ENDBRANCH   6   7
ENDBRANCH   4   6
ENDBRANCH   1   4
TORSDOF 7
ENDMDL
MODEL 5
REMARK VINA RESULT: -6.516228283      1.745      2.230
REMARK  7 active torsions:
REMARK  status: ('A' for Active; 'I' for Inactive)
REMARK    1  A    between atoms: C2_2  and  C3_3 
REMARK       I    between atoms: C3_3  and  N1_5 
REMARK    2  A    between atoms: N1_5  and  C4_7 
REMARK    3  A    between atoms: C4_7  and  C5_8 
REMARK    4  A    between atoms: C5_8  and  C6_9 
REMARK    5  A    between atoms: C7_10  and  C8_11 
REMARK    6  A    between atoms: C8_11  and  C9_12 
REMARK    7  A    between atoms: C9_12  and  C10_14 
ROOT
HETATM    1  C10 UNL     1      55.541  -4.328 -57.688  1.00  0.00     0.202 C 
HETATM    2  C11 UNL     1      56.914  -4.348 -58.179  1.00  0.00     0.066 C 
HETATM    3  N2  UNL     1      58.003  -4.356 -58.562  1.00  0.00    -0.197 NA
ENDROOT
BRANCH   1   4
HETATM    4  C9  UNL     1      55.473  -4.148 -56.217  1.00  0.00     0.150 C 
HETATM    5  O2  UNL     1      56.329  -3.524 -55.631  1.00  0.00    -0.296 OA
BRANCH   4   6
HETATM    6  C8  UNL     1      54.356  -4.734 -55.474  1.00  0.00     0.173 C 
BRANCH   6   7
HETATM    7  C7  UNL     1      54.424  -4.282 -54.086  1.00  0.00    -0.099 C 
HETATM    8  C6  UNL     1      54.492  -3.915 -52.942  1.00  0.00    -0.105 C 
BRANCH   8   9
HETATM    9  C5  UNL     1      54.593  -3.472 -51.545  1.00  0.00     0.113 C 
BRANCH   9  10
HETATM   10  C4  UNL     1      55.823  -2.634 -51.418  1.00  0.00     0.135 C 
BRANCH  10  11
HETATM   11  N1  UNL     1      55.455  -1.239 -51.326  1.00  0.00    -0.357 N 
HETATM   12  C3  UNL     1      56.036  -0.364 -50.353  1.00  0.00     0.240 C 
HETATM   13  O1  UNL     1      56.888  -0.869 -49.576  1.00  0.00    -0.269 OA
ATOM     14  H1  UNL     1      54.760  -0.866 -51.973  1.00  0.00     0.162 HD
BRANCH  12  15
HETATM   15  C2  UNL     1      55.669   1.036 -50.257  1.00  0.00     0.064 C 
HETATM   16  C1  UNL     1      54.488   1.448 -49.843  1.00  0.00     0.017 C 
ENDBRANCH  12  15
ENDBRANCH  10  11
ENDBRANCH   9  10
ENDBRANCH   8   9
ENDBRANCH   6   7
ENDBRANCH   4   6
ENDBRANCH   1   4
TORSDOF 7
ENDMDL
