MODEL 1
REMARK VINA RESULT: -6.779784888      0.000      0.000
REMARK  8 active torsions:
REMARK  status: ('A' for Active; 'I' for Inactive)
REMARK    1  A    between atoms: C1_2  and  C2_4 
REMARK    2  A    between atoms: C2_4  and  C3_5 
REMARK    3  A    between atoms: C3_5  and  C4_6 
REMARK    4  A    between atoms: C4_6  and  C5_7 
REMARK    5  A    between atoms: C5_7  and  C6_8 
REMARK    6  A    between atoms: C6_8  and  C7_9 
REMARK    7  A    between atoms: C8_10  and  N1_11 
REMARK    8  A    between atoms: N1_11  and  C9_13 
ROOT
HETATM    1  C6  UNL     1      54.938  -4.613 -57.990  1.00  0.00     0.096 C 
ENDROOT
BRANCH   1   2
HETATM    2  C5  UNL     1      56.274  -4.117 -58.374  1.00  0.00     0.012 C 
BRANCH   2   3
HETATM    3  C4  UNL     1      57.461  -4.966 -58.214  1.00  0.00     0.001 C 
BRANCH   3   4
HETATM    4  C3  UNL     1      58.634  -4.517 -57.457  1.00  0.00     0.010 C 
BRANCH   4   5
HETATM    5  C2  UNL     1      58.587  -4.481 -55.978  1.00  0.00     0.113 C 
BRANCH   5   6
HETATM    6  C1  UNL     1      58.033  -3.131 -55.557  1.00  0.00     0.172 C 
HETATM    7  O1  UNL     1      58.289  -2.094 -56.217  1.00  0.00    -0.648 OA
HETATM    8  O2  UNL     1      57.251  -3.089 -54.438  1.00  0.00    -0.648 OA
ENDBRANCH   5   6
ENDBRANCH   4   5
ENDBRANCH   3   4
ENDBRANCH   2   3
ENDBRANCH   1   2
BRANCH   1   9
HETATM    9  C7  UNL     1      54.739  -4.642 -56.528  1.00  0.00    -0.084 C 
HETATM   10  C8  UNL     1      54.598  -4.674 -55.331  1.00  0.00     0.006 C 
BRANCH  10  11
HETATM   11  N1  UNL     1      54.458  -4.722 -53.915  1.00  0.00    -0.346 N 
ATOM     12  H1  UNL     1      55.056  -5.323 -53.347  1.00  0.00     0.170 HD
BRANCH  11  13
HETATM   13  C9  UNL     1      53.445  -3.896 -53.308  1.00  0.00     0.090 A 
HETATM   14  C10 UNL     1      52.314  -4.549 -52.549  1.00  0.00     0.028 A 
HETATM   15  C11 UNL     1      53.345  -3.767 -51.822  1.00  0.00     0.028 A 
ENDBRANCH  11  13
ENDBRANCH  10  11
ENDBRANCH   1   9
TORSDOF 8
ENDMDL
MODEL 2
REMARK VINA RESULT: -6.520428000      1.832      2.308
REMARK  8 active torsions:
REMARK  status: ('A' for Active; 'I' for Inactive)
REMARK    1  A    between atoms: C1_2  and  C2_4 
REMARK    2  A    between atoms: C2_4  and  C3_5 
REMARK    3  A    between atoms: C3_5  and  C4_6 
REMARK    4  A    between atoms: C4_6  and  C5_7 
REMARK    5  A    between atoms: C5_7  and  C6_8 
REMARK    6  A    between atoms: C6_8  and  C7_9 
REMARK    7  A    between atoms: C8_10  and  N1_11 
REMARK    8  A    between atoms: N1_11  and  C9_13 
ROOT
HETATM    1  C6  UNL     1      54.518  -4.645 -56.464  1.00  0.00     0.096 C 
ENDROOT
BRANCH   1   2
HETATM    2  C5  UNL     1      55.268  -4.620 -57.735  1.00  0.00     0.012 C 
BRANCH   2   3
HETATM    3  C4  UNL     1      56.011  -3.420 -58.141  1.00  0.00     0.001 C 
BRANCH   3   4
HETATM    4  C3  UNL     1      57.470  -3.432 -58.294  1.00  0.00     0.010 C 
BRANCH   4   5
HETATM    5  C2  UNL     1      58.247  -4.615 -57.861  1.00  0.00     0.113 C 
BRANCH   5   6
HETATM    6  C1  UNL     1      58.800  -4.332 -56.474  1.00  0.00     0.172 C 
HETATM    7  O1  UNL     1      58.644  -3.210 -55.933  1.00  0.00    -0.648 OA
HETATM    8  O2  UNL     1      59.473  -5.339 -55.844  1.00  0.00    -0.648 OA
ENDBRANCH   5   6
ENDBRANCH   4   5
ENDBRANCH   3   4
ENDBRANCH   2   3
ENDBRANCH   1   2
BRANCH   1   9
HETATM    9  C7  UNL     1      55.226  -3.950 -55.371  1.00  0.00    -0.084 C 
HETATM   10  C8  UNL     1      55.797  -3.398 -54.464  1.00  0.00     0.006 C 
BRANCH  10  11
HETATM   11  N1  UNL     1      56.461  -2.766 -53.374  1.00  0.00    -0.346 N 
ATOM     12  H1  UNL     1      57.228  -2.112 -53.534  1.00  0.00     0.170 HD
BRANCH  11  13
HETATM   13  C9  UNL     1      56.018  -3.079 -52.039  1.00  0.00     0.090 A 
HETATM   14  C10 UNL     1      55.393  -1.994 -51.193  1.00  0.00     0.028 A 
HETATM   15  C11 UNL     1      54.562  -3.116 -51.700  1.00  0.00     0.028 A 
ENDBRANCH  11  13
ENDBRANCH  10  11
ENDBRANCH   1   9
TORSDOF 8
ENDMDL
MODEL 3
REMARK VINA RESULT: -6.262183011      2.591      5.794
REMARK  8 active torsions:
REMARK  status: ('A' for Active; 'I' for Inactive)
REMARK    1  A    between atoms: C1_2  and  C2_4 
REMARK    2  A    between atoms: C2_4  and  C3_5 
REMARK    3  A    between atoms: C3_5  and  C4_6 
REMARK    4  A    between atoms: C4_6  and  C5_7 
REMARK    5  A    between atoms: C5_7  and  C6_8 
REMARK    6  A    between atoms: C6_8  and  C7_9 
REMARK    7  A    between atoms: C8_10  and  N1_11 
REMARK    8  A    between atoms: N1_11  and  C9_13 
ROOT
HETATM    1  C6  UNL     1      53.408  -5.131 -53.753  1.00  0.00     0.096 C 
ENDROOT
BRANCH   1   2
HETATM    2  C5  UNL     1      53.128  -3.978 -52.874  1.00  0.00     0.012 C 
BRANCH   2   3
HETATM    3  C4  UNL     1      53.662  -3.934 -51.507  1.00  0.00     0.001 C 
BRANCH   3   4
HETATM    4  C3  UNL     1      54.967  -3.333 -51.208  1.00  0.00     0.010 C 
BRANCH   4   5
HETATM    5  C2  UNL     1      55.378  -2.086 -51.892  1.00  0.00     0.113 C 
BRANCH   5   6
HETATM    6  C1  UNL     1      55.686  -1.046 -50.829  1.00  0.00     0.172 C 
HETATM    7  O1  UNL     1      55.064   0.044 -50.792  1.00  0.00    -0.648 OA
HETATM    8  O2  UNL     1      56.664  -1.339 -49.922  1.00  0.00    -0.648 OA
ENDBRANCH   5   6
ENDBRANCH   4   5
ENDBRANCH   3   4
ENDBRANCH   2   3
ENDBRANCH   1   2
BRANCH   1   9
HETATM    9  C7  UNL     1      54.236  -4.769 -54.920  1.00  0.00    -0.084 C 
HETATM   10  C8  UNL     1      54.931  -4.477 -55.861  1.00  0.00     0.006 C 
BRANCH  10  11
HETATM   11  N1  UNL     1      55.775  -4.135 -56.955  1.00  0.00    -0.346 N 
ATOM     12  H1  UNL     1      55.592  -3.306 -57.521  1.00  0.00     0.170 HD
BRANCH  11  13
HETATM   13  C9  UNL     1      56.895  -4.997 -57.239  1.00  0.00     0.090 A 
HETATM   14  C10 UNL     1      57.668  -4.807 -58.524  1.00  0.00     0.028 A 
HETATM   15  C11 UNL     1      58.295  -4.472 -57.221  1.00  0.00     0.028 A 
ENDBRANCH  11  13
ENDBRANCH  10  11
ENDBRANCH   1   9
TORSDOF 8
ENDMDL
MODEL 4
REMARK VINA RESULT: -6.220486799      2.889      5.794
REMARK  8 active torsions:
REMARK  status: ('A' for Active; 'I' for Inactive)
REMARK    1  A    between atoms: C1_2  and  C2_4 
REMARK    2  A    between atoms: C2_4  and  C3_5 
REMARK    3  A    between atoms: C3_5  and  C4_6 
REMARK    4  A    between atoms: C4_6  and  C5_7 
REMARK    5  A    between atoms: C5_7  and  C6_8 
REMARK    6  A    between atoms: C6_8  and  C7_9 
REMARK    7  A    between atoms: C8_10  and  N1_11 
REMARK    8  A    between atoms: N1_11  and  C9_13 
ROOT
HETATM    1  C6  UNL     1      53.466  -4.908 -53.597  1.00  0.00     0.096 C 
ENDROOT
BRANCH   1   2
HETATM    2  C5  UNL     1      53.815  -3.890 -52.586  1.00  0.00     0.012 C 
BRANCH   2   3
HETATM    3  C4  UNL     1      55.211  -3.477 -52.393  1.00  0.00     0.001 C 
BRANCH   3   4
HETATM    4  C3  UNL     1      55.628  -2.690 -51.227  1.00  0.00     0.010 C 
BRANCH   4   5
HETATM    5  C2  UNL     1      55.261  -1.260 -51.135  1.00  0.00     0.113 C 
BRANCH   5   6
HETATM    6  C1  UNL     1      56.356  -0.542 -50.365  1.00  0.00     0.172 C 
HETATM    7  O1  UNL     1      57.037  -1.143 -49.499  1.00  0.00    -0.648 OA
HETATM    8  O2  UNL     1      56.568   0.777 -50.648  1.00  0.00    -0.648 OA
ENDBRANCH   5   6
ENDBRANCH   4   5
ENDBRANCH   3   4
ENDBRANCH   2   3
ENDBRANCH   1   2
BRANCH   1   9
HETATM    9  C7  UNL     1      54.213  -4.737 -54.859  1.00  0.00    -0.084 C 
HETATM   10  C8  UNL     1      54.811  -4.616 -55.898  1.00  0.00     0.006 C 
BRANCH  10  11
HETATM   11  N1  UNL     1      55.502  -4.494 -57.137  1.00  0.00    -0.346 N 
ATOM     12  H1  UNL     1      55.060  -4.057 -57.946  1.00  0.00     0.170 HD
BRANCH  11  13
HETATM   13  C9  UNL     1      56.848  -5.006 -57.213  1.00  0.00     0.090 A 
HETATM   14  C10 UNL     1      57.657  -4.778 -58.469  1.00  0.00     0.028 A 
HETATM   15  C11 UNL     1      58.024  -4.084 -57.209  1.00  0.00     0.028 A 
ENDBRANCH  11  13
ENDBRANCH  10  11
ENDBRANCH   1   9
TORSDOF 8
ENDMDL
MODEL 5
REMARK VINA RESULT: -6.209582715      2.437      3.157
REMARK  8 active torsions:
REMARK  status: ('A' for Active; 'I' for Inactive)
REMARK    1  A    between atoms: C1_2  and  C2_4 
REMARK    2  A    between atoms: C2_4  and  C3_5 
REMARK    3  A    between atoms: C3_5  and  C4_6 
REMARK    4  A    between atoms: C4_6  and  C5_7 
REMARK    5  A    between atoms: C5_7  and  C6_8 
REMARK    6  A    between atoms: C6_8  and  C7_9 
REMARK    7  A    between atoms: C8_10  and  N1_11 
REMARK    8  A    between atoms: N1_11  and  C9_13 
ROOT
HETATM    1  C6  UNL     1      54.611  -3.504 -55.336  1.00  0.00     0.096 C 
ENDROOT
BRANCH   1   2
HETATM    2  C5  UNL     1      55.187  -4.619 -56.114  1.00  0.00     0.012 C 
BRANCH   2   3
HETATM    3  C4  UNL     1      55.568  -4.430 -57.520  1.00  0.00     0.001 C 
BRANCH   3   4
HETATM    4  C3  UNL     1      56.823  -3.771 -57.896  1.00  0.00     0.010 C 
BRANCH   4   5
HETATM    5  C2  UNL     1      58.094  -4.530 -57.859  1.00  0.00     0.113 C 
BRANCH   5   6
HETATM    6  C1  UNL     1      58.726  -4.321 -56.493  1.00  0.00     0.172 C 
HETATM    7  O1  UNL     1      59.496  -5.181 -56.000  1.00  0.00    -0.648 OA
HETATM    8  O2  UNL     1      58.423  -3.169 -55.825  1.00  0.00    -0.648 OA
ENDBRANCH   5   6
ENDBRANCH   4   5
ENDBRANCH   3   4
ENDBRANCH   2   3
ENDBRANCH   1   2
BRANCH   1   9
HETATM    9  C7  UNL     1      55.281  -3.311 -54.035  1.00  0.00    -0.084 C 
HETATM   10  C8  UNL     1      55.818  -3.134 -52.970  1.00  0.00     0.006 C 
BRANCH  10  11
HETATM   11  N1  UNL     1      56.439  -2.899 -51.710  1.00  0.00    -0.346 N 
ATOM     12  H1  UNL     1      57.350  -3.300 -51.490  1.00  0.00     0.170 HD
BRANCH  11  13
HETATM   13  C9  UNL     1      55.738  -2.078 -50.755  1.00  0.00     0.090 A 
HETATM   14  C10 UNL     1      56.452  -0.905 -50.123  1.00  0.00     0.028 A 
HETATM   15  C11 UNL     1      55.346  -0.674 -51.087  1.00  0.00     0.028 A 
ENDBRANCH  11  13
ENDBRANCH  10  11
ENDBRANCH   1   9
TORSDOF 8
ENDMDL
