MODEL 1
REMARK VINA RESULT: -6.646937597      0.000      0.000
REMARK  5 active torsions:
REMARK  status: ('A' for Active; 'I' for Inactive)
REMARK    1  A    between atoms: C2_2  and  C3_3 
REMARK    2  A    between atoms: C3_3  and  N1_4 
REMARK    3  A    between atoms: C4_6  and  C5_7 
REMARK       I    between atoms: C5_7  and  N2_9 
REMARK    4  A    between atoms: N2_9  and  C6_10 
REMARK    5  A    between atoms: C6_10  and  C7_11 
ROOT
HETATM    1  C5  UNL     1      56.220  -3.011 -53.409  1.00  0.00     0.330 C 
HETATM    2  O1  UNL     1      56.483  -3.185 -52.198  1.00  0.00    -0.250 OA
HETATM    3  N2  UNL     1      57.084  -3.026 -54.444  1.00  0.00    -0.380 NA
ENDROOT
BRANCH   1   4
HETATM    4  C4  UNL     1      54.769  -2.761 -53.670  1.00  0.00     0.178 C 
HETATM    5  N1  UNL     1      53.890  -3.597 -53.912  1.00  0.00    -0.370 N 
ATOM      6  H1  UNL     1      52.979  -3.162 -54.052  1.00  0.00     0.164 HD
BRANCH   5   7
HETATM    7  C3  UNL     1      53.830  -4.985 -54.042  1.00  0.00     0.087 C 
BRANCH   7   8
HETATM    8  C2  UNL     1      52.674  -5.525 -53.236  1.00  0.00     0.007 C 
HETATM    9  C1  UNL     1      52.086  -4.773 -52.328  1.00  0.00     0.012 C 
ENDBRANCH   7   8
ENDBRANCH   5   7
ENDBRANCH   1   4
BRANCH   3  10
HETATM   10  C6  UNL     1      57.972  -3.041 -55.507  1.00  0.00     0.191 C 
BRANCH  10  11
HETATM   11  C7  UNL     1      57.506  -3.484 -56.843  1.00  0.00     0.173 C 
HETATM   12  C8  UNL     1      58.268  -4.665 -57.394  1.00  0.00     0.040 C 
HETATM   13  C9  UNL     1      57.440  -4.881 -58.682  1.00  0.00     0.029 C 
HETATM   14  C10 UNL     1      56.082  -4.441 -58.199  1.00  0.00     0.168 C 
HETATM   15  O2  UNL     1      56.211  -4.007 -56.877  1.00  0.00    -0.380 OA
ENDBRANCH  10  11
ENDBRANCH   3  10
TORSDOF 5
ENDMDL
MODEL 2
REMARK VINA RESULT: -6.499975917      1.823      5.527
REMARK  5 active torsions:
REMARK  status: ('A' for Active; 'I' for Inactive)
REMARK    1  A    between atoms: C2_2  and  C3_3 
REMARK    2  A    between atoms: C3_3  and  N1_4 
REMARK    3  A    between atoms: C4_6  and  C5_7 
REMARK       I    between atoms: C5_7  and  N2_9 
REMARK    4  A    between atoms: N2_9  and  C6_10 
REMARK    5  A    between atoms: C6_10  and  C7_11 
ROOT
HETATM    1  C5  UNL     1      57.915  -2.964 -55.747  1.00  0.00     0.330 C 
HETATM    2  O1  UNL     1      58.482  -1.862 -55.925  1.00  0.00    -0.250 OA
HETATM    3  N2  UNL     1      56.696  -3.180 -55.216  1.00  0.00    -0.380 NA
ENDROOT
BRANCH   1   4
HETATM    4  C4  UNL     1      58.738  -4.132 -56.191  1.00  0.00     0.178 C 
HETATM    5  N1  UNL     1      58.755  -4.661 -57.309  1.00  0.00    -0.370 N 
ATOM      6  H1  UNL     1      59.407  -5.444 -57.349  1.00  0.00     0.164 HD
BRANCH   5   7
HETATM    7  C3  UNL     1      58.108  -4.459 -58.529  1.00  0.00     0.087 C 
BRANCH   7   8
HETATM    8  C2  UNL     1      56.725  -5.064 -58.480  1.00  0.00     0.007 C 
HETATM    9  C1  UNL     1      55.669  -4.297 -58.307  1.00  0.00     0.012 C 
ENDBRANCH   7   8
ENDBRANCH   5   7
ENDBRANCH   1   4
BRANCH   3  10
HETATM   10  C6  UNL     1      55.442  -3.403 -54.671  1.00  0.00     0.191 C 
BRANCH  10  11
HETATM   11  C7  UNL     1      55.178  -3.023 -53.262  1.00  0.00     0.173 C 
HETATM   12  C8  UNL     1      54.397  -4.056 -52.488  1.00  0.00     0.040 C 
HETATM   13  C9  UNL     1      54.434  -3.369 -51.103  1.00  0.00     0.029 C 
HETATM   14  C10 UNL     1      55.773  -2.682 -51.186  1.00  0.00     0.168 C 
HETATM   15  O2  UNL     1      56.312  -2.931 -52.450  1.00  0.00    -0.380 OA
ENDBRANCH  10  11
ENDBRANCH   3  10
TORSDOF 5
ENDMDL
MODEL 3
REMARK VINA RESULT: -6.304091298      2.053      3.187
REMARK  5 active torsions:
REMARK  status: ('A' for Active; 'I' for Inactive)
REMARK    1  A    between atoms: C2_2  and  C3_3 
REMARK    2  A    between atoms: C3_3  and  N1_4 
REMARK    3  A    between atoms: C4_6  and  C5_7 
REMARK       I    between atoms: C5_7  and  N2_9 
REMARK    4  A    between atoms: N2_9  and  C6_10 
REMARK    5  A    between atoms: C6_10  and  C7_11 
ROOT
HETATM    1  C5  UNL     1      53.499  -5.014 -54.102  1.00  0.00     0.330 C 
HETATM    2  O1  UNL     1      53.059  -6.088 -53.633  1.00  0.00    -0.250 OA
HETATM    3  N2  UNL     1      54.146  -4.836 -55.270  1.00  0.00    -0.380 NA
ENDROOT
BRANCH   1   4
HETATM    4  C4  UNL     1      53.250  -3.835 -53.216  1.00  0.00     0.178 C 
HETATM    5  N1  UNL     1      54.066  -3.243 -52.499  1.00  0.00    -0.370 N 
ATOM      6  H1  UNL     1      53.636  -2.469 -51.994  1.00  0.00     0.164 HD
BRANCH   5   7
HETATM    7  C3  UNL     1      55.425  -3.367 -52.206  1.00  0.00     0.087 C 
BRANCH   7   8
HETATM    8  C2  UNL     1      55.781  -2.473 -51.043  1.00  0.00     0.007 C 
HETATM    9  C1  UNL     1      55.452  -1.197 -51.058  1.00  0.00     0.012 C 
ENDBRANCH   7   8
ENDBRANCH   5   7
ENDBRANCH   1   4
BRANCH   3  10
HETATM   10  C6  UNL     1      54.812  -4.654 -56.472  1.00  0.00     0.191 C 
BRANCH  10  11
HETATM   11  C7  UNL     1      56.294  -4.694 -56.502  1.00  0.00     0.173 C 
HETATM   12  C8  UNL     1      56.875  -4.680 -57.894  1.00  0.00     0.040 C 
HETATM   13  C9  UNL     1      58.372  -4.614 -57.508  1.00  0.00     0.029 C 
HETATM   14  C10 UNL     1      58.279  -3.818 -56.232  1.00  0.00     0.168 C 
HETATM   15  O2  UNL     1      56.929  -3.567 -55.973  1.00  0.00    -0.380 OA
ENDBRANCH  10  11
ENDBRANCH   3  10
TORSDOF 5
ENDMDL
MODEL 4
REMARK VINA RESULT: -6.263457285      1.677      5.161
REMARK  5 active torsions:
REMARK  status: ('A' for Active; 'I' for Inactive)
REMARK    1  A    between atoms: C2_2  and  C3_3 
REMARK    2  A    between atoms: C3_3  and  N1_4 
REMARK    3  A    between atoms: C4_6  and  C5_7 
REMARK       I    between atoms: C5_7  and  N2_9 
REMARK    4  A    between atoms: N2_9  and  C6_10 
REMARK    5  A    between atoms: C6_10  and  C7_11 
ROOT
HETATM    1  C5  UNL     1      57.923  -3.020 -55.452  1.00  0.00     0.330 C 
HETATM    2  O1  UNL     1      58.243  -2.052 -56.178  1.00  0.00    -0.250 OA
HETATM    3  N2  UNL     1      57.098  -3.006 -54.387  1.00  0.00    -0.380 NA
ENDROOT
BRANCH   1   4
HETATM    4  C4  UNL     1      58.566  -4.306 -55.863  1.00  0.00     0.178 C 
HETATM    5  N1  UNL     1      58.613  -4.798 -56.997  1.00  0.00    -0.370 N 
ATOM      6  H1  UNL     1      59.113  -5.686 -57.006  1.00  0.00     0.164 HD
BRANCH   5   7
HETATM    7  C3  UNL     1      58.153  -4.445 -58.267  1.00  0.00     0.087 C 
BRANCH   7   8
HETATM    8  C2  UNL     1      56.741  -4.944 -58.456  1.00  0.00     0.007 C 
HETATM    9  C1  UNL     1      55.717  -4.196 -58.100  1.00  0.00     0.012 C 
ENDBRANCH   7   8
ENDBRANCH   5   7
ENDBRANCH   1   4
BRANCH   3  10
HETATM   10  C6  UNL     1      56.249  -2.991 -53.292  1.00  0.00     0.191 C 
BRANCH  10  11
HETATM   11  C7  UNL     1      55.129  -3.960 -53.221  1.00  0.00     0.173 C 
HETATM   12  C8  UNL     1      54.003  -3.525 -52.314  1.00  0.00     0.040 C 
HETATM   13  C9  UNL     1      53.029  -4.694 -52.596  1.00  0.00     0.029 C 
HETATM   14  C10 UNL     1      53.377  -4.985 -54.033  1.00  0.00     0.168 C 
HETATM   15  O2  UNL     1      54.417  -4.132 -54.411  1.00  0.00    -0.380 OA
ENDBRANCH  10  11
ENDBRANCH   3  10
TORSDOF 5
ENDMDL
MODEL 5
REMARK VINA RESULT: -6.232948098      2.425      3.437
REMARK  5 active torsions:
REMARK  status: ('A' for Active; 'I' for Inactive)
REMARK    1  A    between atoms: C2_2  and  C3_3 
REMARK    2  A    between atoms: C3_3  and  N1_4 
REMARK    3  A    between atoms: C4_6  and  C5_7 
REMARK       I    between atoms: C5_7  and  N2_9 
REMARK    4  A    between atoms: N2_9  and  C6_10 
REMARK    5  A    between atoms: C6_10  and  C7_11 
ROOT
HETATM    1  C5  UNL     1      55.620  -3.119 -53.314  1.00  0.00     0.330 C 
HETATM    2  O1  UNL     1      54.388  -3.179 -53.529  1.00  0.00    -0.250 OA
HETATM    3  N2  UNL     1      56.608  -3.082 -54.229  1.00  0.00    -0.380 NA
ENDROOT
BRANCH   1   4
HETATM    4  C4  UNL     1      55.967  -3.090 -51.860  1.00  0.00     0.178 C 
HETATM    5  N1  UNL     1      55.848  -2.143 -51.074  1.00  0.00    -0.370 N 
ATOM      6  H1  UNL     1      56.159  -2.387 -50.134  1.00  0.00     0.164 HD
BRANCH   5   7
HETATM    7  C3  UNL     1      55.397  -0.824 -51.148  1.00  0.00     0.087 C 
BRANCH   7   8
HETATM    8  C2  UNL     1      56.136   0.026 -50.142  1.00  0.00     0.007 C 
HETATM    9  C1  UNL     1      56.254   1.325 -50.326  1.00  0.00     0.012 C 
ENDBRANCH   7   8
ENDBRANCH   5   7
ENDBRANCH   1   4
BRANCH   3  10
HETATM   10  C6  UNL     1      57.624  -3.044 -55.171  1.00  0.00     0.191 C 
BRANCH  10  11
HETATM   11  C7  UNL     1      57.342  -3.444 -56.570  1.00  0.00     0.173 C 
HETATM   12  C8  UNL     1      58.341  -4.422 -57.138  1.00  0.00     0.040 C 
HETATM   13  C9  UNL     1      57.659  -4.668 -58.504  1.00  0.00     0.029 C 
HETATM   14  C10 UNL     1      56.213  -4.515 -58.106  1.00  0.00     0.168 C 
HETATM   15  O2  UNL     1      56.168  -4.180 -56.751  1.00  0.00    -0.380 OA
ENDBRANCH  10  11
ENDBRANCH   3  10
TORSDOF 5
ENDMDL
