MODEL 1
REMARK VINA RESULT: -7.256873628      0.000      0.000
REMARK  8 active torsions:
REMARK  status: ('A' for Active; 'I' for Inactive)
REMARK    1  A    between atoms: N1_1  and  C1_4 
REMARK    2  A    between atoms: C2_7  and  N3_8 
REMARK    3  A    between atoms: N3_8  and  C3_10 
REMARK    4  A    between atoms: C3_10  and  C4_11 
REMARK    5  A    between atoms: C4_11  and  N4_12 
REMARK    6  A    between atoms: C12_23  and  N6_24 
REMARK    7  A    between atoms: N6_24  and  N7_26 
REMARK    8  A    between atoms: C13_28  and  C14_29 
ROOT
HETATM    1  C1  UNL     1      -7.405  17.457  20.962  1.00  0.00     0.705 A 
HETATM    2  N2  UNL     1      -6.062  17.474  21.130  1.00  0.00    -0.022 N 
ATOM      3  H2  UNL     1      -5.464  17.677  20.329  1.00  0.00     0.203 HD
HETATM    4  C2  UNL     1      -5.494  17.233  22.322  1.00  0.00     0.707 A 
HETATM    5  N5  UNL     1      -6.302  16.968  23.364  1.00  0.00    -0.020 N 
ATOM      6  H5  UNL     1      -5.883  16.781  24.276  1.00  0.00     0.203 HD
HETATM    7  C12 UNL     1      -7.640  16.940  23.247  1.00  0.00     0.725 A 
HETATM    8  N9  UNL     1      -8.166  17.187  22.037  1.00  0.00    -0.020 N 
ATOM      9  H9  UNL     1      -9.180  17.170  21.929  1.00  0.00     0.203 HD
ENDROOT
BRANCH   4  10
HETATM   10  N3  UNL     1      -4.216  17.266  22.410  1.00  0.00    -0.224 N 
ATOM     11  H3  UNL     1      -3.713  16.454  22.772  1.00  0.00     0.177 HD
BRANCH  10  12
HETATM   12  C3  UNL     1      -3.492  18.422  22.009  1.00  0.00     0.158 C 
BRANCH  12  13
HETATM   13  C4  UNL     1      -3.923  19.683  22.710  1.00  0.00     0.153 C 
BRANCH  13  14
HETATM   14  N4  UNL     1      -3.430  19.668  24.100  1.00  0.00    -0.311 N 
HETATM   15  C5  UNL     1      -3.766  18.933  25.258  1.00  0.00     0.260 A 
HETATM   16  O1  UNL     1      -4.581  18.024  25.592  1.00  0.00    -0.267 OA
HETATM   17  C6  UNL     1      -2.744  19.664  25.982  1.00  0.00     0.059 A 
HETATM   18  C7  UNL     1      -2.066  19.896  27.181  1.00  0.00     0.019 A 
HETATM   19  C11 UNL     1      -2.447  20.355  24.845  1.00  0.00     0.053 A 
HETATM   20  C8  UNL     1      -1.070  20.831  27.261  1.00  0.00     0.001 A 
HETATM   21  C9  UNL     1      -0.765  21.540  26.097  1.00  0.00     0.002 A 
HETATM   22  C10 UNL     1      -1.435  21.309  24.914  1.00  0.00     0.031 A 
ENDBRANCH  13  14
ENDBRANCH  12  13
ENDBRANCH  10  12
ENDBRANCH   4  10
BRANCH   1  23
HETATM   23  N1  UNL     1      -7.904  17.698  19.786  1.00  0.00    -0.234 N 
ATOM     24  H12 UNL     1      -7.365  17.603  18.925  1.00  0.00     0.174 HD
ATOM     25  H11 UNL     1      -8.877  17.995  19.706  1.00  0.00     0.174 HD
ENDBRANCH   1  23
BRANCH   7  26
HETATM   26  N6  UNL     1      -8.390  16.679  24.282  1.00  0.00    -0.131 N 
ATOM     27  H6  UNL     1      -8.028  16.835  25.222  1.00  0.00     0.205 HD
BRANCH  26  28
HETATM   28  N7  UNL     1      -9.672  16.193  24.109  1.00  0.00    -0.297 N 
HETATM   29  C13 UNL     1     -10.623  16.402  24.971  1.00  0.00     0.120 C 
ATOM     30  H7  UNL     1      -9.881  15.650  23.272  1.00  0.00     0.186 HD
BRANCH  29  31
HETATM   31  C14 UNL     1     -11.960  15.875  24.756  1.00  0.00    -0.004 A 
HETATM   32  C15 UNL     1     -12.933  15.856  25.728  1.00  0.00     0.015 A 
HETATM   33  C16 UNL     1     -14.187  15.343  25.475  1.00  0.00     0.018 A 
HETATM   34  C17 UNL     1     -14.476  14.835  24.208  1.00  0.00     0.087 A 
HETATM   35  N8  UNL     1     -13.524  14.857  23.265  1.00  0.00    -0.374 N 
HETATM   36  C18 UNL     1     -12.281  15.365  23.517  1.00  0.00     0.100 A 
ATOM     37  H8  UNL     1     -13.733  14.487  22.338  1.00  0.00     0.164 HD
ENDBRANCH  29  31
ENDBRANCH  26  28
ENDBRANCH   7  26
TORSDOF 8
ENDMDL
MODEL 2
REMARK VINA RESULT: -7.244295582      3.037      9.714
REMARK  8 active torsions:
REMARK  status: ('A' for Active; 'I' for Inactive)
REMARK    1  A    between atoms: N1_1  and  C1_4 
REMARK    2  A    between atoms: C2_7  and  N3_8 
REMARK    3  A    between atoms: N3_8  and  C3_10 
REMARK    4  A    between atoms: C3_10  and  C4_11 
REMARK    5  A    between atoms: C4_11  and  N4_12 
REMARK    6  A    between atoms: C12_23  and  N6_24 
REMARK    7  A    between atoms: N6_24  and  N7_26 
REMARK    8  A    between atoms: C13_28  and  C14_29 
ROOT
HETATM    1  C1  UNL     1      -6.553  17.260  21.497  1.00  0.00     0.705 A 
HETATM    2  N2  UNL     1      -7.295  17.851  22.464  1.00  0.00    -0.022 N 
ATOM      3  H2  UNL     1      -8.306  17.719  22.464  1.00  0.00     0.203 HD
HETATM    4  C2  UNL     1      -6.736  18.605  23.422  1.00  0.00     0.707 A 
HETATM    5  N5  UNL     1      -5.401  18.766  23.402  1.00  0.00    -0.020 N 
ATOM      6  H5  UNL     1      -4.963  19.339  24.124  1.00  0.00     0.203 HD
HETATM    7  C12 UNL     1      -4.623  18.200  22.463  1.00  0.00     0.725 A 
HETATM    8  N9  UNL     1      -5.223  17.453  21.524  1.00  0.00    -0.020 N 
ATOM      9  H9  UNL     1      -4.649  17.015  20.803  1.00  0.00     0.203 HD
ENDROOT
BRANCH   4  10
HETATM   10  N3  UNL     1      -7.497  19.135  24.307  1.00  0.00    -0.224 N 
ATOM     11  H3  UNL     1      -7.203  19.149  25.284  1.00  0.00     0.177 HD
BRANCH  10  12
HETATM   12  C3  UNL     1      -8.748  19.704  23.939  1.00  0.00     0.158 C 
BRANCH  12  13
HETATM   13  C4  UNL     1      -9.852  19.435  24.928  1.00  0.00     0.153 C 
BRANCH  13  14
HETATM   14  N4  UNL     1     -10.453  18.118  24.651  1.00  0.00    -0.311 N 
HETATM   15  C5  UNL     1      -9.950  16.800  24.581  1.00  0.00     0.260 A 
HETATM   16  O1  UNL     1      -8.839  16.207  24.717  1.00  0.00    -0.267 OA
HETATM   17  C6  UNL     1     -11.289  16.337  24.272  1.00  0.00     0.059 A 
HETATM   18  C7  UNL     1     -12.147  15.275  23.978  1.00  0.00     0.019 A 
HETATM   19  C11 UNL     1     -11.739  17.623  24.347  1.00  0.00     0.053 A 
HETATM   20  C8  UNL     1     -13.480  15.483  23.753  1.00  0.00     0.001 A 
HETATM   21  C9  UNL     1     -13.942  16.799  23.830  1.00  0.00     0.002 A 
HETATM   22  C10 UNL     1     -13.094  17.847  24.121  1.00  0.00     0.031 A 
ENDBRANCH  13  14
ENDBRANCH  12  13
ENDBRANCH  10  12
ENDBRANCH   4  10
BRANCH   1  23
HETATM   23  N1  UNL     1      -7.145  16.538  20.591  1.00  0.00    -0.234 N 
ATOM     24  H12 UNL     1      -7.394  16.900  19.671  1.00  0.00     0.174 HD
ATOM     25  H11 UNL     1      -7.374  15.566  20.797  1.00  0.00     0.174 HD
ENDBRANCH   1  23
BRANCH   7  26
HETATM   26  N6  UNL     1      -3.332  18.379  22.478  1.00  0.00    -0.131 N 
ATOM     27  H6  UNL     1      -2.852  18.546  23.362  1.00  0.00     0.205 HD
BRANCH  26  28
HETATM   28  N7  UNL     1      -2.610  18.343  21.300  1.00  0.00    -0.297 N 
HETATM   29  C13 UNL     1      -1.498  18.998  21.138  1.00  0.00     0.120 C 
ATOM     30  H7  UNL     1      -2.962  17.779  20.527  1.00  0.00     0.186 HD
BRANCH  29  31
HETATM   31  C14 UNL     1      -0.766  18.937  19.885  1.00  0.00    -0.004 A 
HETATM   32  C15 UNL     1       0.274  18.067  19.656  1.00  0.00     0.015 A 
HETATM   33  C16 UNL     1       0.938  18.048  18.449  1.00  0.00     0.018 A 
HETATM   34  C17 UNL     1       0.548  18.927  17.438  1.00  0.00     0.087 A 
HETATM   35  N8  UNL     1      -0.467  19.772  17.667  1.00  0.00    -0.374 N 
HETATM   36  C18 UNL     1      -1.125  19.792  18.864  1.00  0.00     0.100 A 
ATOM     37  H8  UNL     1      -0.755  20.416  16.930  1.00  0.00     0.164 HD
ENDBRANCH  29  31
ENDBRANCH  26  28
ENDBRANCH   7  26
TORSDOF 8
ENDMDL
MODEL 3
REMARK VINA RESULT: -7.166792836      4.349      9.317
REMARK  8 active torsions:
REMARK  status: ('A' for Active; 'I' for Inactive)
REMARK    1  A    between atoms: N1_1  and  C1_4 
REMARK    2  A    between atoms: C2_7  and  N3_8 
REMARK    3  A    between atoms: N3_8  and  C3_10 
REMARK    4  A    between atoms: C3_10  and  C4_11 
REMARK    5  A    between atoms: C4_11  and  N4_12 
REMARK    6  A    between atoms: C12_23  and  N6_24 
REMARK    7  A    between atoms: N6_24  and  N7_26 
REMARK    8  A    between atoms: C13_28  and  C14_29 
ROOT
HETATM    1  C1  UNL     1      -3.422  19.405  23.616  1.00  0.00     0.705 A 
HETATM    2  N2  UNL     1      -4.306  18.467  23.204  1.00  0.00    -0.022 N 
ATOM      3  H2  UNL     1      -5.138  18.289  23.767  1.00  0.00     0.203 HD
HETATM    4  C2  UNL     1      -4.120  17.766  22.076  1.00  0.00     0.707 A 
HETATM    5  N5  UNL     1      -3.017  18.018  21.349  1.00  0.00    -0.020 N 
ATOM      6  H5  UNL     1      -2.862  17.491  20.490  1.00  0.00     0.203 HD
HETATM    7  C12 UNL     1      -2.110  18.939  21.717  1.00  0.00     0.725 A 
HETATM    8  N9  UNL     1      -2.336  19.618  22.853  1.00  0.00    -0.020 N 
ATOM      9  H9  UNL     1      -1.659  20.321  23.148  1.00  0.00     0.203 HD
ENDROOT
BRANCH   4  10
HETATM   10  N3  UNL     1      -4.998  16.892  21.745  1.00  0.00    -0.224 N 
ATOM     11  H3  UNL     1      -4.738  16.122  21.129  1.00  0.00     0.177 HD
BRANCH  10  12
HETATM   12  C3  UNL     1      -6.332  16.988  22.229  1.00  0.00     0.158 C 
BRANCH  12  13
HETATM   13  C4  UNL     1      -7.333  17.392  21.179  1.00  0.00     0.153 C 
BRANCH  13  14
HETATM   14  N4  UNL     1      -7.617  18.834  21.296  1.00  0.00    -0.311 N 
HETATM   15  C5  UNL     1      -8.033  19.834  20.390  1.00  0.00     0.260 A 
HETATM   16  O1  UNL     1      -8.329  19.929  19.163  1.00  0.00    -0.267 OA
HETATM   17  C6  UNL     1      -7.997  20.793  21.479  1.00  0.00     0.059 A 
HETATM   18  C7  UNL     1      -8.180  22.105  21.919  1.00  0.00     0.019 A 
HETATM   19  C11 UNL     1      -7.594  19.801  22.324  1.00  0.00     0.053 A 
HETATM   20  C8  UNL     1      -7.962  22.449  23.225  1.00  0.00     0.001 A 
HETATM   21  C9  UNL     1      -7.549  21.435  24.093  1.00  0.00     0.002 A 
HETATM   22  C10 UNL     1      -7.370  20.139  23.656  1.00  0.00     0.031 A 
ENDBRANCH  13  14
ENDBRANCH  12  13
ENDBRANCH  10  12
ENDBRANCH   4  10
BRANCH   1  23
HETATM   23  N1  UNL     1      -3.649  20.058  24.718  1.00  0.00    -0.234 N 
ATOM     24  H12 UNL     1      -3.048  19.986  25.538  1.00  0.00     0.174 HD
ATOM     25  H11 UNL     1      -4.462  20.672  24.777  1.00  0.00     0.174 HD
ENDBRANCH   1  23
BRANCH   7  26
HETATM   26  N6  UNL     1      -1.053  19.155  20.986  1.00  0.00    -0.131 N 
ATOM     27  H6  UNL     1      -0.240  19.618  21.392  1.00  0.00     0.205 HD
BRANCH  26  28
HETATM   28  N7  UNL     1      -1.028  18.759  19.662  1.00  0.00    -0.297 N 
HETATM   29  C13 UNL     1      -0.654  19.550  18.700  1.00  0.00     0.120 C 
ATOM     30  H7  UNL     1      -1.314  17.808  19.430  1.00  0.00     0.186 HD
BRANCH  29  31
HETATM   31  C14 UNL     1      -0.641  19.098  17.318  1.00  0.00    -0.004 A 
HETATM   32  C15 UNL     1       0.428  18.456  16.741  1.00  0.00     0.015 A 
HETATM   33  C16 UNL     1       0.392  18.047  15.425  1.00  0.00     0.018 A 
HETATM   34  C17 UNL     1      -0.752  18.289  14.665  1.00  0.00     0.087 A 
HETATM   35  N8  UNL     1      -1.792  18.915  15.233  1.00  0.00    -0.374 N 
HETATM   36  C18 UNL     1      -1.755  19.321  16.537  1.00  0.00     0.100 A 
ATOM     37  H8  UNL     1      -2.630  19.093  14.679  1.00  0.00     0.164 HD
ENDBRANCH  29  31
ENDBRANCH  26  28
ENDBRANCH   7  26
TORSDOF 8
ENDMDL
MODEL 4
REMARK VINA RESULT: -7.132168276      4.149      9.786
REMARK  8 active torsions:
REMARK  status: ('A' for Active; 'I' for Inactive)
REMARK    1  A    between atoms: N1_1  and  C1_4 
REMARK    2  A    between atoms: C2_7  and  N3_8 
REMARK    3  A    between atoms: N3_8  and  C3_10 
REMARK    4  A    between atoms: C3_10  and  C4_11 
REMARK    5  A    between atoms: C4_11  and  N4_12 
REMARK    6  A    between atoms: C12_23  and  N6_24 
REMARK    7  A    between atoms: N6_24  and  N7_26 
REMARK    8  A    between atoms: C13_28  and  C14_29 
ROOT
HETATM    1  C1  UNL     1      -4.140  19.874  23.105  1.00  0.00     0.705 A 
HETATM    2  N2  UNL     1      -4.908  18.760  23.052  1.00  0.00    -0.022 N 
ATOM      3  H2  UNL     1      -5.779  18.733  23.581  1.00  0.00     0.203 HD
HETATM    4  C2  UNL     1      -4.554  17.691  22.322  1.00  0.00     0.707 A 
HETATM    5  N5  UNL     1      -3.401  17.750  21.633  1.00  0.00    -0.020 N 
ATOM      6  H5  UNL     1      -3.119  16.943  21.075  1.00  0.00     0.203 HD
HETATM    7  C12 UNL     1      -2.606  18.833  21.654  1.00  0.00     0.725 A 
HETATM    8  N9  UNL     1      -2.997  19.880  22.397  1.00  0.00    -0.020 N 
ATOM      9  H9  UNL     1      -2.407  20.711  22.425  1.00  0.00     0.203 HD
ENDROOT
BRANCH   4  10
HETATM   10  N3  UNL     1      -5.328  16.670  22.317  1.00  0.00    -0.224 N 
ATOM     11  H3  UNL     1      -4.929  15.732  22.371  1.00  0.00     0.177 HD
BRANCH  10  12
HETATM   12  C3  UNL     1      -6.739  16.831  22.236  1.00  0.00     0.158 C 
BRANCH  12  13
HETATM   13  C4  UNL     1      -7.228  17.231  20.869  1.00  0.00     0.153 C 
BRANCH  13  14
HETATM   14  N4  UNL     1      -8.314  18.220  21.004  1.00  0.00    -0.311 N 
HETATM   15  C5  UNL     1      -8.690  19.376  20.285  1.00  0.00     0.260 A 
HETATM   16  O1  UNL     1      -8.291  20.029  19.275  1.00  0.00    -0.267 OA
HETATM   17  C6  UNL     1      -9.797  19.552  21.205  1.00  0.00     0.059 A 
HETATM   18  C7  UNL     1     -10.911  20.293  21.603  1.00  0.00     0.019 A 
HETATM   19  C11 UNL     1      -9.403  18.431  21.876  1.00  0.00     0.053 A 
HETATM   20  C8  UNL     1     -11.658  19.921  22.687  1.00  0.00     0.001 A 
HETATM   21  C9  UNL     1     -11.256  18.773  23.376  1.00  0.00     0.002 A 
HETATM   22  C10 UNL     1     -10.155  18.043  22.981  1.00  0.00     0.031 A 
ENDBRANCH  13  14
ENDBRANCH  12  13
ENDBRANCH  10  12
ENDBRANCH   4  10
BRANCH   1  23
HETATM   23  N1  UNL     1      -4.529  20.883  23.827  1.00  0.00    -0.234 N 
ATOM     24  H12 UNL     1      -4.599  20.842  24.844  1.00  0.00     0.174 HD
ATOM     25  H11 UNL     1      -4.776  21.761  23.370  1.00  0.00     0.174 HD
ENDBRANCH   1  23
BRANCH   7  26
HETATM   26  N6  UNL     1      -1.495  18.852  20.972  1.00  0.00    -0.131 N 
ATOM     27  H6  UNL     1      -0.605  18.981  21.454  1.00  0.00     0.205 HD
BRANCH  26  28
HETATM   28  N7  UNL     1      -1.517  18.696  19.599  1.00  0.00    -0.297 N 
HETATM   29  C13 UNL     1      -0.539  19.082  18.833  1.00  0.00     0.120 C 
ATOM     30  H7  UNL     1      -2.333  18.261  19.169  1.00  0.00     0.186 HD
BRANCH  29  31
HETATM   31  C14 UNL     1      -0.598  18.903  17.393  1.00  0.00    -0.004 A 
HETATM   32  C15 UNL     1       0.404  18.310  16.661  1.00  0.00     0.015 A 
HETATM   33  C16 UNL     1       0.301  18.164  15.294  1.00  0.00     0.018 A 
HETATM   34  C17 UNL     1      -0.842  18.625  14.641  1.00  0.00     0.087 A 
HETATM   35  N8  UNL     1      -1.816  19.202  15.359  1.00  0.00    -0.374 N 
HETATM   36  C18 UNL     1      -1.712  19.347  16.714  1.00  0.00     0.100 A 
ATOM     37  H8  UNL     1      -2.652  19.539  14.884  1.00  0.00     0.164 HD
ENDBRANCH  29  31
ENDBRANCH  26  28
ENDBRANCH   7  26
TORSDOF 8
ENDMDL
MODEL 5
REMARK VINA RESULT: -7.118730254      4.431      9.292
REMARK  8 active torsions:
REMARK  status: ('A' for Active; 'I' for Inactive)
REMARK    1  A    between atoms: N1_1  and  C1_4 
REMARK    2  A    between atoms: C2_7  and  N3_8 
REMARK    3  A    between atoms: N3_8  and  C3_10 
REMARK    4  A    between atoms: C3_10  and  C4_11 
REMARK    5  A    between atoms: C4_11  and  N4_12 
REMARK    6  A    between atoms: C12_23  and  N6_24 
REMARK    7  A    between atoms: N6_24  and  N7_26 
REMARK    8  A    between atoms: C13_28  and  C14_29 
ROOT
HETATM    1  C1  UNL     1      -3.670  19.274  23.889  1.00  0.00     0.705 A 
HETATM    2  N2  UNL     1      -4.555  18.342  23.466  1.00  0.00    -0.022 N 
ATOM      3  H2  UNL     1      -5.365  18.128  24.048  1.00  0.00     0.203 HD
HETATM    4  C2  UNL     1      -4.398  17.691  22.304  1.00  0.00     0.707 A 
HETATM    5  N5  UNL     1      -3.322  17.990  21.553  1.00  0.00    -0.020 N 
ATOM      6  H5  UNL     1      -3.189  17.502  20.667  1.00  0.00     0.203 HD
HETATM    7  C12 UNL     1      -2.416  18.908  21.930  1.00  0.00     0.725 A 
HETATM    8  N9  UNL     1      -2.612  19.535  23.100  1.00  0.00    -0.020 N 
ATOM      9  H9  UNL     1      -1.935  20.235  23.403  1.00  0.00     0.203 HD
ENDROOT
BRANCH   4  10
HETATM   10  N3  UNL     1      -5.275  16.820  21.965  1.00  0.00    -0.224 N 
ATOM     11  H3  UNL     1      -5.156  15.847  22.247  1.00  0.00     0.177 HD
BRANCH  10  12
HETATM   12  C3  UNL     1      -6.412  17.198  21.198  1.00  0.00     0.158 C 
BRANCH  12  13
HETATM   13  C4  UNL     1      -7.300  18.204  21.883  1.00  0.00     0.153 C 
BRANCH  13  14
HETATM   14  N4  UNL     1      -7.330  19.451  21.097  1.00  0.00    -0.311 N 
HETATM   15  C5  UNL     1      -8.279  20.054  20.242  1.00  0.00     0.260 A 
HETATM   16  O1  UNL     1      -9.442  19.811  19.804  1.00  0.00    -0.267 OA
HETATM   17  C6  UNL     1      -7.351  21.150  20.036  1.00  0.00     0.059 A 
HETATM   18  C7  UNL     1      -7.065  22.373  19.425  1.00  0.00     0.019 A 
HETATM   19  C11 UNL     1      -6.459  20.537  20.867  1.00  0.00     0.053 A 
HETATM   20  C8  UNL     1      -5.872  23.008  19.637  1.00  0.00     0.001 A 
HETATM   21  C9  UNL     1      -4.957  22.381  20.488  1.00  0.00     0.002 A 
HETATM   22  C10 UNL     1      -5.242  21.174  21.091  1.00  0.00     0.031 A 
ENDBRANCH  13  14
ENDBRANCH  12  13
ENDBRANCH  10  12
ENDBRANCH   4  10
BRANCH   1  23
HETATM   23  N1  UNL     1      -3.869  19.876  25.024  1.00  0.00    -0.234 N 
ATOM     24  H12 UNL     1      -4.357  19.437  25.805  1.00  0.00     0.174 HD
ATOM     25  H11 UNL     1      -3.527  20.829  25.153  1.00  0.00     0.174 HD
ENDBRANCH   1  23
BRANCH   7  26
HETATM   26  N6  UNL     1      -1.386  19.170  21.175  1.00  0.00    -0.131 N 
ATOM     27  H6  UNL     1      -0.548  19.583  21.584  1.00  0.00     0.205 HD
BRANCH  26  28
HETATM   28  N7  UNL     1      -1.424  18.889  19.822  1.00  0.00    -0.297 N 
HETATM   29  C13 UNL     1      -0.520  19.317  18.991  1.00  0.00     0.120 C 
ATOM     30  H7  UNL     1      -2.192  18.324  19.461  1.00  0.00     0.186 HD
BRANCH  29  31
HETATM   31  C14 UNL     1      -0.593  19.002  17.574  1.00  0.00    -0.004 A 
HETATM   32  C15 UNL     1       0.411  18.364  16.886  1.00  0.00     0.015 A 
HETATM   33  C16 UNL     1       0.294  18.088  15.541  1.00  0.00     0.018 A 
HETATM   34  C17 UNL     1      -0.866  18.463  14.864  1.00  0.00     0.087 A 
HETATM   35  N8  UNL     1      -1.843  19.085  15.540  1.00  0.00    -0.374 N 
HETATM   36  C18 UNL     1      -1.726  19.359  16.873  1.00  0.00     0.100 A 
ATOM     37  H8  UNL     1      -2.693  19.359  15.047  1.00  0.00     0.164 HD
ENDBRANCH  29  31
ENDBRANCH  26  28
ENDBRANCH   7  26
TORSDOF 8
ENDMDL
