MODEL 1
REMARK VINA RESULT: -7.803692312      0.000      0.000
REMARK  8 active torsions:
REMARK  status: ('A' for Active; 'I' for Inactive)
REMARK    1  A    between atoms: O1_1  and  C1_3 
REMARK    2  A    between atoms: C3_7  and  N2_8 
REMARK    3  A    between atoms: N2_8  and  C4_10 
REMARK    4  A    between atoms: C4_10  and  C5_11 
REMARK    5  A    between atoms: C5_11  and  N3_12 
REMARK    6  A    between atoms: N3_12  and  C6_14 
REMARK    7  A    between atoms: C7_17  and  C8_18 
REMARK    8  A    between atoms: C12_24  and  N6_25 
ROOT
HETATM    1  C6  UNL     1     -13.415  15.579  24.362  1.00  0.00     0.678 A 
HETATM    2  N4  UNL     1     -13.660  14.976  23.195  1.00  0.00    -0.191 N 
ATOM      3  H4  UNL     1     -12.989  15.132  22.444  1.00  0.00     0.184 HD
HETATM    4  C7  UNL     1     -14.708  14.185  22.920  1.00  0.00     0.064 A 
HETATM    5  C17 UNL     1     -15.578  14.022  24.001  1.00  0.00     0.048 A 
HETATM    6  C18 UNL     1     -15.348  14.641  25.233  1.00  0.00     0.108 A 
HETATM    7  N8  UNL     1     -14.275  15.400  25.379  1.00  0.00    -0.202 N 
ATOM      8  H8  UNL     1     -14.099  15.854  26.275  1.00  0.00     0.183 HD
ENDROOT
BRANCH   1   9
HETATM    9  N3  UNL     1     -12.376  16.322  24.526  1.00  0.00    -0.221 N 
ATOM     10  H3  UNL     1     -12.481  17.290  24.831  1.00  0.00     0.178 HD
BRANCH   9  11
HETATM   11  C5  UNL     1     -11.048  15.772  24.272  1.00  0.00     0.183 C 
BRANCH  11  12
HETATM   12  C4  UNL     1      -9.987  16.811  24.401  1.00  0.00     0.099 C 
BRANCH  12  13
HETATM   13  N2  UNL     1      -8.791  16.462  23.778  1.00  0.00    -0.204 N 
ATOM     14  H2  UNL     1      -8.575  15.480  23.946  1.00  0.00     0.183 HD
BRANCH  13  15
HETATM   15  C3  UNL     1      -7.906  16.988  23.076  1.00  0.00     0.683 A 
HETATM   16  N1  UNL     1      -7.519  18.244  22.836  1.00  0.00    -0.198 N 
HETATM   17  C2  UNL     1      -6.477  18.267  21.971  1.00  0.00     0.162 A 
ATOM     18  H1  UNL     1      -7.949  19.072  23.248  1.00  0.00     0.183 HD
HETATM   19  C1  UNL     1      -6.207  16.961  21.662  1.00  0.00     0.171 A 
HETATM   20  N9  UNL     1      -7.062  16.202  22.323  1.00  0.00    -0.169 N 
ATOM     21  H9  UNL     1      -7.093  15.183  22.282  1.00  0.00     0.186 HD
BRANCH  19  22
HETATM   22  O1  UNL     1      -5.194  16.554  20.792  1.00  0.00    -0.345 OA
ATOM     23  H1  UNL     1      -5.013  15.648  20.570  1.00  0.00     0.219 HD
ENDBRANCH  19  22
ENDBRANCH  13  15
ENDBRANCH  12  13
ENDBRANCH  11  12
ENDBRANCH   9  11
ENDBRANCH   1   9
BRANCH   4  24
HETATM   24  C8  UNL     1     -14.947  13.527  21.649  1.00  0.00     0.035 A 
HETATM   25  C9  UNL     1     -14.293  12.337  21.380  1.00  0.00     0.019 A 
HETATM   26  C10 UNL     1     -14.525  11.680  20.172  1.00  0.00     0.018 A 
HETATM   27  C11 UNL     1     -15.392  12.205  19.258  1.00  0.00     0.089 A 
HETATM   28  N5  UNL     1     -16.010  13.339  19.523  1.00  0.00    -0.352 N 
HETATM   29  C12 UNL     1     -15.806  14.027  20.716  1.00  0.00     0.115 A 
ATOM     30  H5  UNL     1     -16.657  13.723  18.833  1.00  0.00     0.166 HD
BRANCH  29  31
HETATM   31  N6  UNL     1     -16.461  15.261  20.869  1.00  0.00    -0.363 N 
HETATM   32  C13 UNL     1     -15.854  16.524  20.526  1.00  0.00     0.143 C 
HETATM   33  C14 UNL     1     -16.661  17.073  19.340  1.00  0.00     0.133 C 
HETATM   34  N7  UNL     1     -18.069  17.096  19.647  1.00  0.00    -0.418 N 
HETATM   35  C15 UNL     1     -18.621  15.903  20.185  1.00  0.00     0.133 C 
ATOM     36  H7  UNL     1     -18.640  17.926  19.487  1.00  0.00     0.153 HD
HETATM   37  C16 UNL     1     -17.817  15.313  21.348  1.00  0.00     0.143 C 
ENDBRANCH  29  31
ENDBRANCH   4  24
TORSDOF 8
ENDMDL
MODEL 2
REMARK VINA RESULT: -6.972159228      2.907      4.517
REMARK  8 active torsions:
REMARK  status: ('A' for Active; 'I' for Inactive)
REMARK    1  A    between atoms: O1_1  and  C1_3 
REMARK    2  A    between atoms: C3_7  and  N2_8 
REMARK    3  A    between atoms: N2_8  and  C4_10 
REMARK    4  A    between atoms: C4_10  and  C5_11 
REMARK    5  A    between atoms: C5_11  and  N3_12 
REMARK    6  A    between atoms: N3_12  and  C6_14 
REMARK    7  A    between atoms: C7_17  and  C8_18 
REMARK    8  A    between atoms: C12_24  and  N6_25 
ROOT
HETATM    1  C6  UNL     1     -11.320  17.330  22.805  1.00  0.00     0.678 A 
HETATM    2  N4  UNL     1     -12.542  16.809  22.954  1.00  0.00    -0.191 N 
ATOM      3  H4  UNL     1     -13.280  17.183  22.359  1.00  0.00     0.184 HD
HETATM    4  C7  UNL     1     -12.887  15.840  23.814  1.00  0.00     0.064 A 
HETATM    5  C17 UNL     1     -11.820  15.382  24.591  1.00  0.00     0.048 A 
HETATM    6  C18 UNL     1     -10.532  15.909  24.458  1.00  0.00     0.108 A 
HETATM    7  N8  UNL     1     -10.318  16.865  23.571  1.00  0.00    -0.202 N 
ATOM      8  H8  UNL     1      -9.381  17.254  23.466  1.00  0.00     0.183 HD
ENDROOT
BRANCH   1   9
HETATM    9  N3  UNL     1     -11.090  18.262  21.947  1.00  0.00    -0.221 N 
ATOM     10  H3  UNL     1     -11.774  18.471  21.220  1.00  0.00     0.178 HD
BRANCH   9  11
HETATM   11  C5  UNL     1      -9.843  19.019  22.021  1.00  0.00     0.183 C 
BRANCH  11  12
HETATM   12  C4  UNL     1      -8.993  18.800  20.816  1.00  0.00     0.099 C 
BRANCH  12  13
HETATM   13  N2  UNL     1      -8.171  17.680  20.913  1.00  0.00    -0.204 N 
ATOM     14  H2  UNL     1      -8.509  16.937  20.302  1.00  0.00     0.183 HD
BRANCH  13  15
HETATM   15  C3  UNL     1      -7.148  17.311  21.521  1.00  0.00     0.683 A 
HETATM   16  N1  UNL     1      -6.917  16.579  22.614  1.00  0.00    -0.198 N 
HETATM   17  C2  UNL     1      -5.586  16.478  22.850  1.00  0.00     0.162 A 
ATOM     18  H1  UNL     1      -7.642  16.155  23.192  1.00  0.00     0.183 HD
HETATM   19  C1  UNL     1      -4.966  17.182  21.853  1.00  0.00     0.171 A 
HETATM   20  N9  UNL     1      -5.902  17.678  21.063  1.00  0.00    -0.169 N 
ATOM     21  H9  UNL     1      -5.728  18.248  20.235  1.00  0.00     0.186 HD
BRANCH  19  22
HETATM   22  O1  UNL     1      -3.583  17.323  21.736  1.00  0.00    -0.345 OA
ATOM     23  H1  UNL     1      -3.069  17.963  22.215  1.00  0.00     0.219 HD
ENDBRANCH  19  22
ENDBRANCH  13  15
ENDBRANCH  12  13
ENDBRANCH  11  12
ENDBRANCH   9  11
ENDBRANCH   1   9
BRANCH   4  24
HETATM   24  C8  UNL     1     -14.218  15.278  23.950  1.00  0.00     0.035 A 
HETATM   25  C9  UNL     1     -14.590  14.236  23.117  1.00  0.00     0.019 A 
HETATM   26  C10 UNL     1     -15.857  13.670  23.245  1.00  0.00     0.018 A 
HETATM   27  C11 UNL     1     -16.730  14.138  24.184  1.00  0.00     0.089 A 
HETATM   28  N5  UNL     1     -16.367  15.131  24.973  1.00  0.00    -0.352 N 
HETATM   29  C12 UNL     1     -15.111  15.725  24.877  1.00  0.00     0.115 A 
ATOM     30  H5  UNL     1     -17.026  15.473  25.673  1.00  0.00     0.166 HD
BRANCH  29  31
HETATM   31  N6  UNL     1     -14.851  16.821  25.717  1.00  0.00    -0.363 N 
HETATM   32  C13 UNL     1     -15.097  18.189  25.329  1.00  0.00     0.143 C 
HETATM   33  C14 UNL     1     -16.225  18.691  26.242  1.00  0.00     0.133 C 
HETATM   34  N7  UNL     1     -15.901  18.463  27.628  1.00  0.00    -0.418 N 
HETATM   35  C15 UNL     1     -15.455  17.157  27.968  1.00  0.00     0.133 C 
ATOM     36  H7  UNL     1     -15.987  19.200  28.327  1.00  0.00     0.153 HD
HETATM   37  C16 UNL     1     -14.353  16.615  27.052  1.00  0.00     0.143 C 
ENDBRANCH  29  31
ENDBRANCH   4  24
TORSDOF 8
ENDMDL
MODEL 3
REMARK VINA RESULT: -6.955784776      1.569      1.900
REMARK  8 active torsions:
REMARK  status: ('A' for Active; 'I' for Inactive)
REMARK    1  A    between atoms: O1_1  and  C1_3 
REMARK    2  A    between atoms: C3_7  and  N2_8 
REMARK    3  A    between atoms: N2_8  and  C4_10 
REMARK    4  A    between atoms: C4_10  and  C5_11 
REMARK    5  A    between atoms: C5_11  and  N3_12 
REMARK    6  A    between atoms: N3_12  and  C6_14 
REMARK    7  A    between atoms: C7_17  and  C8_18 
REMARK    8  A    between atoms: C12_24  and  N6_25 
ROOT
HETATM    1  C6  UNL     1     -11.751  15.384  24.602  1.00  0.00     0.678 A 
HETATM    2  N4  UNL     1     -12.525  15.090  23.552  1.00  0.00    -0.191 N 
ATOM      3  H4  UNL     1     -12.059  14.976  22.653  1.00  0.00     0.184 HD
HETATM    4  C7  UNL     1     -13.856  14.931  23.572  1.00  0.00     0.064 A 
HETATM    5  C17 UNL     1     -14.415  15.103  24.841  1.00  0.00     0.048 A 
HETATM    6  C18 UNL     1     -13.632  15.412  25.957  1.00  0.00     0.108 A 
HETATM    7  N8  UNL     1     -12.325  15.543  25.807  1.00  0.00    -0.202 N 
ATOM      8  H8  UNL     1     -11.745  15.767  26.616  1.00  0.00     0.183 HD
ENDROOT
BRANCH   1   9
HETATM    9  N3  UNL     1     -10.476  15.517  24.478  1.00  0.00    -0.221 N 
ATOM     10  H3  UNL     1      -9.896  14.708  24.256  1.00  0.00     0.178 HD
BRANCH   9  11
HETATM   11  C5  UNL     1      -9.867  16.831  24.657  1.00  0.00     0.183 C 
BRANCH  11  12
HETATM   12  C4  UNL     1     -10.113  17.718  23.484  1.00  0.00     0.099 C 
BRANCH  12  13
HETATM   13  N2  UNL     1      -9.190  17.544  22.454  1.00  0.00    -0.204 N 
ATOM     14  H2  UNL     1      -9.642  17.133  21.638  1.00  0.00     0.183 HD
BRANCH  13  15
HETATM   15  C3  UNL     1      -7.980  17.739  22.231  1.00  0.00     0.683 A 
HETATM   16  N1  UNL     1      -7.112  18.708  22.535  1.00  0.00    -0.198 N 
HETATM   17  C2  UNL     1      -5.885  18.424  22.038  1.00  0.00     0.162 A 
ATOM     18  H1  UNL     1      -7.343  19.546  23.069  1.00  0.00     0.183 HD
HETATM   19  C1  UNL     1      -6.000  17.221  21.395  1.00  0.00     0.171 A 
HETATM   20  N9  UNL     1      -7.252  16.816  21.513  1.00  0.00    -0.169 N 
ATOM     21  H9  UNL     1      -7.625  15.948  21.128  1.00  0.00     0.186 HD
BRANCH  19  22
HETATM   22  O1  UNL     1      -4.948  16.576  20.743  1.00  0.00    -0.345 OA
ATOM     23  H1  UNL     1      -4.099  16.409  21.135  1.00  0.00     0.219 HD
ENDBRANCH  19  22
ENDBRANCH  13  15
ENDBRANCH  12  13
ENDBRANCH  11  12
ENDBRANCH   9  11
ENDBRANCH   1   9
BRANCH   4  24
HETATM   24  C8  UNL     1     -14.676  14.596  22.423  1.00  0.00     0.035 A 
HETATM   25  C9  UNL     1     -14.700  13.284  21.980  1.00  0.00     0.019 A 
HETATM   26  C10 UNL     1     -15.496  12.940  20.889  1.00  0.00     0.018 A 
HETATM   27  C11 UNL     1     -16.249  13.888  20.258  1.00  0.00     0.089 A 
HETATM   28  N5  UNL     1     -16.219  15.135  20.686  1.00  0.00    -0.352 N 
HETATM   29  C12 UNL     1     -15.437  15.521  21.772  1.00  0.00     0.115 A 
ATOM     30  H5  UNL     1     -16.785  15.836  20.209  1.00  0.00     0.166 HD
BRANCH  29  31
HETATM   31  N6  UNL     1     -15.422  16.886  22.103  1.00  0.00    -0.363 N 
HETATM   32  C13 UNL     1     -14.383  17.792  21.678  1.00  0.00     0.143 C 
HETATM   33  C14 UNL     1     -15.052  18.782  20.713  1.00  0.00     0.133 C 
HETATM   34  N7  UNL     1     -16.216  19.377  21.319  1.00  0.00    -0.418 N 
HETATM   35  C15 UNL     1     -17.141  18.486  21.925  1.00  0.00     0.133 C 
ATOM     36  H7  UNL     1     -16.368  20.386  21.313  1.00  0.00     0.153 HD
HETATM   37  C16 UNL     1     -16.498  17.463  22.866  1.00  0.00     0.143 C 
ENDBRANCH  29  31
ENDBRANCH   4  24
TORSDOF 8
ENDMDL
MODEL 4
REMARK VINA RESULT: -6.933619656      1.798      3.664
REMARK  8 active torsions:
REMARK  status: ('A' for Active; 'I' for Inactive)
REMARK    1  A    between atoms: O1_1  and  C1_3 
REMARK    2  A    between atoms: C3_7  and  N2_8 
REMARK    3  A    between atoms: N2_8  and  C4_10 
REMARK    4  A    between atoms: C4_10  and  C5_11 
REMARK    5  A    between atoms: C5_11  and  N3_12 
REMARK    6  A    between atoms: N3_12  and  C6_14 
REMARK    7  A    between atoms: C7_17  and  C8_18 
REMARK    8  A    between atoms: C12_24  and  N6_25 
ROOT
HETATM    1  C6  UNL     1     -12.642  17.315  25.523  1.00  0.00     0.678 A 
HETATM    2  N4  UNL     1     -13.716  16.518  25.536  1.00  0.00    -0.191 N 
ATOM      3  H4  UNL     1     -13.600  15.595  25.952  1.00  0.00     0.184 HD
HETATM    4  C7  UNL     1     -14.929  16.819  25.053  1.00  0.00     0.064 A 
HETATM    5  C17 UNL     1     -15.003  18.101  24.501  1.00  0.00     0.048 A 
HETATM    6  C18 UNL     1     -13.898  18.957  24.473  1.00  0.00     0.108 A 
HETATM    7  N8  UNL     1     -12.752  18.541  24.983  1.00  0.00    -0.202 N 
ATOM      8  H8  UNL     1     -11.940  19.159  24.968  1.00  0.00     0.183 HD
ENDROOT
BRANCH   1   9
HETATM    9  N3  UNL     1     -11.517  16.930  26.015  1.00  0.00    -0.221 N 
ATOM     10  H3  UNL     1     -11.496  16.322  26.833  1.00  0.00     0.178 HD
BRANCH   9  11
HETATM   11  C5  UNL     1     -10.271  17.370  25.395  1.00  0.00     0.183 C 
BRANCH  11  12
HETATM   12  C4  UNL     1      -9.946  16.568  24.181  1.00  0.00     0.099 C 
BRANCH  12  13
HETATM   13  N2  UNL     1      -8.584  16.529  23.890  1.00  0.00    -0.204 N 
ATOM     14  H2  UNL     1      -8.103  15.891  24.523  1.00  0.00     0.183 HD
BRANCH  13  15
HETATM   15  C3  UNL     1      -7.776  17.039  23.090  1.00  0.00     0.683 A 
HETATM   16  N1  UNL     1      -7.521  18.284  22.677  1.00  0.00    -0.198 N 
HETATM   17  C2  UNL     1      -6.513  18.290  21.772  1.00  0.00     0.162 A 
ATOM     18  H1  UNL     1      -8.016  19.115  23.000  1.00  0.00     0.183 HD
HETATM   19  C1  UNL     1      -6.128  16.986  21.618  1.00  0.00     0.171 A 
HETATM   20  N9  UNL     1      -6.884  16.243  22.406  1.00  0.00    -0.169 N 
ATOM     21  H9  UNL     1      -6.818  15.229  22.495  1.00  0.00     0.186 HD
BRANCH  19  22
HETATM   22  O1  UNL     1      -5.108  16.565  20.763  1.00  0.00    -0.345 OA
ATOM     23  H1  UNL     1      -4.622  15.756  20.870  1.00  0.00     0.219 HD
ENDBRANCH  19  22
ENDBRANCH  13  15
ENDBRANCH  12  13
ENDBRANCH  11  12
ENDBRANCH   9  11
ENDBRANCH   1   9
BRANCH   4  24
HETATM   24  C8  UNL     1     -16.086  15.944  25.090  1.00  0.00     0.035 A 
HETATM   25  C9  UNL     1     -16.932  16.003  26.185  1.00  0.00     0.019 A 
HETATM   26  C10 UNL     1     -18.058  15.183  26.231  1.00  0.00     0.018 A 
HETATM   27  C11 UNL     1     -18.329  14.326  25.204  1.00  0.00     0.089 A 
HETATM   28  N5  UNL     1     -17.517  14.276  24.166  1.00  0.00    -0.352 N 
HETATM   29  C12 UNL     1     -16.381  15.077  24.081  1.00  0.00     0.115 A 
ATOM     30  H5  UNL     1     -17.728  13.632  23.403  1.00  0.00     0.166 HD
BRANCH  29  31
HETATM   31  N6  UNL     1     -15.546  14.896  22.966  1.00  0.00    -0.363 N 
HETATM   32  C13 UNL     1     -14.440  13.970  22.949  1.00  0.00     0.143 C 
HETATM   33  C14 UNL     1     -14.812  12.884  21.930  1.00  0.00     0.133 C 
HETATM   34  N7  UNL     1     -15.178  13.472  20.666  1.00  0.00    -0.418 N 
HETATM   35  C15 UNL     1     -16.121  14.534  20.711  1.00  0.00     0.133 C 
ATOM     36  H7  UNL     1     -14.780  13.144  19.786  1.00  0.00     0.153 HD
HETATM   37  C16 UNL     1     -15.794  15.616  21.744  1.00  0.00     0.143 C 
ENDBRANCH  29  31
ENDBRANCH   4  24
TORSDOF 8
ENDMDL
MODEL 5
REMARK VINA RESULT: -6.877949328      2.910      9.008
REMARK  8 active torsions:
REMARK  status: ('A' for Active; 'I' for Inactive)
REMARK    1  A    between atoms: O1_1  and  C1_3 
REMARK    2  A    between atoms: C3_7  and  N2_8 
REMARK    3  A    between atoms: N2_8  and  C4_10 
REMARK    4  A    between atoms: C4_10  and  C5_11 
REMARK    5  A    between atoms: C5_11  and  N3_12 
REMARK    6  A    between atoms: N3_12  and  C6_14 
REMARK    7  A    between atoms: C7_17  and  C8_18 
REMARK    8  A    between atoms: C12_24  and  N6_25 
ROOT
HETATM    1  C6  UNL     1     -11.386  16.670  23.526  1.00  0.00     0.678 A 
HETATM    2  N4  UNL     1     -10.588  17.309  22.664  1.00  0.00    -0.191 N 
ATOM      3  H4  UNL     1     -10.519  16.922  21.724  1.00  0.00     0.184 HD
HETATM    4  C7  UNL     1      -9.870  18.412  22.922  1.00  0.00     0.064 A 
HETATM    5  C17 UNL     1     -10.021  18.878  24.231  1.00  0.00     0.048 A 
HETATM    6  C18 UNL     1     -10.847  18.230  25.153  1.00  0.00     0.108 A 
HETATM    7  N8  UNL     1     -11.505  17.148  24.777  1.00  0.00    -0.202 N 
ATOM      8  H8  UNL     1     -12.111  16.669  25.443  1.00  0.00     0.183 HD
ENDROOT
BRANCH   1   9
HETATM    9  N3  UNL     1     -12.036  15.614  23.179  1.00  0.00    -0.221 N 
ATOM     10  H3  UNL     1     -11.683  15.017  22.431  1.00  0.00     0.178 HD
BRANCH   9  11
HETATM   11  C5  UNL     1     -13.280  15.276  23.863  1.00  0.00     0.183 C 
BRANCH  11  12
HETATM   12  C4  UNL     1     -14.470  15.795  23.131  1.00  0.00     0.099 C 
BRANCH  12  13
HETATM   13  N2  UNL     1     -15.218  14.796  22.511  1.00  0.00    -0.204 N 
ATOM     14  H2  UNL     1     -16.168  14.780  22.882  1.00  0.00     0.183 HD
BRANCH  13  15
HETATM   15  C3  UNL     1     -15.077  13.917  21.639  1.00  0.00     0.683 A 
HETATM   16  N1  UNL     1     -15.433  13.799  20.357  1.00  0.00    -0.198 N 
HETATM   17  C2  UNL     1     -15.025  12.609  19.855  1.00  0.00     0.162 A 
ATOM     18  H1  UNL     1     -15.942  14.507  19.829  1.00  0.00     0.183 HD
HETATM   19  C1  UNL     1     -14.385  11.961  20.877  1.00  0.00     0.171 A 
HETATM   20  N9  UNL     1     -14.419  12.745  21.939  1.00  0.00    -0.169 N 
ATOM     21  H9  UNL     1     -14.018  12.516  22.849  1.00  0.00     0.186 HD
BRANCH  19  22
HETATM   22  O1  UNL     1     -13.814  10.693  20.766  1.00  0.00    -0.345 OA
ATOM     23  H1  UNL     1     -13.019  10.424  21.210  1.00  0.00     0.219 HD
ENDBRANCH  19  22
ENDBRANCH  13  15
ENDBRANCH  12  13
ENDBRANCH  11  12
ENDBRANCH   9  11
ENDBRANCH   1   9
BRANCH   4  24
HETATM   24  C8  UNL     1      -9.021  19.099  21.967  1.00  0.00     0.035 A 
HETATM   25  C9  UNL     1      -9.615  19.826  20.948  1.00  0.00     0.019 A 
HETATM   26  C10 UNL     1      -8.816  20.508  20.032  1.00  0.00     0.018 A 
HETATM   27  C11 UNL     1      -7.456  20.463  20.135  1.00  0.00     0.089 A 
HETATM   28  N5  UNL     1      -6.900  19.768  21.108  1.00  0.00    -0.352 N 
HETATM   29  C12 UNL     1      -7.661  19.071  22.043  1.00  0.00     0.115 A 
ATOM     30  H5  UNL     1      -5.882  19.741  21.177  1.00  0.00     0.166 HD
BRANCH  29  31
HETATM   31  N6  UNL     1      -6.969  18.306  22.996  1.00  0.00    -0.363 N 
HETATM   32  C13 UNL     1      -6.693  16.899  22.831  1.00  0.00     0.143 C 
HETATM   33  C14 UNL     1      -5.168  16.778  22.700  1.00  0.00     0.133 C 
HETATM   34  N7  UNL     1      -4.507  17.439  23.797  1.00  0.00    -0.418 N 
HETATM   35  C15 UNL     1      -4.933  18.763  24.090  1.00  0.00     0.133 C 
ATOM     36  H7  UNL     1      -3.772  16.981  24.336  1.00  0.00     0.153 HD
HETATM   37  C16 UNL     1      -6.453  18.921  24.192  1.00  0.00     0.143 C 
ENDBRANCH  29  31
ENDBRANCH   4  24
TORSDOF 8
ENDMDL
