MODEL 1
REMARK VINA RESULT: -6.494632392      0.000      0.000
REMARK  6 active torsions:
REMARK  status: ('A' for Active; 'I' for Inactive)
REMARK    1  A    between atoms: N2_5  and  C4_6 
REMARK    2  A    between atoms: C4_6  and  C5_7 
REMARK    3  A    between atoms: C5_7  and  N3_8 
REMARK    4  A    between atoms: N5_13  and  C7_14 
REMARK    5  A    between atoms: C7_14  and  C8_15 
REMARK    6  A    between atoms: C16_26  and  N7_27 
ROOT
HETATM    1  N3  UNL     1     -12.902  17.392  23.262  1.00  0.00    -0.164 N 
HETATM    2  C6  UNL     1     -13.865  16.947  22.398  1.00  0.00     0.683 A 
HETATM    3  N4  UNL     1     -13.885  17.314  21.184  1.00  0.00    -0.234 N 
ATOM      4  H41 UNL     1     -14.603  16.982  20.539  1.00  0.00     0.174 HD
ATOM      5  H42 UNL     1     -13.246  17.955  20.714  1.00  0.00     0.174 HD
HETATM    6  N5  UNL     1     -14.706  16.104  23.016  1.00  0.00    -0.170 N 
HETATM    7  C14 UNL     1     -14.257  16.017  24.294  1.00  0.00     0.165 A 
HETATM    8  C15 UNL     1     -14.642  15.321  25.413  1.00  0.00     0.291 A 
HETATM    9  O1  UNL     1     -15.648  14.572  25.318  1.00  0.00    -0.265 OA
HETATM   10  N6  UNL     1     -13.983  15.401  26.609  1.00  0.00    -0.154 N 
ATOM     11  H6  UNL     1     -14.303  14.868  27.417  1.00  0.00     0.187 HD
HETATM   12  C16 UNL     1     -12.912  16.195  26.693  1.00  0.00     0.680 A 
HETATM   13  N8  UNL     1     -12.497  16.890  25.626  1.00  0.00    -0.174 N 
ATOM     14  H8  UNL     1     -11.677  17.489  25.711  1.00  0.00     0.186 HD
HETATM   15  C17 UNL     1     -13.141  16.819  24.436  1.00  0.00     0.172 A 
ENDROOT
BRANCH   1  16
HETATM   16  C5  UNL     1     -11.824  18.302  22.994  1.00  0.00     0.179 C 
BRANCH  16  17
HETATM   17  C4  UNL     1     -10.606  17.604  22.436  1.00  0.00     0.293 C 
BRANCH  17  18
HETATM   18  N2  UNL     1      -9.376  18.322  22.682  1.00  0.00     0.093 N 
HETATM   19  C3  UNL     1      -8.701  18.774  21.509  1.00  0.00     0.302 C 
HETATM   20  C2  UNL     1      -7.505  17.886  21.214  1.00  0.00     0.302 C 
HETATM   21  N1  UNL     1      -6.539  18.077  22.257  1.00  0.00     0.087 N 
HETATM   22  C1  UNL     1      -5.937  19.385  22.094  1.00  0.00     0.310 C 
HETATM   23  C19 UNL     1      -7.114  17.975  23.583  1.00  0.00     0.302 C 
HETATM   24  C18 UNL     1      -8.550  17.511  23.550  1.00  0.00     0.302 C 
ENDBRANCH  17  18
ENDBRANCH  16  17
ENDBRANCH   1  16
BRANCH   6  25
HETATM   25  C7  UNL     1     -15.825  15.423  22.438  1.00  0.00     0.186 C 
BRANCH  25  26
HETATM   26  C8  UNL     1     -15.508  14.274  21.565  1.00  0.00    -0.039 A 
HETATM   27  C9  UNL     1     -14.789  13.175  22.067  1.00  0.00     0.009 A 
HETATM   28  C10 UNL     1     -14.458  12.078  21.311  1.00  0.00     0.001 A 
HETATM   29  C11 UNL     1     -14.824  11.999  19.990  1.00  0.00     0.000 A 
HETATM   30  C12 UNL     1     -15.527  13.047  19.456  1.00  0.00     0.001 A 
HETATM   31  C13 UNL     1     -15.854  14.156  20.246  1.00  0.00     0.009 A 
ENDBRANCH  25  26
ENDBRANCH   6  25
BRANCH  12  32
HETATM   32  N7  UNL     1     -12.265  16.300  27.811  1.00  0.00    -0.234 N 
ATOM     33  H72 UNL     1     -11.797  15.481  28.197  1.00  0.00     0.174 HD
ATOM     34  H71 UNL     1     -12.224  17.195  28.298  1.00  0.00     0.174 HD
ENDBRANCH  12  32
TORSDOF 6
ENDMDL
MODEL 2
REMARK VINA RESULT: -6.195880117      3.653      6.348
REMARK  6 active torsions:
REMARK  status: ('A' for Active; 'I' for Inactive)
REMARK    1  A    between atoms: N2_5  and  C4_6 
REMARK    2  A    between atoms: C4_6  and  C5_7 
REMARK    3  A    between atoms: C5_7  and  N3_8 
REMARK    4  A    between atoms: N5_13  and  C7_14 
REMARK    5  A    between atoms: C7_14  and  C8_15 
REMARK    6  A    between atoms: C16_26  and  N7_27 
ROOT
HETATM    1  N3  UNL     1      -8.731  19.598  21.194  1.00  0.00    -0.164 N 
HETATM    2  C6  UNL     1      -9.734  19.620  22.125  1.00  0.00     0.683 A 
HETATM    3  N4  UNL     1     -10.706  20.430  22.031  1.00  0.00    -0.234 N 
ATOM      4  H41 UNL     1     -11.453  20.447  22.726  1.00  0.00     0.174 HD
ATOM      5  H42 UNL     1     -10.864  21.137  21.313  1.00  0.00     0.174 HD
HETATM    6  N5  UNL     1      -9.526  18.691  23.070  1.00  0.00    -0.170 N 
HETATM    7  C14 UNL     1      -8.370  18.070  22.720  1.00  0.00     0.165 A 
HETATM    8  C15 UNL     1      -7.628  17.036  23.235  1.00  0.00     0.291 A 
HETATM    9  O1  UNL     1      -8.045  16.486  24.287  1.00  0.00    -0.265 OA
HETATM   10  N6  UNL     1      -6.476  16.581  22.658  1.00  0.00    -0.154 N 
ATOM     11  H6  UNL     1      -5.953  15.810  23.074  1.00  0.00     0.187 HD
HETATM   12  C16 UNL     1      -6.049  17.170  21.536  1.00  0.00     0.680 A 
HETATM   13  N8  UNL     1      -6.742  18.180  20.996  1.00  0.00    -0.174 N 
ATOM     14  H8  UNL     1      -6.401  18.615  20.139  1.00  0.00     0.186 HD
HETATM   15  C17 UNL     1      -7.886  18.640  21.558  1.00  0.00     0.172 A 
ENDROOT
BRANCH   1  16
HETATM   16  C5  UNL     1      -8.583  20.429  20.033  1.00  0.00     0.179 C 
BRANCH  16  17
HETATM   17  C4  UNL     1      -7.852  21.717  20.336  1.00  0.00     0.293 C 
BRANCH  17  18
HETATM   18  N2  UNL     1      -6.503  21.741  19.816  1.00  0.00     0.093 N 
HETATM   19  C3  UNL     1      -5.480  21.567  20.795  1.00  0.00     0.302 C 
HETATM   20  C2  UNL     1      -4.820  22.898  21.108  1.00  0.00     0.302 C 
HETATM   21  N1  UNL     1      -4.104  23.327  19.941  1.00  0.00     0.087 N 
HETATM   22  C1  UNL     1      -2.934  22.488  19.784  1.00  0.00     0.310 C 
HETATM   23  C19 UNL     1      -4.905  23.266  18.735  1.00  0.00     0.302 C 
HETATM   24  C18 UNL     1      -6.350  22.942  19.024  1.00  0.00     0.302 C 
ENDBRANCH  17  18
ENDBRANCH  16  17
ENDBRANCH   1  16
BRANCH   6  25
HETATM   25  C7  UNL     1     -10.362  18.401  24.195  1.00  0.00     0.186 C 
BRANCH  25  26
HETATM   26  C8  UNL     1     -11.467  17.448  23.957  1.00  0.00    -0.039 A 
HETATM   27  C9  UNL     1     -11.309  16.085  24.264  1.00  0.00     0.009 A 
HETATM   28  C10 UNL     1     -12.292  15.147  24.065  1.00  0.00     0.001 A 
HETATM   29  C11 UNL     1     -13.510  15.505  23.542  1.00  0.00     0.000 A 
HETATM   30  C12 UNL     1     -13.710  16.824  23.229  1.00  0.00     0.001 A 
HETATM   31  C13 UNL     1     -12.693  17.764  23.440  1.00  0.00     0.009 A 
ENDBRANCH  25  26
ENDBRANCH   6  25
BRANCH  12  32
HETATM   32  N7  UNL     1      -4.959  16.769  20.964  1.00  0.00    -0.234 N 
ATOM     33  H72 UNL     1      -4.999  16.002  20.292  1.00  0.00     0.174 HD
ATOM     34  H71 UNL     1      -4.069  17.217  21.182  1.00  0.00     0.174 HD
ENDBRANCH  12  32
TORSDOF 6
ENDMDL
MODEL 3
REMARK VINA RESULT: -6.187312232      1.550      1.902
REMARK  6 active torsions:
REMARK  status: ('A' for Active; 'I' for Inactive)
REMARK    1  A    between atoms: N2_5  and  C4_6 
REMARK    2  A    between atoms: C4_6  and  C5_7 
REMARK    3  A    between atoms: C5_7  and  N3_8 
REMARK    4  A    between atoms: N5_13  and  C7_14 
REMARK    5  A    between atoms: C7_14  and  C8_15 
REMARK    6  A    between atoms: C16_26  and  N7_27 
ROOT
HETATM    1  N3  UNL     1     -14.001  17.458  23.267  1.00  0.00    -0.164 N 
HETATM    2  C6  UNL     1     -14.581  16.899  22.161  1.00  0.00     0.683 A 
HETATM    3  N4  UNL     1     -14.238  17.243  20.989  1.00  0.00    -0.234 N 
ATOM      4  H41 UNL     1     -14.670  16.826  20.165  1.00  0.00     0.174 HD
ATOM      5  H42 UNL     1     -13.546  17.942  20.720  1.00  0.00     0.174 HD
HETATM    6  N5  UNL     1     -15.492  15.980  22.515  1.00  0.00    -0.170 N 
HETATM    7  C14 UNL     1     -15.479  15.961  23.873  1.00  0.00     0.165 A 
HETATM    8  C15 UNL     1     -16.138  15.244  24.840  1.00  0.00     0.291 A 
HETATM    9  O1  UNL     1     -16.981  14.390  24.462  1.00  0.00    -0.265 OA
HETATM   10  N6  UNL     1     -15.918  15.414  26.179  1.00  0.00    -0.154 N 
ATOM     11  H6  UNL     1     -16.431  14.861  26.865  1.00  0.00     0.187 HD
HETATM   12  C16 UNL     1     -15.015  16.319  26.566  1.00  0.00     0.680 A 
HETATM   13  N8  UNL     1     -14.344  17.039  25.657  1.00  0.00    -0.174 N 
ATOM     14  H8  UNL     1     -13.658  17.724  25.973  1.00  0.00     0.186 HD
HETATM   15  C17 UNL     1     -14.553  16.881  24.328  1.00  0.00     0.172 A 
ENDROOT
BRANCH   1  16
HETATM   16  C5  UNL     1     -12.988  18.475  23.318  1.00  0.00     0.179 C 
BRANCH  16  17
HETATM   17  C4  UNL     1     -11.593  17.896  23.369  1.00  0.00     0.293 C 
BRANCH  17  18
HETATM   18  N2  UNL     1     -10.825  18.154  22.171  1.00  0.00     0.093 N 
HETATM   19  C3  UNL     1      -9.413  18.013  22.322  1.00  0.00     0.302 C 
HETATM   20  C2  UNL     1      -8.754  19.377  22.404  1.00  0.00     0.302 C 
HETATM   21  N1  UNL     1      -8.897  20.020  21.130  1.00  0.00     0.087 N 
HETATM   22  C1  UNL     1      -8.019  19.365  20.182  1.00  0.00     0.310 C 
HETATM   23  C19 UNL     1     -10.257  19.984  20.631  1.00  0.00     0.302 C 
HETATM   24  C18 UNL     1     -11.227  19.443  21.652  1.00  0.00     0.302 C 
ENDBRANCH  17  18
ENDBRANCH  16  17
ENDBRANCH   1  16
BRANCH   6  25
HETATM   25  C7  UNL     1     -16.289  15.174  21.641  1.00  0.00     0.186 C 
BRANCH  25  26
HETATM   26  C8  UNL     1     -15.631  13.975  21.080  1.00  0.00    -0.039 A 
HETATM   27  C9  UNL     1     -14.879  13.123  21.907  1.00  0.00     0.009 A 
HETATM   28  C10 UNL     1     -14.240  11.996  21.451  1.00  0.00     0.001 A 
HETATM   29  C11 UNL     1     -14.307  11.637  20.128  1.00  0.00     0.000 A 
HETATM   30  C12 UNL     1     -15.030  12.438  19.283  1.00  0.00     0.001 A 
HETATM   31  C13 UNL     1     -15.674  13.582  19.770  1.00  0.00     0.009 A 
ENDBRANCH  25  26
ENDBRANCH   6  25
BRANCH  12  32
HETATM   32  N7  UNL     1     -14.782  16.510  27.825  1.00  0.00    -0.234 N 
ATOM     33  H72 UNL     1     -13.888  16.219  28.219  1.00  0.00     0.174 HD
ATOM     34  H71 UNL     1     -15.488  16.950  28.417  1.00  0.00     0.174 HD
ENDBRANCH  12  32
TORSDOF 6
ENDMDL
MODEL 4
REMARK VINA RESULT: -6.149744193      1.802      2.611
REMARK  6 active torsions:
REMARK  status: ('A' for Active; 'I' for Inactive)
REMARK    1  A    between atoms: N2_5  and  C4_6 
REMARK    2  A    between atoms: C4_6  and  C5_7 
REMARK    3  A    between atoms: C5_7  and  N3_8 
REMARK    4  A    between atoms: N5_13  and  C7_14 
REMARK    5  A    between atoms: C7_14  and  C8_15 
REMARK    6  A    between atoms: C16_26  and  N7_27 
ROOT
HETATM    1  N3  UNL     1     -13.171  16.979  23.958  1.00  0.00    -0.164 N 
HETATM    2  C6  UNL     1     -13.305  15.636  23.730  1.00  0.00     0.683 A 
HETATM    3  N4  UNL     1     -12.293  14.874  23.663  1.00  0.00    -0.234 N 
ATOM      4  H41 UNL     1     -12.393  13.873  23.493  1.00  0.00     0.174 HD
ATOM      5  H42 UNL     1     -11.310  15.130  23.749  1.00  0.00     0.174 HD
HETATM    6  N5  UNL     1     -14.598  15.299  23.616  1.00  0.00    -0.170 N 
HETATM    7  C14 UNL     1     -15.290  16.456  23.782  1.00  0.00     0.165 A 
HETATM    8  C15 UNL     1     -16.619  16.798  23.806  1.00  0.00     0.291 A 
HETATM    9  O1  UNL     1     -17.461  15.880  23.629  1.00  0.00    -0.265 OA
HETATM   10  N6  UNL     1     -17.061  18.074  24.017  1.00  0.00    -0.154 N 
ATOM     11  H6  UNL     1     -18.059  18.286  24.026  1.00  0.00     0.187 HD
HETATM   12  C16 UNL     1     -16.156  19.038  24.210  1.00  0.00     0.680 A 
HETATM   13  N8  UNL     1     -14.847  18.750  24.199  1.00  0.00    -0.174 N 
ATOM     14  H8  UNL     1     -14.173  19.500  24.350  1.00  0.00     0.186 HD
HETATM   15  C17 UNL     1     -14.397  17.490  23.991  1.00  0.00     0.172 A 
ENDROOT
BRANCH   1  16
HETATM   16  C5  UNL     1     -11.961  17.732  24.134  1.00  0.00     0.179 C 
BRANCH  16  17
HETATM   17  C4  UNL     1     -11.395  18.228  22.823  1.00  0.00     0.293 C 
BRANCH  17  18
HETATM   18  N2  UNL     1     -10.105  17.656  22.508  1.00  0.00     0.093 N 
HETATM   19  C3  UNL     1      -9.341  17.241  23.640  1.00  0.00     0.302 C 
HETATM   20  C2  UNL     1      -8.238  18.244  23.926  1.00  0.00     0.302 C 
HETATM   21  N1  UNL     1      -7.297  18.195  22.844  1.00  0.00     0.087 N 
HETATM   22  C1  UNL     1      -6.552  16.956  22.937  1.00  0.00     0.310 C 
HETATM   23  C19 UNL     1      -7.931  18.278  21.543  1.00  0.00     0.302 C 
HETATM   24  C18 UNL     1      -9.406  18.581  21.643  1.00  0.00     0.302 C 
ENDBRANCH  17  18
ENDBRANCH  16  17
ENDBRANCH   1  16
BRANCH   6  25
HETATM   25  C7  UNL     1     -15.133  13.990  23.393  1.00  0.00     0.186 C 
BRANCH  25  26
HETATM   26  C8  UNL     1     -15.177  13.536  21.988  1.00  0.00    -0.039 A 
HETATM   27  C9  UNL     1     -14.485  12.378  21.592  1.00  0.00     0.009 A 
HETATM   28  C10 UNL     1     -14.482  11.902  20.303  1.00  0.00     0.001 A 
HETATM   29  C11 UNL     1     -15.175  12.552  19.312  1.00  0.00     0.000 A 
HETATM   30  C12 UNL     1     -15.866  13.686  19.652  1.00  0.00     0.001 A 
HETATM   31  C13 UNL     1     -15.855  14.153  20.972  1.00  0.00     0.009 A 
ENDBRANCH  25  26
ENDBRANCH   6  25
BRANCH  12  32
HETATM   32  N7  UNL     1     -16.537  20.259  24.408  1.00  0.00    -0.234 N 
ATOM     33  H72 UNL     1     -16.038  20.836  25.086  1.00  0.00     0.174 HD
ATOM     34  H71 UNL     1     -17.328  20.641  23.890  1.00  0.00     0.174 HD
ENDBRANCH  12  32
TORSDOF 6
ENDMDL
MODEL 5
REMARK VINA RESULT: -6.087079395      3.239      7.834
REMARK  6 active torsions:
REMARK  status: ('A' for Active; 'I' for Inactive)
REMARK    1  A    between atoms: N2_5  and  C4_6 
REMARK    2  A    between atoms: C4_6  and  C5_7 
REMARK    3  A    between atoms: C5_7  and  N3_8 
REMARK    4  A    between atoms: N5_13  and  C7_14 
REMARK    5  A    between atoms: C7_14  and  C8_15 
REMARK    6  A    between atoms: C16_26  and  N7_27 
ROOT
HETATM    1  N3  UNL     1     -10.209  17.924  23.434  1.00  0.00    -0.164 N 
HETATM    2  C6  UNL     1     -10.976  18.793  22.706  1.00  0.00     0.683 A 
HETATM    3  N4  UNL     1     -12.095  19.207  23.136  1.00  0.00    -0.234 N 
ATOM      4  H41 UNL     1     -12.667  19.855  22.594  1.00  0.00     0.174 HD
ATOM      5  H42 UNL     1     -12.558  18.963  24.012  1.00  0.00     0.174 HD
HETATM    6  N5  UNL     1     -10.368  19.114  21.555  1.00  0.00    -0.170 N 
HETATM    7  C14 UNL     1      -9.192  18.434  21.564  1.00  0.00     0.165 A 
HETATM    8  C15 UNL     1      -8.116  18.342  20.716  1.00  0.00     0.291 A 
HETATM    9  O1  UNL     1      -8.157  19.006  19.648  1.00  0.00    -0.265 OA
HETATM   10  N6  UNL     1      -7.017  17.575  20.981  1.00  0.00    -0.154 N 
ATOM     11  H6  UNL     1      -6.239  17.533  20.323  1.00  0.00     0.187 HD
HETATM   12  C16 UNL     1      -6.985  16.881  22.123  1.00  0.00     0.680 A 
HETATM   13  N8  UNL     1      -8.010  16.943  22.982  1.00  0.00    -0.174 N 
ATOM     14  H8  UNL     1      -7.965  16.407  23.848  1.00  0.00     0.186 HD
HETATM   15  C17 UNL     1      -9.105  17.699  22.731  1.00  0.00     0.172 A 
ENDROOT
BRANCH   1  16
HETATM   16  C5  UNL     1     -10.503  17.342  24.714  1.00  0.00     0.179 C 
BRANCH  16  17
HETATM   17  C4  UNL     1     -10.789  15.861  24.622  1.00  0.00     0.293 C 
BRANCH  17  18
HETATM   18  N2  UNL     1     -12.156  15.524  24.947  1.00  0.00     0.093 N 
HETATM   19  C3  UNL     1     -12.948  15.096  23.839  1.00  0.00     0.302 C 
HETATM   20  C2  UNL     1     -13.882  16.209  23.398  1.00  0.00     0.302 C 
HETATM   21  N1  UNL     1     -14.844  16.423  24.441  1.00  0.00     0.087 N 
HETATM   22  C1  UNL     1     -15.764  15.304  24.457  1.00  0.00     0.310 C 
HETATM   23  C19 UNL     1     -14.235  16.564  25.748  1.00  0.00     0.302 C 
HETATM   24  C18 UNL     1     -12.730  16.635  25.674  1.00  0.00     0.302 C 
ENDBRANCH  17  18
ENDBRANCH  16  17
ENDBRANCH   1  16
BRANCH   6  25
HETATM   25  C7  UNL     1     -10.849  20.006  20.543  1.00  0.00     0.186 C 
BRANCH  25  26
HETATM   26  C8  UNL     1     -10.644  21.448  20.796  1.00  0.00    -0.039 A 
HETATM   27  C9  UNL     1     -11.740  22.286  21.066  1.00  0.00     0.009 A 
HETATM   28  C10 UNL     1     -11.621  23.633  21.306  1.00  0.00     0.001 A 
HETATM   29  C11 UNL     1     -10.391  24.243  21.294  1.00  0.00     0.000 A 
HETATM   30  C12 UNL     1      -9.293  23.464  21.037  1.00  0.00     0.001 A 
HETATM   31  C13 UNL     1      -9.438  22.093  20.795  1.00  0.00     0.009 A 
ENDBRANCH  25  26
ENDBRANCH   6  25
BRANCH  12  32
HETATM   32  N7  UNL     1      -5.961  16.140  22.406  1.00  0.00    -0.234 N 
ATOM     33  H72 UNL     1      -5.851  15.779  23.353  1.00  0.00     0.174 HD
ATOM     34  H71 UNL     1      -5.273  15.918  21.686  1.00  0.00     0.174 HD
ENDBRANCH  12  32
TORSDOF 6
ENDMDL
