MODEL 1
REMARK VINA RESULT: -8.066155232      0.000      0.000
REMARK  8 active torsions:
REMARK  status: ('A' for Active; 'I' for Inactive)
REMARK    1  A    between atoms: C4_5  and  O2_6 
REMARK    2  A    between atoms: O2_6  and  C5_7 
REMARK    3  A    between atoms: C5_7  and  C6_8 
REMARK    4  A    between atoms: C6_8  and  C7_9 
REMARK    5  A    between atoms: C7_9  and  C8_10 
REMARK    6  A    between atoms: C8_10  and  C9_11 
REMARK    7  A    between atoms: C9_11  and  O3_12 
REMARK    8  A    between atoms: N1_14  and  O4_16 
ROOT
HETATM    1  O1  UNL     1     -16.156   8.903   1.783  1.00  0.00    -0.296 OA
HETATM    2  C1  UNL     1     -16.703   9.062   0.753  1.00  0.00     0.145 C 
HETATM    3  C2  UNL     1     -17.900   8.171   0.522  1.00  0.00     0.137 C 
HETATM    4  C3  UNL     1     -18.270   7.944  -0.934  1.00  0.00     0.047 C 
HETATM    5  C4  UNL     1     -19.046   8.926  -1.706  1.00  0.00     0.307 C 
HETATM    6  O5  UNL     1     -18.496   9.703  -2.701  1.00  0.00    -0.347 OA
HETATM    7  C10 UNL     1     -18.113  10.988  -2.511  1.00  0.00     0.148 C 
HETATM    8  C11 UNL     1     -18.457  11.252  -1.070  1.00  0.00     0.002 C 
HETATM    9  C12 UNL     1     -17.618  10.781  -0.219  1.00  0.00    -0.011 C 
HETATM   10  C13 UNL     1     -16.323  10.002  -0.250  1.00  0.00     0.044 C 
HETATM   11  C14 UNL     1     -15.594  11.241  -0.329  1.00  0.00     0.026 C 
HETATM   12  C15 UNL     1     -15.623  11.584  -1.834  1.00  0.00    -0.010 C 
HETATM   13  C16 UNL     1     -14.352  10.802  -2.303  1.00  0.00     0.005 C 
HETATM   14  C17 UNL     1     -14.275   9.517  -1.449  1.00  0.00     0.009 C 
HETATM   15  C18 UNL     1     -15.779   9.159  -1.258  1.00  0.00     0.028 C 
HETATM   16  C19 UNL     1     -15.875   7.621  -1.037  1.00  0.00     0.089 C 
HETATM   17  C20 UNL     1     -15.029   6.894  -2.080  1.00  0.00     0.027 C 
HETATM   18  C21 UNL     1     -15.936   5.716  -2.499  1.00  0.00     0.022 C 
HETATM   19  C22 UNL     1     -17.222   6.551  -2.652  1.00  0.00     0.123 C 
HETATM   20  N2  UNL     1     -17.184   7.296  -1.493  1.00  0.00    -0.378 N 
HETATM   21  C23 UNL     1     -16.744  11.509  -2.706  1.00  0.00     0.040 C 
ENDROOT
BRANCH   5  22
HETATM   22  O2  UNL     1     -19.929   8.181  -2.523  1.00  0.00    -0.356 OA
BRANCH  22  23
HETATM   23  C5  UNL     1     -20.710   7.277  -1.888  1.00  0.00     0.171 C 
BRANCH  23  24
HETATM   24  C6  UNL     1     -21.517   6.348  -2.760  1.00  0.00     0.027 C 
BRANCH  24  25
HETATM   25  C7  UNL     1     -20.515   5.278  -3.233  1.00  0.00     0.010 C 
BRANCH  25  26
HETATM   26  C8  UNL     1     -20.202   5.492  -4.689  1.00  0.00     0.086 C 
BRANCH  26  27
HETATM   27  C9  UNL     1     -19.682   4.229  -5.276  1.00  0.00     0.135 C 
HETATM   28  N1  UNL     1     -18.573   4.249  -5.905  1.00  0.00    -0.251 N 
ATOM     29  H1  UNL     1     -18.221   3.380  -6.305  1.00  0.00     0.196 HD
BRANCH  27  30
HETATM   30  O3  UNL     1     -20.371   3.036  -5.154  1.00  0.00    -0.348 OA
ATOM     31  H3  UNL     1     -20.675   2.557  -5.916  1.00  0.00     0.219 HD
ENDBRANCH  27  30
BRANCH  28  32
HETATM   32  O4  UNL     1     -17.840   5.386  -6.065  1.00  0.00    -0.288 OA
ATOM     33  H4  UNL     1     -16.895   5.377  -6.161  1.00  0.00     0.244 HD
ENDBRANCH  28  32
ENDBRANCH  26  27
ENDBRANCH  25  26
ENDBRANCH  24  25
ENDBRANCH  23  24
ENDBRANCH  22  23
ENDBRANCH   5  22
TORSDOF 8
ENDMDL
MODEL 2
REMARK VINA RESULT: -8.047602265      1.715      3.333
REMARK  8 active torsions:
REMARK  status: ('A' for Active; 'I' for Inactive)
REMARK    1  A    between atoms: C4_5  and  O2_6 
REMARK    2  A    between atoms: O2_6  and  C5_7 
REMARK    3  A    between atoms: C5_7  and  C6_8 
REMARK    4  A    between atoms: C6_8  and  C7_9 
REMARK    5  A    between atoms: C7_9  and  C8_10 
REMARK    6  A    between atoms: C8_10  and  C9_11 
REMARK    7  A    between atoms: C9_11  and  O3_12 
REMARK    8  A    between atoms: N1_14  and  O4_16 
ROOT
HETATM    1  O1  UNL     1     -17.481  11.396   1.005  1.00  0.00    -0.296 OA
HETATM    2  C1  UNL     1     -17.477  10.820  -0.022  1.00  0.00     0.145 C 
HETATM    3  C2  UNL     1     -16.663   9.549  -0.037  1.00  0.00     0.137 C 
HETATM    4  C3  UNL     1     -16.183   9.100  -1.407  1.00  0.00     0.047 C 
HETATM    5  C4  UNL     1     -17.055   8.371  -2.341  1.00  0.00     0.307 C 
HETATM    6  O5  UNL     1     -17.569   8.937  -3.486  1.00  0.00    -0.347 OA
HETATM    7  C10 UNL     1     -18.829   9.427  -3.569  1.00  0.00     0.148 C 
HETATM    8  C11 UNL     1     -19.402   9.166  -2.202  1.00  0.00     0.002 C 
HETATM    9  C12 UNL     1     -19.041  10.001  -1.296  1.00  0.00    -0.011 C 
HETATM   10  C13 UNL     1     -18.164  11.229  -1.203  1.00  0.00     0.044 C 
HETATM   11  C14 UNL     1     -19.297  12.048  -1.549  1.00  0.00     0.026 C 
HETATM   12  C15 UNL     1     -19.334  11.982  -3.091  1.00  0.00    -0.010 C 
HETATM   13  C16 UNL     1     -18.370  13.167  -3.426  1.00  0.00     0.005 C 
HETATM   14  C17 UNL     1     -17.278  13.181  -2.333  1.00  0.00     0.009 C 
HETATM   15  C18 UNL     1     -17.094  11.662  -2.034  1.00  0.00     0.028 C 
HETATM   16  C19 UNL     1     -15.644  11.457  -1.505  1.00  0.00     0.089 C 
HETATM   17  C20 UNL     1     -14.656  12.198  -2.401  1.00  0.00     0.027 C 
HETATM   18  C21 UNL     1     -13.500  11.185  -2.551  1.00  0.00     0.022 C 
HETATM   19  C22 UNL     1     -14.393   9.963  -2.836  1.00  0.00     0.123 C 
HETATM   20  N2  UNL     1     -15.347  10.108  -1.852  1.00  0.00    -0.378 N 
HETATM   21  C23 UNL     1     -19.182  10.822  -3.901  1.00  0.00     0.040 C 
ENDROOT
BRANCH   5  22
HETATM   22  O2  UNL     1     -16.240   7.399  -2.968  1.00  0.00    -0.356 OA
BRANCH  22  23
HETATM   23  C5  UNL     1     -16.649   6.114  -2.854  1.00  0.00     0.171 C 
BRANCH  23  24
HETATM   24  C6  UNL     1     -17.637   5.624  -3.883  1.00  0.00     0.027 C 
BRANCH  24  25
HETATM   25  C7  UNL     1     -18.944   5.395  -3.101  1.00  0.00     0.010 C 
BRANCH  25  26
HETATM   26  C8  UNL     1     -19.432   3.992  -3.338  1.00  0.00     0.086 C 
BRANCH  26  27
HETATM   27  C9  UNL     1     -19.969   3.880  -4.720  1.00  0.00     0.135 C 
HETATM   28  N1  UNL     1     -19.679   2.851  -5.415  1.00  0.00    -0.251 N 
ATOM     29  H1  UNL     1     -20.051   2.780  -6.362  1.00  0.00     0.196 HD
BRANCH  27  30
HETATM   30  O3  UNL     1     -20.773   4.863  -5.266  1.00  0.00    -0.348 OA
ATOM     31  H3  UNL     1     -21.428   4.662  -5.924  1.00  0.00     0.219 HD
ENDBRANCH  27  30
BRANCH  28  32
HETATM   32  O4  UNL     1     -18.893   1.843  -4.944  1.00  0.00    -0.288 OA
ATOM     33  H4  UNL     1     -18.669   1.082  -5.465  1.00  0.00     0.244 HD
ENDBRANCH  28  32
ENDBRANCH  26  27
ENDBRANCH  25  26
ENDBRANCH  24  25
ENDBRANCH  23  24
ENDBRANCH  22  23
ENDBRANCH   5  22
TORSDOF 8
ENDMDL
MODEL 3
REMARK VINA RESULT: -7.983260695      0.624      1.030
REMARK  8 active torsions:
REMARK  status: ('A' for Active; 'I' for Inactive)
REMARK    1  A    between atoms: C4_5  and  O2_6 
REMARK    2  A    between atoms: O2_6  and  C5_7 
REMARK    3  A    between atoms: C5_7  and  C6_8 
REMARK    4  A    between atoms: C6_8  and  C7_9 
REMARK    5  A    between atoms: C7_9  and  C8_10 
REMARK    6  A    between atoms: C8_10  and  C9_11 
REMARK    7  A    between atoms: C9_11  and  O3_12 
REMARK    8  A    between atoms: N1_14  and  O4_16 
ROOT
HETATM    1  O1  UNL     1     -16.423   9.103   1.589  1.00  0.00    -0.296 OA
HETATM    2  C1  UNL     1     -16.866   9.159   0.499  1.00  0.00     0.145 C 
HETATM    3  C2  UNL     1     -18.056   8.265   0.248  1.00  0.00     0.137 C 
HETATM    4  C3  UNL     1     -18.292   7.889  -1.205  1.00  0.00     0.047 C 
HETATM    5  C4  UNL     1     -18.969   8.794  -2.147  1.00  0.00     0.307 C 
HETATM    6  O5  UNL     1     -18.308   9.454  -3.159  1.00  0.00    -0.347 OA
HETATM    7  C10 UNL     1     -17.915  10.747  -3.069  1.00  0.00     0.148 C 
HETATM    8  C11 UNL     1     -18.387  11.166  -1.703  1.00  0.00     0.002 C 
HETATM    9  C12 UNL     1     -17.644  10.778  -0.731  1.00  0.00    -0.011 C 
HETATM   10  C13 UNL     1     -16.371   9.983  -0.555  1.00  0.00     0.044 C 
HETATM   11  C14 UNL     1     -15.609  11.196  -0.692  1.00  0.00     0.026 C 
HETATM   12  C15 UNL     1     -15.487  11.377  -2.220  1.00  0.00    -0.010 C 
HETATM   13  C16 UNL     1     -14.196  10.533  -2.480  1.00  0.00     0.005 C 
HETATM   14  C17 UNL     1     -14.230   9.345  -1.494  1.00  0.00     0.009 C 
HETATM   15  C18 UNL     1     -15.754   9.030  -1.412  1.00  0.00     0.028 C 
HETATM   16  C19 UNL     1     -15.906   7.525  -1.042  1.00  0.00     0.089 C 
HETATM   17  C20 UNL     1     -14.983   6.681  -1.917  1.00  0.00     0.027 C 
HETATM   18  C21 UNL     1     -15.874   5.477  -2.296  1.00  0.00     0.022 C 
HETATM   19  C22 UNL     1     -17.119   6.308  -2.659  1.00  0.00     0.123 C 
HETATM   20  N2  UNL     1     -17.173   7.171  -1.586  1.00  0.00    -0.378 N 
HETATM   21  C23 UNL     1     -16.522  11.225  -3.184  1.00  0.00     0.040 C 
ENDROOT
BRANCH   5  22
HETATM   22  O2  UNL     1     -19.788   7.979  -2.963  1.00  0.00    -0.356 OA
BRANCH  22  23
HETATM   23  C5  UNL     1     -20.790   7.321  -2.335  1.00  0.00     0.171 C 
BRANCH  23  24
HETATM   24  C6  UNL     1     -21.272   6.046  -2.980  1.00  0.00     0.027 C 
BRANCH  24  25
HETATM   25  C7  UNL     1     -20.350   5.844  -4.197  1.00  0.00     0.010 C 
BRANCH  25  26
HETATM   26  C8  UNL     1     -19.906   4.408  -4.257  1.00  0.00     0.086 C 
BRANCH  26  27
HETATM   27  C9  UNL     1     -19.105   4.188  -5.491  1.00  0.00     0.135 C 
HETATM   28  N1  UNL     1     -18.712   3.008  -5.772  1.00  0.00    -0.251 N 
ATOM     29  H1  UNL     1     -18.164   2.863  -6.620  1.00  0.00     0.196 HD
BRANCH  27  30
HETATM   30  O3  UNL     1     -18.779   5.231  -6.339  1.00  0.00    -0.348 OA
ATOM     31  H3  UNL     1     -17.974   5.230  -6.843  1.00  0.00     0.219 HD
ENDBRANCH  27  30
BRANCH  28  32
HETATM   32  O4  UNL     1     -18.995   1.933  -4.985  1.00  0.00    -0.288 OA
ATOM     33  H4  UNL     1     -18.342   1.515  -4.435  1.00  0.00     0.244 HD
ENDBRANCH  28  32
ENDBRANCH  26  27
ENDBRANCH  25  26
ENDBRANCH  24  25
ENDBRANCH  23  24
ENDBRANCH  22  23
ENDBRANCH   5  22
TORSDOF 8
ENDMDL
MODEL 4
REMARK VINA RESULT: -7.965427867      1.990      6.460
REMARK  8 active torsions:
REMARK  status: ('A' for Active; 'I' for Inactive)
REMARK    1  A    between atoms: C4_5  and  O2_6 
REMARK    2  A    between atoms: O2_6  and  C5_7 
REMARK    3  A    between atoms: C5_7  and  C6_8 
REMARK    4  A    between atoms: C6_8  and  C7_9 
REMARK    5  A    between atoms: C7_9  and  C8_10 
REMARK    6  A    between atoms: C8_10  and  C9_11 
REMARK    7  A    between atoms: C9_11  and  O3_12 
REMARK    8  A    between atoms: N1_14  and  O4_16 
ROOT
HETATM    1  O1  UNL     1     -19.889   6.791  -6.294  1.00  0.00    -0.296 OA
HETATM    2  C1  UNL     1     -19.338   6.800  -5.254  1.00  0.00     0.145 C 
HETATM    3  C2  UNL     1     -17.920   6.281  -5.280  1.00  0.00     0.137 C 
HETATM    4  C3  UNL     1     -17.393   5.763  -3.952  1.00  0.00     0.047 C 
HETATM    5  C4  UNL     1     -16.880   6.665  -2.909  1.00  0.00     0.307 C 
HETATM    6  O5  UNL     1     -17.557   6.918  -1.737  1.00  0.00    -0.347 OA
HETATM    7  C10 UNL     1     -18.310   8.027  -1.540  1.00  0.00     0.148 C 
HETATM    8  C11 UNL     1     -18.165   8.787  -2.831  1.00  0.00     0.002 C 
HETATM    9  C12 UNL     1     -18.892   8.355  -3.798  1.00  0.00    -0.011 C 
HETATM   10  C13 UNL     1     -19.899   7.251  -4.022  1.00  0.00     0.044 C 
HETATM   11  C14 UNL     1     -20.948   8.136  -3.590  1.00  0.00     0.026 C 
HETATM   12  C15 UNL     1     -20.908   8.020  -2.051  1.00  0.00    -0.010 C 
HETATM   13  C16 UNL     1     -21.859   6.793  -1.858  1.00  0.00     0.005 C 
HETATM   14  C17 UNL     1     -21.624   5.849  -3.058  1.00  0.00     0.009 C 
HETATM   15  C18 UNL     1     -20.098   6.029  -3.322  1.00  0.00     0.028 C 
HETATM   16  C19 UNL     1     -19.577   4.723  -3.991  1.00  0.00     0.089 C 
HETATM   17  C20 UNL     1     -20.096   3.508  -3.227  1.00  0.00     0.027 C 
HETATM   18  C21 UNL     1     -18.857   2.587  -3.163  1.00  0.00     0.022 C 
HETATM   19  C22 UNL     1     -17.862   3.686  -2.746  1.00  0.00     0.123 C 
HETATM   20  N2  UNL     1     -18.200   4.687  -3.630  1.00  0.00    -0.378 N 
HETATM   21  C23 UNL     1     -19.752   8.034  -1.222  1.00  0.00     0.040 C 
ENDROOT
BRANCH   5  22
HETATM   22  O2  UNL     1     -15.761   6.015  -2.337  1.00  0.00    -0.356 OA
BRANCH  22  23
HETATM   23  C5  UNL     1     -14.922   6.795  -1.617  1.00  0.00     0.171 C 
BRANCH  23  24
HETATM   24  C6  UNL     1     -14.132   7.826  -2.382  1.00  0.00     0.027 C 
BRANCH  24  25
HETATM   25  C7  UNL     1     -14.547   9.178  -1.771  1.00  0.00     0.010 C 
BRANCH  25  26
HETATM   26  C8  UNL     1     -14.740   9.020  -0.288  1.00  0.00     0.086 C 
BRANCH  26  27
HETATM   27  C9  UNL     1     -15.807   9.947   0.176  1.00  0.00     0.135 C 
HETATM   28  N1  UNL     1     -16.323   9.772   1.328  1.00  0.00    -0.251 N 
ATOM     29  H1  UNL     1     -17.053  10.412   1.640  1.00  0.00     0.196 HD
BRANCH  27  30
HETATM   30  O3  UNL     1     -16.250  10.993  -0.614  1.00  0.00    -0.348 OA
ATOM     31  H3  UNL     1     -17.092  10.963  -1.053  1.00  0.00     0.219 HD
ENDBRANCH  27  30
BRANCH  28  32
HETATM   32  O4  UNL     1     -15.937   8.764   2.159  1.00  0.00    -0.288 OA
ATOM     33  H4  UNL     1     -15.112   8.775   2.629  1.00  0.00     0.244 HD
ENDBRANCH  28  32
ENDBRANCH  26  27
ENDBRANCH  25  26
ENDBRANCH  24  25
ENDBRANCH  23  24
ENDBRANCH  22  23
ENDBRANCH   5  22
TORSDOF 8
ENDMDL
MODEL 5
REMARK VINA RESULT: -7.913282347      1.675      3.227
REMARK  8 active torsions:
REMARK  status: ('A' for Active; 'I' for Inactive)
REMARK    1  A    between atoms: C4_5  and  O2_6 
REMARK    2  A    between atoms: O2_6  and  C5_7 
REMARK    3  A    between atoms: C5_7  and  C6_8 
REMARK    4  A    between atoms: C6_8  and  C7_9 
REMARK    5  A    between atoms: C7_9  and  C8_10 
REMARK    6  A    between atoms: C8_10  and  C9_11 
REMARK    7  A    between atoms: C9_11  and  O3_12 
REMARK    8  A    between atoms: N1_14  and  O4_16 
ROOT
HETATM    1  O1  UNL     1     -17.481  11.343   1.017  1.00  0.00    -0.296 OA
HETATM    2  C1  UNL     1     -17.499  10.806  -0.031  1.00  0.00     0.145 C 
HETATM    3  C2  UNL     1     -16.721   9.514  -0.098  1.00  0.00     0.137 C 
HETATM    4  C3  UNL     1     -16.261   9.104  -1.487  1.00  0.00     0.047 C 
HETATM    5  C4  UNL     1     -17.157   8.434  -2.442  1.00  0.00     0.307 C 
HETATM    6  O5  UNL     1     -17.661   9.057  -3.562  1.00  0.00    -0.347 OA
HETATM    7  C10 UNL     1     -18.907   9.584  -3.619  1.00  0.00     0.148 C 
HETATM    8  C11 UNL     1     -19.480   9.289  -2.259  1.00  0.00     0.002 C 
HETATM    9  C12 UNL     1     -19.091  10.079  -1.325  1.00  0.00    -0.011 C 
HETATM   10  C13 UNL     1     -18.180  11.278  -1.192  1.00  0.00     0.044 C 
HETATM   11  C14 UNL     1     -19.291  12.140  -1.501  1.00  0.00     0.026 C 
HETATM   12  C15 UNL     1     -19.338  12.133  -3.043  1.00  0.00    -0.010 C 
HETATM   13  C16 UNL     1     -18.342  13.302  -3.340  1.00  0.00     0.005 C 
HETATM   14  C17 UNL     1     -17.245  13.245  -2.254  1.00  0.00     0.009 C 
HETATM   15  C18 UNL     1     -17.103  11.712  -2.013  1.00  0.00     0.028 C 
HETATM   16  C19 UNL     1     -15.656  11.446  -1.500  1.00  0.00     0.089 C 
HETATM   17  C20 UNL     1     -14.652  12.193  -2.375  1.00  0.00     0.027 C 
HETATM   18  C21 UNL     1     -13.526  11.154  -2.569  1.00  0.00     0.022 C 
HETATM   19  C22 UNL     1     -14.455   9.969  -2.893  1.00  0.00     0.123 C 
HETATM   20  N2  UNL     1     -15.399  10.104  -1.899  1.00  0.00    -0.378 N 
HETATM   21  C23 UNL     1     -19.223  11.000  -3.897  1.00  0.00     0.040 C 
ENDROOT
BRANCH   5  22
HETATM   22  O2  UNL     1     -16.373   7.463  -3.109  1.00  0.00    -0.356 OA
BRANCH  22  23
HETATM   23  C5  UNL     1     -16.678   6.170  -2.851  1.00  0.00     0.171 C 
BRANCH  23  24
HETATM   24  C6  UNL     1     -18.143   5.820  -2.780  1.00  0.00     0.027 C 
BRANCH  24  25
HETATM   25  C7  UNL     1     -18.206   4.313  -3.088  1.00  0.00     0.010 C 
BRANCH  25  26
HETATM   26  C8  UNL     1     -19.374   4.033  -3.994  1.00  0.00     0.086 C 
BRANCH  26  27
HETATM   27  C9  UNL     1     -18.962   3.078  -5.056  1.00  0.00     0.135 C 
HETATM   28  N1  UNL     1     -18.607   3.532  -6.193  1.00  0.00    -0.251 N 
ATOM     29  H1  UNL     1     -18.325   2.871  -6.917  1.00  0.00     0.196 HD
BRANCH  27  30
HETATM   30  O3  UNL     1     -18.954   1.712  -4.838  1.00  0.00    -0.348 OA
ATOM     31  H3  UNL     1     -18.294   1.150  -5.227  1.00  0.00     0.219 HD
ENDBRANCH  27  30
BRANCH  28  32
HETATM   32  O4  UNL     1     -18.591   4.863  -6.480  1.00  0.00    -0.288 OA
ATOM     33  H4  UNL     1     -19.339   5.429  -6.330  1.00  0.00     0.244 HD
ENDBRANCH  28  32
ENDBRANCH  26  27
ENDBRANCH  25  26
ENDBRANCH  24  25
ENDBRANCH  23  24
ENDBRANCH  22  23
ENDBRANCH   5  22
TORSDOF 8
ENDMDL
