MODEL 1
REMARK VINA RESULT: -6.955695670      0.000      0.000
REMARK  9 active torsions:
REMARK  status: ('A' for Active; 'I' for Inactive)
REMARK    1  A    between atoms: C2_2  and  O1_3 
REMARK    2  A    between atoms: O1_3  and  C3_4 
REMARK    3  A    between atoms: C3_4  and  C4_6 
REMARK    4  A    between atoms: C4_6  and  C5_7 
REMARK    5  A    between atoms: C9_14  and  O3_15 
REMARK    6  A    between atoms: O3_15  and  C10_16 
REMARK    7  A    between atoms: C10_16  and  C11_18 
REMARK    8  A    between atoms: C19_26  and  C20_27 
REMARK    9  A    between atoms: C23_30  and  O5_31 
ROOT
HETATM    1  C5  UNL     1     -18.171   4.696  -3.264  1.00  0.00     0.140 C 
HETATM    2  C6  UNL     1     -16.701   4.640  -3.208  1.00  0.00     0.085 C 
HETATM    3  C7  UNL     1     -16.067   5.620  -2.287  1.00  0.00    -0.006 C 
HETATM    4  N1  UNL     1     -14.871   5.493  -1.875  1.00  0.00    -0.405 N 
ATOM      5  H11 UNL     1     -14.436   6.166  -1.244  1.00  0.00     0.155 HD
ATOM      6  H12 UNL     1     -14.314   4.696  -2.180  1.00  0.00     0.155 HD
HETATM    7  C8  UNL     1     -16.868   6.766  -1.849  1.00  0.00     0.124 C 
HETATM    8  C9  UNL     1     -16.229   8.098  -1.910  1.00  0.00     0.151 C 
HETATM    9  C14 UNL     1     -17.310   9.087  -2.295  1.00  0.00     0.031 C 
HETATM   10  C15 UNL     1     -17.676   9.956  -1.145  1.00  0.00     0.009 C 
HETATM   11  C16 UNL     1     -19.149   9.791  -0.891  1.00  0.00     0.005 C 
HETATM   12  C17 UNL     1     -19.377   8.399  -1.474  1.00  0.00    -0.004 C 
HETATM   13  C18 UNL     1     -20.809   8.034  -1.550  1.00  0.00     0.011 C 
HETATM   14  C19 UNL     1     -18.545   8.260  -2.677  1.00  0.00     0.029 C 
HETATM   15  C23 UNL     1     -17.955   6.925  -2.925  1.00  0.00     0.182 C 
HETATM   16  O6  UNL     1     -18.766   5.850  -2.808  1.00  0.00    -0.347 OA
ENDROOT
BRANCH   1  17
HETATM   17  C4  UNL     1     -18.691   4.374  -4.649  1.00  0.00     0.143 C 
BRANCH  17  18
HETATM   18  C3  UNL     1     -19.540   3.159  -4.666  1.00  0.00     0.261 C 
HETATM   19  O2  UNL     1     -18.972   2.057  -4.879  1.00  0.00    -0.265 OA
BRANCH  18  20
HETATM   20  O1  UNL     1     -20.897   3.142  -4.468  1.00  0.00    -0.322 OA
BRANCH  20  21
HETATM   21  C2  UNL     1     -21.747   4.261  -4.579  1.00  0.00     0.174 C 
HETATM   22  C1  UNL     1     -22.094   4.877  -3.255  1.00  0.00     0.034 C 
ENDBRANCH  20  21
ENDBRANCH  18  20
ENDBRANCH  17  18
ENDBRANCH   1  17
BRANCH  15  23
HETATM   23  O5  UNL     1     -17.307   6.953  -4.168  1.00  0.00    -0.364 OA
ATOM     24  H5  UNL     1     -17.633   7.712  -4.638  1.00  0.00     0.213 HD
ENDBRANCH  15  23
BRANCH  14  25
HETATM   25  C20 UNL     1     -19.059   8.816  -3.953  1.00  0.00    -0.008 C 
HETATM   26  C21 UNL     1     -20.361   8.281  -4.443  1.00  0.00     0.010 C 
HETATM   27  C22 UNL     1     -19.152  10.322  -4.014  1.00  0.00     0.010 C 
ENDBRANCH  14  25
BRANCH   8  28
HETATM   28  O3  UNL     1     -15.690   8.392  -0.632  1.00  0.00    -0.314 OA
BRANCH  28  29
HETATM   29  C10 UNL     1     -14.389   8.731  -0.394  1.00  0.00     0.262 C 
HETATM   30  O4  UNL     1     -13.495   8.191  -1.122  1.00  0.00    -0.265 OA
BRANCH  29  31
HETATM   31  C11 UNL     1     -14.035   9.702   0.680  1.00  0.00     0.077 C 
HETATM   32  C12 UNL     1     -14.356  11.124   0.304  1.00  0.00     0.020 C 
HETATM   33  C13 UNL     1     -12.580   9.509   1.011  1.00  0.00     0.020 C 
ENDBRANCH  29  31
ENDBRANCH  28  29
ENDBRANCH   8  28
TORSDOF 9
ENDMDL
MODEL 2
REMARK VINA RESULT: -6.822718738      2.634      4.121
REMARK  9 active torsions:
REMARK  status: ('A' for Active; 'I' for Inactive)
REMARK    1  A    between atoms: C2_2  and  O1_3 
REMARK    2  A    between atoms: O1_3  and  C3_4 
REMARK    3  A    between atoms: C3_4  and  C4_6 
REMARK    4  A    between atoms: C4_6  and  C5_7 
REMARK    5  A    between atoms: C9_14  and  O3_15 
REMARK    6  A    between atoms: O3_15  and  C10_16 
REMARK    7  A    between atoms: C10_16  and  C11_18 
REMARK    8  A    between atoms: C19_26  and  C20_27 
REMARK    9  A    between atoms: C23_30  and  O5_31 
ROOT
HETATM    1  C5  UNL     1     -16.852   5.036  -1.843  1.00  0.00     0.140 C 
HETATM    2  C6  UNL     1     -15.626   5.842  -1.972  1.00  0.00     0.085 C 
HETATM    3  C7  UNL     1     -15.845   7.307  -2.089  1.00  0.00    -0.006 C 
HETATM    4  N1  UNL     1     -14.919   8.154  -1.879  1.00  0.00    -0.405 N 
ATOM      5  H11 UNL     1     -15.069   9.159  -1.960  1.00  0.00     0.155 HD
ATOM      6  H12 UNL     1     -13.988   7.829  -1.620  1.00  0.00     0.155 HD
HETATM    7  C8  UNL     1     -17.183   7.773  -2.461  1.00  0.00     0.124 C 
HETATM    8  C9  UNL     1     -17.269   8.805  -3.517  1.00  0.00     0.151 C 
HETATM    9  C14 UNL     1     -18.517   8.506  -4.322  1.00  0.00     0.031 C 
HETATM   10  C15 UNL     1     -19.578   9.515  -4.059  1.00  0.00     0.009 C 
HETATM   11  C16 UNL     1     -20.795   8.786  -3.558  1.00  0.00     0.005 C 
HETATM   12  C17 UNL     1     -20.147   7.534  -2.974  1.00  0.00    -0.004 C 
HETATM   13  C18 UNL     1     -21.135   6.508  -2.573  1.00  0.00     0.011 C 
HETATM   14  C19 UNL     1     -19.031   7.141  -3.845  1.00  0.00     0.029 C 
HETATM   15  C23 UNL     1     -17.835   6.579  -3.179  1.00  0.00     0.182 C 
HETATM   16  O6  UNL     1     -18.029   5.630  -2.237  1.00  0.00    -0.347 OA
ENDROOT
BRANCH   1  17
HETATM   17  C4  UNL     1     -16.713   3.692  -2.527  1.00  0.00     0.143 C 
BRANCH  17  18
HETATM   18  C3  UNL     1     -16.321   2.616  -1.584  1.00  0.00     0.261 C 
HETATM   19  O2  UNL     1     -17.226   1.841  -1.180  1.00  0.00    -0.265 OA
BRANCH  18  20
HETATM   20  O1  UNL     1     -15.050   2.400  -1.118  1.00  0.00    -0.322 OA
BRANCH  20  21
HETATM   21  C2  UNL     1     -14.038   1.708  -1.814  1.00  0.00     0.174 C 
HETATM   22  C1  UNL     1     -13.188   0.846  -0.926  1.00  0.00     0.034 C 
ENDBRANCH  20  21
ENDBRANCH  18  20
ENDBRANCH  17  18
ENDBRANCH   1  17
BRANCH  15  23
HETATM   23  O5  UNL     1     -16.938   6.152  -4.169  1.00  0.00    -0.364 OA
ATOM     24  H5  UNL     1     -16.120   5.942  -3.734  1.00  0.00     0.213 HD
ENDBRANCH  15  23
BRANCH  14  25
HETATM   25  C20 UNL     1     -19.336   6.347  -5.060  1.00  0.00    -0.008 C 
HETATM   26  C21 UNL     1     -20.377   5.288  -4.927  1.00  0.00     0.010 C 
HETATM   27  C22 UNL     1     -19.681   7.150  -6.291  1.00  0.00     0.010 C 
ENDBRANCH  14  25
BRANCH   8  28
HETATM   28  O3  UNL     1     -17.347  10.076  -2.892  1.00  0.00    -0.314 OA
BRANCH  28  29
HETATM   29  C10 UNL     1     -16.430  11.075  -3.042  1.00  0.00     0.262 C 
HETATM   30  O4  UNL     1     -15.243  10.744  -3.364  1.00  0.00    -0.265 OA
BRANCH  29  31
HETATM   31  C11 UNL     1     -16.810  12.502  -2.837  1.00  0.00     0.077 C 
HETATM   32  C12 UNL     1     -18.224  12.791  -3.266  1.00  0.00     0.020 C 
HETATM   33  C13 UNL     1     -15.804  13.354  -3.562  1.00  0.00     0.020 C 
ENDBRANCH  29  31
ENDBRANCH  28  29
ENDBRANCH   8  28
TORSDOF 9
ENDMDL
MODEL 3
REMARK VINA RESULT: -6.767779147      1.309      1.520
REMARK  9 active torsions:
REMARK  status: ('A' for Active; 'I' for Inactive)
REMARK    1  A    between atoms: C2_2  and  O1_3 
REMARK    2  A    between atoms: O1_3  and  C3_4 
REMARK    3  A    between atoms: C3_4  and  C4_6 
REMARK    4  A    between atoms: C4_6  and  C5_7 
REMARK    5  A    between atoms: C9_14  and  O3_15 
REMARK    6  A    between atoms: O3_15  and  C10_16 
REMARK    7  A    between atoms: C10_16  and  C11_18 
REMARK    8  A    between atoms: C19_26  and  C20_27 
REMARK    9  A    between atoms: C23_30  and  O5_31 
ROOT
HETATM    1  C5  UNL     1     -18.159   4.860  -3.284  1.00  0.00     0.140 C 
HETATM    2  C6  UNL     1     -16.740   5.032  -2.934  1.00  0.00     0.085 C 
HETATM    3  C7  UNL     1     -16.417   6.293  -2.216  1.00  0.00    -0.006 C 
HETATM    4  N1  UNL     1     -15.337   6.449  -1.563  1.00  0.00    -0.405 N 
ATOM      5  H11 UNL     1     -15.115   7.314  -1.071  1.00  0.00     0.155 HD
ATOM      6  H12 UNL     1     -14.658   5.689  -1.523  1.00  0.00     0.155 HD
HETATM    7  C8  UNL     1     -17.393   7.384  -2.274  1.00  0.00     0.124 C 
HETATM    8  C9  UNL     1     -16.876   8.736  -2.577  1.00  0.00     0.151 C 
HETATM    9  C14 UNL     1     -17.926   9.430  -3.421  1.00  0.00     0.031 C 
HETATM   10  C15 UNL     1     -18.615  10.497  -2.647  1.00  0.00     0.009 C 
HETATM   11  C16 UNL     1     -20.088  10.191  -2.646  1.00  0.00     0.005 C 
HETATM   12  C17 UNL     1     -20.056   8.679  -2.854  1.00  0.00    -0.004 C 
HETATM   13  C18 UNL     1     -21.397   8.104  -3.101  1.00  0.00     0.011 C 
HETATM   14  C19 UNL     1     -18.967   8.364  -3.789  1.00  0.00     0.029 C 
HETATM   15  C23 UNL     1     -18.222   7.109  -3.541  1.00  0.00     0.182 C 
HETATM   16  O6  UNL     1     -18.940   5.992  -3.288  1.00  0.00    -0.347 OA
ENDROOT
BRANCH   1  17
HETATM   17  C4  UNL     1     -18.326   4.128  -4.600  1.00  0.00     0.143 C 
BRANCH  17  18
HETATM   18  C3  UNL     1     -19.281   2.998  -4.502  1.00  0.00     0.261 C 
HETATM   19  O2  UNL     1     -18.876   1.863  -4.865  1.00  0.00    -0.265 OA
BRANCH  18  20
HETATM   20  O1  UNL     1     -20.571   3.092  -4.046  1.00  0.00    -0.322 OA
BRANCH  20  21
HETATM   21  C2  UNL     1     -21.536   4.000  -4.525  1.00  0.00     0.174 C 
HETATM   22  C1  UNL     1     -22.284   4.706  -3.432  1.00  0.00     0.034 C 
ENDBRANCH  20  21
ENDBRANCH  18  20
ENDBRANCH  17  18
ENDBRANCH   1  17
BRANCH  15  23
HETATM   23  O5  UNL     1     -17.317   6.917  -4.594  1.00  0.00    -0.364 OA
ATOM     24  H5  UNL     1     -17.739   7.227  -5.386  1.00  0.00     0.213 HD
ENDBRANCH  15  23
BRANCH  14  25
HETATM   25  C20 UNL     1     -19.229   8.500  -5.242  1.00  0.00    -0.008 C 
HETATM   26  C21 UNL     1     -19.840   7.327  -5.929  1.00  0.00     0.010 C 
HETATM   27  C22 UNL     1     -20.034   9.713  -5.646  1.00  0.00     0.010 C 
ENDBRANCH  14  25
BRANCH   8  28
HETATM   28  O3  UNL     1     -16.665   9.417  -1.351  1.00  0.00    -0.314 OA
BRANCH  28  29
HETATM   29  C10 UNL     1     -15.487   9.994  -0.973  1.00  0.00     0.262 C 
HETATM   30  O4  UNL     1     -14.408   9.400  -1.294  1.00  0.00    -0.265 OA
BRANCH  29  31
HETATM   31  C11 UNL     1     -15.471  11.277  -0.214  1.00  0.00     0.077 C 
HETATM   32  C12 UNL     1     -16.794  11.580   0.438  1.00  0.00     0.020 C 
HETATM   33  C13 UNL     1     -15.032  12.363  -1.157  1.00  0.00     0.020 C 
ENDBRANCH  29  31
ENDBRANCH  28  29
ENDBRANCH   8  28
TORSDOF 9
ENDMDL
MODEL 4
REMARK VINA RESULT: -6.712926732      2.442      4.724
REMARK  9 active torsions:
REMARK  status: ('A' for Active; 'I' for Inactive)
REMARK    1  A    between atoms: C2_2  and  O1_3 
REMARK    2  A    between atoms: O1_3  and  C3_4 
REMARK    3  A    between atoms: C3_4  and  C4_6 
REMARK    4  A    between atoms: C4_6  and  C5_7 
REMARK    5  A    between atoms: C9_14  and  O3_15 
REMARK    6  A    between atoms: O3_15  and  C10_16 
REMARK    7  A    between atoms: C10_16  and  C11_18 
REMARK    8  A    between atoms: C19_26  and  C20_27 
REMARK    9  A    between atoms: C23_30  and  O5_31 
ROOT
HETATM    1  C5  UNL     1     -17.617   7.718  -3.021  1.00  0.00     0.140 C 
HETATM    2  C6  UNL     1     -18.569   7.701  -1.898  1.00  0.00     0.085 C 
HETATM    3  C7  UNL     1     -18.473   8.861  -0.973  1.00  0.00    -0.006 C 
HETATM    4  N1  UNL     1     -19.408   9.169  -0.168  1.00  0.00    -0.405 N 
ATOM      5  H11 UNL     1     -19.343   9.965   0.467  1.00  0.00     0.155 HD
ATOM      6  H12 UNL     1     -20.259   8.608  -0.144  1.00  0.00     0.155 HD
HETATM    7  C8  UNL     1     -17.251   9.667  -1.008  1.00  0.00     0.124 C 
HETATM    8  C9  UNL     1     -16.630  10.008   0.290  1.00  0.00     0.151 C 
HETATM    9  C14 UNL     1     -15.130   9.993   0.077  1.00  0.00     0.031 C 
HETATM   10  C15 UNL     1     -14.572  11.372   0.106  1.00  0.00     0.009 C 
HETATM   11  C16 UNL     1     -13.867  11.613  -1.200  1.00  0.00     0.005 C 
HETATM   12  C17 UNL     1     -14.607  10.628  -2.101  1.00  0.00    -0.004 C 
HETATM   13  C18 UNL     1     -13.987  10.492  -3.437  1.00  0.00     0.011 C 
HETATM   14  C19 UNL     1     -14.891   9.415  -1.324  1.00  0.00     0.029 C 
HETATM   15  C23 UNL     1     -16.178   8.736  -1.598  1.00  0.00     0.182 C 
HETATM   16  O6  UNL     1     -16.519   8.536  -2.891  1.00  0.00    -0.347 OA
ENDROOT
BRANCH   1  17
HETATM   17  C4  UNL     1     -17.164   6.322  -3.392  1.00  0.00     0.143 C 
BRANCH  17  18
HETATM   18  C3  UNL     1     -17.912   5.774  -4.550  1.00  0.00     0.261 C 
HETATM   19  O2  UNL     1     -17.517   6.096  -5.701  1.00  0.00    -0.265 OA
BRANCH  18  20
HETATM   20  O1  UNL     1     -19.001   4.944  -4.465  1.00  0.00    -0.322 OA
BRANCH  20  21
HETATM   21  C2  UNL     1     -20.343   5.354  -4.586  1.00  0.00     0.174 C 
HETATM   22  C1  UNL     1     -21.321   4.216  -4.525  1.00  0.00     0.034 C 
ENDBRANCH  20  21
ENDBRANCH  18  20
ENDBRANCH  17  18
ENDBRANCH   1  17
BRANCH  15  23
HETATM   23  O5  UNL     1     -16.214   7.543  -0.862  1.00  0.00    -0.364 OA
ATOM     24  H5  UNL     1     -16.312   6.832  -1.484  1.00  0.00     0.213 HD
ENDBRANCH  15  23
BRANCH  14  25
HETATM   25  C20 UNL     1     -13.818   8.399  -1.194  1.00  0.00    -0.008 C 
HETATM   26  C21 UNL     1     -13.163   7.947  -2.454  1.00  0.00     0.010 C 
HETATM   27  C22 UNL     1     -12.713   8.743  -0.223  1.00  0.00     0.010 C 
ENDBRANCH  14  25
BRANCH   8  28
HETATM   28  O3  UNL     1     -17.086  11.293   0.678  1.00  0.00    -0.314 OA
BRANCH  28  29
HETATM   29  C10 UNL     1     -17.913  12.084  -0.066  1.00  0.00     0.262 C 
HETATM   30  O4  UNL     1     -19.147  12.109   0.248  1.00  0.00    -0.265 OA
BRANCH  29  31
HETATM   31  C11 UNL     1     -17.385  12.887  -1.205  1.00  0.00     0.077 C 
HETATM   32  C12 UNL     1     -16.867  14.233  -0.773  1.00  0.00     0.020 C 
HETATM   33  C13 UNL     1     -18.476  12.995  -2.235  1.00  0.00     0.020 C 
ENDBRANCH  29  31
ENDBRANCH  28  29
ENDBRANCH   8  28
TORSDOF 9
ENDMDL
MODEL 5
REMARK VINA RESULT: -6.675018019      3.486      5.408
REMARK  9 active torsions:
REMARK  status: ('A' for Active; 'I' for Inactive)
REMARK    1  A    between atoms: C2_2  and  O1_3 
REMARK    2  A    between atoms: O1_3  and  C3_4 
REMARK    3  A    between atoms: C3_4  and  C4_6 
REMARK    4  A    between atoms: C4_6  and  C5_7 
REMARK    5  A    between atoms: C9_14  and  O3_15 
REMARK    6  A    between atoms: O3_15  and  C10_16 
REMARK    7  A    between atoms: C10_16  and  C11_18 
REMARK    8  A    between atoms: C19_26  and  C20_27 
REMARK    9  A    between atoms: C23_30  and  O5_31 
ROOT
HETATM    1  C5  UNL     1     -20.440  10.466  -5.840  1.00  0.00     0.140 C 
HETATM    2  C6  UNL     1     -20.261  11.484  -4.792  1.00  0.00     0.085 C 
HETATM    3  C7  UNL     1     -19.157  11.215  -3.835  1.00  0.00    -0.006 C 
HETATM    4  N1  UNL     1     -18.661  12.123  -3.093  1.00  0.00    -0.405 N 
ATOM      5  H11 UNL     1     -17.904  11.938  -2.436  1.00  0.00     0.155 HD
ATOM      6  H12 UNL     1     -19.026  13.073  -3.147  1.00  0.00     0.155 HD
HETATM    7  C8  UNL     1     -18.633   9.850  -3.758  1.00  0.00     0.124 C 
HETATM    8  C9  UNL     1     -18.445   9.274  -2.409  1.00  0.00     0.151 C 
HETATM    9  C14 UNL     1     -18.781   7.800  -2.510  1.00  0.00     0.031 C 
HETATM   10  C15 UNL     1     -17.555   6.964  -2.404  1.00  0.00     0.009 C 
HETATM   11  C16 UNL     1     -17.461   6.123  -3.648  1.00  0.00     0.005 C 
HETATM   12  C17 UNL     1     -18.255   6.984  -4.626  1.00  0.00    -0.004 C 
HETATM   13  C18 UNL     1     -18.511   6.305  -5.915  1.00  0.00     0.011 C 
HETATM   14  C19 UNL     1     -19.385   7.581  -3.903  1.00  0.00     0.029 C 
HETATM   15  C23 UNL     1     -19.769   8.958  -4.289  1.00  0.00     0.182 C 
HETATM   16  O6  UNL     1     -19.880   9.232  -5.609  1.00  0.00    -0.347 OA
ENDROOT
BRANCH   1  17
HETATM   17  C4  UNL     1     -21.898  10.295  -6.212  1.00  0.00     0.143 C 
BRANCH  17  18
HETATM   18  C3  UNL     1     -22.153  10.572  -7.646  1.00  0.00     0.261 C 
HETATM   19  O2  UNL     1     -22.912  11.537  -7.925  1.00  0.00    -0.265 OA
BRANCH  18  20
HETATM   20  O1  UNL     1     -21.627   9.859  -8.693  1.00  0.00    -0.322 OA
BRANCH  20  21
HETATM   21  C2  UNL     1     -22.318   9.521  -9.873  1.00  0.00     0.174 C 
HETATM   22  C1  UNL     1     -21.776   8.296 -10.550  1.00  0.00     0.034 C 
ENDBRANCH  20  21
ENDBRANCH  18  20
ENDBRANCH  17  18
ENDBRANCH   1  17
BRANCH  15  23
HETATM   23  O5  UNL     1     -20.931   9.307  -3.588  1.00  0.00    -0.364 OA
ATOM     24  H5  UNL     1     -21.659   8.875  -4.019  1.00  0.00     0.213 HD
ENDBRANCH  15  23
BRANCH  14  25
HETATM   25  C20 UNL     1     -20.610   6.764  -3.718  1.00  0.00    -0.008 C 
HETATM   26  C21 UNL     1     -20.614   5.409  -4.339  1.00  0.00     0.010 C 
HETATM   27  C22 UNL     1     -21.067   6.594  -2.288  1.00  0.00     0.010 C 
ENDBRANCH  14  25
BRANCH   8  28
HETATM   28  O3  UNL     1     -17.094   9.473  -2.024  1.00  0.00    -0.314 OA
BRANCH  28  29
HETATM   29  C10 UNL     1     -16.694  10.138  -0.902  1.00  0.00     0.262 C 
HETATM   30  O4  UNL     1     -17.260  11.248  -0.639  1.00  0.00    -0.265 OA
BRANCH  29  31
HETATM   31  C11 UNL     1     -15.633   9.578  -0.017  1.00  0.00     0.077 C 
HETATM   32  C12 UNL     1     -14.672   8.687  -0.759  1.00  0.00     0.020 C 
HETATM   33  C13 UNL     1     -16.312   8.868   1.122  1.00  0.00     0.020 C 
ENDBRANCH  29  31
ENDBRANCH  28  29
ENDBRANCH   8  28
TORSDOF 9
ENDMDL
