MODEL 1
REMARK VINA RESULT: -8.311603364      0.000      0.000
REMARK  8 active torsions:
REMARK  status: ('A' for Active; 'I' for Inactive)
REMARK    1  A    between atoms: C8_8  and  C9_9 
REMARK    2  A    between atoms: C10_10  and  C11_11 
REMARK    3  A    between atoms: C11_11  and  C12_12 
REMARK    4  A    between atoms: C18_21  and  C19_22 
REMARK    5  A    between atoms: C19_22  and  N1_23 
REMARK    6  A    between atoms: N1_23  and  O4_24 
REMARK    7  A    between atoms: N1_23  and  C20_26 
REMARK    8  A    between atoms: C22_29  and  O6_30 
ROOT
HETATM    1  C1  UNL     1     -16.905   8.470  -2.647  1.00  0.00     0.017 C 
HETATM    2  C2  UNL     1     -18.198   8.737  -2.504  1.00  0.00    -0.060 C 
HETATM    3  C3  UNL     1     -18.659  10.128  -2.425  1.00  0.00     0.036 C 
HETATM    4  C4  UNL     1     -19.934  10.453  -3.129  1.00  0.00     0.007 C 
HETATM    5  C5  UNL     1     -19.691  10.885  -4.567  1.00  0.00     0.040 C 
HETATM    6  C6  UNL     1     -20.596  10.112  -5.522  1.00  0.00     0.078 A 
HETATM    7  C7  UNL     1     -22.005   9.866  -5.194  1.00  0.00     0.051 A 
HETATM    8  C8  UNL     1     -21.636  10.874  -6.247  1.00  0.00     0.046 A 
HETATM    9  O1  UNL     1     -19.909   9.115  -6.209  1.00  0.00    -0.307 OA
HETATM   10  C14 UNL     1     -19.249   8.033  -5.711  1.00  0.00     0.289 C 
HETATM   11  O2  UNL     1     -18.028   7.830  -6.041  1.00  0.00    -0.262 OA
HETATM   12  C15 UNL     1     -19.834   7.016  -4.780  1.00  0.00     0.229 C 
HETATM   13  O3  UNL     1     -19.946   5.829  -5.530  1.00  0.00    -0.370 OA
HETATM   14  C16 UNL     1     -18.964   4.973  -5.018  1.00  0.00     0.128 C 
HETATM   15  C17 UNL     1     -18.841   3.648  -5.549  1.00  0.00     0.040 C 
HETATM   16  C18 UNL     1     -19.041   5.217  -3.534  1.00  0.00     0.065 C 
HETATM   17  C21 UNL     1     -18.925   6.723  -3.613  1.00  0.00     0.069 C 
HETATM   18  C22 UNL     1     -19.102   7.526  -2.417  1.00  0.00     0.154 C 
ENDROOT
BRANCH   8  19
HETATM   19  C9  UNL     1     -22.014  10.505  -7.641  1.00  0.00    -0.023 C 
HETATM   20  C10 UNL     1     -23.184  10.892  -8.124  1.00  0.00    -0.030 C 
BRANCH  20  21
HETATM   21  C11 UNL     1     -23.580  10.539  -9.500  1.00  0.00     0.026 C 
BRANCH  21  22
HETATM   22  C12 UNL     1     -22.592   9.574 -10.104  1.00  0.00    -0.001 C 
HETATM   23  C13 UNL     1     -22.907   9.417 -11.599  1.00  0.00     0.005 C 
ENDBRANCH  21  22
ENDBRANCH  20  21
ENDBRANCH   8  19
BRANCH  18  24
HETATM   24  O6  UNL     1     -18.625   6.855  -1.276  1.00  0.00    -0.391 OA
ATOM     25  H6  UNL     1     -18.840   5.946  -1.456  1.00  0.00     0.210 HD
ENDBRANCH  18  24
BRANCH  16  26
HETATM   26  C19 UNL     1     -20.104   4.635  -2.753  1.00  0.00     0.106 C 
BRANCH  26  27
HETATM   27  N1  UNL     1     -21.469   4.739  -3.051  1.00  0.00    -0.214 N 
BRANCH  27  28
HETATM   28  O4  UNL     1     -22.134   5.874  -2.594  1.00  0.00    -0.281 OA
ATOM     29  H4  UNL     1     -23.013   6.023  -2.923  1.00  0.00     0.245 HD
ENDBRANCH  27  28
BRANCH  27  30
HETATM   30  C20 UNL     1     -22.316   3.848  -3.736  1.00  0.00     0.380 C 
HETATM   31  O5  UNL     1     -22.941   2.969  -3.110  1.00  0.00    -0.281 OA
ENDBRANCH  27  30
ENDBRANCH  26  27
ENDBRANCH  16  26
TORSDOF 8
ENDMDL
MODEL 2
REMARK VINA RESULT: -7.318640640      3.472      5.366
REMARK  8 active torsions:
REMARK  status: ('A' for Active; 'I' for Inactive)
REMARK    1  A    between atoms: C8_8  and  C9_9 
REMARK    2  A    between atoms: C10_10  and  C11_11 
REMARK    3  A    between atoms: C11_11  and  C12_12 
REMARK    4  A    between atoms: C18_21  and  C19_22 
REMARK    5  A    between atoms: C19_22  and  N1_23 
REMARK    6  A    between atoms: N1_23  and  O4_24 
REMARK    7  A    between atoms: N1_23  and  C20_26 
REMARK    8  A    between atoms: C22_29  and  O6_30 
ROOT
HETATM    1  C1  UNL     1     -16.478   7.985  -0.527  1.00  0.00     0.017 C 
HETATM    2  C2  UNL     1     -17.353   8.946  -0.260  1.00  0.00    -0.060 C 
HETATM    3  C3  UNL     1     -16.988  10.048   0.641  1.00  0.00     0.036 C 
HETATM    4  C4  UNL     1     -17.474  11.409   0.267  1.00  0.00     0.007 C 
HETATM    5  C5  UNL     1     -16.477  12.141  -0.617  1.00  0.00     0.040 C 
HETATM    6  C6  UNL     1     -17.170  12.713  -1.850  1.00  0.00     0.078 A 
HETATM    7  C7  UNL     1     -18.480  13.366  -1.745  1.00  0.00     0.051 A 
HETATM    8  C8  UNL     1     -17.241  14.186  -1.974  1.00  0.00     0.046 A 
HETATM    9  O1  UNL     1     -16.911  11.966  -2.996  1.00  0.00    -0.307 OA
HETATM   10  C14 UNL     1     -17.200  10.659  -3.248  1.00  0.00     0.289 C 
HETATM   11  O2  UNL     1     -16.267   9.868  -3.627  1.00  0.00    -0.262 OA
HETATM   12  C15 UNL     1     -18.555  10.033  -3.122  1.00  0.00     0.229 C 
HETATM   13  O3  UNL     1     -18.963   9.737  -4.438  1.00  0.00    -0.370 OA
HETATM   14  C16 UNL     1     -18.898   8.342  -4.539  1.00  0.00     0.128 C 
HETATM   15  C17 UNL     1     -19.296   7.709  -5.762  1.00  0.00     0.040 C 
HETATM   16  C18 UNL     1     -19.431   7.879  -3.210  1.00  0.00     0.065 C 
HETATM   17  C21 UNL     1     -18.512   8.731  -2.364  1.00  0.00     0.069 C 
HETATM   18  C22 UNL     1     -18.704   8.795  -0.926  1.00  0.00     0.154 C 
ENDROOT
BRANCH   8  19
HETATM   19  C9  UNL     1     -17.149  14.840  -3.312  1.00  0.00    -0.023 C 
HETATM   20  C10 UNL     1     -16.261  15.801  -3.507  1.00  0.00    -0.030 C 
BRANCH  20  21
HETATM   21  C11 UNL     1     -16.150  16.463  -4.820  1.00  0.00     0.026 C 
BRANCH  21  22
HETATM   22  C12 UNL     1     -17.434  16.315  -5.597  1.00  0.00    -0.001 C 
HETATM   23  C13 UNL     1     -17.922  17.711  -6.012  1.00  0.00     0.005 C 
ENDBRANCH  21  22
ENDBRANCH  20  21
ENDBRANCH   8  19
BRANCH  18  24
HETATM   24  O6  UNL     1     -19.173   7.569  -0.418  1.00  0.00    -0.391 OA
ATOM     25  H6  UNL     1     -18.545   6.942  -0.760  1.00  0.00     0.210 HD
ENDBRANCH  18  24
BRANCH  16  26
HETATM   26  C19 UNL     1     -20.848   7.898  -2.944  1.00  0.00     0.106 C 
BRANCH  26  27
HETATM   27  N1  UNL     1     -21.587   6.816  -2.448  1.00  0.00    -0.214 N 
BRANCH  27  28
HETATM   28  O4  UNL     1     -22.109   6.939  -1.163  1.00  0.00    -0.281 OA
ATOM     29  H4  UNL     1     -22.587   7.736  -0.963  1.00  0.00     0.245 HD
ENDBRANCH  27  28
BRANCH  27  30
HETATM   30  C20 UNL     1     -21.880   5.574  -3.040  1.00  0.00     0.380 C 
HETATM   31  O5  UNL     1     -21.002   4.692  -3.119  1.00  0.00    -0.281 OA
ENDBRANCH  27  30
ENDBRANCH  26  27
ENDBRANCH  16  26
TORSDOF 8
ENDMDL
MODEL 3
REMARK VINA RESULT: -7.315039511      3.787      7.006
REMARK  8 active torsions:
REMARK  status: ('A' for Active; 'I' for Inactive)
REMARK    1  A    between atoms: C8_8  and  C9_9 
REMARK    2  A    between atoms: C10_10  and  C11_11 
REMARK    3  A    between atoms: C11_11  and  C12_12 
REMARK    4  A    between atoms: C18_21  and  C19_22 
REMARK    5  A    between atoms: C19_22  and  N1_23 
REMARK    6  A    between atoms: N1_23  and  O4_24 
REMARK    7  A    between atoms: N1_23  and  C20_26 
REMARK    8  A    between atoms: C22_29  and  O6_30 
ROOT
HETATM    1  C1  UNL     1     -20.727   8.034  -1.524  1.00  0.00     0.017 C 
HETATM    2  C2  UNL     1     -20.030   8.641  -2.477  1.00  0.00    -0.060 C 
HETATM    3  C3  UNL     1     -20.009  10.107  -2.555  1.00  0.00     0.036 C 
HETATM    4  C4  UNL     1     -18.706  10.741  -2.912  1.00  0.00     0.007 C 
HETATM    5  C5  UNL     1     -17.871  11.050  -1.679  1.00  0.00     0.040 C 
HETATM    6  C6  UNL     1     -16.450  10.520  -1.845  1.00  0.00     0.078 A 
HETATM    7  C7  UNL     1     -15.732  10.670  -3.116  1.00  0.00     0.051 A 
HETATM    8  C8  UNL     1     -15.355  11.512  -1.928  1.00  0.00     0.046 A 
HETATM    9  O1  UNL     1     -16.232   9.356  -1.114  1.00  0.00    -0.307 OA
HETATM   10  C14 UNL     1     -16.859   8.151  -1.217  1.00  0.00     0.289 C 
HETATM   11  O2  UNL     1     -17.381   7.620  -0.174  1.00  0.00    -0.262 OA
HETATM   12  C15 UNL     1     -17.003   7.356  -2.477  1.00  0.00     0.229 C 
HETATM   13  O3  UNL     1     -16.185   6.221  -2.309  1.00  0.00    -0.370 OA
HETATM   14  C16 UNL     1     -17.070   5.149  -2.144  1.00  0.00     0.128 C 
HETATM   15  C17 UNL     1     -16.546   3.824  -1.988  1.00  0.00     0.040 C 
HETATM   16  C18 UNL     1     -18.156   5.447  -3.144  1.00  0.00     0.065 C 
HETATM   17  C21 UNL     1     -18.413   6.864  -2.682  1.00  0.00     0.069 C 
HETATM   18  C22 UNL     1     -19.310   7.720  -3.438  1.00  0.00     0.154 C 
ENDROOT
BRANCH   8  19
HETATM   19  C9  UNL     1     -14.018  11.217  -1.337  1.00  0.00    -0.023 C 
HETATM   20  C10 UNL     1     -13.740  11.633  -0.113  1.00  0.00    -0.030 C 
BRANCH  20  21
HETATM   21  C11 UNL     1     -12.425  11.353   0.494  1.00  0.00     0.026 C 
BRANCH  21  22
HETATM   22  C12 UNL     1     -12.218   9.868   0.645  1.00  0.00    -0.001 C 
HETATM   23  C13 UNL     1     -12.872   9.410   1.958  1.00  0.00     0.005 C 
ENDBRANCH  21  22
ENDBRANCH  20  21
ENDBRANCH   8  19
BRANCH  18  24
HETATM   24  O6  UNL     1     -20.359   6.979  -4.014  1.00  0.00    -0.391 OA
ATOM     25  H6  UNL     1     -20.979   7.651  -4.273  1.00  0.00     0.210 HD
ENDBRANCH  18  24
BRANCH  16  26
HETATM   26  C19 UNL     1     -17.945   5.194  -4.548  1.00  0.00     0.106 C 
BRANCH  26  27
HETATM   27  N1  UNL     1     -18.690   4.295  -5.322  1.00  0.00    -0.214 N 
BRANCH  27  28
HETATM   28  O4  UNL     1     -18.773   4.551  -6.688  1.00  0.00    -0.281 OA
ATOM     29  H4  UNL     1     -19.633   4.497  -7.089  1.00  0.00     0.245 HD
ENDBRANCH  27  28
BRANCH  27  30
HETATM   30  C20 UNL     1     -19.415   3.152  -4.936  1.00  0.00     0.380 C 
HETATM   31  O5  UNL     1     -18.907   2.019  -5.047  1.00  0.00    -0.281 OA
ENDBRANCH  27  30
ENDBRANCH  26  27
ENDBRANCH  16  26
TORSDOF 8
ENDMDL
MODEL 4
REMARK VINA RESULT: -7.274659848      1.102      1.328
REMARK  8 active torsions:
REMARK  status: ('A' for Active; 'I' for Inactive)
REMARK    1  A    between atoms: C8_8  and  C9_9 
REMARK    2  A    between atoms: C10_10  and  C11_11 
REMARK    3  A    between atoms: C11_11  and  C12_12 
REMARK    4  A    between atoms: C18_21  and  C19_22 
REMARK    5  A    between atoms: C19_22  and  N1_23 
REMARK    6  A    between atoms: N1_23  and  O4_24 
REMARK    7  A    between atoms: N1_23  and  C20_26 
REMARK    8  A    between atoms: C22_29  and  O6_30 
ROOT
HETATM    1  C1  UNL     1     -17.013   8.500  -2.554  1.00  0.00     0.017 C 
HETATM    2  C2  UNL     1     -18.318   8.720  -2.451  1.00  0.00    -0.060 C 
HETATM    3  C3  UNL     1     -18.826  10.089  -2.300  1.00  0.00     0.036 C 
HETATM    4  C4  UNL     1     -20.080  10.424  -3.037  1.00  0.00     0.007 C 
HETATM    5  C5  UNL     1     -19.791  10.958  -4.432  1.00  0.00     0.040 C 
HETATM    6  C6  UNL     1     -20.631  10.225  -5.474  1.00  0.00     0.078 A 
HETATM    7  C7  UNL     1     -22.043   9.918  -5.225  1.00  0.00     0.051 A 
HETATM    8  C8  UNL     1     -21.663  11.004  -6.192  1.00  0.00     0.046 A 
HETATM    9  O1  UNL     1     -19.885   9.296  -6.194  1.00  0.00    -0.307 OA
HETATM   10  C14 UNL     1     -19.212   8.202  -5.740  1.00  0.00     0.289 C 
HETATM   11  O2  UNL     1     -17.973   8.057  -6.029  1.00  0.00    -0.262 OA
HETATM   12  C15 UNL     1     -19.804   7.109  -4.904  1.00  0.00     0.229 C 
HETATM   13  O3  UNL     1     -19.847   5.972  -5.735  1.00  0.00    -0.370 OA
HETATM   14  C16 UNL     1     -18.860   5.113  -5.237  1.00  0.00     0.128 C 
HETATM   15  C17 UNL     1     -18.674   3.830  -5.848  1.00  0.00     0.040 C 
HETATM   16  C18 UNL     1     -19.007   5.254  -3.745  1.00  0.00     0.065 C 
HETATM   17  C21 UNL     1     -18.935   6.765  -3.720  1.00  0.00     0.069 C 
HETATM   18  C22 UNL     1     -19.187   7.481  -2.483  1.00  0.00     0.154 C 
ENDROOT
BRANCH   8  19
HETATM   19  C9  UNL     1     -21.970  10.718  -7.623  1.00  0.00    -0.023 C 
HETATM   20  C10 UNL     1     -23.215  10.825  -8.057  1.00  0.00    -0.030 C 
BRANCH  20  21
HETATM   21  C11 UNL     1     -23.545  10.548  -9.467  1.00  0.00     0.026 C 
BRANCH  21  22
HETATM   22  C12 UNL     1     -22.576   9.550 -10.050  1.00  0.00    -0.001 C 
HETATM   23  C13 UNL     1     -22.859   9.410 -11.553  1.00  0.00     0.005 C 
ENDBRANCH  21  22
ENDBRANCH  20  21
ENDBRANCH   8  19
BRANCH  18  24
HETATM   24  O6  UNL     1     -18.738   6.748  -1.368  1.00  0.00    -0.391 OA
ATOM     25  H6  UNL     1     -19.515   6.687  -0.825  1.00  0.00     0.210 HD
ENDBRANCH  18  24
BRANCH  16  26
HETATM   26  C19 UNL     1     -20.083   4.591  -3.052  1.00  0.00     0.106 C 
BRANCH  26  27
HETATM   27  N1  UNL     1     -20.076   3.247  -2.657  1.00  0.00    -0.214 N 
BRANCH  27  28
HETATM   28  O4  UNL     1     -21.302   2.674  -2.330  1.00  0.00    -0.281 OA
ATOM     29  H4  UNL     1     -21.300   1.990  -1.671  1.00  0.00     0.245 HD
ENDBRANCH  27  28
BRANCH  27  30
HETATM   30  C20 UNL     1     -18.999   2.354  -2.506  1.00  0.00     0.380 C 
HETATM   31  O5  UNL     1     -18.683   1.587  -3.438  1.00  0.00    -0.281 OA
ENDBRANCH  27  30
ENDBRANCH  26  27
ENDBRANCH  16  26
TORSDOF 8
ENDMDL
MODEL 5
REMARK VINA RESULT: -6.963826883      3.726      6.610
REMARK  8 active torsions:
REMARK  status: ('A' for Active; 'I' for Inactive)
REMARK    1  A    between atoms: C8_8  and  C9_9 
REMARK    2  A    between atoms: C10_10  and  C11_11 
REMARK    3  A    between atoms: C11_11  and  C12_12 
REMARK    4  A    between atoms: C18_21  and  C19_22 
REMARK    5  A    between atoms: C19_22  and  N1_23 
REMARK    6  A    between atoms: N1_23  and  O4_24 
REMARK    7  A    between atoms: N1_23  and  C20_26 
REMARK    8  A    between atoms: C22_29  and  O6_30 
ROOT
HETATM    1  C1  UNL     1     -14.984   7.307  -2.159  1.00  0.00     0.017 C 
HETATM    2  C2  UNL     1     -15.750   7.752  -1.171  1.00  0.00    -0.060 C 
HETATM    3  C3  UNL     1     -15.140   8.367   0.016  1.00  0.00     0.036 C 
HETATM    4  C4  UNL     1     -15.842   9.551   0.592  1.00  0.00     0.007 C 
HETATM    5  C5  UNL     1     -15.348  10.853  -0.021  1.00  0.00     0.040 C 
HETATM    6  C6  UNL     1     -16.524  11.711  -0.479  1.00  0.00     0.078 A 
HETATM    7  C7  UNL     1     -17.727  11.849   0.349  1.00  0.00     0.051 A 
HETATM    8  C8  UNL     1     -16.755  12.990   0.227  1.00  0.00     0.046 A 
HETATM    9  O1  UNL     1     -16.691  11.681  -1.861  1.00  0.00    -0.307 OA
HETATM   10  C14 UNL     1     -16.953  10.615  -2.668  1.00  0.00     0.289 C 
HETATM   11  O2  UNL     1     -16.193  10.381  -3.672  1.00  0.00    -0.262 OA
HETATM   12  C15 UNL     1     -18.087   9.653  -2.489  1.00  0.00     0.229 C 
HETATM   13  O3  UNL     1     -18.968   9.896  -3.562  1.00  0.00    -0.370 OA
HETATM   14  C16 UNL     1     -18.839   8.785  -4.404  1.00  0.00     0.128 C 
HETATM   15  C17 UNL     1     -19.645   8.704  -5.587  1.00  0.00     0.040 C 
HETATM   16  C18 UNL     1     -18.751   7.634  -3.438  1.00  0.00     0.065 C 
HETATM   17  C21 UNL     1     -17.639   8.218  -2.596  1.00  0.00     0.069 C 
HETATM   18  C22 UNL     1     -17.238   7.556  -1.367  1.00  0.00     0.154 C 
ENDROOT
BRANCH   8  19
HETATM   19  C9  UNL     1     -17.263  14.183  -0.510  1.00  0.00    -0.023 C 
HETATM   20  C10 UNL     1     -16.817  15.386  -0.189  1.00  0.00    -0.030 C 
BRANCH  20  21
HETATM   21  C11 UNL     1     -17.303  16.581  -0.903  1.00  0.00     0.026 C 
BRANCH  21  22
HETATM   22  C12 UNL     1     -17.258  17.790  -0.003  1.00  0.00    -0.001 C 
HETATM   23  C13 UNL     1     -18.698  18.241   0.288  1.00  0.00     0.005 C 
ENDBRANCH  21  22
ENDBRANCH  20  21
ENDBRANCH   8  19
BRANCH  18  24
HETATM   24  O6  UNL     1     -17.363   6.158  -1.475  1.00  0.00    -0.391 OA
ATOM     25  H6  UNL     1     -16.494   5.847  -1.247  1.00  0.00     0.210 HD
ENDBRANCH  18  24
BRANCH  16  26
HETATM   26  C19 UNL     1     -19.936   7.135  -2.787  1.00  0.00     0.106 C 
BRANCH  26  27
HETATM   27  N1  UNL     1     -20.631   5.977  -3.161  1.00  0.00    -0.214 N 
BRANCH  27  28
HETATM   28  O4  UNL     1     -21.850   5.737  -2.533  1.00  0.00    -0.281 OA
ATOM     29  H4  UNL     1     -22.045   6.245  -1.754  1.00  0.00     0.245 HD
ENDBRANCH  27  28
BRANCH  27  30
HETATM   30  C20 UNL     1     -20.281   4.969  -4.079  1.00  0.00     0.380 C 
HETATM   31  O5  UNL     1     -20.480   5.133  -5.299  1.00  0.00    -0.281 OA
ENDBRANCH  27  30
ENDBRANCH  26  27
ENDBRANCH  16  26
TORSDOF 8
ENDMDL
