MODEL 1
REMARK VINA RESULT: -7.914197675      0.000      0.000
REMARK  6 active torsions:
REMARK  status: ('A' for Active; 'I' for Inactive)
REMARK    1  A    between atoms: C3_7  and  C4_8 
REMARK    2  A    between atoms: C4_8  and  N3_9 
REMARK    3  A    between atoms: N3_9  and  C5_11 
REMARK    4  A    between atoms: N4_13  and  C7_14 
REMARK    5  A    between atoms: C10_19  and  C11_20 
REMARK       I    between atoms: C11_20  and  N6_22 
REMARK    6  A    between atoms: C15_26  and  N7_27 
ROOT
HETATM    1  C5  UNL     1     -16.432   6.126  -2.821  1.00  0.00     0.079 A 
HETATM    2  C6  UNL     1     -16.136   5.072  -1.944  1.00  0.00     0.142 A 
HETATM    3  N4  UNL     1     -16.975   4.081  -2.251  1.00  0.00    -0.296 N 
HETATM    4  N5  UNL     1     -17.744   4.464  -3.238  1.00  0.00    -0.291 N 
ATOM      5  H5  UNL     1     -18.471   3.883  -3.654  1.00  0.00     0.187 HD
HETATM    6  C10 UNL     1     -17.455   5.732  -3.641  1.00  0.00     0.144 A 
ENDROOT
BRANCH   6   7
HETATM    7  C11 UNL     1     -18.141   6.441  -4.694  1.00  0.00     0.274 C 
HETATM    8  O1  UNL     1     -17.524   6.431  -5.836  1.00  0.00    -0.266 OA
HETATM    9  N6  UNL     1     -19.358   7.115  -4.610  1.00  0.00    -0.345 N 
HETATM   10  C12 UNL     1     -20.187   7.217  -3.460  1.00  0.00     0.126 C 
HETATM   11  C20 UNL     1     -19.857   7.839  -5.809  1.00  0.00     0.161 C 
HETATM   12  C13 UNL     1     -20.022   8.629  -2.861  1.00  0.00     0.022 C 
HETATM   13  C14 UNL     1     -19.660   9.525  -4.041  1.00  0.00     0.039 C 
HETATM   14  C15 UNL     1     -20.474   9.098  -5.248  1.00  0.00     0.241 C 
BRANCH  14  15
HETATM   15  N7  UNL     1     -20.531  10.193  -6.144  1.00  0.00     0.094 N 
HETATM   16  C16 UNL     1     -21.632  10.272  -7.025  1.00  0.00     0.273 C 
HETATM   17  C17 UNL     1     -21.986  11.746  -7.162  1.00  0.00     0.032 C 
HETATM   18  C18 UNL     1     -21.642  12.269  -5.787  1.00  0.00     0.032 C 
HETATM   19  C19 UNL     1     -20.457  11.430  -5.397  1.00  0.00     0.273 C 
ENDBRANCH  14  15
ENDBRANCH   6   7
BRANCH   1  20
HETATM   20  N3  UNL     1     -15.745   7.352  -2.824  1.00  0.00    -0.381 N 
ATOM     21  H3  UNL     1     -15.517   7.795  -3.713  1.00  0.00     0.160 HD
BRANCH  20  22
HETATM   22  C4  UNL     1     -15.350   8.008  -1.568  1.00  0.00     0.179 C 
BRANCH  22  23
HETATM   23  C3  UNL     1     -16.509   8.700  -0.951  1.00  0.00     0.051 A 
HETATM   24  N2  UNL     1     -17.463   8.239  -0.128  1.00  0.00    -0.302 N 
HETATM   25  N1  UNL     1     -18.329   9.164   0.193  1.00  0.00    -0.304 N 
ATOM     26  H2  UNL     1     -17.507   7.278   0.210  1.00  0.00     0.186 HD
HETATM   27  C2  UNL     1     -17.965  10.308  -0.430  1.00  0.00     0.029 A 
ATOM     28  H1  UNL     1     -19.137   9.044   0.805  1.00  0.00     0.186 HD
HETATM   29  C1  UNL     1     -18.653  11.605  -0.356  1.00  0.00     0.070 C 
HETATM   30  C21 UNL     1     -16.825  10.038  -1.153  1.00  0.00    -0.013 A 
HETATM   31  C22 UNL     1     -16.017  10.953  -2.017  1.00  0.00     0.052 C 
ENDBRANCH  22  23
ENDBRANCH  20  22
ENDBRANCH   1  20
BRANCH   3  32
HETATM   32  C7  UNL     1     -16.985   2.789  -1.552  1.00  0.00     0.099 C 
HETATM   33  C8  UNL     1     -15.606   2.178  -1.552  1.00  0.00     0.034 C 
HETATM   34  C9  UNL     1     -17.917   1.843  -2.314  1.00  0.00     0.034 C 
ENDBRANCH   3  32
TORSDOF 6
ENDMDL
MODEL 2
REMARK VINA RESULT: -7.776828674      3.004      5.485
REMARK  6 active torsions:
REMARK  status: ('A' for Active; 'I' for Inactive)
REMARK    1  A    between atoms: C3_7  and  C4_8 
REMARK    2  A    between atoms: C4_8  and  N3_9 
REMARK    3  A    between atoms: N3_9  and  C5_11 
REMARK    4  A    between atoms: N4_13  and  C7_14 
REMARK    5  A    between atoms: C10_19  and  C11_20 
REMARK       I    between atoms: C11_20  and  N6_22 
REMARK    6  A    between atoms: C15_26  and  N7_27 
ROOT
HETATM    1  C5  UNL     1     -16.001  10.364  -0.157  1.00  0.00     0.079 A 
HETATM    2  C6  UNL     1     -14.722  10.736  -0.600  1.00  0.00     0.142 A 
HETATM    3  N4  UNL     1     -14.411   9.898  -1.591  1.00  0.00    -0.296 N 
HETATM    4  N5  UNL     1     -15.401   9.061  -1.770  1.00  0.00    -0.291 N 
ATOM      5  H5  UNL     1     -15.404   8.321  -2.471  1.00  0.00     0.187 HD
HETATM    6  C10 UNL     1     -16.425   9.299  -0.905  1.00  0.00     0.144 A 
ENDROOT
BRANCH   6   7
HETATM    7  C11 UNL     1     -17.647   8.535  -0.842  1.00  0.00     0.274 C 
HETATM    8  O1  UNL     1     -17.861   7.961   0.302  1.00  0.00    -0.266 OA
HETATM    9  N6  UNL     1     -18.589   8.356  -1.854  1.00  0.00    -0.345 N 
HETATM   10  C12 UNL     1     -18.541   8.918  -3.158  1.00  0.00     0.126 C 
HETATM   11  C20 UNL     1     -19.753   7.468  -1.596  1.00  0.00     0.161 C 
HETATM   12  C13 UNL     1     -18.114   7.818  -4.151  1.00  0.00     0.022 C 
HETATM   13  C14 UNL     1     -18.597   6.510  -3.534  1.00  0.00     0.039 C 
HETATM   14  C15 UNL     1     -19.958   6.740  -2.903  1.00  0.00     0.241 C 
BRANCH  14  15
HETATM   15  N7  UNL     1     -20.607   5.486  -2.800  1.00  0.00     0.094 N 
HETATM   16  C16 UNL     1     -21.984   5.425  -3.110  1.00  0.00     0.273 C 
HETATM   17  C17 UNL     1     -22.225   4.091  -3.803  1.00  0.00     0.032 C 
HETATM   18  C18 UNL     1     -20.924   3.898  -4.547  1.00  0.00     0.032 C 
HETATM   19  C19 UNL     1     -19.914   4.517  -3.621  1.00  0.00     0.273 C 
ENDBRANCH  14  15
ENDBRANCH   6   7
BRANCH   1  20
HETATM   20  N3  UNL     1     -16.689  11.025   0.874  1.00  0.00    -0.381 N 
ATOM     21  H3  UNL     1     -16.753  10.588   1.793  1.00  0.00     0.160 HD
BRANCH  20  22
HETATM   22  C4  UNL     1     -17.319  12.336   0.653  1.00  0.00     0.179 C 
BRANCH  22  23
HETATM   23  C3  UNL     1     -18.309  12.262  -0.449  1.00  0.00     0.051 A 
HETATM   24  N2  UNL     1     -19.542  11.734  -0.480  1.00  0.00    -0.302 N 
HETATM   25  N1  UNL     1     -20.104  11.857  -1.654  1.00  0.00    -0.304 N 
ATOM     26  H2  UNL     1     -19.990  11.289   0.321  1.00  0.00     0.186 HD
HETATM   27  C2  UNL     1     -19.230  12.492  -2.468  1.00  0.00     0.029 A 
ATOM     28  H1  UNL     1     -21.037  11.532  -1.910  1.00  0.00     0.186 HD
HETATM   29  C1  UNL     1     -19.442  12.841  -3.880  1.00  0.00     0.070 C 
HETATM   30  C21 UNL     1     -18.097  12.756  -1.731  1.00  0.00    -0.013 A 
HETATM   31  C22 UNL     1     -16.836  13.437  -2.152  1.00  0.00     0.052 C 
ENDBRANCH  22  23
ENDBRANCH  20  22
ENDBRANCH   1  20
BRANCH   3  32
HETATM   32  C7  UNL     1     -13.140   9.958  -2.327  1.00  0.00     0.099 C 
HETATM   33  C8  UNL     1     -13.320  10.685  -3.636  1.00  0.00     0.034 C 
HETATM   34  C9  UNL     1     -12.705   8.525  -2.642  1.00  0.00     0.034 C 
ENDBRANCH   3  32
TORSDOF 6
ENDMDL
MODEL 3
REMARK VINA RESULT: -7.763725221      2.315      5.990
REMARK  6 active torsions:
REMARK  status: ('A' for Active; 'I' for Inactive)
REMARK    1  A    between atoms: C3_7  and  C4_8 
REMARK    2  A    between atoms: C4_8  and  N3_9 
REMARK    3  A    between atoms: N3_9  and  C5_11 
REMARK    4  A    between atoms: N4_13  and  C7_14 
REMARK    5  A    between atoms: C10_19  and  C11_20 
REMARK       I    between atoms: C11_20  and  N6_22 
REMARK    6  A    between atoms: C15_26  and  N7_27 
ROOT
HETATM    1  C5  UNL     1     -19.597   7.727  -4.163  1.00  0.00     0.079 A 
HETATM    2  C6  UNL     1     -19.909   6.399  -4.489  1.00  0.00     0.142 A 
HETATM    3  N4  UNL     1     -20.141   5.773  -3.334  1.00  0.00    -0.296 N 
HETATM    4  N5  UNL     1     -19.992   6.623  -2.351  1.00  0.00    -0.291 N 
ATOM      5  H5  UNL     1     -20.114   6.387  -1.366  1.00  0.00     0.187 HD
HETATM    6  C10 UNL     1     -19.651   7.863  -2.802  1.00  0.00     0.144 A 
ENDROOT
BRANCH   6   7
HETATM    7  C11 UNL     1     -19.399   9.007  -1.961  1.00  0.00     0.274 C 
HETATM    8  O1  UNL     1     -20.087  10.063  -2.273  1.00  0.00    -0.266 OA
HETATM    9  N6  UNL     1     -18.518   9.090  -0.884  1.00  0.00    -0.345 N 
HETATM   10  C12 UNL     1     -17.702   8.043  -0.380  1.00  0.00     0.126 C 
HETATM   11  C20 UNL     1     -18.362  10.396  -0.189  1.00  0.00     0.161 C 
HETATM   12  C13 UNL     1     -16.250   8.287  -0.842  1.00  0.00     0.022 C 
HETATM   13  C14 UNL     1     -16.128   9.798  -1.000  1.00  0.00     0.039 C 
HETATM   14  C15 UNL     1     -16.888  10.471   0.128  1.00  0.00     0.241 C 
BRANCH  14  15
HETATM   15  N7  UNL     1     -16.370  11.779   0.282  1.00  0.00     0.094 N 
HETATM   16  C16 UNL     1     -15.843  12.422  -0.861  1.00  0.00     0.273 C 
HETATM   17  C17 UNL     1     -16.206  13.895  -0.750  1.00  0.00     0.032 C 
HETATM   18  C18 UNL     1     -17.543  13.825  -0.050  1.00  0.00     0.032 C 
HETATM   19  C19 UNL     1     -17.385  12.635   0.856  1.00  0.00     0.273 C 
ENDBRANCH  14  15
ENDBRANCH   6   7
BRANCH   1  20
HETATM   20  N3  UNL     1     -19.305   8.715  -5.118  1.00  0.00    -0.381 N 
ATOM     21  H3  UNL     1     -18.361   9.097  -5.170  1.00  0.00     0.160 HD
BRANCH  20  22
HETATM   22  C4  UNL     1     -20.336   9.208  -6.046  1.00  0.00     0.179 C 
BRANCH  22  23
HETATM   23  C3  UNL     1     -20.695  10.612  -5.731  1.00  0.00     0.051 A 
HETATM   24  N2  UNL     1     -20.226  11.442  -4.787  1.00  0.00    -0.302 N 
HETATM   25  N1  UNL     1     -20.809  12.611  -4.822  1.00  0.00    -0.304 N 
ATOM     26  H2  UNL     1     -19.498  11.189  -4.119  1.00  0.00     0.186 HD
HETATM   27  C2  UNL     1     -21.716  12.594  -5.825  1.00  0.00     0.029 A 
ATOM     28  H1  UNL     1     -20.615  13.398  -4.201  1.00  0.00     0.186 HD
HETATM   29  C1  UNL     1     -22.602  13.696  -6.226  1.00  0.00     0.070 C 
HETATM   30  C21 UNL     1     -21.660  11.348  -6.409  1.00  0.00    -0.013 A 
HETATM   31  C22 UNL     1     -22.451  10.808  -7.557  1.00  0.00     0.052 C 
ENDBRANCH  22  23
ENDBRANCH  20  22
ENDBRANCH   1  20
BRANCH   3  32
HETATM   32  C7  UNL     1     -20.504   4.352  -3.246  1.00  0.00     0.099 C 
HETATM   33  C8  UNL     1     -19.294   3.482  -3.480  1.00  0.00     0.034 C 
HETATM   34  C9  UNL     1     -21.519   4.051  -4.351  1.00  0.00     0.034 C 
ENDBRANCH   3  32
TORSDOF 6
ENDMDL
MODEL 4
REMARK VINA RESULT: -7.698293905      1.467      6.640
REMARK  6 active torsions:
REMARK  status: ('A' for Active; 'I' for Inactive)
REMARK    1  A    between atoms: C3_7  and  C4_8 
REMARK    2  A    between atoms: C4_8  and  N3_9 
REMARK    3  A    between atoms: N3_9  and  C5_11 
REMARK    4  A    between atoms: N4_13  and  C7_14 
REMARK    5  A    between atoms: C10_19  and  C11_20 
REMARK       I    between atoms: C11_20  and  N6_22 
REMARK    6  A    between atoms: C15_26  and  N7_27 
ROOT
HETATM    1  C5  UNL     1     -19.680  10.939  -4.211  1.00  0.00     0.079 A 
HETATM    2  C6  UNL     1     -20.622  11.475  -5.102  1.00  0.00     0.142 A 
HETATM    3  N4  UNL     1     -21.051  10.458  -5.852  1.00  0.00    -0.296 N 
HETATM    4  N5  UNL     1     -20.440   9.364  -5.477  1.00  0.00    -0.291 N 
ATOM      5  H5  UNL     1     -20.596   8.449  -5.899  1.00  0.00     0.187 HD
HETATM    6  C10 UNL     1     -19.569   9.596  -4.455  1.00  0.00     0.144 A 
ENDROOT
BRANCH   6   7
HETATM    7  C11 UNL     1     -18.735   8.595  -3.837  1.00  0.00     0.274 C 
HETATM    8  O1  UNL     1     -17.461   8.811  -3.958  1.00  0.00    -0.266 OA
HETATM    9  N6  UNL     1     -19.147   7.455  -3.148  1.00  0.00    -0.345 N 
HETATM   10  C12 UNL     1     -20.489   7.064  -2.894  1.00  0.00     0.126 C 
HETATM   11  C20 UNL     1     -18.113   6.514  -2.643  1.00  0.00     0.161 C 
HETATM   12  C13 UNL     1     -20.853   5.912  -3.853  1.00  0.00     0.022 C 
HETATM   13  C14 UNL     1     -19.536   5.202  -4.147  1.00  0.00     0.039 C 
HETATM   14  C15 UNL     1     -18.714   5.149  -2.872  1.00  0.00     0.241 C 
BRANCH  14  15
HETATM   15  N7  UNL     1     -17.781   4.092  -3.000  1.00  0.00     0.094 N 
HETATM   16  C16 UNL     1     -16.768   3.979  -2.022  1.00  0.00     0.273 C 
HETATM   17  C17 UNL     1     -16.537   2.493  -1.791  1.00  0.00     0.032 C 
HETATM   18  C18 UNL     1     -17.925   1.934  -2.001  1.00  0.00     0.032 C 
HETATM   19  C19 UNL     1     -18.488   2.831  -3.068  1.00  0.00     0.273 C 
ENDBRANCH  14  15
ENDBRANCH   6   7
BRANCH   1  20
HETATM   20  N3  UNL     1     -19.008  11.698  -3.239  1.00  0.00    -0.381 N 
ATOM     21  H3  UNL     1     -18.172  12.220  -3.500  1.00  0.00     0.160 HD
BRANCH  20  22
HETATM   22  C4  UNL     1     -19.489  11.755  -1.849  1.00  0.00     0.179 C 
BRANCH  22  23
HETATM   23  C3  UNL     1     -18.925  10.637  -1.054  1.00  0.00     0.051 A 
HETATM   24  N2  UNL     1     -19.519   9.558  -0.521  1.00  0.00    -0.302 N 
HETATM   25  N1  UNL     1     -18.676   8.798   0.127  1.00  0.00    -0.304 N 
ATOM     26  H2  UNL     1     -20.514   9.354  -0.612  1.00  0.00     0.186 HD
HETATM   27  C2  UNL     1     -17.452   9.369   0.043  1.00  0.00     0.029 A 
ATOM     28  H1  UNL     1     -18.901   7.928   0.611  1.00  0.00     0.186 HD
HETATM   29  C1  UNL     1     -16.204   8.859   0.627  1.00  0.00     0.070 C 
HETATM   30  C21 UNL     1     -17.587  10.524  -0.695  1.00  0.00    -0.013 A 
HETATM   31  C22 UNL     1     -16.544  11.523  -1.081  1.00  0.00     0.052 C 
ENDBRANCH  22  23
ENDBRANCH  20  22
ENDBRANCH   1  20
BRANCH   3  32
HETATM   32  C7  UNL     1     -22.054  10.609  -6.915  1.00  0.00     0.099 C 
HETATM   33  C8  UNL     1     -21.558   9.995  -8.201  1.00  0.00     0.034 C 
HETATM   34  C9  UNL     1     -22.266  12.105  -7.161  1.00  0.00     0.034 C 
ENDBRANCH   3  32
TORSDOF 6
ENDMDL
MODEL 5
REMARK VINA RESULT: -7.646456376      2.427      7.300
REMARK  6 active torsions:
REMARK  status: ('A' for Active; 'I' for Inactive)
REMARK    1  A    between atoms: C3_7  and  C4_8 
REMARK    2  A    between atoms: C4_8  and  N3_9 
REMARK    3  A    between atoms: N3_9  and  C5_11 
REMARK    4  A    between atoms: N4_13  and  C7_14 
REMARK    5  A    between atoms: C10_19  and  C11_20 
REMARK       I    between atoms: C11_20  and  N6_22 
REMARK    6  A    between atoms: C15_26  and  N7_27 
ROOT
HETATM    1  C5  UNL     1     -19.362  11.308  -2.719  1.00  0.00     0.079 A 
HETATM    2  C6  UNL     1     -19.086  12.462  -1.970  1.00  0.00     0.142 A 
HETATM    3  N4  UNL     1     -17.938  12.229  -1.330  1.00  0.00    -0.296 N 
HETATM    4  N5  UNL     1     -17.513  11.031  -1.640  1.00  0.00    -0.291 N 
ATOM      5  H5  UNL     1     -16.654  10.618  -1.277  1.00  0.00     0.187 HD
HETATM    6  C10 UNL     1     -18.358  10.402  -2.504  1.00  0.00     0.144 A 
ENDROOT
BRANCH   6   7
HETATM    7  C11 UNL     1     -18.173   9.066  -3.015  1.00  0.00     0.274 C 
HETATM    8  O1  UNL     1     -17.462   9.001  -4.099  1.00  0.00    -0.266 OA
HETATM    9  N6  UNL     1     -18.667   7.877  -2.479  1.00  0.00    -0.345 N 
HETATM   10  C12 UNL     1     -19.440   7.744  -1.295  1.00  0.00     0.126 C 
HETATM   11  C20 UNL     1     -18.411   6.606  -3.207  1.00  0.00     0.161 C 
HETATM   12  C13 UNL     1     -20.910   7.501  -1.694  1.00  0.00     0.022 C 
HETATM   13  C14 UNL     1     -20.849   6.810  -3.052  1.00  0.00     0.039 C 
HETATM   14  C15 UNL     1     -19.693   5.826  -3.048  1.00  0.00     0.241 C 
BRANCH  14  15
HETATM   15  N7  UNL     1     -19.942   4.861  -4.054  1.00  0.00     0.094 N 
HETATM   16  C16 UNL     1     -19.091   4.845  -5.181  1.00  0.00     0.273 C 
HETATM   17  C17 UNL     1     -18.903   3.387  -5.576  1.00  0.00     0.032 C 
HETATM   18  C18 UNL     1     -18.953   2.701  -4.231  1.00  0.00     0.032 C 
HETATM   19  C19 UNL     1     -19.938   3.540  -3.464  1.00  0.00     0.273 C 
ENDBRANCH  14  15
ENDBRANCH   6   7
BRANCH   1  20
HETATM   20  N3  UNL     1     -20.486  11.169  -3.549  1.00  0.00    -0.381 N 
ATOM     21  H3  UNL     1     -21.413  11.104  -3.130  1.00  0.00     0.160 HD
BRANCH  20  22
HETATM   22  C4  UNL     1     -20.352  11.116  -5.014  1.00  0.00     0.179 C 
BRANCH  22  23
HETATM   23  C3  UNL     1     -21.318  12.037  -5.662  1.00  0.00     0.051 A 
HETATM   24  N2  UNL     1     -21.756  13.248  -5.286  1.00  0.00    -0.302 N 
HETATM   25  N1  UNL     1     -22.625  13.743  -6.128  1.00  0.00    -0.304 N 
ATOM     26  H2  UNL     1     -21.447  13.727  -4.440  1.00  0.00     0.186 HD
HETATM   27  C2  UNL     1     -22.796  12.845  -7.125  1.00  0.00     0.029 A 
ATOM     28  H1  UNL     1     -23.091  14.648  -6.047  1.00  0.00     0.186 HD
HETATM   29  C1  UNL     1     -23.684  12.985  -8.288  1.00  0.00     0.070 C 
HETATM   30  C21 UNL     1     -21.985  11.767  -6.852  1.00  0.00    -0.013 A 
HETATM   31  C22 UNL     1     -21.797  10.506  -7.632  1.00  0.00     0.052 C 
ENDBRANCH  22  23
ENDBRANCH  20  22
ENDBRANCH   1  20
BRANCH   3  32
HETATM   32  C7  UNL     1     -17.304  13.204  -0.434  1.00  0.00     0.099 C 
HETATM   33  C8  UNL     1     -17.063  12.595   0.925  1.00  0.00     0.034 C 
HETATM   34  C9  UNL     1     -18.265  14.382  -0.256  1.00  0.00     0.034 C 
ENDBRANCH   3  32
TORSDOF 6
ENDMDL
