MODEL 1
REMARK VINA RESULT: -8.223329685      0.000      0.000
REMARK  7 active torsions:
REMARK  status: ('A' for Active; 'I' for Inactive)
REMARK    1  A    between atoms: C2_3  and  C3_4 
REMARK    2  A    between atoms: C3_4  and  C4_5 
REMARK    3  A    between atoms: C4_5  and  C5_6 
REMARK       I    between atoms: C5_6  and  N2_8 
REMARK    4  A    between atoms: C8_11  and  C9_12 
REMARK    5  A    between atoms: C9_12  and  N3_13 
REMARK    6  A    between atoms: C15_19  and  N4_20 
REMARK    7  A    between atoms: C16_21  and  O2_22 
ROOT
HETATM    1  N1  UNL     1     -13.517   1.340  -2.408  1.00  0.00    -0.197 NA
HETATM    2  C1  UNL     1     -14.293   1.641  -1.591  1.00  0.00     0.059 C 
HETATM    3  C2  UNL     1     -15.275   2.020  -0.575  1.00  0.00     0.124 C 
ENDROOT
BRANCH   3   4
HETATM    4  C3  UNL     1     -16.674   2.026  -1.123  1.00  0.00     0.023 C 
BRANCH   4   5
HETATM    5  C4  UNL     1     -16.940   3.055  -2.155  1.00  0.00     0.104 C 
BRANCH   5   6
HETATM    6  C5  UNL     1     -18.181   2.877  -2.924  1.00  0.00     0.219 C 
HETATM    7  O1  UNL     1     -18.475   1.679  -3.278  1.00  0.00    -0.273 OA
HETATM    8  N2  UNL     1     -19.010   3.960  -3.263  1.00  0.00    -0.352 N 
HETATM    9  C6  UNL     1     -18.683   5.298  -2.874  1.00  0.00     0.126 C 
HETATM   10  C21 UNL     1     -20.224   3.781  -4.016  1.00  0.00     0.126 C 
HETATM   11  C7  UNL     1     -18.358   6.066  -4.123  1.00  0.00     0.030 C 
HETATM   12  C8  UNL     1     -19.527   5.923  -5.100  1.00  0.00     0.027 C 
HETATM   13  C20 UNL     1     -20.661   5.127  -4.612  1.00  0.00     0.030 C 
BRANCH  12  14
HETATM   14  C9  UNL     1     -19.870   7.317  -5.556  1.00  0.00     0.064 C 
BRANCH  14  15
HETATM   15  N3  UNL     1     -19.683   8.397  -4.709  1.00  0.00    -0.384 N 
HETATM   16  C10 UNL     1     -19.152   9.635  -5.073  1.00  0.00     0.086 C 
HETATM   17  C11 UNL     1     -20.399  10.490  -5.434  1.00  0.00     0.027 C 
HETATM   18  C19 UNL     1     -18.501  10.258  -3.833  1.00  0.00     0.051 C 
HETATM   19  C12 UNL     1     -21.473   9.810  -4.655  1.00  0.00     0.027 C 
HETATM   20  C13 UNL     1     -20.822   8.675  -3.884  1.00  0.00     0.086 C 
HETATM   21  C14 UNL     1     -20.284   9.180  -2.547  1.00  0.00     0.051 C 
HETATM   22  C15 UNL     1     -19.588  10.504  -2.828  1.00  0.00     0.098 C 
BRANCH  22  23
HETATM   23  N4  UNL     1     -19.082  11.109  -1.610  1.00  0.00    -0.298 N 
HETATM   24  C16 UNL     1     -19.437  12.313  -1.094  1.00  0.00     0.160 A 
HETATM   25  C17 UNL     1     -18.745  12.543   0.078  1.00  0.00     0.146 A 
HETATM   26  N5  UNL     1     -17.966  11.465   0.269  1.00  0.00    -0.339 N 
HETATM   27  C18 UNL     1     -18.173  10.622  -0.736  1.00  0.00     0.180 A 
ATOM     28  H5  UNL     1     -17.327  11.319   1.050  1.00  0.00     0.167 HD
HETATM   29  S1  UNL     1     -17.433   9.174  -0.910  1.00  0.00    -0.040 SA
BRANCH  24  30
HETATM   30  O2  UNL     1     -20.348  13.207  -1.628  1.00  0.00    -0.345 OA
ATOM     31  H2  UNL     1     -20.523  14.090  -1.325  1.00  0.00     0.219 HD
ENDBRANCH  24  30
ENDBRANCH  22  23
ENDBRANCH  14  15
ENDBRANCH  12  14
ENDBRANCH   5   6
ENDBRANCH   4   5
ENDBRANCH   3   4
TORSDOF 7
ENDMDL
MODEL 2
REMARK VINA RESULT: -7.857804373      2.486      3.277
REMARK  7 active torsions:
REMARK  status: ('A' for Active; 'I' for Inactive)
REMARK    1  A    between atoms: C2_3  and  C3_4 
REMARK    2  A    between atoms: C3_4  and  C4_5 
REMARK    3  A    between atoms: C4_5  and  C5_6 
REMARK       I    between atoms: C5_6  and  N2_8 
REMARK    4  A    between atoms: C8_11  and  C9_12 
REMARK    5  A    between atoms: C9_12  and  N3_13 
REMARK    6  A    between atoms: C15_19  and  N4_20 
REMARK    7  A    between atoms: C16_21  and  O2_22 
ROOT
HETATM    1  N1  UNL     1     -15.495   1.580  -0.510  1.00  0.00    -0.197 NA
HETATM    2  C1  UNL     1     -16.082   2.351  -1.159  1.00  0.00     0.059 C 
HETATM    3  C2  UNL     1     -16.825   3.309  -1.979  1.00  0.00     0.124 C 
ENDROOT
BRANCH   3   4
HETATM    4  C3  UNL     1     -18.052   2.691  -2.587  1.00  0.00     0.023 C 
BRANCH   4   5
HETATM    5  C4  UNL     1     -18.634   3.440  -3.725  1.00  0.00     0.104 C 
BRANCH   5   6
HETATM    6  C5  UNL     1     -19.970   4.009  -3.493  1.00  0.00     0.219 C 
HETATM    7  O1  UNL     1     -20.974   3.247  -3.734  1.00  0.00    -0.273 OA
HETATM    8  N2  UNL     1     -20.150   5.325  -3.032  1.00  0.00    -0.352 N 
HETATM    9  C6  UNL     1     -19.034   6.181  -2.766  1.00  0.00     0.126 C 
HETATM   10  C21 UNL     1     -21.461   5.879  -2.806  1.00  0.00     0.126 C 
HETATM   11  C7  UNL     1     -19.056   7.283  -3.786  1.00  0.00     0.030 C 
HETATM   12  C8  UNL     1     -20.431   7.953  -3.748  1.00  0.00     0.027 C 
HETATM   13  C20 UNL     1     -21.368   7.411  -2.756  1.00  0.00     0.030 C 
BRANCH  12  14
HETATM   14  C9  UNL     1     -20.178   9.435  -3.650  1.00  0.00     0.064 C 
BRANCH  14  15
HETATM   15  N3  UNL     1     -19.101   9.914  -2.924  1.00  0.00    -0.384 N 
HETATM   16  C10 UNL     1     -18.160  10.839  -3.377  1.00  0.00     0.086 C 
HETATM   17  C11 UNL     1     -18.727  12.212  -2.916  1.00  0.00     0.027 C 
HETATM   18  C19 UNL     1     -16.849  10.597  -2.621  1.00  0.00     0.051 C 
HETATM   19  C12 UNL     1     -19.585  11.817  -1.763  1.00  0.00     0.027 C 
HETATM   20  C13 UNL     1     -19.448  10.315  -1.591  1.00  0.00     0.086 C 
HETATM   21  C14 UNL     1     -18.248   9.986  -0.707  1.00  0.00     0.051 C 
HETATM   22  C15 UNL     1     -17.106  10.879  -1.170  1.00  0.00     0.098 C 
BRANCH  22  23
HETATM   23  N4  UNL     1     -15.919  10.691  -0.357  1.00  0.00    -0.298 N 
HETATM   24  C16 UNL     1     -15.246   9.529  -0.160  1.00  0.00     0.160 A 
HETATM   25  C17 UNL     1     -14.166   9.749   0.673  1.00  0.00     0.146 A 
HETATM   26  N5  UNL     1     -14.191  11.057   0.979  1.00  0.00    -0.339 N 
HETATM   27  C18 UNL     1     -15.232  11.606   0.364  1.00  0.00     0.180 A 
ATOM     28  H5  UNL     1     -13.525  11.543   1.578  1.00  0.00     0.167 HD
HETATM   29  S1  UNL     1     -15.647  13.184   0.455  1.00  0.00    -0.040 SA
BRANCH  24  30
HETATM   30  O2  UNL     1     -15.558   8.291  -0.691  1.00  0.00    -0.345 OA
ATOM     31  H2  UNL     1     -15.672   7.479  -0.212  1.00  0.00     0.219 HD
ENDBRANCH  24  30
ENDBRANCH  22  23
ENDBRANCH  14  15
ENDBRANCH  12  14
ENDBRANCH   5   6
ENDBRANCH   4   5
ENDBRANCH   3   4
TORSDOF 7
ENDMDL
MODEL 3
REMARK VINA RESULT: -7.756944487      2.625      5.309
REMARK  7 active torsions:
REMARK  status: ('A' for Active; 'I' for Inactive)
REMARK    1  A    between atoms: C2_3  and  C3_4 
REMARK    2  A    between atoms: C3_4  and  C4_5 
REMARK    3  A    between atoms: C4_5  and  C5_6 
REMARK       I    between atoms: C5_6  and  N2_8 
REMARK    4  A    between atoms: C8_11  and  C9_12 
REMARK    5  A    between atoms: C9_12  and  N3_13 
REMARK    6  A    between atoms: C15_19  and  N4_20 
REMARK    7  A    between atoms: C16_21  and  O2_22 
ROOT
HETATM    1  N1  UNL     1     -20.828   8.777  -3.863  1.00  0.00    -0.197 NA
HETATM    2  C1  UNL     1     -21.130   7.884  -3.177  1.00  0.00     0.059 C 
HETATM    3  C2  UNL     1     -21.514   6.756  -2.327  1.00  0.00     0.124 C 
ENDROOT
BRANCH   3   4
HETATM    4  C3  UNL     1     -21.814   5.524  -3.133  1.00  0.00     0.023 C 
BRANCH   4   5
HETATM    5  C4  UNL     1     -20.719   5.073  -4.022  1.00  0.00     0.104 C 
BRANCH   5   6
HETATM    6  C5  UNL     1     -19.656   4.292  -3.372  1.00  0.00     0.219 C 
HETATM    7  O1  UNL     1     -19.986   3.143  -2.902  1.00  0.00    -0.273 OA
HETATM    8  N2  UNL     1     -18.339   4.771  -3.261  1.00  0.00    -0.352 N 
HETATM    9  C6  UNL     1     -17.967   6.053  -3.780  1.00  0.00     0.126 C 
HETATM   10  C21 UNL     1     -17.301   4.003  -2.624  1.00  0.00     0.126 C 
HETATM   11  C7  UNL     1     -17.638   6.936  -2.610  1.00  0.00     0.030 C 
HETATM   12  C8  UNL     1     -16.584   6.233  -1.752  1.00  0.00     0.027 C 
HETATM   13  C20 UNL     1     -16.133   4.928  -2.252  1.00  0.00     0.030 C 
BRANCH  12  14
HETATM   14  C9  UNL     1     -15.491   7.242  -1.514  1.00  0.00     0.064 C 
BRANCH  14  15
HETATM   15  N3  UNL     1     -15.790   8.484  -0.978  1.00  0.00    -0.384 N 
HETATM   16  C10 UNL     1     -15.672   8.841   0.365  1.00  0.00     0.086 C 
HETATM   17  C11 UNL     1     -14.244   9.447   0.472  1.00  0.00     0.027 C 
HETATM   18  C19 UNL     1     -16.678   9.962   0.651  1.00  0.00     0.051 C 
HETATM   19  C12 UNL     1     -13.993   9.889  -0.929  1.00  0.00     0.027 C 
HETATM   20  C13 UNL     1     -15.242   9.574  -1.733  1.00  0.00     0.086 C 
HETATM   21  C14 UNL     1     -16.244  10.722  -1.635  1.00  0.00     0.051 C 
HETATM   22  C15 UNL     1     -16.278  11.149  -0.174  1.00  0.00     0.098 C 
BRANCH  22  23
HETATM   23  N4  UNL     1     -17.162  12.282   0.029  1.00  0.00    -0.298 N 
HETATM   24  C16 UNL     1     -18.519  12.261   0.033  1.00  0.00     0.160 A 
HETATM   25  C17 UNL     1     -19.006  13.532   0.263  1.00  0.00     0.146 A 
HETATM   26  N5  UNL     1     -17.930  14.325   0.399  1.00  0.00    -0.339 N 
HETATM   27  C18 UNL     1     -16.843  13.575   0.259  1.00  0.00     0.180 A 
ATOM     28  H5  UNL     1     -17.945  15.328   0.579  1.00  0.00     0.167 HD
HETATM   29  S1  UNL     1     -15.307  14.127   0.351  1.00  0.00    -0.040 SA
BRANCH  24  30
HETATM   30  O2  UNL     1     -19.331  11.158  -0.160  1.00  0.00    -0.345 OA
ATOM     31  H2  UNL     1     -20.103  10.926   0.342  1.00  0.00     0.219 HD
ENDBRANCH  24  30
ENDBRANCH  22  23
ENDBRANCH  14  15
ENDBRANCH  12  14
ENDBRANCH   5   6
ENDBRANCH   4   5
ENDBRANCH   3   4
TORSDOF 7
ENDMDL
MODEL 4
REMARK VINA RESULT: -7.417010678      3.543      5.170
REMARK  7 active torsions:
REMARK  status: ('A' for Active; 'I' for Inactive)
REMARK    1  A    between atoms: C2_3  and  C3_4 
REMARK    2  A    between atoms: C3_4  and  C4_5 
REMARK    3  A    between atoms: C4_5  and  C5_6 
REMARK       I    between atoms: C5_6  and  N2_8 
REMARK    4  A    between atoms: C8_11  and  C9_12 
REMARK    5  A    between atoms: C9_12  and  N3_13 
REMARK    6  A    between atoms: C15_19  and  N4_20 
REMARK    7  A    between atoms: C16_21  and  O2_22 
ROOT
HETATM    1  N1  UNL     1     -19.354   6.909  -7.315  1.00  0.00    -0.197 NA
HETATM    2  C1  UNL     1     -18.828   6.123  -6.633  1.00  0.00     0.059 C 
HETATM    3  C2  UNL     1     -18.179   5.130  -5.776  1.00  0.00     0.124 C 
ENDROOT
BRANCH   3   4
HETATM    4  C3  UNL     1     -18.940   3.834  -5.746  1.00  0.00     0.023 C 
BRANCH   4   5
HETATM    5  C4  UNL     1     -19.498   3.465  -4.424  1.00  0.00     0.104 C 
BRANCH   5   6
HETATM    6  C5  UNL     1     -20.698   4.209  -4.012  1.00  0.00     0.219 C 
HETATM    7  O1  UNL     1     -21.814   3.839  -4.529  1.00  0.00    -0.273 OA
HETATM    8  N2  UNL     1     -20.639   5.276  -3.100  1.00  0.00    -0.352 N 
HETATM    9  C6  UNL     1     -19.397   5.695  -2.524  1.00  0.00     0.126 C 
HETATM   10  C21 UNL     1     -21.817   6.001  -2.700  1.00  0.00     0.126 C 
HETATM   11  C7  UNL     1     -19.085   7.061  -3.064  1.00  0.00     0.030 C 
HETATM   12  C8  UNL     1     -20.285   7.974  -2.797  1.00  0.00     0.027 C 
HETATM   13  C20 UNL     1     -21.406   7.348  -2.086  1.00  0.00     0.030 C 
BRANCH  12  14
HETATM   14  C9  UNL     1     -19.733   9.221  -2.155  1.00  0.00     0.064 C 
BRANCH  14  15
HETATM   15  N3  UNL     1     -18.374   9.341  -1.913  1.00  0.00    -0.384 N 
HETATM   16  C10 UNL     1     -17.552  10.368  -2.375  1.00  0.00     0.086 C 
HETATM   17  C11 UNL     1     -17.568  11.413  -1.224  1.00  0.00     0.027 C 
HETATM   18  C19 UNL     1     -16.125   9.822  -2.491  1.00  0.00     0.051 C 
HETATM   19  C12 UNL     1     -17.907  10.566  -0.046  1.00  0.00     0.027 C 
HETATM   20  C13 UNL     1     -18.024   9.134  -0.538  1.00  0.00     0.086 C 
HETATM   21  C14 UNL     1     -16.656   8.455  -0.531  1.00  0.00     0.051 C 
HETATM   22  C15 UNL     1     -15.667   9.457  -1.110  1.00  0.00     0.098 C 
BRANCH  22  23
HETATM   23  N4  UNL     1     -14.313   8.937  -1.100  1.00  0.00    -0.298 N 
HETATM   24  C16 UNL     1     -13.840   7.893  -1.828  1.00  0.00     0.160 A 
HETATM   25  C17 UNL     1     -12.501   7.699  -1.552  1.00  0.00     0.146 A 
HETATM   26  N5  UNL     1     -12.166   8.636  -0.650  1.00  0.00    -0.339 N 
HETATM   27  C18 UNL     1     -13.246   9.364  -0.389  1.00  0.00     0.180 A 
ATOM     28  H5  UNL     1     -11.243   8.766  -0.237  1.00  0.00     0.167 HD
HETATM   29  S1  UNL     1     -13.298  10.620   0.656  1.00  0.00    -0.040 SA
BRANCH  24  30
HETATM   30  O2  UNL     1     -14.554   7.115  -2.721  1.00  0.00    -0.345 OA
ATOM     31  H2  UNL     1     -14.247   6.780  -3.555  1.00  0.00     0.219 HD
ENDBRANCH  24  30
ENDBRANCH  22  23
ENDBRANCH  14  15
ENDBRANCH  12  14
ENDBRANCH   5   6
ENDBRANCH   4   5
ENDBRANCH   3   4
TORSDOF 7
ENDMDL
MODEL 5
REMARK VINA RESULT: -7.404113186      3.341      8.191
REMARK  7 active torsions:
REMARK  status: ('A' for Active; 'I' for Inactive)
REMARK    1  A    between atoms: C2_3  and  C3_4 
REMARK    2  A    between atoms: C3_4  and  C4_5 
REMARK    3  A    between atoms: C4_5  and  C5_6 
REMARK       I    between atoms: C5_6  and  N2_8 
REMARK    4  A    between atoms: C8_11  and  C9_12 
REMARK    5  A    between atoms: C9_12  and  N3_13 
REMARK    6  A    between atoms: C15_19  and  N4_20 
REMARK    7  A    between atoms: C16_21  and  O2_22 
ROOT
HETATM    1  N1  UNL     1     -13.028  13.204  -2.147  1.00  0.00    -0.197 NA
HETATM    2  C1  UNL     1     -13.517  12.760  -1.186  1.00  0.00     0.059 C 
HETATM    3  C2  UNL     1     -14.130  12.214   0.025  1.00  0.00     0.124 C 
ENDROOT
BRANCH   3   4
HETATM    4  C3  UNL     1     -14.718  13.294   0.890  1.00  0.00     0.023 C 
BRANCH   4   5
HETATM    5  C4  UNL     1     -15.716  14.161   0.220  1.00  0.00     0.104 C 
BRANCH   5   6
HETATM    6  C5  UNL     1     -17.100  13.665   0.238  1.00  0.00     0.219 C 
HETATM    7  O1  UNL     1     -17.691  13.639   1.377  1.00  0.00    -0.273 OA
HETATM    8  N2  UNL     1     -17.753  13.235  -0.930  1.00  0.00    -0.352 N 
HETATM    9  C6  UNL     1     -17.097  13.257  -2.202  1.00  0.00     0.126 C 
HETATM   10  C21 UNL     1     -19.109  12.749  -0.908  1.00  0.00     0.126 C 
HETATM   11  C7  UNL     1     -16.895  11.833  -2.633  1.00  0.00     0.030 C 
HETATM   12  C8  UNL     1     -18.248  11.118  -2.595  1.00  0.00     0.027 C 
HETATM   13  C20 UNL     1     -19.388  11.949  -2.189  1.00  0.00     0.030 C 
BRANCH  12  14
HETATM   14  C9  UNL     1     -18.399  10.426  -3.924  1.00  0.00     0.064 C 
BRANCH  14  15
HETATM   15  N3  UNL     1     -18.820   9.107  -3.983  1.00  0.00    -0.384 N 
HETATM   16  C10 UNL     1     -19.111   8.296  -2.886  1.00  0.00     0.086 C 
HETATM   17  C11 UNL     1     -20.640   8.484  -2.672  1.00  0.00     0.027 C 
HETATM   18  C19 UNL     1     -18.872   6.838  -3.294  1.00  0.00     0.051 C 
HETATM   19  C12 UNL     1     -21.091   8.898  -4.031  1.00  0.00     0.027 C 
HETATM   20  C13 UNL     1     -19.870   8.889  -4.934  1.00  0.00     0.086 C 
HETATM   21  C14 UNL     1     -19.650   7.496  -5.520  1.00  0.00     0.051 C 
HETATM   22  C15 UNL     1     -19.852   6.506  -4.381  1.00  0.00     0.098 C 
BRANCH  22  23
HETATM   23  N4  UNL     1     -19.722   5.135  -4.837  1.00  0.00    -0.298 N 
HETATM   24  C16 UNL     1     -18.739   4.633  -5.628  1.00  0.00     0.160 A 
HETATM   25  C17 UNL     1     -18.953   3.286  -5.842  1.00  0.00     0.146 A 
HETATM   26  N5  UNL     1     -20.076   2.976  -5.174  1.00  0.00    -0.339 N 
HETATM   27  C18 UNL     1     -20.523   4.078  -4.582  1.00  0.00     0.180 A 
ATOM     28  H5  UNL     1     -20.510   2.054  -5.128  1.00  0.00     0.167 HD
HETATM   29  S1  UNL     1     -21.869   4.163  -3.658  1.00  0.00    -0.040 SA
BRANCH  24  30
HETATM   30  O2  UNL     1     -17.667   5.328  -6.159  1.00  0.00    -0.345 OA
ATOM     31  H2  UNL     1     -17.037   5.854  -5.681  1.00  0.00     0.219 HD
ENDBRANCH  24  30
ENDBRANCH  22  23
ENDBRANCH  14  15
ENDBRANCH  12  14
ENDBRANCH   5   6
ENDBRANCH   4   5
ENDBRANCH   3   4
TORSDOF 7
ENDMDL
