MODEL 1
REMARK VINA RESULT: -7.577070596      0.000      0.000
REMARK  9 active torsions:
REMARK  status: ('A' for Active; 'I' for Inactive)
REMARK    1  A    between atoms: C6_8  and  C7_9 
REMARK    2  A    between atoms: C7_9  and  N2_10 
REMARK    3  A    between atoms: C7_9  and  O3_23 
REMARK    4  A    between atoms: N2_10  and  C8_12 
REMARK    5  A    between atoms: C8_12  and  C9_13 
REMARK    6  A    between atoms: C8_12  and  C10_20 
REMARK    7  A    between atoms: C9_13  and  O1_14 
REMARK    8  A    between atoms: N3_16  and  O2_18 
REMARK    9  A    between atoms: O3_23  and  C13_24 
ROOT
HETATM    1  C7  UNL     1      19.299  22.677 -17.894  1.00  0.00     0.254 C 
ENDROOT
BRANCH   1   2
HETATM    2  C6  UNL     1      18.121  23.399 -18.406  1.00  0.00     0.018 A 
HETATM    3  C5  UNL     1      17.035  22.830 -19.028  1.00  0.00     0.101 A 
HETATM    4  N1  UNL     1      16.152  23.764 -19.374  1.00  0.00    -0.364 N 
HETATM    5  C4  UNL     1      16.657  24.943 -18.978  1.00  0.00     0.043 A 
ATOM      6  H1  UNL     1      15.262  23.613 -19.848  1.00  0.00     0.165 HD
HETATM    7  C3  UNL     1      16.122  26.205 -19.103  1.00  0.00     0.040 A 
HETATM    8  C18 UNL     1      17.875  24.746 -18.376  1.00  0.00     0.005 A 
HETATM    9  C2  UNL     1      16.794  27.309 -18.626  1.00  0.00    -0.021 A 
HETATM   10  C1  UNL     1      16.199  28.684 -18.767  1.00  0.00     0.051 C 
HETATM   11  C20 UNL     1      18.024  27.128 -18.016  1.00  0.00     0.123 A 
HETATM   12  C19 UNL     1      18.544  25.856 -17.900  1.00  0.00     0.057 A 
HETATM   13  F2  UNL     1      18.674  28.223 -17.553  1.00  0.00    -0.206 F 
ENDBRANCH   1   2
BRANCH   1  14
HETATM   14  N2  UNL     1      19.593  22.885 -16.532  1.00  0.00    -0.381 N 
ATOM     15  H2  UNL     1      19.076  23.598 -16.017  1.00  0.00     0.157 HD
BRANCH  14  16
HETATM   16  C8  UNL     1      20.566  22.146 -15.869  1.00  0.00     0.159 C 
BRANCH  16  17
HETATM   17  C9  UNL     1      20.172  21.322 -14.713  1.00  0.00     0.158 C 
HETATM   18  N3  UNL     1      19.925  21.737 -13.527  1.00  0.00    -0.249 N 
ATOM     19  H3  UNL     1      19.998  22.735 -13.329  1.00  0.00     0.196 HD
BRANCH  17  20
HETATM   20  O1  UNL     1      20.062  19.955 -14.935  1.00  0.00    -0.347 OA
ATOM     21  H1  UNL     1      19.181  19.605 -14.995  1.00  0.00     0.219 HD
ENDBRANCH  17  20
BRANCH  18  22
HETATM   22  O2  UNL     1      19.565  20.886 -12.517  1.00  0.00    -0.288 OA
ATOM     23  H2  UNL     1      19.438  21.185 -11.625  1.00  0.00     0.244 HD
ENDBRANCH  18  22
ENDBRANCH  16  17
BRANCH  16  24
HETATM   24  C10 UNL     1      21.603  23.141 -15.310  1.00  0.00     0.008 C 
HETATM   25  C11 UNL     1      22.851  23.084 -16.153  1.00  0.00     0.012 C 
HETATM   26  C12 UNL     1      21.069  24.551 -15.368  1.00  0.00     0.012 C 
ENDBRANCH  16  24
ENDBRANCH  14  16
ENDBRANCH   1  14
BRANCH   1  27
HETATM   27  O3  UNL     1      19.191  21.294 -18.058  1.00  0.00    -0.354 OA
BRANCH  27  28
HETATM   28  C13 UNL     1      19.672  20.815 -19.237  1.00  0.00     0.162 C 
HETATM   29  C14 UNL     1      18.952  19.517 -19.549  1.00  0.00     0.061 C 
HETATM   30  C15 UNL     1      19.877  18.362 -19.769  1.00  0.00     0.170 C 
HETATM   31  O4  UNL     1      20.848  18.191 -18.819  1.00  0.00    -0.388 OA
HETATM   32  C16 UNL     1      21.289  19.331 -18.197  1.00  0.00     0.207 C 
HETATM   33  C17 UNL     1      21.145  20.472 -19.212  1.00  0.00     0.222 C 
HETATM   34  F1  UNL     1      21.941  21.487 -18.806  1.00  0.00    -0.244 F 
ENDBRANCH  27  28
ENDBRANCH   1  27
TORSDOF 9
ENDMDL
MODEL 2
REMARK VINA RESULT: -7.434940369      1.259      1.577
REMARK  9 active torsions:
REMARK  status: ('A' for Active; 'I' for Inactive)
REMARK    1  A    between atoms: C6_8  and  C7_9 
REMARK    2  A    between atoms: C7_9  and  N2_10 
REMARK    3  A    between atoms: C7_9  and  O3_23 
REMARK    4  A    between atoms: N2_10  and  C8_12 
REMARK    5  A    between atoms: C8_12  and  C9_13 
REMARK    6  A    between atoms: C8_12  and  C10_20 
REMARK    7  A    between atoms: C9_13  and  O1_14 
REMARK    8  A    between atoms: N3_16  and  O2_18 
REMARK    9  A    between atoms: O3_23  and  C13_24 
ROOT
HETATM    1  C7  UNL     1      18.565  22.012 -17.949  1.00  0.00     0.254 C 
ENDROOT
BRANCH   1   2
HETATM    2  C6  UNL     1      17.584  22.995 -18.441  1.00  0.00     0.018 A 
HETATM    3  C5  UNL     1      16.437  22.707 -19.141  1.00  0.00     0.101 A 
HETATM    4  N1  UNL     1      15.779  23.824 -19.442  1.00  0.00    -0.364 N 
HETATM    5  C4  UNL     1      16.493  24.843 -18.938  1.00  0.00     0.043 A 
ATOM      6  H1  UNL     1      14.901  23.893 -19.955  1.00  0.00     0.165 HD
HETATM    7  C3  UNL     1      16.232  26.194 -18.981  1.00  0.00     0.040 A 
HETATM    8  C18 UNL     1      17.615  24.359 -18.313  1.00  0.00     0.005 A 
HETATM    9  C2  UNL     1      17.090  27.100 -18.397  1.00  0.00    -0.021 A 
HETATM   10  C1  UNL     1      16.793  28.575 -18.449  1.00  0.00     0.051 C 
HETATM   11  C20 UNL     1      18.226  26.628 -17.762  1.00  0.00     0.123 A 
HETATM   12  C19 UNL     1      18.471  25.271 -17.729  1.00  0.00     0.057 A 
HETATM   13  F2  UNL     1      19.061  27.530 -17.193  1.00  0.00    -0.206 F 
ENDBRANCH   1   2
BRANCH   1  14
HETATM   14  N2  UNL     1      18.688  21.928 -16.547  1.00  0.00    -0.381 N 
ATOM     15  H2  UNL     1      17.885  21.623 -15.997  1.00  0.00     0.157 HD
BRANCH  14  16
HETATM   16  C8  UNL     1      19.872  22.249 -15.894  1.00  0.00     0.159 C 
BRANCH  16  17
HETATM   17  C9  UNL     1      20.858  21.184 -15.639  1.00  0.00     0.158 C 
HETATM   18  N3  UNL     1      22.126  21.264 -15.796  1.00  0.00    -0.249 N 
ATOM     19  H3  UNL     1      22.527  22.139 -16.132  1.00  0.00     0.196 HD
BRANCH  17  20
HETATM   20  O1  UNL     1      20.357  19.971 -15.184  1.00  0.00    -0.347 OA
ATOM     21  H1  UNL     1      20.061  19.358 -15.847  1.00  0.00     0.219 HD
ENDBRANCH  17  20
BRANCH  18  22
HETATM   22  O2  UNL     1      22.961  20.212 -15.530  1.00  0.00    -0.288 OA
ATOM     23  H2  UNL     1      23.899  20.323 -15.432  1.00  0.00     0.244 HD
ENDBRANCH  18  22
ENDBRANCH  16  17
BRANCH  16  24
HETATM   24  C10 UNL     1      19.500  22.784 -14.496  1.00  0.00     0.008 C 
HETATM   25  C11 UNL     1      20.412  23.931 -14.145  1.00  0.00     0.012 C 
HETATM   26  C12 UNL     1      18.082  23.302 -14.487  1.00  0.00     0.012 C 
ENDBRANCH  16  24
ENDBRANCH  14  16
ENDBRANCH   1  14
BRANCH   1  27
HETATM   27  O3  UNL     1      18.289  20.715 -18.388  1.00  0.00    -0.354 OA
BRANCH  27  28
HETATM   28  C13 UNL     1      18.892  20.363 -19.555  1.00  0.00     0.162 C 
HETATM   29  C14 UNL     1      18.431  18.966 -19.924  1.00  0.00     0.061 C 
HETATM   30  C15 UNL     1      19.557  18.003 -20.129  1.00  0.00     0.170 C 
HETATM   31  O4  UNL     1      20.507  17.983 -19.142  1.00  0.00    -0.388 OA
HETATM   32  C16 UNL     1      20.710  19.167 -18.480  1.00  0.00     0.207 C 
HETATM   33  C17 UNL     1      20.400  20.291 -19.476  1.00  0.00     0.222 C 
HETATM   34  F1  UNL     1      20.984  21.421 -19.018  1.00  0.00    -0.244 F 
ENDBRANCH  27  28
ENDBRANCH   1  27
TORSDOF 9
ENDMDL
MODEL 3
REMARK VINA RESULT: -7.420361687      2.805      6.022
REMARK  9 active torsions:
REMARK  status: ('A' for Active; 'I' for Inactive)
REMARK    1  A    between atoms: C6_8  and  C7_9 
REMARK    2  A    between atoms: C7_9  and  N2_10 
REMARK    3  A    between atoms: C7_9  and  O3_23 
REMARK    4  A    between atoms: N2_10  and  C8_12 
REMARK    5  A    between atoms: C8_12  and  C9_13 
REMARK    6  A    between atoms: C8_12  and  C10_20 
REMARK    7  A    between atoms: C9_13  and  O1_14 
REMARK    8  A    between atoms: N3_16  and  O2_18 
REMARK    9  A    between atoms: O3_23  and  C13_24 
ROOT
HETATM    1  C7  UNL     1      19.117  22.325 -16.968  1.00  0.00     0.254 C 
ENDROOT
BRANCH   1   2
HETATM    2  C6  UNL     1      18.758  22.625 -15.571  1.00  0.00     0.018 A 
HETATM    3  C5  UNL     1      17.507  22.969 -15.116  1.00  0.00     0.101 A 
HETATM    4  N1  UNL     1      17.529  23.181 -13.803  1.00  0.00    -0.364 N 
HETATM    5  C4  UNL     1      18.791  22.976 -13.396  1.00  0.00     0.043 A 
ATOM      6  H1  UNL     1      16.738  23.449 -13.218  1.00  0.00     0.165 HD
HETATM    7  C3  UNL     1      19.323  23.067 -12.129  1.00  0.00     0.040 A 
HETATM    8  C18 UNL     1      19.573  22.630 -14.469  1.00  0.00     0.005 A 
HETATM    9  C2  UNL     1      20.658  22.812 -11.902  1.00  0.00    -0.021 A 
HETATM   10  C1  UNL     1      21.228  22.913 -10.513  1.00  0.00     0.051 C 
HETATM   11  C20 UNL     1      21.461  22.461 -12.974  1.00  0.00     0.123 A 
HETATM   12  C19 UNL     1      20.910  22.375 -14.236  1.00  0.00     0.057 A 
HETATM   13  F2  UNL     1      22.772  22.214 -12.736  1.00  0.00    -0.206 F 
ENDBRANCH   1   2
BRANCH   1  14
HETATM   14  N2  UNL     1      19.730  21.073 -17.181  1.00  0.00    -0.381 N 
ATOM     15  H2  UNL     1      19.682  20.367 -16.446  1.00  0.00     0.157 HD
BRANCH  14  16
HETATM   16  C8  UNL     1      20.397  20.774 -18.363  1.00  0.00     0.159 C 
BRANCH  16  17
HETATM   17  C9  UNL     1      19.921  19.650 -19.186  1.00  0.00     0.158 C 
HETATM   18  N3  UNL     1      20.641  18.867 -19.900  1.00  0.00    -0.249 N 
ATOM     19  H3  UNL     1      21.650  19.010 -19.924  1.00  0.00     0.196 HD
BRANCH  17  20
HETATM   20  O1  UNL     1      18.552  19.419 -19.189  1.00  0.00    -0.347 OA
ATOM     21  H1  UNL     1      18.274  18.515 -19.280  1.00  0.00     0.219 HD
ENDBRANCH  17  20
BRANCH  18  22
HETATM   22  O2  UNL     1      20.099  17.846 -20.634  1.00  0.00    -0.288 OA
ATOM     23  H2  UNL     1      20.142  17.826 -21.583  1.00  0.00     0.244 HD
ENDBRANCH  18  22
ENDBRANCH  16  17
BRANCH  16  24
HETATM   24  C10 UNL     1      21.849  20.407 -17.995  1.00  0.00     0.008 C 
HETATM   25  C11 UNL     1      22.692  21.657 -17.993  1.00  0.00     0.012 C 
HETATM   26  C12 UNL     1      21.910  19.805 -16.613  1.00  0.00     0.012 C 
ENDBRANCH  16  24
ENDBRANCH  14  16
ENDBRANCH   1  14
BRANCH   1  27
HETATM   27  O3  UNL     1      18.014  22.364 -17.823  1.00  0.00    -0.354 OA
BRANCH  27  28
HETATM   28  C13 UNL     1      18.063  23.328 -18.781  1.00  0.00     0.162 C 
HETATM   29  C14 UNL     1      17.568  24.626 -18.172  1.00  0.00     0.061 C 
HETATM   30  C15 UNL     1      16.431  25.239 -18.925  1.00  0.00     0.170 C 
HETATM   31  O4  UNL     1      15.398  24.394 -19.233  1.00  0.00    -0.388 OA
HETATM   32  C16 UNL     1      15.735  23.078 -19.425  1.00  0.00     0.207 C 
HETATM   33  C17 UNL     1      17.168  23.064 -19.972  1.00  0.00     0.222 C 
HETATM   34  F1  UNL     1      17.372  21.865 -20.562  1.00  0.00    -0.244 F 
ENDBRANCH  27  28
ENDBRANCH   1  27
TORSDOF 9
ENDMDL
MODEL 4
REMARK VINA RESULT: -7.303369743      2.867      5.723
REMARK  9 active torsions:
REMARK  status: ('A' for Active; 'I' for Inactive)
REMARK    1  A    between atoms: C6_8  and  C7_9 
REMARK    2  A    between atoms: C7_9  and  N2_10 
REMARK    3  A    between atoms: C7_9  and  O3_23 
REMARK    4  A    between atoms: N2_10  and  C8_12 
REMARK    5  A    between atoms: C8_12  and  C9_13 
REMARK    6  A    between atoms: C8_12  and  C10_20 
REMARK    7  A    between atoms: C9_13  and  O1_14 
REMARK    8  A    between atoms: N3_16  and  O2_18 
REMARK    9  A    between atoms: O3_23  and  C13_24 
ROOT
HETATM    1  C7  UNL     1      20.078  22.237 -19.806  1.00  0.00     0.254 C 
ENDROOT
BRANCH   1   2
HETATM    2  C6  UNL     1      21.431  22.795 -19.975  1.00  0.00     0.018 A 
HETATM    3  C5  UNL     1      22.167  22.786 -21.136  1.00  0.00     0.101 A 
HETATM    4  N1  UNL     1      23.350  23.364 -20.944  1.00  0.00    -0.364 N 
HETATM    5  C4  UNL     1      23.390  23.752 -19.660  1.00  0.00     0.043 A 
ATOM      6  H1  UNL     1      24.085  23.488 -21.640  1.00  0.00     0.165 HD
HETATM    7  C3  UNL     1      24.396  24.398 -18.977  1.00  0.00     0.040 A 
HETATM    8  C18 UNL     1      22.215  23.413 -19.037  1.00  0.00     0.005 A 
HETATM    9  C2  UNL     1      24.252  24.723 -17.645  1.00  0.00    -0.021 A 
HETATM   10  C1  UNL     1      25.358  25.430 -16.909  1.00  0.00     0.051 C 
HETATM   11  C20 UNL     1      23.072  24.388 -17.002  1.00  0.00     0.123 A 
HETATM   12  C19 UNL     1      22.076  23.742 -17.703  1.00  0.00     0.057 A 
HETATM   13  F2  UNL     1      22.945  24.713 -15.693  1.00  0.00    -0.206 F 
ENDBRANCH   1   2
BRANCH   1  14
HETATM   14  N2  UNL     1      19.945  21.265 -18.793  1.00  0.00    -0.381 N 
ATOM     15  H2  UNL     1      19.370  21.476 -17.978  1.00  0.00     0.157 HD
BRANCH  14  16
HETATM   16  C8  UNL     1      20.576  20.029 -18.874  1.00  0.00     0.159 C 
BRANCH  16  17
HETATM   17  C9  UNL     1      19.765  18.831 -19.148  1.00  0.00     0.158 C 
HETATM   18  N3  UNL     1      18.539  18.806 -19.520  1.00  0.00    -0.249 N 
ATOM     19  H3  UNL     1      18.045  19.688 -19.648  1.00  0.00     0.196 HD
BRANCH  17  20
HETATM   20  O1  UNL     1      20.395  17.605 -18.984  1.00  0.00    -0.347 OA
ATOM     21  H1  UNL     1      20.208  17.135 -18.180  1.00  0.00     0.219 HD
ENDBRANCH  17  20
BRANCH  18  22
HETATM   22  O2  UNL     1      17.872  17.633 -19.751  1.00  0.00    -0.288 OA
ATOM     23  H2  UNL     1      17.363  17.487 -20.540  1.00  0.00     0.244 HD
ENDBRANCH  18  22
ENDBRANCH  16  17
BRANCH  16  24
HETATM   24  C10 UNL     1      21.235  19.755 -17.507  1.00  0.00     0.008 C 
HETATM   25  C11 UNL     1      22.713  20.035 -17.602  1.00  0.00     0.012 C 
HETATM   26  C12 UNL     1      20.659  20.664 -16.448  1.00  0.00     0.012 C 
ENDBRANCH  16  24
ENDBRANCH  14  16
ENDBRANCH   1  14
BRANCH   1  27
HETATM   27  O3  UNL     1      19.126  23.219 -19.524  1.00  0.00    -0.354 OA
BRANCH  27  28
HETATM   28  C13 UNL     1      18.062  22.795 -18.790  1.00  0.00     0.162 C 
HETATM   29  C14 UNL     1      16.900  22.556 -19.736  1.00  0.00     0.061 C 
HETATM   30  C15 UNL     1      15.668  23.320 -19.368  1.00  0.00     0.170 C 
HETATM   31  O4  UNL     1      15.851  24.653 -19.111  1.00  0.00    -0.388 OA
HETATM   32  C16 UNL     1      17.072  25.003 -18.593  1.00  0.00     0.207 C 
HETATM   33  C17 UNL     1      17.567  23.802 -17.777  1.00  0.00     0.222 C 
HETATM   34  F1  UNL     1      18.521  24.246 -16.928  1.00  0.00    -0.244 F 
ENDBRANCH  27  28
ENDBRANCH   1  27
TORSDOF 9
ENDMDL
MODEL 5
REMARK VINA RESULT: -7.284652399      2.664      5.381
REMARK  9 active torsions:
REMARK  status: ('A' for Active; 'I' for Inactive)
REMARK    1  A    between atoms: C6_8  and  C7_9 
REMARK    2  A    between atoms: C7_9  and  N2_10 
REMARK    3  A    between atoms: C7_9  and  O3_23 
REMARK    4  A    between atoms: N2_10  and  C8_12 
REMARK    5  A    between atoms: C8_12  and  C9_13 
REMARK    6  A    between atoms: C8_12  and  C10_20 
REMARK    7  A    between atoms: C9_13  and  O1_14 
REMARK    8  A    between atoms: N3_16  and  O2_18 
REMARK    9  A    between atoms: O3_23  and  C13_24 
ROOT
HETATM    1  C7  UNL     1      19.186  22.079 -16.976  1.00  0.00     0.254 C 
ENDROOT
BRANCH   1   2
HETATM    2  C6  UNL     1      19.219  22.278 -15.516  1.00  0.00     0.018 A 
HETATM    3  C5  UNL     1      19.638  21.355 -14.587  1.00  0.00     0.101 A 
HETATM    4  N1  UNL     1      19.533  21.850 -13.356  1.00  0.00    -0.364 N 
HETATM    5  C4  UNL     1      19.048  23.096 -13.477  1.00  0.00     0.043 A 
ATOM      6  H1  UNL     1      19.775  21.375 -12.488  1.00  0.00     0.165 HD
HETATM    7  C3  UNL     1      18.765  24.019 -12.496  1.00  0.00     0.040 A 
HETATM    8  C18 UNL     1      18.845  23.386 -14.804  1.00  0.00     0.005 A 
HETATM    9  C2  UNL     1      18.271  25.265 -12.818  1.00  0.00    -0.021 A 
HETATM   10  C1  UNL     1      17.967  26.267 -11.737  1.00  0.00     0.051 C 
HETATM   11  C20 UNL     1      18.061  25.574 -14.151  1.00  0.00     0.123 A 
HETATM   12  C19 UNL     1      18.349  24.636 -15.120  1.00  0.00     0.057 A 
HETATM   13  F2  UNL     1      17.573  26.802 -14.452  1.00  0.00    -0.206 F 
ENDBRANCH   1   2
BRANCH   1  14
HETATM   14  N2  UNL     1      19.445  20.766 -17.415  1.00  0.00    -0.381 N 
ATOM     15  H2  UNL     1      19.143  19.982 -16.837  1.00  0.00     0.157 HD
BRANCH  14  16
HETATM   16  C8  UNL     1      20.100  20.508 -18.613  1.00  0.00     0.159 C 
BRANCH  16  17
HETATM   17  C9  UNL     1      19.695  19.338 -19.411  1.00  0.00     0.158 C 
HETATM   18  N3  UNL     1      18.520  18.835 -19.488  1.00  0.00    -0.249 N 
ATOM     19  H3  UNL     1      17.764  19.265 -18.956  1.00  0.00     0.196 HD
BRANCH  17  20
HETATM   20  O1  UNL     1      20.693  18.717 -20.152  1.00  0.00    -0.347 OA
ATOM     21  H1  UNL     1      20.525  17.821 -20.422  1.00  0.00     0.219 HD
ENDBRANCH  17  20
BRANCH  18  22
HETATM   22  O2  UNL     1      18.245  17.740 -20.263  1.00  0.00    -0.288 OA
ATOM     23  H2  UNL     1      18.899  17.077 -20.452  1.00  0.00     0.244 HD
ENDBRANCH  18  22
ENDBRANCH  16  17
BRANCH  16  24
HETATM   24  C10 UNL     1      21.587  20.266 -18.286  1.00  0.00     0.008 C 
HETATM   25  C11 UNL     1      22.321  21.583 -18.306  1.00  0.00     0.012 C 
HETATM   26  C12 UNL     1      21.737  19.675 -16.905  1.00  0.00     0.012 C 
ENDBRANCH  16  24
ENDBRANCH  14  16
ENDBRANCH   1  14
BRANCH   1  27
HETATM   27  O3  UNL     1      17.957  22.437 -17.536  1.00  0.00    -0.354 OA
BRANCH  27  28
HETATM   28  C13 UNL     1      18.033  23.280 -18.600  1.00  0.00     0.162 C 
HETATM   29  C14 UNL     1      17.551  24.648 -18.155  1.00  0.00     0.061 C 
HETATM   30  C15 UNL     1      16.433  25.185 -18.991  1.00  0.00     0.170 C 
HETATM   31  O4  UNL     1      15.391  24.323 -19.212  1.00  0.00    -0.388 OA
HETATM   32  C16 UNL     1      15.710  22.990 -19.243  1.00  0.00     0.207 C 
HETATM   33  C17 UNL     1      17.149  22.891 -19.763  1.00  0.00     0.222 C 
HETATM   34  F1  UNL     1      17.342  21.627 -20.205  1.00  0.00    -0.244 F 
ENDBRANCH  27  28
ENDBRANCH   1  27
TORSDOF 9
ENDMDL
