MODEL 1
REMARK VINA RESULT: -6.433924144      0.000      0.000
REMARK  8 active torsions:
REMARK  status: ('A' for Active; 'I' for Inactive)
REMARK    1  A    between atoms: C2_2  and  C3_3 
REMARK    2  A    between atoms: C3_3  and  N1_6 
REMARK    3  A    between atoms: N1_6  and  C6_8 
REMARK    4  A    between atoms: C7_9  and  O1_10 
REMARK    5  A    between atoms: C8_12  and  C9_13 
REMARK    6  A    between atoms: N2_14  and  N3_16 
REMARK    7  A    between atoms: N3_16  and  C10_18 
REMARK    8  A    between atoms: C13_24  and  O2_25 
ROOT
HETATM    1  C6  UNL     1      21.674  22.058 -15.699  1.00  0.00     0.098 A 
HETATM    2  C7  UNL     1      21.412  20.822 -16.350  1.00  0.00     0.106 A 
HETATM    3  C8  UNL     1      21.807  20.525 -17.608  1.00  0.00     0.018 A 
HETATM    4  C11 UNL     1      22.521  21.484 -18.336  1.00  0.00     0.038 A 
HETATM    5  C12 UNL     1      22.792  22.682 -17.739  1.00  0.00     0.047 A 
HETATM    6 BR1  UNL     1      23.767  23.975 -18.745  1.00  0.00    -0.048 Br
HETATM    7  C13 UNL     1      22.366  22.969 -16.419  1.00  0.00     0.114 A 
ENDROOT
BRANCH   3   8
HETATM    8  C9  UNL     1      21.511  19.231 -18.242  1.00  0.00     0.121 C 
HETATM    9  N2  UNL     1      20.320  18.958 -18.595  1.00  0.00    -0.309 N 
ATOM     10  H2  UNL     1      19.570  19.631 -18.442  1.00  0.00     0.186 HD
BRANCH   9  11
HETATM   11  N3  UNL     1      20.052  17.724 -19.197  1.00  0.00    -0.279 N 
ATOM     12  H3  UNL     1      20.328  16.857 -18.738  1.00  0.00     0.189 HD
BRANCH  11  13
HETATM   13  C10 UNL     1      19.392  17.690 -20.452  1.00  0.00     0.199 C 
HETATM   14  N4  UNL     1      20.019  17.110 -21.608  1.00  0.00    -0.068 NA
HETATM   15  S1  UNL     1      17.897  18.327 -20.559  1.00  0.00    -0.043 SA
ENDBRANCH  11  13
ENDBRANCH   9  11
ENDBRANCH   3   8
BRANCH   2  16
HETATM   16  O1  UNL     1      20.715  19.892 -15.624  1.00  0.00    -0.357 OA
ATOM     17  H1  UNL     1      21.120  19.604 -14.814  1.00  0.00     0.217 HD
ENDBRANCH   2  16
BRANCH   1  18
HETATM   18  N1  UNL     1      21.243  22.175 -14.359  1.00  0.00    -0.377 N 
ATOM     19  H1  UNL     1      21.904  21.814 -13.670  1.00  0.00     0.160 HD
BRANCH  18  20
HETATM   20  C3  UNL     1      20.055  22.706 -13.808  1.00  0.00     0.023 C 
HETATM   21  C4  UNL     1      18.844  22.702 -14.681  1.00  0.00     0.038 C 
HETATM   22  C5  UNL     1      20.263  24.140 -13.337  1.00  0.00     0.038 C 
BRANCH  20  23
HETATM   23  C2  UNL     1      19.788  21.920 -12.504  1.00  0.00     0.025 C 
HETATM   24  C1  UNL     1      20.258  22.672 -11.311  1.00  0.00     0.007 C 
ENDBRANCH  20  23
ENDBRANCH  18  20
ENDBRANCH   1  18
BRANCH   7  25
HETATM   25  O2  UNL     1      22.709  24.207 -15.959  1.00  0.00    -0.352 OA
HETATM   26  C14 UNL     1      23.833  24.626 -15.269  1.00  0.00     0.210 C 
ENDBRANCH   7  25
TORSDOF 8
ENDMDL
MODEL 2
REMARK VINA RESULT: -6.347550440      0.999      1.504
REMARK  8 active torsions:
REMARK  status: ('A' for Active; 'I' for Inactive)
REMARK    1  A    between atoms: C2_2  and  C3_3 
REMARK    2  A    between atoms: C3_3  and  N1_6 
REMARK    3  A    between atoms: N1_6  and  C6_8 
REMARK    4  A    between atoms: C7_9  and  O1_10 
REMARK    5  A    between atoms: C8_12  and  C9_13 
REMARK    6  A    between atoms: N2_14  and  N3_16 
REMARK    7  A    between atoms: N3_16  and  C10_18 
REMARK    8  A    between atoms: C13_24  and  O2_25 
ROOT
HETATM    1  C6  UNL     1      20.927  22.512 -15.758  1.00  0.00     0.098 A 
HETATM    2  C7  UNL     1      20.817  21.228 -16.357  1.00  0.00     0.106 A 
HETATM    3  C8  UNL     1      21.540  20.819 -17.422  1.00  0.00     0.018 A 
HETATM    4  C11 UNL     1      22.465  21.703 -17.990  1.00  0.00     0.038 A 
HETATM    5  C12 UNL     1      22.597  22.946 -17.439  1.00  0.00     0.047 A 
HETATM    6 BR1  UNL     1      23.862  24.136 -18.224  1.00  0.00    -0.048 Br
HETATM    7  C13 UNL     1      21.826  23.350 -16.321  1.00  0.00     0.114 A 
ENDROOT
BRANCH   3   8
HETATM    8  C9  UNL     1      21.391  19.478 -18.009  1.00  0.00     0.121 C 
HETATM    9  N2  UNL     1      20.291  19.147 -18.556  1.00  0.00    -0.309 N 
ATOM     10  H2  UNL     1      19.512  19.806 -18.589  1.00  0.00     0.186 HD
BRANCH   9  11
HETATM   11  N3  UNL     1      20.161  17.870 -19.111  1.00  0.00    -0.279 N 
ATOM     12  H3  UNL     1      20.550  17.059 -18.631  1.00  0.00     0.189 HD
BRANCH  11  13
HETATM   13  C10 UNL     1      19.482  17.713 -20.346  1.00  0.00     0.199 C 
HETATM   14  N4  UNL     1      20.119  17.081 -21.470  1.00  0.00    -0.068 NA
HETATM   15  S1  UNL     1      17.957  18.267 -20.469  1.00  0.00    -0.043 SA
ENDBRANCH  11  13
ENDBRANCH   9  11
ENDBRANCH   3   8
BRANCH   2  16
HETATM   16  O1  UNL     1      19.909  20.372 -15.788  1.00  0.00    -0.357 OA
ATOM     17  H1  UNL     1      19.987  20.243 -14.850  1.00  0.00     0.217 HD
ENDBRANCH   2  16
BRANCH   1  18
HETATM   18  N1  UNL     1      20.139  22.749 -14.610  1.00  0.00    -0.377 N 
ATOM     19  H1  UNL     1      19.150  22.913 -14.802  1.00  0.00     0.160 HD
BRANCH  18  20
HETATM   20  C3  UNL     1      20.485  22.796 -13.241  1.00  0.00     0.023 C 
HETATM   21  C4  UNL     1      21.922  22.584 -12.898  1.00  0.00     0.038 C 
HETATM   22  C5  UNL     1      19.679  21.783 -12.436  1.00  0.00     0.038 C 
BRANCH  20  23
HETATM   23  C2  UNL     1      19.996  24.165 -12.713  1.00  0.00     0.025 C 
HETATM   24  C1  UNL     1      18.793  24.633 -13.451  1.00  0.00     0.007 C 
ENDBRANCH  20  23
ENDBRANCH  18  20
ENDBRANCH   1  18
BRANCH   7  25
HETATM   25  O2  UNL     1      22.068  24.619 -15.883  1.00  0.00    -0.352 OA
HETATM   26  C14 UNL     1      21.315  25.772 -16.016  1.00  0.00     0.210 C 
ENDBRANCH   7  25
TORSDOF 8
ENDMDL
MODEL 3
REMARK VINA RESULT: -6.236548094      2.861      3.541
REMARK  8 active torsions:
REMARK  status: ('A' for Active; 'I' for Inactive)
REMARK    1  A    between atoms: C2_2  and  C3_3 
REMARK    2  A    between atoms: C3_3  and  N1_6 
REMARK    3  A    between atoms: N1_6  and  C6_8 
REMARK    4  A    between atoms: C7_9  and  O1_10 
REMARK    5  A    between atoms: C8_12  and  C9_13 
REMARK    6  A    between atoms: N2_14  and  N3_16 
REMARK    7  A    between atoms: N3_16  and  C10_18 
REMARK    8  A    between atoms: C13_24  and  O2_25 
ROOT
HETATM    1  C6  UNL     1      18.895  22.965 -13.997  1.00  0.00     0.098 A 
HETATM    2  C7  UNL     1      18.381  22.515 -15.244  1.00  0.00     0.106 A 
HETATM    3  C8  UNL     1      19.141  22.239 -16.327  1.00  0.00     0.018 A 
HETATM    4  C11 UNL     1      20.528  22.402 -16.237  1.00  0.00     0.038 A 
HETATM    5  C12 UNL     1      21.056  22.832 -15.053  1.00  0.00     0.047 A 
HETATM    6 BR1  UNL     1      22.947  23.047 -14.949  1.00  0.00    -0.048 Br
HETATM    7  C13 UNL     1      20.236  23.115 -13.932  1.00  0.00     0.114 A 
ENDROOT
BRANCH   3   8
HETATM    8  C9  UNL     1      18.564  21.776 -17.598  1.00  0.00     0.121 C 
HETATM    9  N2  UNL     1      18.385  20.532 -17.794  1.00  0.00    -0.309 N 
ATOM     10  H2  UNL     1      18.639  19.854 -17.075  1.00  0.00     0.186 HD
BRANCH   9  11
HETATM   11  N3  UNL     1      17.835  20.103 -19.006  1.00  0.00    -0.279 N 
ATOM     12  H3  UNL     1      16.997  20.550 -19.378  1.00  0.00     0.189 HD
BRANCH  11  13
HETATM   13  C10 UNL     1      18.452  19.041 -19.714  1.00  0.00     0.199 C 
HETATM   14  N4  UNL     1      17.690  18.182 -20.580  1.00  0.00    -0.068 NA
HETATM   15  S1  UNL     1      20.052  18.811 -19.526  1.00  0.00    -0.043 SA
ENDBRANCH  11  13
ENDBRANCH   9  11
ENDBRANCH   3   8
BRANCH   2  16
HETATM   16  O1  UNL     1      17.021  22.357 -15.315  1.00  0.00    -0.357 OA
ATOM     17  H1  UNL     1      16.701  21.798 -16.014  1.00  0.00     0.217 HD
ENDBRANCH   2  16
BRANCH   1  18
HETATM   18  N1  UNL     1      17.962  23.143 -12.952  1.00  0.00    -0.377 N 
ATOM     19  H1  UNL     1      17.630  22.276 -12.529  1.00  0.00     0.160 HD
BRANCH  18  20
HETATM   20  C3  UNL     1      17.410  24.316 -12.390  1.00  0.00     0.023 C 
HETATM   21  C4  UNL     1      17.254  25.493 -13.296  1.00  0.00     0.038 C 
HETATM   22  C5  UNL     1      18.221  24.783 -11.187  1.00  0.00     0.038 C 
BRANCH  20  23
HETATM   23  C2  UNL     1      16.045  23.911 -11.786  1.00  0.00     0.025 C 
HETATM   24  C1  UNL     1      15.986  24.210 -10.331  1.00  0.00     0.007 C 
ENDBRANCH  20  23
ENDBRANCH  18  20
ENDBRANCH   1  18
BRANCH   7  25
HETATM   25  O2  UNL     1      20.906  23.536 -12.820  1.00  0.00    -0.352 OA
HETATM   26  C14 UNL     1      21.185  22.873 -11.639  1.00  0.00     0.210 C 
ENDBRANCH   7  25
TORSDOF 8
ENDMDL
MODEL 4
REMARK VINA RESULT: -6.180572762      2.437      2.955
REMARK  8 active torsions:
REMARK  status: ('A' for Active; 'I' for Inactive)
REMARK    1  A    between atoms: C2_2  and  C3_3 
REMARK    2  A    between atoms: C3_3  and  N1_6 
REMARK    3  A    between atoms: N1_6  and  C6_8 
REMARK    4  A    between atoms: C7_9  and  O1_10 
REMARK    5  A    between atoms: C8_12  and  C9_13 
REMARK    6  A    between atoms: N2_14  and  N3_16 
REMARK    7  A    between atoms: N3_16  and  C10_18 
REMARK    8  A    between atoms: C13_24  and  O2_25 
ROOT
HETATM    1  C6  UNL     1      18.743  22.739 -15.597  1.00  0.00     0.098 A 
HETATM    2  C7  UNL     1      19.331  21.702 -16.372  1.00  0.00     0.106 A 
HETATM    3  C8  UNL     1      19.617  21.804 -17.689  1.00  0.00     0.018 A 
HETATM    4  C11 UNL     1      19.322  23.001 -18.353  1.00  0.00     0.038 A 
HETATM    5  C12 UNL     1      18.758  24.018 -17.637  1.00  0.00     0.047 A 
HETATM    6 BR1  UNL     1      18.365  25.640 -18.558  1.00  0.00    -0.048 Br
HETATM    7  C13 UNL     1      18.468  23.885 -16.257  1.00  0.00     0.114 A 
ENDROOT
BRANCH   3   8
HETATM    8  C9  UNL     1      20.225  20.703 -18.451  1.00  0.00     0.121 C 
HETATM    9  N2  UNL     1      19.635  19.578 -18.515  1.00  0.00    -0.309 N 
ATOM     10  H2  UNL     1      18.743  19.435 -18.041  1.00  0.00     0.186 HD
BRANCH   9  11
HETATM   11  N3  UNL     1      20.222  18.538 -19.243  1.00  0.00    -0.279 N 
ATOM     12  H3  UNL     1      21.162  18.215 -19.013  1.00  0.00     0.189 HD
BRANCH  11  13
HETATM   13  C10 UNL     1      19.500  17.936 -20.305  1.00  0.00     0.199 C 
HETATM   14  N4  UNL     1      20.164  17.128 -21.292  1.00  0.00    -0.068 NA
HETATM   15  S1  UNL     1      17.893  18.181 -20.386  1.00  0.00    -0.043 SA
ENDBRANCH  11  13
ENDBRANCH   9  11
ENDBRANCH   3   8
BRANCH   2  16
HETATM   16  O1  UNL     1      19.617  20.538 -15.707  1.00  0.00    -0.357 OA
ATOM     17  H1  UNL     1      19.500  19.735 -16.201  1.00  0.00     0.217 HD
ENDBRANCH   2  16
BRANCH   1  18
HETATM   18  N1  UNL     1      18.573  22.483 -14.218  1.00  0.00    -0.377 N 
ATOM     19  H1  UNL     1      17.748  21.928 -13.990  1.00  0.00     0.160 HD
BRANCH  18  20
HETATM   20  C3  UNL     1      19.350  22.864 -13.100  1.00  0.00     0.023 C 
HETATM   21  C4  UNL     1      20.619  23.600 -13.377  1.00  0.00     0.038 C 
HETATM   22  C5  UNL     1      19.712  21.654 -12.246  1.00  0.00     0.038 C 
BRANCH  20  23
HETATM   23  C2  UNL     1      18.423  23.700 -12.188  1.00  0.00     0.025 C 
HETATM   24  C1  UNL     1      18.221  23.042 -10.871  1.00  0.00     0.007 C 
ENDBRANCH  20  23
ENDBRANCH  18  20
ENDBRANCH   1  18
BRANCH   7  25
HETATM   25  O2  UNL     1      17.905  24.985 -15.678  1.00  0.00    -0.352 OA
HETATM   26  C14 UNL     1      18.495  26.058 -15.034  1.00  0.00     0.210 C 
ENDBRANCH   7  25
TORSDOF 8
ENDMDL
MODEL 5
REMARK VINA RESULT: -6.030949249      3.174      3.714
REMARK  8 active torsions:
REMARK  status: ('A' for Active; 'I' for Inactive)
REMARK    1  A    between atoms: C2_2  and  C3_3 
REMARK    2  A    between atoms: C3_3  and  N1_6 
REMARK    3  A    between atoms: N1_6  and  C6_8 
REMARK    4  A    between atoms: C7_9  and  O1_10 
REMARK    5  A    between atoms: C8_12  and  C9_13 
REMARK    6  A    between atoms: N2_14  and  N3_16 
REMARK    7  A    between atoms: N3_16  and  C10_18 
REMARK    8  A    between atoms: C13_24  and  O2_25 
ROOT
HETATM    1  C6  UNL     1      19.319  22.085 -15.815  1.00  0.00     0.098 A 
HETATM    2  C7  UNL     1      20.055  20.934 -16.203  1.00  0.00     0.106 A 
HETATM    3  C8  UNL     1      20.575  20.741 -17.435  1.00  0.00     0.018 A 
HETATM    4  C11 UNL     1      20.387  21.728 -18.409  1.00  0.00     0.038 A 
HETATM    5  C12 UNL     1      19.684  22.849 -18.070  1.00  0.00     0.047 A 
HETATM    6 BR1  UNL     1      19.439  24.183 -19.409  1.00  0.00    -0.048 Br
HETATM    7  C13 UNL     1      19.149  23.027 -16.770  1.00  0.00     0.114 A 
ENDROOT
BRANCH   3   8
HETATM    8  C9  UNL     1      21.331  19.530 -17.792  1.00  0.00     0.121 C 
HETATM    9  N2  UNL     1      22.503  19.357 -17.328  1.00  0.00    -0.309 N 
ATOM     10  H2  UNL     1      22.921  20.054 -16.710  1.00  0.00     0.186 HD
BRANCH   9  11
HETATM   11  N3  UNL     1      23.211  18.202 -17.673  1.00  0.00    -0.279 N 
ATOM     12  H3  UNL     1      22.809  17.527 -18.323  1.00  0.00     0.189 HD
BRANCH  11  13
HETATM   13  C10 UNL     1      24.495  17.978 -17.113  1.00  0.00     0.199 C 
HETATM   14  N4  UNL     1      25.672  17.950 -17.937  1.00  0.00    -0.068 NA
HETATM   15  S1  UNL     1      24.609  17.751 -15.505  1.00  0.00    -0.043 SA
ENDBRANCH  11  13
ENDBRANCH   9  11
ENDBRANCH   3   8
BRANCH   2  16
HETATM   16  O1  UNL     1      20.235  19.977 -15.238  1.00  0.00    -0.357 OA
ATOM     17  H1  UNL     1      20.618  20.274 -14.420  1.00  0.00     0.217 HD
ENDBRANCH   2  16
BRANCH   1  18
HETATM   18  N1  UNL     1      18.903  22.151 -14.467  1.00  0.00    -0.377 N 
ATOM     19  H1  UNL     1      18.025  21.670 -14.271  1.00  0.00     0.160 HD
BRANCH  18  20
HETATM   20  C3  UNL     1      19.497  22.766 -13.341  1.00  0.00     0.023 C 
HETATM   21  C4  UNL     1      20.827  23.412 -13.546  1.00  0.00     0.038 C 
HETATM   22  C5  UNL     1      19.652  21.776 -12.193  1.00  0.00     0.038 C 
BRANCH  20  23
HETATM   23  C2  UNL     1      18.469  23.793 -12.812  1.00  0.00     0.025 C 
HETATM   24  C1  UNL     1      19.136  25.033 -12.336  1.00  0.00     0.007 C 
ENDBRANCH  20  23
ENDBRANCH  18  20
ENDBRANCH   1  18
BRANCH   7  25
HETATM   25  O2  UNL     1      18.472  24.196 -16.581  1.00  0.00    -0.352 OA
HETATM   26  C14 UNL     1      18.899  25.403 -16.059  1.00  0.00     0.210 C 
ENDBRANCH   7  25
TORSDOF 8
ENDMDL
