MODEL 1
REMARK VINA RESULT: -6.756438715      0.000      0.000
REMARK  9 active torsions:
REMARK  status: ('A' for Active; 'I' for Inactive)
REMARK    1  A    between atoms: C3_5  and  N2_6 
REMARK    2  A    between atoms: C4_9  and  S1_10 
REMARK    3  A    between atoms: S1_10  and  C5_11 
REMARK    4  A    between atoms: C7_13  and  C8_14 
REMARK    5  A    between atoms: C12_22  and  C13_23 
REMARK    6  A    between atoms: C13_23  and  O3_24 
REMARK    7  A    between atoms: C13_23  and  N3_26 
REMARK    8  A    between atoms: N3_26  and  C14_28 
REMARK    9  A    between atoms: C14_28  and  C16_30 
ROOT
HETATM    1  C1  UNL     1      26.604  22.712 -20.460  1.00  0.00     0.089 C 
HETATM    2  C2  UNL     1      25.150  22.963 -20.257  1.00  0.00     0.079 A 
HETATM    3  N1  UNL     1      24.261  22.973 -21.267  1.00  0.00    -0.332 N 
ATOM      4  H1  UNL     1      24.587  22.801 -22.218  1.00  0.00     0.168 HD
HETATM    5  C3  UNL     1      22.964  23.201 -21.056  1.00  0.00     0.119 A 
HETATM    6  C4  UNL     1      22.528  23.436 -19.740  1.00  0.00     0.080 A 
HETATM    7  C12 UNL     1      23.417  23.427 -18.714  1.00  0.00     0.105 A 
HETATM    8  N4  UNL     1      24.732  23.185 -19.013  1.00  0.00    -0.342 N 
ATOM      9  H4  UNL     1      25.414  23.174 -18.255  1.00  0.00     0.167 HD
ENDROOT
BRANCH   6  10
HETATM   10  S1  UNL     1      20.791  23.784 -19.511  1.00  0.00    -0.081 SA
BRANCH  10  11
HETATM   11  C5  UNL     1      19.789  22.323 -19.488  1.00  0.00     0.045 A 
HETATM   12  C6  UNL     1      20.402  21.100 -19.507  1.00  0.00     0.043 A 
HETATM   13  C7  UNL     1      19.686  19.924 -19.492  1.00  0.00     0.080 A 
HETATM   14  C9  UNL     1      18.307  19.972 -19.456  1.00  0.00     0.136 A 
HETATM   15  F1  UNL     1      17.584  18.827 -19.441  1.00  0.00    -0.205 F 
HETATM   16  C10 UNL     1      17.657  21.187 -19.437  1.00  0.00     0.087 A 
HETATM   17  C11 UNL     1      18.419  22.358 -19.453  1.00  0.00     0.136 A 
HETATM   18  F2  UNL     1      17.783  23.532 -19.434  1.00  0.00    -0.205 F 
BRANCH  13  19
HETATM   19  C8  UNL     1      20.345  18.634 -19.512  1.00  0.00     0.212 C 
HETATM   20  O1  UNL     1      20.953  18.169 -18.533  1.00  0.00    -0.644 OA
HETATM   21  O2  UNL     1      20.300  17.868 -20.692  1.00  0.00    -0.644 OA
ENDBRANCH  13  19
ENDBRANCH  10  11
ENDBRANCH   6  10
BRANCH   5  22
HETATM   22  N2  UNL     1      22.085  23.213 -22.023  1.00  0.00    -0.384 N 
ATOM     23  H22 UNL     1      21.589  22.351 -22.249  1.00  0.00     0.157 HD
ATOM     24  H21 UNL     1      21.876  24.053 -22.565  1.00  0.00     0.157 HD
ENDBRANCH   5  22
BRANCH   7  25
HETATM   25  C13 UNL     1      23.056  23.607 -17.325  1.00  0.00     0.165 C 
BRANCH  25  26
HETATM   26  O3  UNL     1      22.872  24.843 -16.939  1.00  0.00    -0.345 OA
ATOM     27  H3  UNL     1      22.273  24.965 -16.211  1.00  0.00     0.219 HD
ENDBRANCH  25  26
BRANCH  25  28
HETATM   28  N3  UNL     1      22.871  22.669 -16.310  1.00  0.00    -0.364 N 
ATOM     29  H3  UNL     1      23.372  22.767 -15.426  1.00  0.00     0.162 HD
BRANCH  28  30
HETATM   30  C14 UNL     1      21.951  21.539 -16.517  1.00  0.00     0.083 C 
HETATM   31  C15 UNL     1      22.663  20.233 -16.319  1.00  0.00     0.032 C 
BRANCH  30  32
HETATM   32  C16 UNL     1      20.803  21.741 -15.574  1.00  0.00     0.008 A 
HETATM   33  C17 UNL     1      19.430  21.264 -15.949  1.00  0.00     0.007 A 
HETATM   34  C18 UNL     1      19.746  22.729 -15.797  1.00  0.00     0.007 A 
ENDBRANCH  30  32
ENDBRANCH  28  30
ENDBRANCH  25  28
ENDBRANCH   7  25
TORSDOF 9
ENDMDL
MODEL 2
REMARK VINA RESULT: -6.477752025      4.415      7.280
REMARK  9 active torsions:
REMARK  status: ('A' for Active; 'I' for Inactive)
REMARK    1  A    between atoms: C3_5  and  N2_6 
REMARK    2  A    between atoms: C4_9  and  S1_10 
REMARK    3  A    between atoms: S1_10  and  C5_11 
REMARK    4  A    between atoms: C7_13  and  C8_14 
REMARK    5  A    between atoms: C12_22  and  C13_23 
REMARK    6  A    between atoms: C13_23  and  O3_24 
REMARK    7  A    between atoms: C13_23  and  N3_26 
REMARK    8  A    between atoms: N3_26  and  C14_28 
REMARK    9  A    between atoms: C14_28  and  C16_30 
ROOT
HETATM    1  C1  UNL     1      22.754  19.350 -16.848  1.00  0.00     0.089 C 
HETATM    2  C2  UNL     1      22.073  20.561 -16.311  1.00  0.00     0.079 A 
HETATM    3  N1  UNL     1      22.729  21.545 -15.669  1.00  0.00    -0.332 N 
ATOM      4  H1  UNL     1      23.738  21.468 -15.538  1.00  0.00     0.168 HD
HETATM    5  C3  UNL     1      22.093  22.619 -15.198  1.00  0.00     0.119 A 
HETATM    6  C4  UNL     1      20.703  22.712 -15.386  1.00  0.00     0.080 A 
HETATM    7  C12 UNL     1      20.033  21.726 -16.034  1.00  0.00     0.105 A 
HETATM    8  N4  UNL     1      20.757  20.656 -16.487  1.00  0.00    -0.342 N 
ATOM      9  H4  UNL     1      20.271  19.905 -16.976  1.00  0.00     0.167 HD
ENDROOT
BRANCH   6  10
HETATM   10  S1  UNL     1      19.887  24.146 -14.698  1.00  0.00    -0.081 SA
BRANCH  10  11
HETATM   11  C5  UNL     1      19.283  23.877 -13.055  1.00  0.00     0.045 A 
HETATM   12  C6  UNL     1      20.184  23.724 -12.036  1.00  0.00     0.043 A 
HETATM   13  C7  UNL     1      19.785  23.512 -10.735  1.00  0.00     0.080 A 
HETATM   14  C9  UNL     1      18.438  23.450 -10.442  1.00  0.00     0.136 A 
HETATM   15  F1  UNL     1      18.024  23.243  -9.169  1.00  0.00    -0.205 F 
HETATM   16  C10 UNL     1      17.503  23.599 -11.444  1.00  0.00     0.087 A 
HETATM   17  C11 UNL     1      17.948  23.814 -12.751  1.00  0.00     0.136 A 
HETATM   18  F2  UNL     1      17.038  23.958 -13.717  1.00  0.00    -0.205 F 
BRANCH  13  19
HETATM   19  C8  UNL     1      20.747  23.352  -9.664  1.00  0.00     0.212 C 
HETATM   20  O1  UNL     1      21.511  22.375  -9.580  1.00  0.00    -0.644 OA
HETATM   21  O2  UNL     1      20.825  24.343  -8.667  1.00  0.00    -0.644 OA
ENDBRANCH  13  19
ENDBRANCH  10  11
ENDBRANCH   6  10
BRANCH   5  22
HETATM   22  N2  UNL     1      22.713  23.585 -14.573  1.00  0.00    -0.384 N 
ATOM     23  H22 UNL     1      23.442  24.102 -15.064  1.00  0.00     0.157 HD
ATOM     24  H21 UNL     1      22.496  23.844 -13.610  1.00  0.00     0.157 HD
ENDBRANCH   5  22
BRANCH   7  25
HETATM   25  C13 UNL     1      18.615  21.759 -16.318  1.00  0.00     0.165 C 
BRANCH  25  26
HETATM   26  O3  UNL     1      17.858  21.037 -15.532  1.00  0.00    -0.345 OA
ATOM     27  H3  UNL     1      17.836  21.301 -14.620  1.00  0.00     0.219 HD
ENDBRANCH  25  26
BRANCH  25  28
HETATM   28  N3  UNL     1      17.906  22.439 -17.307  1.00  0.00    -0.364 N 
ATOM     29  H3  UNL     1      17.128  23.047 -17.053  1.00  0.00     0.162 HD
BRANCH  28  30
HETATM   30  C14 UNL     1      18.286  22.277 -18.721  1.00  0.00     0.083 C 
HETATM   31  C15 UNL     1      18.229  20.831 -19.122  1.00  0.00     0.032 C 
BRANCH  30  32
HETATM   32  C16 UNL     1      17.365  23.153 -19.516  1.00  0.00     0.008 A 
HETATM   33  C17 UNL     1      16.745  24.363 -18.880  1.00  0.00     0.007 A 
HETATM   34  C18 UNL     1      15.916  23.184 -19.317  1.00  0.00     0.007 A 
ENDBRANCH  30  32
ENDBRANCH  28  30
ENDBRANCH  25  28
ENDBRANCH   7  25
TORSDOF 9
ENDMDL
MODEL 3
REMARK VINA RESULT: -6.474879908      4.607      7.303
REMARK  9 active torsions:
REMARK  status: ('A' for Active; 'I' for Inactive)
REMARK    1  A    between atoms: C3_5  and  N2_6 
REMARK    2  A    between atoms: C4_9  and  S1_10 
REMARK    3  A    between atoms: S1_10  and  C5_11 
REMARK    4  A    between atoms: C7_13  and  C8_14 
REMARK    5  A    between atoms: C12_22  and  C13_23 
REMARK    6  A    between atoms: C13_23  and  O3_24 
REMARK    7  A    between atoms: C13_23  and  N3_26 
REMARK    8  A    between atoms: N3_26  and  C14_28 
REMARK    9  A    between atoms: C14_28  and  C16_30 
ROOT
HETATM    1  C1  UNL     1      22.565  19.031 -17.446  1.00  0.00     0.089 C 
HETATM    2  C2  UNL     1      21.980  20.238 -16.798  1.00  0.00     0.079 A 
HETATM    3  N1  UNL     1      22.727  21.165 -16.171  1.00  0.00    -0.332 N 
ATOM      4  H1  UNL     1      23.740  21.047 -16.132  1.00  0.00     0.168 HD
HETATM    5  C3  UNL     1      22.176  22.237 -15.600  1.00  0.00     0.119 A 
HETATM    6  C4  UNL     1      20.780  22.389 -15.661  1.00  0.00     0.080 A 
HETATM    7  C12 UNL     1      20.019  21.459 -16.293  1.00  0.00     0.105 A 
HETATM    8  N4  UNL     1      20.659  20.387 -16.855  1.00  0.00    -0.342 N 
ATOM      9  H4  UNL     1      20.104  19.679 -17.333  1.00  0.00     0.167 HD
ENDROOT
BRANCH   6  10
HETATM   10  S1  UNL     1      20.082  23.815 -14.841  1.00  0.00    -0.081 SA
BRANCH  10  11
HETATM   11  C5  UNL     1      19.620  23.492 -13.162  1.00  0.00     0.045 A 
HETATM   12  C6  UNL     1      18.374  23.864 -12.736  1.00  0.00     0.043 A 
HETATM   13  C7  UNL     1      17.949  23.643 -11.444  1.00  0.00     0.080 A 
HETATM   14  C9  UNL     1      18.800  23.030 -10.547  1.00  0.00     0.136 A 
HETATM   15  F1  UNL     1      18.401  22.804  -9.273  1.00  0.00    -0.205 F 
HETATM   16  C10 UNL     1      20.062  22.644 -10.943  1.00  0.00     0.087 A 
HETATM   17  C11 UNL     1      20.456  22.884 -12.262  1.00  0.00     0.136 A 
HETATM   18  F2  UNL     1      21.680  22.507 -12.639  1.00  0.00    -0.205 F 
BRANCH  13  19
HETATM   19  C8  UNL     1      16.628  24.040 -11.003  1.00  0.00     0.212 C 
HETATM   20  O1  UNL     1      15.585  23.531 -11.446  1.00  0.00    -0.644 OA
HETATM   21  O2  UNL     1      16.512  25.050 -10.029  1.00  0.00    -0.644 OA
ENDBRANCH  13  19
ENDBRANCH  10  11
ENDBRANCH   6  10
BRANCH   5  22
HETATM   22  N2  UNL     1      22.884  23.150 -14.987  1.00  0.00    -0.384 N 
ATOM     23  H22 UNL     1      23.892  23.017 -14.902  1.00  0.00     0.157 HD
ATOM     24  H21 UNL     1      22.468  23.992 -14.589  1.00  0.00     0.157 HD
ENDBRANCH   5  22
BRANCH   7  25
HETATM   25  C13 UNL     1      18.584  21.556 -16.451  1.00  0.00     0.165 C 
BRANCH  25  26
HETATM   26  O3  UNL     1      17.868  20.905 -15.571  1.00  0.00    -0.345 OA
ATOM     27  H3  UNL     1      18.294  20.724 -14.741  1.00  0.00     0.219 HD
ENDBRANCH  25  26
BRANCH  25  28
HETATM   28  N3  UNL     1      17.823  22.234 -17.402  1.00  0.00    -0.364 N 
ATOM     29  H3  UNL     1      17.024  22.798 -17.110  1.00  0.00     0.162 HD
BRANCH  28  30
HETATM   30  C14 UNL     1      18.175  22.133 -18.828  1.00  0.00     0.083 C 
HETATM   31  C15 UNL     1      18.068  20.712 -19.301  1.00  0.00     0.032 C 
BRANCH  30  32
HETATM   32  C16 UNL     1      17.270  23.076 -19.562  1.00  0.00     0.008 A 
HETATM   33  C17 UNL     1      16.716  24.282 -18.863  1.00  0.00     0.007 A 
HETATM   34  C18 UNL     1      15.828  23.156 -19.321  1.00  0.00     0.007 A 
ENDBRANCH  30  32
ENDBRANCH  28  30
ENDBRANCH  25  28
ENDBRANCH   7  25
TORSDOF 9
ENDMDL
MODEL 4
REMARK VINA RESULT: -6.445836486      3.828      6.530
REMARK  9 active torsions:
REMARK  status: ('A' for Active; 'I' for Inactive)
REMARK    1  A    between atoms: C3_5  and  N2_6 
REMARK    2  A    between atoms: C4_9  and  S1_10 
REMARK    3  A    between atoms: S1_10  and  C5_11 
REMARK    4  A    between atoms: C7_13  and  C8_14 
REMARK    5  A    between atoms: C12_22  and  C13_23 
REMARK    6  A    between atoms: C13_23  and  O3_24 
REMARK    7  A    between atoms: C13_23  and  N3_26 
REMARK    8  A    between atoms: N3_26  and  C14_28 
REMARK    9  A    between atoms: C14_28  and  C16_30 
ROOT
HETATM    1  C1  UNL     1      19.763  18.138 -19.998  1.00  0.00     0.089 C 
HETATM    2  C2  UNL     1      20.064  19.448 -19.355  1.00  0.00     0.079 A 
HETATM    3  N1  UNL     1      21.233  20.093 -19.522  1.00  0.00    -0.332 N 
ATOM      4  H1  UNL     1      21.952  19.676 -20.113  1.00  0.00     0.168 HD
HETATM    5  C3  UNL     1      21.475  21.265 -18.933  1.00  0.00     0.119 A 
HETATM    6  C4  UNL     1      20.475  21.829 -18.121  1.00  0.00     0.080 A 
HETATM    7  C12 UNL     1      19.292  21.186 -17.948  1.00  0.00     0.105 A 
HETATM    8  N4  UNL     1      19.121  19.987 -18.586  1.00  0.00    -0.342 N 
ATOM      9  H4  UNL     1      18.239  19.489 -18.468  1.00  0.00     0.167 HD
ENDROOT
BRANCH   6  10
HETATM   10  S1  UNL     1      20.862  23.376 -17.315  1.00  0.00    -0.081 SA
BRANCH  10  11
HETATM   11  C5  UNL     1      20.951  23.236 -15.552  1.00  0.00     0.045 A 
HETATM   12  C6  UNL     1      20.030  23.900 -14.787  1.00  0.00     0.043 A 
HETATM   13  C7  UNL     1      20.041  23.835 -13.412  1.00  0.00     0.080 A 
HETATM   14  C9  UNL     1      21.006  23.081 -12.777  1.00  0.00     0.136 A 
HETATM   15  F1  UNL     1      21.034  23.004 -11.425  1.00  0.00    -0.205 F 
HETATM   16  C10 UNL     1      21.950  22.400 -13.516  1.00  0.00     0.087 A 
HETATM   17  C11 UNL     1      21.905  22.490 -14.910  1.00  0.00     0.136 A 
HETATM   18  F2  UNL     1      22.822  21.828 -15.620  1.00  0.00    -0.205 F 
BRANCH  13  19
HETATM   19  C8  UNL     1      19.060  24.541 -12.612  1.00  0.00     0.212 C 
HETATM   20  O1  UNL     1      17.887  24.155 -12.484  1.00  0.00    -0.644 OA
HETATM   21  O2  UNL     1      19.449  25.720 -11.949  1.00  0.00    -0.644 OA
ENDBRANCH  13  19
ENDBRANCH  10  11
ENDBRANCH   6  10
BRANCH   5  22
HETATM   22  N2  UNL     1      22.603  21.909 -19.083  1.00  0.00    -0.384 N 
ATOM     23  H22 UNL     1      23.329  21.499 -19.671  1.00  0.00     0.157 HD
ATOM     24  H21 UNL     1      22.788  22.806 -18.634  1.00  0.00     0.157 HD
ENDBRANCH   5  22
BRANCH   7  25
HETATM   25  C13 UNL     1      18.189  21.710 -17.174  1.00  0.00     0.165 C 
BRANCH  25  26
HETATM   26  O3  UNL     1      18.005  21.166 -15.999  1.00  0.00    -0.345 OA
ATOM     27  H3  UNL     1      17.741  20.253 -16.002  1.00  0.00     0.219 HD
ENDBRANCH  25  26
BRANCH  25  28
HETATM   28  N3  UNL     1      17.269  22.714 -17.476  1.00  0.00    -0.364 N 
ATOM     29  H3  UNL     1      16.702  23.128 -16.737  1.00  0.00     0.162 HD
BRANCH  28  30
HETATM   30  C14 UNL     1      17.120  23.174 -18.867  1.00  0.00     0.083 C 
HETATM   31  C15 UNL     1      15.689  23.068 -19.310  1.00  0.00     0.032 C 
BRANCH  30  32
HETATM   32  C16 UNL     1      17.657  24.573 -18.917  1.00  0.00     0.008 A 
HETATM   33  C17 UNL     1      17.628  25.432 -17.687  1.00  0.00     0.007 A 
HETATM   34  C18 UNL     1      16.804  25.762 -18.904  1.00  0.00     0.007 A 
ENDBRANCH  30  32
ENDBRANCH  28  30
ENDBRANCH  25  28
ENDBRANCH   7  25
TORSDOF 9
ENDMDL
MODEL 5
REMARK VINA RESULT: -6.412335135      2.417      3.328
REMARK  9 active torsions:
REMARK  status: ('A' for Active; 'I' for Inactive)
REMARK    1  A    between atoms: C3_5  and  N2_6 
REMARK    2  A    between atoms: C4_9  and  S1_10 
REMARK    3  A    between atoms: S1_10  and  C5_11 
REMARK    4  A    between atoms: C7_13  and  C8_14 
REMARK    5  A    between atoms: C12_22  and  C13_23 
REMARK    6  A    between atoms: C13_23  and  O3_24 
REMARK    7  A    between atoms: C13_23  and  N3_26 
REMARK    8  A    between atoms: N3_26  and  C14_28 
REMARK    9  A    between atoms: C14_28  and  C16_30 
ROOT
HETATM    1  C1  UNL     1      24.593  26.432 -16.734  1.00  0.00     0.089 C 
HETATM    2  C2  UNL     1      23.984  25.074 -16.683  1.00  0.00     0.079 A 
HETATM    3  N1  UNL     1      24.004  24.224 -17.726  1.00  0.00    -0.332 N 
ATOM      4  H1  UNL     1      24.453  24.512 -18.595  1.00  0.00     0.168 HD
HETATM    5  C3  UNL     1      23.450  23.013 -17.652  1.00  0.00     0.119 A 
HETATM    6  C4  UNL     1      22.835  22.627 -16.448  1.00  0.00     0.080 A 
HETATM    7  C12 UNL     1      22.811  23.478 -15.390  1.00  0.00     0.105 A 
HETATM    8  N4  UNL     1      23.402  24.703 -15.545  1.00  0.00    -0.342 N 
ATOM      9  H4  UNL     1      23.394  25.355 -14.761  1.00  0.00     0.167 HD
ENDROOT
BRANCH   6  10
HETATM   10  S1  UNL     1      22.065  21.015 -16.410  1.00  0.00    -0.081 SA
BRANCH  10  11
HETATM   11  C5  UNL     1      20.740  20.852 -17.574  1.00  0.00     0.045 A 
HETATM   12  C6  UNL     1      20.644  19.702 -18.310  1.00  0.00     0.043 A 
HETATM   13  C7  UNL     1      19.640  19.509 -19.233  1.00  0.00     0.080 A 
HETATM   14  C9  UNL     1      18.699  20.499 -19.427  1.00  0.00     0.136 A 
HETATM   15  F1  UNL     1      17.704  20.328 -20.329  1.00  0.00    -0.205 F 
HETATM   16  C10 UNL     1      18.766  21.670 -18.703  1.00  0.00     0.087 A 
HETATM   17  C11 UNL     1      19.799  21.828 -17.776  1.00  0.00     0.136 A 
HETATM   18  F2  UNL     1      19.859  22.965 -17.077  1.00  0.00    -0.205 F 
BRANCH  13  19
HETATM   19  C8  UNL     1      19.548  18.288 -20.007  1.00  0.00     0.212 C 
HETATM   20  O1  UNL     1      20.440  17.910 -20.785  1.00  0.00    -0.644 OA
HETATM   21  O2  UNL     1      18.397  17.487 -19.876  1.00  0.00    -0.644 OA
ENDBRANCH  13  19
ENDBRANCH  10  11
ENDBRANCH   6  10
BRANCH   5  22
HETATM   22  N2  UNL     1      23.460  22.172 -18.653  1.00  0.00    -0.384 N 
ATOM     23  H22 UNL     1      24.342  21.982 -19.128  1.00  0.00     0.157 HD
ATOM     24  H21 UNL     1      22.617  21.698 -18.980  1.00  0.00     0.157 HD
ENDBRANCH   5  22
BRANCH   7  25
HETATM   25  C13 UNL     1      22.248  23.151 -14.098  1.00  0.00     0.165 C 
BRANCH  25  26
HETATM   26  O3  UNL     1      22.999  22.421 -13.315  1.00  0.00    -0.345 OA
ATOM     27  H3  UNL     1      23.853  22.780 -13.106  1.00  0.00     0.219 HD
ENDBRANCH  25  26
BRANCH  25  28
HETATM   28  N3  UNL     1      21.016  23.486 -13.538  1.00  0.00    -0.364 N 
ATOM     29  H3  UNL     1      20.883  24.398 -13.102  1.00  0.00     0.162 HD
BRANCH  28  30
HETATM   30  C14 UNL     1      19.906  22.519 -13.581  1.00  0.00     0.083 C 
HETATM   31  C15 UNL     1      19.666  21.929 -12.222  1.00  0.00     0.032 C 
BRANCH  30  32
HETATM   32  C16 UNL     1      18.719  23.250 -14.131  1.00  0.00     0.008 A 
HETATM   33  C17 UNL     1      18.805  24.724 -14.404  1.00  0.00     0.007 A 
HETATM   34  C18 UNL     1      17.902  24.168 -13.336  1.00  0.00     0.007 A 
ENDBRANCH  30  32
ENDBRANCH  28  30
ENDBRANCH  25  28
ENDBRANCH   7  25
TORSDOF 9
ENDMDL
