MODEL 1
REMARK VINA RESULT: -7.355040879      0.000      0.000
REMARK  8 active torsions:
REMARK  status: ('A' for Active; 'I' for Inactive)
REMARK    1  A    between atoms: O1_2  and  C2_3 
REMARK    2  A    between atoms: C4_5  and  C5_6 
REMARK    3  A    between atoms: N1_7  and  N2_9 
REMARK    4  A    between atoms: N2_9  and  C6_11 
REMARK    5  A    between atoms: C6_11  and  C8_21 
REMARK    6  A    between atoms: N3_12  and  N4_14 
REMARK       I    between atoms: N4_14  and  C7_16 
REMARK    7  A    between atoms: C13_28  and  O2_29 
REMARK    8  A    between atoms: O2_29  and  C14_30 
ROOT
HETATM    1  C5  UNL     1      19.138  22.502 -18.307  1.00  0.00     0.119 C 
HETATM    2  N1  UNL     1      19.121  21.918 -17.189  1.00  0.00    -0.310 N 
ATOM      3  H1  UNL     1      18.552  22.347 -16.459  1.00  0.00     0.186 HD
ENDROOT
BRANCH   2   4
HETATM    4  N2  UNL     1      19.787  20.765 -16.852  1.00  0.00    -0.286 N 
ATOM      5  H2  UNL     1      19.502  20.277 -16.002  1.00  0.00     0.188 HD
BRANCH   4   6
HETATM    6  C6  UNL     1      20.849  20.211 -17.616  1.00  0.00     0.150 C 
HETATM    7  N3  UNL     1      20.700  19.445 -18.626  1.00  0.00    -0.283 N 
ATOM      8  H3  UNL     1      21.527  19.099 -19.112  1.00  0.00     0.188 HD
BRANCH   7   9
HETATM    9  N4  UNL     1      19.437  19.068 -19.088  1.00  0.00    -0.272 N 
HETATM   10  C7  UNL     1      19.165  17.939 -19.875  1.00  0.00     0.200 C 
HETATM   11  N5  UNL     1      18.116  17.234 -19.689  1.00  0.00    -0.372 N 
HETATM   12  N6  UNL     1      20.060  17.562 -20.898  1.00  0.00    -0.062 NA
ATOM     13  H52 UNL     1      17.468  17.506 -18.950  1.00  0.00     0.158 HD
ATOM     14  H51 UNL     1      17.918  16.413 -20.262  1.00  0.00     0.158 HD
ATOM     15  H4  UNL     1      18.649  19.662 -18.832  1.00  0.00     0.189 HD
ENDBRANCH   7   9
BRANCH   6  16
HETATM   16  C8  UNL     1      22.240  20.563 -17.192  1.00  0.00     0.170 C 
HETATM   17  C9  UNL     1      22.780  21.544 -18.203  1.00  0.00     0.059 C 
HETATM   18 CL1  UNL     1      22.174  21.403 -15.616  1.00  0.00    -0.093 Cl
HETATM   19 CL2  UNL     1      23.262  19.123 -17.074  1.00  0.00    -0.093 Cl
ENDBRANCH   6  16
ENDBRANCH   4   6
ENDBRANCH   2   4
BRANCH   1  20
HETATM   20  C4  UNL     1      18.394  23.721 -18.557  1.00  0.00    -0.011 A 
HETATM   21  C3  UNL     1      16.991  23.647 -18.674  1.00  0.00     0.053 A 
HETATM   22  C2  UNL     1      16.206  24.751 -18.911  1.00  0.00     0.102 A 
HETATM   23  C13 UNL     1      16.733  26.007 -19.049  1.00  0.00     0.103 A 
HETATM   24  C12 UNL     1      18.133  26.063 -18.928  1.00  0.00     0.047 A 
HETATM   25  C10 UNL     1      18.927  24.976 -18.694  1.00  0.00    -0.048 A 
HETATM   26  C11 UNL     1      20.420  25.127 -18.579  1.00  0.00     0.049 C 
BRANCH  22  27
HETATM   27  O1  UNL     1      14.851  24.529 -19.003  1.00  0.00    -0.353 OA
HETATM   28  C1  UNL     1      14.261  23.321 -19.374  1.00  0.00     0.210 C 
ENDBRANCH  22  27
BRANCH  23  29
HETATM   29  O2  UNL     1      16.020  27.126 -19.280  1.00  0.00    -0.344 OA
BRANCH  29  30
HETATM   30  C14 UNL     1      16.189  28.459 -19.272  1.00  0.00     0.121 C 
HETATM   31  C15 UNL     1      15.219  29.222 -20.178  1.00  0.00     0.040 C 
HETATM   32  C16 UNL     1      16.034  29.019 -17.838  1.00  0.00     0.040 C 
ENDBRANCH  29  30
ENDBRANCH  23  29
ENDBRANCH   1  20
TORSDOF 8
ENDMDL
MODEL 2
REMARK VINA RESULT: -7.266631469      5.234      7.060
REMARK  8 active torsions:
REMARK  status: ('A' for Active; 'I' for Inactive)
REMARK    1  A    between atoms: O1_2  and  C2_3 
REMARK    2  A    between atoms: C4_5  and  C5_6 
REMARK    3  A    between atoms: N1_7  and  N2_9 
REMARK    4  A    between atoms: N2_9  and  C6_11 
REMARK    5  A    between atoms: C6_11  and  C8_21 
REMARK    6  A    between atoms: N3_12  and  N4_14 
REMARK       I    between atoms: N4_14  and  C7_16 
REMARK    7  A    between atoms: C13_28  and  O2_29 
REMARK    8  A    between atoms: O2_29  and  C14_30 
ROOT
HETATM    1  C5  UNL     1      19.901  21.375 -15.742  1.00  0.00     0.119 C 
HETATM    2  N1  UNL     1      18.694  21.269 -16.097  1.00  0.00    -0.310 N 
ATOM      3  H1  UNL     1      17.991  21.521 -15.403  1.00  0.00     0.186 HD
ENDROOT
BRANCH   2   4
HETATM    4  N2  UNL     1      18.230  20.848 -17.319  1.00  0.00    -0.286 N 
ATOM      5  H2  UNL     1      17.500  20.135 -17.336  1.00  0.00     0.188 HD
BRANCH   4   6
HETATM    6  C6  UNL     1      18.705  21.347 -18.562  1.00  0.00     0.150 C 
HETATM    7  N3  UNL     1      19.298  20.648 -19.450  1.00  0.00    -0.283 N 
ATOM      8  H3  UNL     1      19.602  21.098 -20.314  1.00  0.00     0.188 HD
BRANCH   7   9
HETATM    9  N4  UNL     1      19.545  19.285 -19.275  1.00  0.00    -0.272 N 
HETATM   10  C7  UNL     1      19.004  18.255 -20.060  1.00  0.00     0.200 C 
HETATM   11  N5  UNL     1      19.698  17.234 -20.391  1.00  0.00    -0.372 N 
HETATM   12  N6  UNL     1      17.667  18.335 -20.502  1.00  0.00    -0.062 NA
ATOM     13  H52 UNL     1      20.664  17.176 -20.072  1.00  0.00     0.158 HD
ATOM     14  H51 UNL     1      19.304  16.486 -20.962  1.00  0.00     0.158 HD
ATOM     15  H4  UNL     1      20.169  19.016 -18.515  1.00  0.00     0.189 HD
ENDBRANCH   7   9
BRANCH   6  16
HETATM   16  C8  UNL     1      18.483  22.801 -18.835  1.00  0.00     0.170 C 
HETATM   17  C9  UNL     1      18.421  22.970 -20.333  1.00  0.00     0.059 C 
HETATM   18 CL1  UNL     1      16.892  23.281 -18.178  1.00  0.00    -0.093 Cl
HETATM   19 CL2  UNL     1      19.763  23.793 -18.122  1.00  0.00    -0.093 Cl
ENDBRANCH   6  16
ENDBRANCH   4   6
ENDBRANCH   2   4
BRANCH   1  20
HETATM   20  C4  UNL     1      20.282  21.832 -14.420  1.00  0.00    -0.011 A 
HETATM   21  C3  UNL     1      19.291  21.927 -13.423  1.00  0.00     0.053 A 
HETATM   22  C2  UNL     1      19.562  22.351 -12.144  1.00  0.00     0.102 A 
HETATM   23  C13 UNL     1      20.821  22.712 -11.744  1.00  0.00     0.103 A 
HETATM   24  C12 UNL     1      21.798  22.611 -12.751  1.00  0.00     0.047 A 
HETATM   25  C10 UNL     1      21.544  22.193 -14.027  1.00  0.00    -0.048 A 
HETATM   26  C11 UNL     1      22.652  22.115 -15.043  1.00  0.00     0.049 C 
BRANCH  22  27
HETATM   27  O1  UNL     1      18.496  22.394 -11.274  1.00  0.00    -0.353 OA
HETATM   28  C1  UNL     1      17.730  23.528 -11.003  1.00  0.00     0.210 C 
ENDBRANCH  22  27
BRANCH  23  29
HETATM   29  O2  UNL     1      21.152  23.134 -10.508  1.00  0.00    -0.344 OA
BRANCH  29  30
HETATM   30  C14 UNL     1      21.197  22.661  -9.252  1.00  0.00     0.121 C 
HETATM   31  C15 UNL     1      22.605  22.311  -8.762  1.00  0.00     0.040 C 
HETATM   32  C16 UNL     1      20.596  23.686  -8.261  1.00  0.00     0.040 C 
ENDBRANCH  29  30
ENDBRANCH  23  29
ENDBRANCH   1  20
TORSDOF 8
ENDMDL
MODEL 3
REMARK VINA RESULT: -7.091889664      1.210      2.443
REMARK  8 active torsions:
REMARK  status: ('A' for Active; 'I' for Inactive)
REMARK    1  A    between atoms: O1_2  and  C2_3 
REMARK    2  A    between atoms: C4_5  and  C5_6 
REMARK    3  A    between atoms: N1_7  and  N2_9 
REMARK    4  A    between atoms: N2_9  and  C6_11 
REMARK    5  A    between atoms: C6_11  and  C8_21 
REMARK    6  A    between atoms: N3_12  and  N4_14 
REMARK       I    between atoms: N4_14  and  C7_16 
REMARK    7  A    between atoms: C13_28  and  O2_29 
REMARK    8  A    between atoms: O2_29  and  C14_30 
ROOT
HETATM    1  C5  UNL     1      19.189  22.664 -17.995  1.00  0.00     0.119 C 
HETATM    2  N1  UNL     1      19.015  21.872 -17.028  1.00  0.00    -0.310 N 
ATOM      3  H1  UNL     1      18.235  22.079 -16.404  1.00  0.00     0.186 HD
ENDROOT
BRANCH   2   4
HETATM    4  N2  UNL     1      19.766  20.762 -16.728  1.00  0.00    -0.286 N 
ATOM      5  H2  UNL     1      19.547  20.252 -15.871  1.00  0.00     0.188 HD
BRANCH   4   6
HETATM    6  C6  UNL     1      20.829  20.280 -17.539  1.00  0.00     0.150 C 
HETATM    7  N3  UNL     1      20.682  19.566 -18.586  1.00  0.00    -0.283 N 
ATOM      8  H3  UNL     1      21.510  19.269 -19.103  1.00  0.00     0.188 HD
BRANCH   7   9
HETATM    9  N4  UNL     1      19.422  19.178 -19.046  1.00  0.00    -0.272 N 
HETATM   10  C7  UNL     1      19.155  18.031 -19.810  1.00  0.00     0.200 C 
HETATM   11  N5  UNL     1      18.105  17.329 -19.613  1.00  0.00    -0.372 N 
HETATM   12  N6  UNL     1      20.055  17.633 -20.819  1.00  0.00    -0.062 NA
ATOM     13  H52 UNL     1      17.453  17.617 -18.883  1.00  0.00     0.158 HD
ATOM     14  H51 UNL     1      17.911  16.496 -20.169  1.00  0.00     0.158 HD
ATOM     15  H4  UNL     1      18.632  19.776 -18.806  1.00  0.00     0.189 HD
ENDBRANCH   7   9
BRANCH   6  16
HETATM   16  C8  UNL     1      22.217  20.649 -17.120  1.00  0.00     0.170 C 
HETATM   17  C9  UNL     1      23.020  19.373 -17.063  1.00  0.00     0.059 C 
HETATM   18 CL1  UNL     1      22.950  21.684 -18.379  1.00  0.00    -0.093 Cl
HETATM   19 CL2  UNL     1      22.219  21.488 -15.562  1.00  0.00    -0.093 Cl
ENDBRANCH   6  16
ENDBRANCH   4   6
ENDBRANCH   2   4
BRANCH   1  20
HETATM   20  C4  UNL     1      18.333  23.812 -18.221  1.00  0.00    -0.011 A 
HETATM   21  C3  UNL     1      18.674  25.041 -17.621  1.00  0.00     0.053 A 
HETATM   22  C2  UNL     1      17.920  26.179 -17.780  1.00  0.00     0.102 A 
HETATM   23  C13 UNL     1      16.780  26.201 -18.538  1.00  0.00     0.103 A 
HETATM   24  C12 UNL     1      16.455  24.968 -19.130  1.00  0.00     0.047 A 
HETATM   25  C10 UNL     1      17.193  23.828 -18.981  1.00  0.00    -0.048 A 
HETATM   26  C11 UNL     1      16.770  22.548 -19.652  1.00  0.00     0.049 C 
BRANCH  22  27
HETATM   27  O1  UNL     1      18.373  27.307 -17.135  1.00  0.00    -0.353 OA
HETATM   28  C1  UNL     1      19.463  28.078 -17.539  1.00  0.00     0.210 C 
ENDBRANCH  22  27
BRANCH  23  29
HETATM   29  O2  UNL     1      16.000  27.282 -18.733  1.00  0.00    -0.344 OA
BRANCH  29  30
HETATM   30  C14 UNL     1      15.997  28.416 -19.454  1.00  0.00     0.121 C 
HETATM   31  C15 UNL     1      16.189  29.689 -18.625  1.00  0.00     0.040 C 
HETATM   32  C16 UNL     1      17.110  28.382 -20.528  1.00  0.00     0.040 C 
ENDBRANCH  29  30
ENDBRANCH  23  29
ENDBRANCH   1  20
TORSDOF 8
ENDMDL
MODEL 4
REMARK VINA RESULT: -6.995330467      5.144      6.577
REMARK  8 active torsions:
REMARK  status: ('A' for Active; 'I' for Inactive)
REMARK    1  A    between atoms: O1_2  and  C2_3 
REMARK    2  A    between atoms: C4_5  and  C5_6 
REMARK    3  A    between atoms: N1_7  and  N2_9 
REMARK    4  A    between atoms: N2_9  and  C6_11 
REMARK    5  A    between atoms: C6_11  and  C8_21 
REMARK    6  A    between atoms: N3_12  and  N4_14 
REMARK       I    between atoms: N4_14  and  C7_16 
REMARK    7  A    between atoms: C13_28  and  O2_29 
REMARK    8  A    between atoms: O2_29  and  C14_30 
ROOT
HETATM    1  C5  UNL     1      20.363  22.130 -16.008  1.00  0.00     0.119 C 
HETATM    2  N1  UNL     1      19.505  21.344 -16.497  1.00  0.00    -0.310 N 
ATOM      3  H1  UNL     1      18.782  21.005 -15.861  1.00  0.00     0.186 HD
ENDROOT
BRANCH   2   4
HETATM    4  N2  UNL     1      19.441  20.899 -17.794  1.00  0.00    -0.286 N 
ATOM      5  H2  UNL     1      20.140  20.223 -18.104  1.00  0.00     0.188 HD
BRANCH   4   6
HETATM    6  C6  UNL     1      18.460  21.323 -18.731  1.00  0.00     0.150 C 
HETATM    7  N3  UNL     1      17.575  20.566 -19.253  1.00  0.00    -0.283 N 
ATOM      8  H3  UNL     1      16.911  20.966 -19.917  1.00  0.00     0.188 HD
BRANCH   7   9
HETATM    9  N4  UNL     1      17.487  19.208 -18.943  1.00  0.00    -0.272 N 
HETATM   10  C7  UNL     1      17.842  18.155 -19.801  1.00  0.00     0.200 C 
HETATM   11  N5  UNL     1      18.432  17.109 -19.363  1.00  0.00    -0.372 N 
HETATM   12  N6  UNL     1      17.550  18.240 -21.178  1.00  0.00    -0.062 NA
ATOM     13  H52 UNL     1      18.644  17.048 -18.367  1.00  0.00     0.158 HD
ATOM     14  H51 UNL     1      18.690  16.344 -19.987  1.00  0.00     0.158 HD
ATOM     15  H4  UNL     1      17.136  18.961 -18.018  1.00  0.00     0.189 HD
ENDBRANCH   7   9
BRANCH   6  16
HETATM   16  C8  UNL     1      18.480  22.766 -19.122  1.00  0.00     0.170 C 
HETATM   17  C9  UNL     1      17.701  22.892 -20.408  1.00  0.00     0.059 C 
HETATM   18 CL1  UNL     1      17.616  23.718 -17.881  1.00  0.00    -0.093 Cl
HETATM   19 CL2  UNL     1      20.136  23.362 -19.305  1.00  0.00    -0.093 Cl
ENDBRANCH   6  16
ENDBRANCH   4   6
ENDBRANCH   2   4
BRANCH   1  20
HETATM   20  C4  UNL     1      20.337  22.538 -14.617  1.00  0.00    -0.011 A 
HETATM   21  C3  UNL     1      19.114  22.962 -14.057  1.00  0.00     0.053 A 
HETATM   22  C2  UNL     1      18.997  23.366 -12.749  1.00  0.00     0.102 A 
HETATM   23  C13 UNL     1      20.064  23.386 -11.891  1.00  0.00     0.103 A 
HETATM   24  C12 UNL     1      21.275  22.961 -12.465  1.00  0.00     0.047 A 
HETATM   25  C10 UNL     1      21.408  22.556 -13.763  1.00  0.00    -0.048 A 
HETATM   26  C11 UNL     1      22.746  22.116 -14.296  1.00  0.00     0.049 C 
BRANCH  22  27
HETATM   27  O1  UNL     1      17.741  23.754 -12.339  1.00  0.00    -0.353 OA
HETATM   28  C1  UNL     1      17.087  24.915 -12.752  1.00  0.00     0.210 C 
ENDBRANCH  22  27
BRANCH  23  29
HETATM   29  O2  UNL     1      20.014  23.771 -10.601  1.00  0.00    -0.344 OA
BRANCH  29  30
HETATM   30  C14 UNL     1      19.947  23.218  -9.378  1.00  0.00     0.121 C 
HETATM   31  C15 UNL     1      20.799  23.925  -8.321  1.00  0.00     0.040 C 
HETATM   32  C16 UNL     1      18.486  23.197  -8.869  1.00  0.00     0.040 C 
ENDBRANCH  29  30
ENDBRANCH  23  29
ENDBRANCH   1  20
TORSDOF 8
ENDMDL
MODEL 5
REMARK VINA RESULT: -6.958203624      4.348      8.713
REMARK  8 active torsions:
REMARK  status: ('A' for Active; 'I' for Inactive)
REMARK    1  A    between atoms: O1_2  and  C2_3 
REMARK    2  A    between atoms: C4_5  and  C5_6 
REMARK    3  A    between atoms: N1_7  and  N2_9 
REMARK    4  A    between atoms: N2_9  and  C6_11 
REMARK    5  A    between atoms: C6_11  and  C8_21 
REMARK    6  A    between atoms: N3_12  and  N4_14 
REMARK       I    between atoms: N4_14  and  C7_16 
REMARK    7  A    between atoms: C13_28  and  O2_29 
REMARK    8  A    between atoms: O2_29  and  C14_30 
ROOT
HETATM    1  C5  UNL     1      19.262  21.494 -17.782  1.00  0.00     0.119 C 
HETATM    2  N1  UNL     1      18.680  22.202 -16.915  1.00  0.00    -0.310 N 
ATOM      3  H1  UNL     1      19.113  22.240 -15.992  1.00  0.00     0.186 HD
ENDROOT
BRANCH   2   4
HETATM    4  N2  UNL     1      17.525  22.926 -17.083  1.00  0.00    -0.286 N 
ATOM      5  H2  UNL     1      16.637  22.470 -16.868  1.00  0.00     0.188 HD
BRANCH   4   6
HETATM    6  C6  UNL     1      17.492  24.271 -17.539  1.00  0.00     0.150 C 
HETATM    7  N3  UNL     1      17.779  25.291 -16.826  1.00  0.00    -0.283 N 
ATOM      8  H3  UNL     1      17.727  26.219 -17.246  1.00  0.00     0.188 HD
BRANCH   7   9
HETATM    9  N4  UNL     1      18.163  25.173 -15.489  1.00  0.00    -0.272 N 
HETATM   10  C7  UNL     1      19.482  25.239 -15.015  1.00  0.00     0.200 C 
HETATM   11  N5  UNL     1      19.768  25.832 -13.919  1.00  0.00    -0.372 N 
HETATM   12  N6  UNL     1      20.525  24.642 -15.753  1.00  0.00    -0.062 NA
ATOM     13  H52 UNL     1      19.013  26.263 -13.385  1.00  0.00     0.158 HD
ATOM     14  H51 UNL     1      20.727  25.879 -13.575  1.00  0.00     0.158 HD
ATOM     15  H4  UNL     1      17.424  25.028 -14.801  1.00  0.00     0.189 HD
ENDBRANCH   7   9
BRANCH   6  16
HETATM   16  C8  UNL     1      17.091  24.491 -18.963  1.00  0.00     0.170 C 
HETATM   17  C9  UNL     1      16.484  25.870 -19.048  1.00  0.00     0.059 C 
HETATM   18 CL1  UNL     1      18.554  24.490 -19.988  1.00  0.00    -0.093 Cl
HETATM   19 CL2  UNL     1      15.958  23.248 -19.513  1.00  0.00    -0.093 Cl
ENDBRANCH   6  16
ENDBRANCH   4   6
ENDBRANCH   2   4
BRANCH   1  20
HETATM   20  C4  UNL     1      20.484  20.768 -17.497  1.00  0.00    -0.011 A 
HETATM   21  C3  UNL     1      21.268  21.164 -16.395  1.00  0.00     0.053 A 
HETATM   22  C2  UNL     1      22.440  20.534 -16.052  1.00  0.00     0.102 A 
HETATM   23  C13 UNL     1      22.932  19.469 -16.758  1.00  0.00     0.103 A 
HETATM   24  C12 UNL     1      22.138  19.086 -17.854  1.00  0.00     0.047 A 
HETATM   25  C10 UNL     1      20.972  19.703 -18.209  1.00  0.00    -0.048 A 
HETATM   26  C11 UNL     1      20.183  19.226 -19.399  1.00  0.00     0.049 C 
BRANCH  22  27
HETATM   27  O1  UNL     1      23.101  21.030 -14.951  1.00  0.00    -0.353 OA
HETATM   28  C1  UNL     1      22.797  22.229 -14.307  1.00  0.00     0.210 C 
ENDBRANCH  22  27
BRANCH  23  29
HETATM   29  O2  UNL     1      24.071  18.810 -16.473  1.00  0.00    -0.344 OA
BRANCH  29  30
HETATM   30  C14 UNL     1      24.554  17.556 -16.503  1.00  0.00     0.121 C 
HETATM   31  C15 UNL     1      25.582  17.303 -17.609  1.00  0.00     0.040 C 
HETATM   32  C16 UNL     1      25.218  17.196 -15.152  1.00  0.00     0.040 C 
ENDBRANCH  29  30
ENDBRANCH  23  29
ENDBRANCH   1  20
TORSDOF 8
ENDMDL
