MODEL 1
REMARK VINA RESULT: -7.505916269      0.000      0.000
REMARK  10 active torsions:
REMARK  status: ('A' for Active; 'I' for Inactive)
REMARK    1  A    between atoms: C2_2  and  C3_3 
REMARK    2  A    between atoms: C8_11  and  N2_12 
REMARK    3  A    between atoms: C10_14  and  C11_15 
REMARK    4  A    between atoms: C11_15  and  S1_16 
REMARK    5  A    between atoms: S1_16  and  C12_17 
REMARK    6  A    between atoms: C12_17  and  C13_18 
REMARK    7  A    between atoms: C13_18  and  N3_19 
REMARK    8  A    between atoms: C14_27  and  C15_28 
REMARK    9  A    between atoms: C15_28  and  O1_29 
REMARK   10  A    between atoms: C16_32  and  C17_33 
ROOT
HETATM    1  C3  UNL     1      40.778  26.525  27.614  1.00  0.00     0.017 A 
HETATM    2  N1  UNL     1      40.397  27.119  28.737  1.00  0.00    -0.349 N 
ATOM      3  H1  UNL     1      40.641  28.076  28.995  1.00  0.00     0.166 HD
HETATM    4  C4  UNL     1      39.649  26.299  29.490  1.00  0.00     0.113 A 
HETATM    5 CL1  UNL     1      38.950  26.730  31.017  1.00  0.00    -0.064 Cl
HETATM    6  C5  UNL     1      39.518  25.069  28.827  1.00  0.00     0.022 A 
HETATM    7  C6  UNL     1      40.231  25.234  27.657  1.00  0.00    -0.021 A 
HETATM    8  C7  UNL     1      40.507  24.361  26.475  1.00  0.00     0.071 C 
HETATM    9  C8  UNL     1      39.710  23.087  26.557  1.00  0.00     0.144 C 
HETATM   10  C14 UNL     1      40.014  22.496  27.918  1.00  0.00     0.171 C 
HETATM   11  O2  UNL     1      38.997  22.694  28.778  1.00  0.00    -0.367 OA
HETATM   12  C16 UNL     1      38.765  23.921  29.331  1.00  0.00     0.196 C 
ENDROOT
BRANCH   9  13
HETATM   13  N2  UNL     1      39.906  22.210  25.457  1.00  0.00    -0.280 N 
HETATM   14  C9  UNL     1      41.005  21.995  24.701  1.00  0.00     0.139 A 
HETATM   15  C10 UNL     1      40.704  21.050  23.750  1.00  0.00     0.053 A 
HETATM   16  N4  UNL     1      39.429  20.705  23.941  1.00  0.00    -0.288 N 
HETATM   17  N5  UNL     1      38.982  21.402  24.952  1.00  0.00    -0.240 N 
ATOM     18  H4  UNL     1      38.900  20.023  23.398  1.00  0.00     0.188 HD
ATOM     19  H5  UNL     1      38.031  21.332  25.312  1.00  0.00     0.208 HD
BRANCH  15  20
HETATM   20  C11 UNL     1      41.544  20.455  22.679  1.00  0.00     0.134 C 
BRANCH  20  21
HETATM   21  S1  UNL     1      41.901  18.722  23.159  1.00  0.00    -0.161 SA
BRANCH  21  22
HETATM   22  C12 UNL     1      41.300  17.596  21.855  1.00  0.00     0.101 C 
BRANCH  22  23
HETATM   23  C13 UNL     1      39.807  17.775  21.769  1.00  0.00     0.239 C 
BRANCH  23  24
HETATM   24  N3  UNL     1      39.107  16.688  22.433  1.00  0.00    -0.079 N 
ATOM     25  H33 UNL     1      38.742  16.012  21.762  1.00  0.00     0.274 HD
ATOM     26  H32 UNL     1      39.754  16.077  22.933  1.00  0.00     0.274 HD
ATOM     27  H31 UNL     1      38.374  17.042  23.048  1.00  0.00     0.274 HD
ENDBRANCH  23  24
ENDBRANCH  22  23
ENDBRANCH  21  22
ENDBRANCH  20  21
ENDBRANCH  15  20
ENDBRANCH   9  13
BRANCH  10  28
HETATM   28  C15 UNL     1      40.363  21.005  27.764  1.00  0.00     0.198 C 
BRANCH  28  29
HETATM   29  O1  UNL     1      40.705  20.451  28.981  1.00  0.00    -0.398 OA
ATOM     30  H1  UNL     1      40.309  19.594  29.086  1.00  0.00     0.209 HD
ENDBRANCH  28  29
ENDBRANCH  10  28
BRANCH   1  31
HETATM   31  C2  UNL     1      41.615  27.108  26.528  1.00  0.00     0.053 C 
HETATM   32  C1  UNL     1      40.850  28.031  25.632  1.00  0.00     0.011 C 
ENDBRANCH   1  31
BRANCH  12  33
HETATM   33  C17 UNL     1      38.689  23.794  30.815  1.00  0.00     0.022 A 
HETATM   34  C18 UNL     1      39.747  23.597  31.684  1.00  0.00     0.033 A 
HETATM   35  C19 UNL     1      41.208  23.524  31.377  1.00  0.00     0.070 C 
HETATM   36  N6  UNL     1      39.173  23.486  32.912  1.00  0.00    -0.304 N 
HETATM   37  N7  UNL     1      37.863  23.603  32.825  1.00  0.00    -0.304 N 
ATOM     38  H6  UNL     1      39.686  23.333  33.780  1.00  0.00     0.186 HD
HETATM   39  C20 UNL     1      37.532  23.796  31.534  1.00  0.00     0.033 A 
ATOM     40  H7  UNL     1      37.208  23.556  33.605  1.00  0.00     0.186 HD
HETATM   41  C21 UNL     1      36.112  23.970  31.066  1.00  0.00     0.070 C 
ENDBRANCH  12  33
TORSDOF 10
ENDMDL
MODEL 2
REMARK VINA RESULT: -7.265982827      1.605      1.781
REMARK  10 active torsions:
REMARK  status: ('A' for Active; 'I' for Inactive)
REMARK    1  A    between atoms: C2_2  and  C3_3 
REMARK    2  A    between atoms: C8_11  and  N2_12 
REMARK    3  A    between atoms: C10_14  and  C11_15 
REMARK    4  A    between atoms: C11_15  and  S1_16 
REMARK    5  A    between atoms: S1_16  and  C12_17 
REMARK    6  A    between atoms: C12_17  and  C13_18 
REMARK    7  A    between atoms: C13_18  and  N3_19 
REMARK    8  A    between atoms: C14_27  and  C15_28 
REMARK    9  A    between atoms: C15_28  and  O1_29 
REMARK   10  A    between atoms: C16_32  and  C17_33 
ROOT
HETATM    1  C3  UNL     1      40.790  26.531  27.660  1.00  0.00     0.017 A 
HETATM    2  N1  UNL     1      40.379  27.124  28.774  1.00  0.00    -0.349 N 
ATOM      3  H1  UNL     1      40.603  28.085  29.032  1.00  0.00     0.166 HD
HETATM    4  C4  UNL     1      39.629  26.295  29.516  1.00  0.00     0.113 A 
HETATM    5 CL1  UNL     1      38.895  26.721  31.027  1.00  0.00    -0.064 Cl
HETATM    6  C5  UNL     1      39.530  25.060  28.856  1.00  0.00     0.022 A 
HETATM    7  C6  UNL     1      40.262  25.232  27.698  1.00  0.00    -0.021 A 
HETATM    8  C7  UNL     1      40.574  24.359  26.526  1.00  0.00     0.071 C 
HETATM    9  C8  UNL     1      39.796  23.073  26.598  1.00  0.00     0.144 C 
HETATM   10  C14 UNL     1      40.083  22.492  27.967  1.00  0.00     0.171 C 
HETATM   11  O2  UNL     1      39.047  22.678  28.807  1.00  0.00    -0.367 OA
HETATM   12  C16 UNL     1      38.786  23.903  29.350  1.00  0.00     0.196 C 
ENDROOT
BRANCH   9  13
HETATM   13  N2  UNL     1      40.027  22.195  25.506  1.00  0.00    -0.280 N 
HETATM   14  C9  UNL     1      41.143  21.994  24.771  1.00  0.00     0.139 A 
HETATM   15  C10 UNL     1      40.875  21.041  23.818  1.00  0.00     0.053 A 
HETATM   16  N4  UNL     1      39.602  20.676  23.988  1.00  0.00    -0.288 N 
HETATM   17  N5  UNL     1      39.126  21.369  24.987  1.00  0.00    -0.240 N 
ATOM     18  H4  UNL     1      39.094  19.984  23.438  1.00  0.00     0.188 HD
ATOM     19  H5  UNL     1      38.169  21.286  25.330  1.00  0.00     0.208 HD
BRANCH  15  20
HETATM   20  C11 UNL     1      41.743  20.456  22.766  1.00  0.00     0.134 C 
BRANCH  20  21
HETATM   21  S1  UNL     1      42.468  18.915  23.445  1.00  0.00    -0.161 SA
BRANCH  21  22
HETATM   22  C12 UNL     1      44.088  19.287  24.199  1.00  0.00     0.101 C 
BRANCH  22  23
HETATM   23  C13 UNL     1      44.604  18.003  24.795  1.00  0.00     0.239 C 
BRANCH  23  24
HETATM   24  N3  UNL     1      45.987  17.767  24.418  1.00  0.00    -0.079 N 
ATOM     25  H33 UNL     1      46.436  17.095  25.040  1.00  0.00     0.274 HD
ATOM     26  H32 UNL     1      46.054  17.242  23.546  1.00  0.00     0.274 HD
ATOM     27  H31 UNL     1      46.511  18.642  24.369  1.00  0.00     0.274 HD
ENDBRANCH  23  24
ENDBRANCH  22  23
ENDBRANCH  21  22
ENDBRANCH  20  21
ENDBRANCH  15  20
ENDBRANCH   9  13
BRANCH  10  28
HETATM   28  C15 UNL     1      40.458  21.006  27.826  1.00  0.00     0.198 C 
BRANCH  28  29
HETATM   29  O1  UNL     1      40.705  20.441  29.061  1.00  0.00    -0.398 OA
ATOM     30  H1  UNL     1      40.900  19.515  28.976  1.00  0.00     0.209 HD
ENDBRANCH  28  29
ENDBRANCH  10  28
BRANCH   1  31
HETATM   31  C2  UNL     1      41.639  27.123  26.588  1.00  0.00     0.053 C 
HETATM   32  C1  UNL     1      40.887  28.066  25.701  1.00  0.00     0.011 C 
ENDBRANCH   1  31
BRANCH  12  33
HETATM   33  C17 UNL     1      38.684  23.780  30.833  1.00  0.00     0.022 A 
HETATM   34  C18 UNL     1      39.728  23.599  31.722  1.00  0.00     0.033 A 
HETATM   35  C19 UNL     1      41.194  23.541  31.442  1.00  0.00     0.070 C 
HETATM   36  N6  UNL     1      39.132  23.486  32.939  1.00  0.00    -0.304 N 
HETATM   37  N7  UNL     1      37.822  23.588  32.827  1.00  0.00    -0.304 N 
ATOM     38  H6  UNL     1      39.630  23.342  33.818  1.00  0.00     0.186 HD
HETATM   39  C20 UNL     1      37.513  23.772  31.530  1.00  0.00     0.033 A 
ATOM     40  H7  UNL     1      37.154  23.536  33.596  1.00  0.00     0.186 HD
HETATM   41  C21 UNL     1      36.101  23.928  31.036  1.00  0.00     0.070 C 
ENDBRANCH  12  33
TORSDOF 10
ENDMDL
MODEL 3
REMARK VINA RESULT: -7.157618946      3.705      7.982
REMARK  10 active torsions:
REMARK  status: ('A' for Active; 'I' for Inactive)
REMARK    1  A    between atoms: C2_2  and  C3_3 
REMARK    2  A    between atoms: C8_11  and  N2_12 
REMARK    3  A    between atoms: C10_14  and  C11_15 
REMARK    4  A    between atoms: C11_15  and  S1_16 
REMARK    5  A    between atoms: S1_16  and  C12_17 
REMARK    6  A    between atoms: C12_17  and  C13_18 
REMARK    7  A    between atoms: C13_18  and  N3_19 
REMARK    8  A    between atoms: C14_27  and  C15_28 
REMARK    9  A    between atoms: C15_28  and  O1_29 
REMARK   10  A    between atoms: C16_32  and  C17_33 
ROOT
HETATM    1  C3  UNL     1      42.986  24.602  23.805  1.00  0.00     0.017 A 
HETATM    2  N1  UNL     1      43.376  23.968  22.706  1.00  0.00    -0.349 N 
ATOM      3  H1  UNL     1      43.798  24.423  21.896  1.00  0.00     0.166 HD
HETATM    4  C4  UNL     1      43.142  22.650  22.799  1.00  0.00     0.113 A 
HETATM    5 CL1  UNL     1      43.537  21.493  21.570  1.00  0.00    -0.064 Cl
HETATM    6  C5  UNL     1      42.555  22.381  24.044  1.00  0.00     0.022 A 
HETATM    7  C6  UNL     1      42.469  23.615  24.656  1.00  0.00    -0.021 A 
HETATM    8  C7  UNL     1      41.976  24.085  25.987  1.00  0.00     0.071 C 
HETATM    9  C8  UNL     1      41.632  22.916  26.869  1.00  0.00     0.144 C 
HETATM   10  C14 UNL     1      40.681  22.055  26.063  1.00  0.00     0.171 C 
HETATM   11  O2  UNL     1      41.302  20.964  25.573  1.00  0.00    -0.367 OA
HETATM   12  C16 UNL     1      42.162  21.054  24.516  1.00  0.00     0.196 C 
ENDROOT
BRANCH   9  13
HETATM   13  N2  UNL     1      41.170  23.282  28.162  1.00  0.00    -0.280 N 
HETATM   14  C9  UNL     1      40.533  24.400  28.574  1.00  0.00     0.139 A 
HETATM   15  C10 UNL     1      40.293  24.296  29.923  1.00  0.00     0.053 A 
HETATM   16  N4  UNL     1      40.786  23.118  30.310  1.00  0.00    -0.288 N 
HETATM   17  N5  UNL     1      41.297  22.541  29.256  1.00  0.00    -0.240 N 
ATOM     18  H4  UNL     1      40.768  22.738  31.256  1.00  0.00     0.188 HD
ATOM     19  H5  UNL     1      41.743  21.624  29.271  1.00  0.00     0.208 HD
BRANCH  15  20
HETATM   20  C11 UNL     1      39.627  25.235  30.861  1.00  0.00     0.134 C 
BRANCH  20  21
HETATM   21  S1  UNL     1      38.389  24.275  31.814  1.00  0.00    -0.161 SA
BRANCH  21  22
HETATM   22  C12 UNL     1      37.068  23.706  30.691  1.00  0.00     0.101 C 
BRANCH  22  23
HETATM   23  C13 UNL     1      35.907  23.282  31.554  1.00  0.00     0.239 C 
BRANCH  23  24
HETATM   24  N3  UNL     1      36.296  22.232  32.480  1.00  0.00    -0.079 N 
ATOM     25  H33 UNL     1      36.158  21.306  32.076  1.00  0.00     0.274 HD
ATOM     26  H32 UNL     1      37.308  22.199  32.605  1.00  0.00     0.274 HD
ATOM     27  H31 UNL     1      35.811  22.329  33.373  1.00  0.00     0.274 HD
ENDBRANCH  23  24
ENDBRANCH  22  23
ENDBRANCH  21  22
ENDBRANCH  20  21
ENDBRANCH  15  20
ENDBRANCH   9  13
BRANCH  10  28
HETATM   28  C15 UNL     1      39.461  21.690  26.927  1.00  0.00     0.198 C 
BRANCH  28  29
HETATM   29  O1  UNL     1      39.616  20.442  27.496  1.00  0.00    -0.398 OA
ATOM     30  H1  UNL     1      38.782  19.991  27.554  1.00  0.00     0.209 HD
ENDBRANCH  28  29
ENDBRANCH  10  28
BRANCH   1  31
HETATM   31  C2  UNL     1      43.079  26.064  24.078  1.00  0.00     0.053 C 
HETATM   32  C1  UNL     1      44.464  26.504  24.436  1.00  0.00     0.011 C 
ENDBRANCH   1  31
BRANCH  12  33
HETATM   33  C17 UNL     1      41.759  20.081  23.461  1.00  0.00     0.022 A 
HETATM   34  C18 UNL     1      40.666  20.179  22.619  1.00  0.00     0.033 A 
HETATM   35  C19 UNL     1      39.666  21.284  22.510  1.00  0.00     0.070 C 
HETATM   36  N6  UNL     1      40.688  19.035  21.885  1.00  0.00    -0.304 N 
HETATM   37  N7  UNL     1      41.710  18.278  22.234  1.00  0.00    -0.304 N 
ATOM     38  H6  UNL     1      40.009  18.794  21.163  1.00  0.00     0.186 HD
HETATM   39  C20 UNL     1      42.395  18.902  23.211  1.00  0.00     0.033 A 
ATOM     40  H7  UNL     1      41.944  17.370  21.831  1.00  0.00     0.186 HD
HETATM   41  C21 UNL     1      43.627  18.322  23.851  1.00  0.00     0.070 C 
ENDBRANCH  12  33
TORSDOF 10
ENDMDL
MODEL 4
REMARK VINA RESULT: -7.067332954      1.541      2.258
REMARK  10 active torsions:
REMARK  status: ('A' for Active; 'I' for Inactive)
REMARK    1  A    between atoms: C2_2  and  C3_3 
REMARK    2  A    between atoms: C8_11  and  N2_12 
REMARK    3  A    between atoms: C10_14  and  C11_15 
REMARK    4  A    between atoms: C11_15  and  S1_16 
REMARK    5  A    between atoms: S1_16  and  C12_17 
REMARK    6  A    between atoms: C12_17  and  C13_18 
REMARK    7  A    between atoms: C13_18  and  N3_19 
REMARK    8  A    between atoms: C14_27  and  C15_28 
REMARK    9  A    between atoms: C15_28  and  O1_29 
REMARK   10  A    between atoms: C16_32  and  C17_33 
ROOT
HETATM    1  C3  UNL     1      40.704  26.611  27.773  1.00  0.00     0.017 A 
HETATM    2  N1  UNL     1      40.304  27.173  28.908  1.00  0.00    -0.349 N 
ATOM      3  H1  UNL     1      40.519  28.131  29.184  1.00  0.00     0.166 HD
HETATM    4  C4  UNL     1      39.578  26.317  29.642  1.00  0.00     0.113 A 
HETATM    5 CL1  UNL     1      38.864  26.698  31.175  1.00  0.00    -0.064 Cl
HETATM    6  C5  UNL     1      39.484  25.097  28.956  1.00  0.00     0.022 A 
HETATM    7  C6  UNL     1      40.194  25.305  27.790  1.00  0.00    -0.021 A 
HETATM    8  C7  UNL     1      40.498  24.463  26.593  1.00  0.00     0.071 C 
HETATM    9  C8  UNL     1      39.738  23.166  26.647  1.00  0.00     0.144 C 
HETATM   10  C14 UNL     1      40.056  22.557  27.998  1.00  0.00     0.171 C 
HETATM   11  O2  UNL     1      39.032  22.709  28.859  1.00  0.00    -0.367 OA
HETATM   12  C16 UNL     1      38.764  23.918  29.435  1.00  0.00     0.196 C 
ENDROOT
BRANCH   9  13
HETATM   13  N2  UNL     1      39.961  22.316  25.532  1.00  0.00    -0.280 N 
HETATM   14  C9  UNL     1      41.045  22.194  24.734  1.00  0.00     0.139 A 
HETATM   15  C10 UNL     1      40.784  21.237  23.783  1.00  0.00     0.053 A 
HETATM   16  N4  UNL     1      39.547  20.792  24.016  1.00  0.00    -0.288 N 
HETATM   17  N5  UNL     1      39.085  21.442  25.050  1.00  0.00    -0.240 N 
ATOM     18  H4  UNL     1      39.054  20.075  23.485  1.00  0.00     0.188 HD
ATOM     19  H5  UNL     1      38.156  21.295  25.444  1.00  0.00     0.208 HD
BRANCH  15  20
HETATM   20  C11 UNL     1      41.628  20.719  22.676  1.00  0.00     0.134 C 
BRANCH  20  21
HETATM   21  S1  UNL     1      42.391  19.155  23.252  1.00  0.00    -0.161 SA
BRANCH  21  22
HETATM   22  C12 UNL     1      43.971  19.523  24.088  1.00  0.00     0.101 C 
BRANCH  22  23
HETATM   23  C13 UNL     1      44.393  18.269  24.809  1.00  0.00     0.239 C 
BRANCH  23  24
HETATM   24  N3  UNL     1      45.726  17.854  24.406  1.00  0.00    -0.079 N 
ATOM     25  H33 UNL     1      45.953  18.181  23.466  1.00  0.00     0.274 HD
ATOM     26  H32 UNL     1      46.447  18.357  24.924  1.00  0.00     0.274 HD
ATOM     27  H31 UNL     1      45.840  16.844  24.490  1.00  0.00     0.274 HD
ENDBRANCH  23  24
ENDBRANCH  22  23
ENDBRANCH  21  22
ENDBRANCH  20  21
ENDBRANCH  15  20
ENDBRANCH   9  13
BRANCH  10  28
HETATM   28  C15 UNL     1      40.448  21.080  27.815  1.00  0.00     0.198 C 
BRANCH  28  29
HETATM   29  O1  UNL     1      40.635  20.466  29.038  1.00  0.00    -0.398 OA
ATOM     30  H1  UNL     1      39.821  20.098  29.360  1.00  0.00     0.209 HD
ENDBRANCH  28  29
ENDBRANCH  10  28
BRANCH   1  31
HETATM   31  C2  UNL     1      41.526  27.240  26.701  1.00  0.00     0.053 C 
HETATM   32  C1  UNL     1      40.992  28.565  26.256  1.00  0.00     0.011 C 
ENDBRANCH   1  31
BRANCH  12  33
HETATM   33  C17 UNL     1      38.688  23.759  30.916  1.00  0.00     0.022 A 
HETATM   34  C18 UNL     1      37.545  23.794  31.694  1.00  0.00     0.033 A 
HETATM   35  C19 UNL     1      36.122  23.935  31.259  1.00  0.00     0.070 C 
HETATM   36  N6  UNL     1      37.990  23.664  32.972  1.00  0.00    -0.304 N 
HETATM   37  N7  UNL     1      39.304  23.556  32.998  1.00  0.00    -0.304 N 
ATOM     38  H6  UNL     1      37.390  23.652  33.797  1.00  0.00     0.186 HD
HETATM   39  C20 UNL     1      39.767  23.611  31.736  1.00  0.00     0.033 A 
ATOM     40  H7  UNL     1      39.876  23.449  33.837  1.00  0.00     0.186 HD
HETATM   41  C21 UNL     1      41.228  23.519  31.390  1.00  0.00     0.070 C 
ENDBRANCH  12  33
TORSDOF 10
ENDMDL
MODEL 5
REMARK VINA RESULT: -6.988115388      3.949      8.162
REMARK  10 active torsions:
REMARK  status: ('A' for Active; 'I' for Inactive)
REMARK    1  A    between atoms: C2_2  and  C3_3 
REMARK    2  A    between atoms: C8_11  and  N2_12 
REMARK    3  A    between atoms: C10_14  and  C11_15 
REMARK    4  A    between atoms: C11_15  and  S1_16 
REMARK    5  A    between atoms: S1_16  and  C12_17 
REMARK    6  A    between atoms: C12_17  and  C13_18 
REMARK    7  A    between atoms: C13_18  and  N3_19 
REMARK    8  A    between atoms: C14_27  and  C15_28 
REMARK    9  A    between atoms: C15_28  and  O1_29 
REMARK   10  A    between atoms: C16_32  and  C17_33 
ROOT
HETATM    1  C3  UNL     1      38.891  22.622  22.859  1.00  0.00     0.017 A 
HETATM    2  N1  UNL     1      39.716  22.478  21.830  1.00  0.00    -0.349 N 
ATOM      3  H1  UNL     1      39.415  22.367  20.861  1.00  0.00     0.166 HD
HETATM    4  C4  UNL     1      40.996  22.499  22.228  1.00  0.00     0.113 A 
HETATM    5 CL1  UNL     1      42.359  22.363  21.165  1.00  0.00    -0.064 Cl
HETATM    6  C5  UNL     1      41.035  22.667  23.621  1.00  0.00     0.022 A 
HETATM    7  C6  UNL     1      39.708  22.744  23.992  1.00  0.00    -0.021 A 
HETATM    8  C7  UNL     1      39.003  22.938  25.296  1.00  0.00     0.071 C 
HETATM    9  C8  UNL     1      39.986  23.247  26.392  1.00  0.00     0.144 C 
HETATM   10  C14 UNL     1      41.020  22.141  26.344  1.00  0.00     0.171 C 
HETATM   11  O2  UNL     1      42.164  22.563  25.772  1.00  0.00    -0.367 OA
HETATM   12  C16 UNL     1      42.255  22.747  24.422  1.00  0.00     0.196 C 
ENDROOT
BRANCH   9  13
HETATM   13  N2  UNL     1      39.388  23.463  27.663  1.00  0.00    -0.280 N 
HETATM   14  C9  UNL     1      39.675  24.378  28.615  1.00  0.00     0.139 A 
HETATM   15  C10 UNL     1      38.821  24.189  29.675  1.00  0.00     0.053 A 
HETATM   16  N4  UNL     1      38.029  23.164  29.352  1.00  0.00    -0.288 N 
HETATM   17  N5  UNL     1      38.383  22.755  28.163  1.00  0.00    -0.240 N 
ATOM     18  H4  UNL     1      37.284  22.772  29.928  1.00  0.00     0.188 HD
ATOM     19  H5  UNL     1      37.937  21.979  27.674  1.00  0.00     0.208 HD
BRANCH  15  20
HETATM   20  C11 UNL     1      38.707  24.915  30.965  1.00  0.00     0.134 C 
BRANCH  20  21
HETATM   21  S1  UNL     1      38.601  23.658  32.296  1.00  0.00    -0.161 SA
BRANCH  21  22
HETATM   22  C12 UNL     1      40.097  23.750  33.337  1.00  0.00     0.101 C 
BRANCH  22  23
HETATM   23  C13 UNL     1      41.276  23.877  32.407  1.00  0.00     0.239 C 
BRANCH  23  24
HETATM   24  N3  UNL     1      42.511  23.490  33.069  1.00  0.00    -0.079 N 
ATOM     25  H33 UNL     1      43.326  23.888  32.603  1.00  0.00     0.274 HD
ATOM     26  H32 UNL     1      42.609  23.946  33.975  1.00  0.00     0.274 HD
ATOM     27  H31 UNL     1      42.583  22.475  33.150  1.00  0.00     0.274 HD
ENDBRANCH  23  24
ENDBRANCH  22  23
ENDBRANCH  21  22
ENDBRANCH  20  21
ENDBRANCH  15  20
ENDBRANCH   9  13
BRANCH  10  28
HETATM   28  C15 UNL     1      41.248  21.589  27.762  1.00  0.00     0.198 C 
BRANCH  28  29
HETATM   29  O1  UNL     1      40.490  20.455  27.977  1.00  0.00    -0.398 OA
ATOM     30  H1  UNL     1      40.212  20.401  28.883  1.00  0.00     0.209 HD
ENDBRANCH  28  29
ENDBRANCH  10  28
BRANCH   1  31
HETATM   31  C2  UNL     1      37.401  22.649  22.820  1.00  0.00     0.053 C 
HETATM   32  C1  UNL     1      36.846  24.029  22.655  1.00  0.00     0.011 C 
ENDBRANCH   1  31
BRANCH  12  33
HETATM   33  C17 UNL     1      43.430  21.995  23.894  1.00  0.00     0.022 A 
HETATM   34  C18 UNL     1      43.598  20.622  23.888  1.00  0.00     0.033 A 
HETATM   35  C19 UNL     1      42.649  19.561  24.341  1.00  0.00     0.070 C 
HETATM   36  N6  UNL     1      44.839  20.426  23.366  1.00  0.00    -0.304 N 
HETATM   37  N7  UNL     1      45.406  21.579  23.068  1.00  0.00    -0.304 N 
ATOM     38  H6  UNL     1      45.272  19.513  23.225  1.00  0.00     0.186 HD
HETATM   39  C20 UNL     1      44.554  22.572  23.384  1.00  0.00     0.033 A 
ATOM     40  H7  UNL     1      46.335  21.699  22.664  1.00  0.00     0.186 HD
HETATM   41  C21 UNL     1      44.875  24.028  23.176  1.00  0.00     0.070 C 
ENDBRANCH  12  33
TORSDOF 10
ENDMDL
