MODEL 1
REMARK VINA RESULT: -7.356377012      0.000      0.000
REMARK  11 active torsions:
REMARK  status: ('A' for Active; 'I' for Inactive)
REMARK    1  A    between atoms: O1_2  and  C2_3 
REMARK    2  A    between atoms: C2_3  and  C3_5 
REMARK    3  A    between atoms: C3_5  and  C6_8 
REMARK    4  A    between atoms: C6_8  and  S1_9 
REMARK    5  A    between atoms: S1_9  and  N1_12 
REMARK    6  A    between atoms: N1_12  and  C7_14 
REMARK    7  A    between atoms: C11_18  and  N2_19 
REMARK    8  A    between atoms: N2_19  and  C12_21 
REMARK    9  A    between atoms: C16_27  and  C17_28 
REMARK   10  A    between atoms: C17_28  and  O6_33 
REMARK   11  A    between atoms: N4_29  and  O5_31 
ROOT
HETATM    1  C7  UNL     1      40.384  22.026  23.151  1.00  0.00     0.115 C 
HETATM    2  C8  UNL     1      39.192  22.256  22.177  1.00  0.00     0.028 C 
HETATM    3  C9  UNL     1      38.058  22.758  23.047  1.00  0.00     0.004 C 
HETATM    4  C10 UNL     1      38.580  22.651  24.464  1.00  0.00     0.027 C 
HETATM    5  C11 UNL     1      40.054  23.051  24.199  1.00  0.00     0.105 C 
ENDROOT
BRANCH   5   6
HETATM    6  N2  UNL     1      40.819  22.998  25.389  1.00  0.00    -0.381 N 
ATOM      7  H2  UNL     1      41.603  22.347  25.437  1.00  0.00     0.160 HD
BRANCH   6   8
HETATM    8  C12 UNL     1      40.546  23.798  26.496  1.00  0.00     0.067 A 
HETATM    9  C13 UNL     1      40.477  25.169  26.439  1.00  0.00     0.119 A 
HETATM   10  N3  UNL     1      40.215  25.911  27.544  1.00  0.00    -0.366 N 
HETATM   11  C14 UNL     1      40.010  25.330  28.765  1.00  0.00     0.021 A 
ATOM     12  H3  UNL     1      40.171  26.928  27.462  1.00  0.00     0.165 HD
HETATM   13  C15 UNL     1      39.722  26.183  29.952  1.00  0.00     0.069 C 
HETATM   14  C16 UNL     1      40.068  23.966  28.883  1.00  0.00     0.064 A 
HETATM   15  C18 UNL     1      40.332  23.236  27.757  1.00  0.00     0.078 A 
HETATM   16 CL2  UNL     1      40.418  21.480  27.877  1.00  0.00    -0.081 Cl
BRANCH  14  17
HETATM   17  C17 UNL     1      39.855  23.324  30.178  1.00  0.00     0.196 C 
HETATM   18  N4  UNL     1      38.615  23.086  30.534  1.00  0.00    -0.245 N 
ATOM     19  H4  UNL     1      37.854  23.353  29.909  1.00  0.00     0.196 HD
BRANCH  18  20
HETATM   20  O5  UNL     1      38.322  22.486  31.733  1.00  0.00    -0.288 OA
ATOM     21  H5  UNL     1      37.962  22.984  32.458  1.00  0.00     0.244 HD
ENDBRANCH  18  20
BRANCH  17  22
HETATM   22  O6  UNL     1      40.841  22.948  31.049  1.00  0.00    -0.220 OA
HETATM   23 CL1  UNL     1      41.354  23.952  32.358  1.00  0.00     0.069 Cl
ENDBRANCH  17  22
ENDBRANCH  14  17
ENDBRANCH   6   8
ENDBRANCH   5   6
BRANCH   1  24
HETATM   24  N1  UNL     1      40.322  20.667  23.555  1.00  0.00    -0.313 N 
ATOM     25  H1  UNL     1      39.781  20.301  24.338  1.00  0.00     0.172 HD
BRANCH  24  26
HETATM   26  S1  UNL     1      41.333  19.724  22.478  1.00  0.00     0.228 S 
HETATM   27  O3  UNL     1      42.147  20.662  21.613  1.00  0.00    -0.206 OA
HETATM   28  O4  UNL     1      40.346  18.946  21.633  1.00  0.00    -0.206 OA
BRANCH  26  29
HETATM   29  C6  UNL     1      42.398  18.732  23.408  1.00  0.00     0.182 C 
BRANCH  29  30
HETATM   30  C3  UNL     1      43.399  19.368  24.286  1.00  0.00     0.055 C 
HETATM   31  C4  UNL     1      42.597  19.893  25.504  1.00  0.00     0.026 C 
HETATM   32  C5  UNL     1      44.066  20.588  23.710  1.00  0.00     0.026 C 
BRANCH  30  33
HETATM   33  C2  UNL     1      44.455  18.470  24.765  1.00  0.00     0.267 C 
HETATM   34  O2  UNL     1      44.848  18.590  25.976  1.00  0.00    -0.264 OA
BRANCH  33  35
HETATM   35  O1  UNL     1      45.091  17.484  24.045  1.00  0.00    -0.326 OA
HETATM   36  C1  UNL     1      46.154  16.699  24.577  1.00  0.00     0.213 C 
ENDBRANCH  33  35
ENDBRANCH  30  33
ENDBRANCH  29  30
ENDBRANCH  26  29
ENDBRANCH  24  26
ENDBRANCH   1  24
TORSDOF 11
ENDMDL
MODEL 2
REMARK VINA RESULT: -7.039705526      2.005      2.661
REMARK  11 active torsions:
REMARK  status: ('A' for Active; 'I' for Inactive)
REMARK    1  A    between atoms: O1_2  and  C2_3 
REMARK    2  A    between atoms: C2_3  and  C3_5 
REMARK    3  A    between atoms: C3_5  and  C6_8 
REMARK    4  A    between atoms: C6_8  and  S1_9 
REMARK    5  A    between atoms: S1_9  and  N1_12 
REMARK    6  A    between atoms: N1_12  and  C7_14 
REMARK    7  A    between atoms: C11_18  and  N2_19 
REMARK    8  A    between atoms: N2_19  and  C12_21 
REMARK    9  A    between atoms: C16_27  and  C17_28 
REMARK   10  A    between atoms: C17_28  and  O6_33 
REMARK   11  A    between atoms: N4_29  and  O5_31 
ROOT
HETATM    1  C7  UNL     1      41.607  23.489  24.514  1.00  0.00     0.115 C 
HETATM    2  C8  UNL     1      42.773  24.151  23.722  1.00  0.00     0.028 C 
HETATM    3  C9  UNL     1      42.432  25.626  23.670  1.00  0.00     0.004 C 
HETATM    4  C10 UNL     1      41.050  25.726  24.280  1.00  0.00     0.027 C 
HETATM    5  C11 UNL     1      41.203  24.646  25.382  1.00  0.00     0.105 C 
ENDROOT
BRANCH   5   6
HETATM    6  N2  UNL     1      40.002  24.490  26.114  1.00  0.00    -0.381 N 
ATOM      7  H2  UNL     1      39.221  24.005  25.673  1.00  0.00     0.160 HD
BRANCH   6   8
HETATM    8  C12 UNL     1      39.843  24.971  27.412  1.00  0.00     0.067 A 
HETATM    9  C13 UNL     1      39.754  26.308  27.716  1.00  0.00     0.119 A 
HETATM   10  N3  UNL     1      39.607  26.734  28.996  1.00  0.00    -0.366 N 
HETATM   11  C14 UNL     1      39.542  25.854  30.041  1.00  0.00     0.021 A 
ATOM     12  H3  UNL     1      39.543  27.735  29.183  1.00  0.00     0.165 HD
HETATM   13  C15 UNL     1      39.377  26.365  31.430  1.00  0.00     0.069 C 
HETATM   14  C16 UNL     1      39.627  24.508  29.797  1.00  0.00     0.064 A 
HETATM   15  C18 UNL     1      39.775  24.099  28.500  1.00  0.00     0.078 A 
HETATM   16 CL2  UNL     1      39.891  22.375  28.155  1.00  0.00    -0.081 Cl
BRANCH  14  17
HETATM   17  C17 UNL     1      39.563  23.549  30.899  1.00  0.00     0.196 C 
HETATM   18  N4  UNL     1      38.373  23.172  31.299  1.00  0.00    -0.245 N 
ATOM     19  H4  UNL     1      37.546  23.552  30.838  1.00  0.00     0.196 HD
BRANCH  18  20
HETATM   20  O5  UNL     1      38.219  22.275  32.326  1.00  0.00    -0.288 OA
ATOM     21  H5  UNL     1      37.945  21.380  32.161  1.00  0.00     0.244 HD
ENDBRANCH  18  20
BRANCH  17  22
HETATM   22  O6  UNL     1      40.643  23.013  31.546  1.00  0.00    -0.220 OA
HETATM   23 CL1  UNL     1      41.343  23.744  32.945  1.00  0.00     0.069 Cl
ENDBRANCH  17  22
ENDBRANCH  14  17
ENDBRANCH   6   8
ENDBRANCH   5   6
BRANCH   1  24
HETATM   24  N1  UNL     1      40.657  23.058  23.552  1.00  0.00    -0.313 N 
ATOM     25  H1  UNL     1      40.288  23.620  22.785  1.00  0.00     0.172 HD
BRANCH  24  26
HETATM   26  S1  UNL     1      40.228  21.396  23.904  1.00  0.00     0.228 S 
HETATM   27  O3  UNL     1      39.664  20.754  22.655  1.00  0.00    -0.206 OA
HETATM   28  O4  UNL     1      39.158  21.511  24.970  1.00  0.00    -0.206 OA
BRANCH  26  29
HETATM   29  C6  UNL     1      41.635  20.532  24.410  1.00  0.00     0.182 C 
BRANCH  29  30
HETATM   30  C3  UNL     1      42.609  20.080  23.398  1.00  0.00     0.055 C 
HETATM   31  C4  UNL     1      43.998  20.269  24.058  1.00  0.00     0.026 C 
HETATM   32  C5  UNL     1      42.661  20.914  22.147  1.00  0.00     0.026 C 
BRANCH  30  33
HETATM   33  C2  UNL     1      42.464  18.678  22.991  1.00  0.00     0.267 C 
HETATM   34  O2  UNL     1      42.900  17.770  23.780  1.00  0.00    -0.264 OA
BRANCH  33  35
HETATM   35  O1  UNL     1      41.899  18.210  21.826  1.00  0.00    -0.326 OA
HETATM   36  C1  UNL     1      40.765  17.347  21.808  1.00  0.00     0.213 C 
ENDBRANCH  33  35
ENDBRANCH  30  33
ENDBRANCH  29  30
ENDBRANCH  26  29
ENDBRANCH  24  26
ENDBRANCH   1  24
TORSDOF 11
ENDMDL
MODEL 3
REMARK VINA RESULT: -7.036052255      3.042      4.471
REMARK  11 active torsions:
REMARK  status: ('A' for Active; 'I' for Inactive)
REMARK    1  A    between atoms: O1_2  and  C2_3 
REMARK    2  A    between atoms: C2_3  and  C3_5 
REMARK    3  A    between atoms: C3_5  and  C6_8 
REMARK    4  A    between atoms: C6_8  and  S1_9 
REMARK    5  A    between atoms: S1_9  and  N1_12 
REMARK    6  A    between atoms: N1_12  and  C7_14 
REMARK    7  A    between atoms: C11_18  and  N2_19 
REMARK    8  A    between atoms: N2_19  and  C12_21 
REMARK    9  A    between atoms: C16_27  and  C17_28 
REMARK   10  A    between atoms: C17_28  and  O6_33 
REMARK   11  A    between atoms: N4_29  and  O5_31 
ROOT
HETATM    1  C7  UNL     1      41.146  24.476  25.209  1.00  0.00     0.115 C 
HETATM    2  C8  UNL     1      41.964  25.262  24.144  1.00  0.00     0.028 C 
HETATM    3  C9  UNL     1      41.211  26.560  23.941  1.00  0.00     0.004 C 
HETATM    4  C10 UNL     1      39.946  26.406  24.758  1.00  0.00     0.027 C 
HETATM    5  C11 UNL     1      40.539  25.627  25.960  1.00  0.00     0.105 C 
ENDROOT
BRANCH   5   6
HETATM    6  N2  UNL     1      39.535  25.299  26.902  1.00  0.00    -0.381 N 
ATOM      7  H2  UNL     1      38.754  24.716  26.600  1.00  0.00     0.160 HD
BRANCH   6   8
HETATM    8  C12 UNL     1      39.568  25.740  28.223  1.00  0.00     0.067 A 
HETATM    9  C13 UNL     1      40.115  26.941  28.605  1.00  0.00     0.119 A 
HETATM   10  N3  UNL     1      40.134  27.329  29.905  1.00  0.00    -0.366 N 
HETATM   11  C14 UNL     1      39.611  26.542  30.894  1.00  0.00     0.021 A 
ATOM     12  H3  UNL     1      40.548  28.229  30.150  1.00  0.00     0.165 HD
HETATM   13  C15 UNL     1      39.650  27.008  32.309  1.00  0.00     0.069 C 
HETATM   14  C16 UNL     1      39.055  25.332  30.573  1.00  0.00     0.064 A 
HETATM   15  C18 UNL     1      39.045  24.960  29.257  1.00  0.00     0.078 A 
HETATM   16 CL2  UNL     1      38.339  23.408  28.812  1.00  0.00    -0.081 Cl
BRANCH  14  17
HETATM   17  C17 UNL     1      38.493  24.474  31.614  1.00  0.00     0.196 C 
HETATM   18  N4  UNL     1      39.294  23.592  32.163  1.00  0.00    -0.245 N 
ATOM     19  H4  UNL     1      40.263  23.533  31.851  1.00  0.00     0.196 HD
BRANCH  18  20
HETATM   20  O5  UNL     1      38.852  22.746  33.148  1.00  0.00    -0.288 OA
ATOM     21  H5  UNL     1      38.596  21.852  32.951  1.00  0.00     0.244 HD
ENDBRANCH  18  20
BRANCH  17  22
HETATM   22  O6  UNL     1      37.202  24.516  32.065  1.00  0.00    -0.220 OA
HETATM   23 CL1  UNL     1      35.913  23.689  31.266  1.00  0.00     0.069 Cl
ENDBRANCH  17  22
ENDBRANCH  14  17
ENDBRANCH   6   8
ENDBRANCH   5   6
BRANCH   1  24
HETATM   24  N1  UNL     1      40.247  23.641  24.496  1.00  0.00    -0.313 N 
ATOM     25  H1  UNL     1      39.732  23.902  23.654  1.00  0.00     0.172 HD
BRANCH  24  26
HETATM   26  S1  UNL     1      40.171  22.089  25.305  1.00  0.00     0.228 S 
HETATM   27  O3  UNL     1      38.722  21.720  25.535  1.00  0.00    -0.206 OA
HETATM   28  O4  UNL     1      40.874  22.328  26.625  1.00  0.00    -0.206 OA
BRANCH  26  29
HETATM   29  C6  UNL     1      40.920  20.887  24.316  1.00  0.00     0.182 C 
BRANCH  29  30
HETATM   30  C3  UNL     1      40.639  20.862  22.868  1.00  0.00     0.055 C 
HETATM   31  C4  UNL     1      41.057  19.447  22.397  1.00  0.00     0.026 C 
HETATM   32  C5  UNL     1      41.472  21.805  22.042  1.00  0.00     0.026 C 
BRANCH  30  33
HETATM   33  C2  UNL     1      39.233  21.085  22.512  1.00  0.00     0.267 C 
HETATM   34  O2  UNL     1      38.421  20.101  22.611  1.00  0.00    -0.264 OA
BRANCH  33  35
HETATM   35  O1  UNL     1      38.668  22.260  22.072  1.00  0.00    -0.326 OA
HETATM   36  C1  UNL     1      37.343  22.657  22.413  1.00  0.00     0.213 C 
ENDBRANCH  33  35
ENDBRANCH  30  33
ENDBRANCH  29  30
ENDBRANCH  26  29
ENDBRANCH  24  26
ENDBRANCH   1  24
TORSDOF 11
ENDMDL
MODEL 4
REMARK VINA RESULT: -7.013339015      3.629      5.785
REMARK  11 active torsions:
REMARK  status: ('A' for Active; 'I' for Inactive)
REMARK    1  A    between atoms: O1_2  and  C2_3 
REMARK    2  A    between atoms: C2_3  and  C3_5 
REMARK    3  A    between atoms: C3_5  and  C6_8 
REMARK    4  A    between atoms: C6_8  and  S1_9 
REMARK    5  A    between atoms: S1_9  and  N1_12 
REMARK    6  A    between atoms: N1_12  and  C7_14 
REMARK    7  A    between atoms: C11_18  and  N2_19 
REMARK    8  A    between atoms: N2_19  and  C12_21 
REMARK    9  A    between atoms: C16_27  and  C17_28 
REMARK   10  A    between atoms: C17_28  and  O6_33 
REMARK   11  A    between atoms: N4_29  and  O5_31 
ROOT
HETATM    1  C7  UNL     1      41.354  18.967  22.323  1.00  0.00     0.115 C 
HETATM    2  C8  UNL     1      41.235  17.622  21.548  1.00  0.00     0.028 C 
HETATM    3  C9  UNL     1      39.747  17.361  21.428  1.00  0.00     0.004 C 
HETATM    4  C10 UNL     1      39.095  18.454  22.249  1.00  0.00     0.027 C 
HETATM    5  C11 UNL     1      40.064  19.614  21.905  1.00  0.00     0.105 C 
ENDROOT
BRANCH   5   6
HETATM    6  N2  UNL     1      39.707  20.798  22.591  1.00  0.00    -0.381 N 
ATOM      7  H2  UNL     1      39.084  20.727  23.396  1.00  0.00     0.160 HD
BRANCH   6   8
HETATM    8  C12 UNL     1      40.170  22.057  22.214  1.00  0.00     0.067 A 
HETATM    9  C13 UNL     1      41.226  22.247  21.357  1.00  0.00     0.119 A 
HETATM   10  N3  UNL     1      41.650  23.491  21.021  1.00  0.00    -0.366 N 
HETATM   11  C14 UNL     1      41.047  24.613  21.521  1.00  0.00     0.021 A 
ATOM     12  H3  UNL     1      42.438  23.593  20.380  1.00  0.00     0.165 HD
HETATM   13  C15 UNL     1      41.543  25.960  21.123  1.00  0.00     0.069 C 
HETATM   14  C16 UNL     1      39.990  24.484  22.382  1.00  0.00     0.064 A 
HETATM   15  C18 UNL     1      39.577  23.221  22.708  1.00  0.00     0.078 A 
HETATM   16 CL2  UNL     1      38.222  23.023  23.817  1.00  0.00    -0.081 Cl
BRANCH  14  17
HETATM   17  C17 UNL     1      39.332  25.669  22.932  1.00  0.00     0.196 C 
HETATM   18  N4  UNL     1      38.278  26.120  22.295  1.00  0.00    -0.245 N 
ATOM     19  H4  UNL     1      37.958  25.641  21.454  1.00  0.00     0.196 HD
BRANCH  18  20
HETATM   20  O5  UNL     1      37.599  27.226  22.740  1.00  0.00    -0.288 OA
ATOM     21  H5  UNL     1      36.685  27.172  22.997  1.00  0.00     0.244 HD
ENDBRANCH  18  20
BRANCH  17  22
HETATM   22  O6  UNL     1      39.725  26.343  24.056  1.00  0.00    -0.220 OA
HETATM   23 CL1  UNL     1      39.883  25.571  25.593  1.00  0.00     0.069 Cl
ENDBRANCH  17  22
ENDBRANCH  14  17
ENDBRANCH   6   8
ENDBRANCH   5   6
BRANCH   1  24
HETATM   24  N1  UNL     1      41.478  18.633  23.697  1.00  0.00    -0.313 N 
ATOM     25  H1  UNL     1      40.773  18.159  24.261  1.00  0.00     0.172 HD
BRANCH  24  26
HETATM   26  S1  UNL     1      43.046  19.175  24.259  1.00  0.00     0.228 S 
HETATM   27  O3  UNL     1      44.118  18.621  23.346  1.00  0.00    -0.206 OA
HETATM   28  O4  UNL     1      43.167  18.577  25.644  1.00  0.00    -0.206 OA
BRANCH  26  29
HETATM   29  C6  UNL     1      43.103  20.901  24.230  1.00  0.00     0.182 C 
BRANCH  29  30
HETATM   30  C3  UNL     1      42.764  21.657  25.451  1.00  0.00     0.055 C 
HETATM   31  C4  UNL     1      42.523  23.112  24.975  1.00  0.00     0.026 C 
HETATM   32  C5  UNL     1      43.874  21.763  26.463  1.00  0.00     0.026 C 
BRANCH  30  33
HETATM   33  C2  UNL     1      41.567  21.183  26.154  1.00  0.00     0.267 C 
HETATM   34  O2  UNL     1      40.469  21.117  25.501  1.00  0.00    -0.264 OA
BRANCH  33  35
HETATM   35  O1  UNL     1      41.483  20.788  27.470  1.00  0.00    -0.326 OA
HETATM   36  C1  UNL     1      40.787  21.538  28.461  1.00  0.00     0.213 C 
ENDBRANCH  33  35
ENDBRANCH  30  33
ENDBRANCH  29  30
ENDBRANCH  26  29
ENDBRANCH  24  26
ENDBRANCH   1  24
TORSDOF 11
ENDMDL
MODEL 5
REMARK VINA RESULT: -7.006726123      2.380      3.141
REMARK  11 active torsions:
REMARK  status: ('A' for Active; 'I' for Inactive)
REMARK    1  A    between atoms: O1_2  and  C2_3 
REMARK    2  A    between atoms: C2_3  and  C3_5 
REMARK    3  A    between atoms: C3_5  and  C6_8 
REMARK    4  A    between atoms: C6_8  and  S1_9 
REMARK    5  A    between atoms: S1_9  and  N1_12 
REMARK    6  A    between atoms: N1_12  and  C7_14 
REMARK    7  A    between atoms: C11_18  and  N2_19 
REMARK    8  A    between atoms: N2_19  and  C12_21 
REMARK    9  A    between atoms: C16_27  and  C17_28 
REMARK   10  A    between atoms: C17_28  and  O6_33 
REMARK   11  A    between atoms: N4_29  and  O5_31 
ROOT
HETATM    1  C7  UNL     1      40.998  23.865  24.722  1.00  0.00     0.115 C 
HETATM    2  C8  UNL     1      41.895  24.607  23.689  1.00  0.00     0.028 C 
HETATM    3  C9  UNL     1      41.363  26.025  23.646  1.00  0.00     0.004 C 
HETATM    4  C10 UNL     1      40.122  25.999  24.513  1.00  0.00     0.027 C 
HETATM    5  C11 UNL     1      40.622  25.019  25.606  1.00  0.00     0.105 C 
ENDROOT
BRANCH   5   6
HETATM    6  N2  UNL     1      39.614  24.770  26.567  1.00  0.00    -0.381 N 
ATOM      7  H2  UNL     1      38.836  24.162  26.312  1.00  0.00     0.160 HD
BRANCH   6   8
HETATM    8  C12 UNL     1      39.641  25.320  27.847  1.00  0.00     0.067 A 
HETATM    9  C13 UNL     1      40.217  26.533  28.135  1.00  0.00     0.119 A 
HETATM   10  N3  UNL     1      40.228  27.029  29.399  1.00  0.00    -0.366 N 
HETATM   11  C14 UNL     1      39.668  26.343  30.442  1.00  0.00     0.021 A 
ATOM     12  H3  UNL     1      40.664  27.934  29.574  1.00  0.00     0.165 HD
HETATM   13  C15 UNL     1      39.699  26.926  31.812  1.00  0.00     0.069 C 
HETATM   14  C16 UNL     1      39.081  25.127  30.213  1.00  0.00     0.064 A 
HETATM   15  C18 UNL     1      39.079  24.645  28.933  1.00  0.00     0.078 A 
HETATM   16 CL2  UNL     1      38.336  23.081  28.608  1.00  0.00    -0.081 Cl
BRANCH  14  17
HETATM   17  C17 UNL     1      38.479  24.375  31.313  1.00  0.00     0.196 C 
HETATM   18  N4  UNL     1      39.239  23.506  31.935  1.00  0.00    -0.245 N 
ATOM     19  H4  UNL     1      40.207  23.384  31.636  1.00  0.00     0.196 HD
BRANCH  18  20
HETATM   20  O5  UNL     1      38.757  22.758  32.979  1.00  0.00    -0.288 OA
ATOM     21  H5  UNL     1      39.149  21.924  33.209  1.00  0.00     0.244 HD
ENDBRANCH  18  20
BRANCH  17  22
HETATM   22  O6  UNL     1      37.188  24.506  31.749  1.00  0.00    -0.220 OA
HETATM   23 CL1  UNL     1      35.911  23.490  31.182  1.00  0.00     0.069 Cl
ENDBRANCH  17  22
ENDBRANCH  14  17
ENDBRANCH   6   8
ENDBRANCH   5   6
BRANCH   1  24
HETATM   24  N1  UNL     1      39.945  23.262  23.986  1.00  0.00    -0.313 N 
ATOM     25  H1  UNL     1      39.336  23.737  23.319  1.00  0.00     0.172 HD
BRANCH  24  26
HETATM   26  S1  UNL     1      39.867  21.566  24.417  1.00  0.00     0.228 S 
HETATM   27  O3  UNL     1      39.174  20.804  23.309  1.00  0.00    -0.206 OA
HETATM   28  O4  UNL     1      39.030  21.545  25.679  1.00  0.00    -0.206 OA
BRANCH  26  29
HETATM   29  C6  UNL     1      41.468  20.950  24.623  1.00  0.00     0.182 C 
BRANCH  29  30
HETATM   30  C3  UNL     1      42.241  20.532  23.439  1.00  0.00     0.055 C 
HETATM   31  C4  UNL     1      43.692  21.001  23.714  1.00  0.00     0.026 C 
HETATM   32  C5  UNL     1      41.853  21.212  22.153  1.00  0.00     0.026 C 
BRANCH  30  33
HETATM   33  C2  UNL     1      42.249  19.086  23.190  1.00  0.00     0.267 C 
HETATM   34  O2  UNL     1      42.471  18.304  24.178  1.00  0.00    -0.264 OA
BRANCH  33  35
HETATM   35  O1  UNL     1      42.039  18.453  21.986  1.00  0.00    -0.326 OA
HETATM   36  C1  UNL     1      41.097  17.397  21.819  1.00  0.00     0.213 C 
ENDBRANCH  33  35
ENDBRANCH  30  33
ENDBRANCH  29  30
ENDBRANCH  26  29
ENDBRANCH  24  26
ENDBRANCH   1  24
TORSDOF 11
ENDMDL
