MODEL 1
REMARK VINA RESULT: -7.211486282      0.000      0.000
REMARK  11 active torsions:
REMARK  status: ('A' for Active; 'I' for Inactive)
REMARK    1  A    between atoms: C2_2  and  C3_3 
REMARK    2  A    between atoms: C5_8  and  C6_9 
REMARK    3  A    between atoms: N2_11  and  N3_13 
REMARK       I    between atoms: N3_13  and  C8_15 
REMARK    4  A    between atoms: C8_15  and  C9_17 
REMARK    5  A    between atoms: C9_17  and  N4_18 
REMARK    6  A    between atoms: N4_18  and  C10_19 
REMARK    7  A    between atoms: N4_18  and  C12_21 
REMARK    8  A    between atoms: C14_23  and  O2_24 
REMARK    9  A    between atoms: C15_26  and  N5_27 
REMARK   10  A    between atoms: N5_27  and  C16_29 
REMARK   11  A    between atoms: C16_29  and  C17_33 
ROOT
HETATM    1  C3  UNL     1      45.550  23.011  22.915  1.00  0.00    -0.006 A 
HETATM    2  S1  UNL     1      44.835  23.188  24.449  1.00  0.00    -0.075 SA
HETATM    3  C4  UNL     1      43.274  22.499  24.559  1.00  0.00     0.091 A 
HETATM    4  N1  UNL     1      42.549  22.520  25.690  1.00  0.00    -0.346 N 
ATOM      5  H1  UNL     1      42.950  22.980  26.508  1.00  0.00     0.167 HD
HETATM    6  C5  UNL     1      41.315  21.968  25.810  1.00  0.00     0.092 A 
HETATM    7  C14 UNL     1      40.800  21.364  24.710  1.00  0.00     0.122 A 
HETATM    8  C15 UNL     1      41.513  21.321  23.527  1.00  0.00     0.086 A 
HETATM    9  C18 UNL     1      42.764  21.885  23.426  1.00  0.00     0.078 A 
HETATM   10  C19 UNL     1      43.505  21.841  22.265  1.00  0.00     0.194 A 
HETATM   11  O3  UNL     1      42.955  21.250  21.272  1.00  0.00    -0.287 OA
HETATM   12  C20 UNL     1      44.738  22.335  22.021  1.00  0.00     0.002 A 
HETATM   13  C21 UNL     1      45.367  22.172  20.651  1.00  0.00     0.054 C 
ENDROOT
BRANCH   6  14
HETATM   14  C6  UNL     1      40.610  22.057  27.097  1.00  0.00     0.051 C 
HETATM   15  C7  UNL     1      41.088  21.301  28.260  1.00  0.00     0.072 C 
HETATM   16  N2  UNL     1      39.563  22.803  27.183  1.00  0.00    -0.300 N 
ATOM     17  H2  UNL     1      39.291  23.291  26.329  1.00  0.00     0.186 HD
BRANCH  16  18
HETATM   18  N3  UNL     1      38.765  23.023  28.281  1.00  0.00    -0.268 N 
HETATM   19  C8  UNL     1      39.051  24.114  29.182  1.00  0.00     0.264 C 
HETATM   20  O1  UNL     1      40.038  24.824  28.918  1.00  0.00    -0.270 OA
ATOM     21  H3  UNL     1      37.967  22.413  28.460  1.00  0.00     0.190 HD
BRANCH  19  22
HETATM   22  C9  UNL     1      38.190  24.335  30.341  1.00  0.00     0.376 C 
BRANCH  22  23
HETATM   23  N4  UNL     1      38.239  23.390  31.406  1.00  0.00     0.096 N 
BRANCH  23  24
HETATM   24  C10 UNL     1      38.968  23.963  32.559  1.00  0.00     0.268 C 
HETATM   25  C11 UNL     1      38.671  25.411  32.731  1.00  0.00     0.037 C 
ENDBRANCH  23  24
BRANCH  23  26
HETATM   26  C12 UNL     1      36.927  23.099  31.988  1.00  0.00     0.268 C 
HETATM   27  C13 UNL     1      35.784  23.665  31.215  1.00  0.00     0.037 C 
ENDBRANCH  23  26
ENDBRANCH  22  23
ENDBRANCH  19  22
ENDBRANCH  16  18
ENDBRANCH   6  14
BRANCH   7  28
HETATM   28  O2  UNL     1      39.520  20.763  24.765  1.00  0.00    -0.356 OA
ATOM     29  H2  UNL     1      39.189  20.276  24.019  1.00  0.00     0.218 HD
ENDBRANCH   7  28
BRANCH   8  30
HETATM   30  N5  UNL     1      40.891  20.674  22.416  1.00  0.00    -0.336 N 
ATOM     31  H5  UNL     1      40.685  21.262  21.609  1.00  0.00     0.167 HD
BRANCH  30  32
HETATM   32  C16 UNL     1      40.533  19.328  22.305  1.00  0.00     0.184 C 
HETATM   33  N6  UNL     1      39.237  19.090  22.242  1.00  0.00    -0.382 N 
ATOM     34  H62 UNL     1      38.641  19.916  22.284  1.00  0.00     0.157 HD
ATOM     35  H61 UNL     1      38.976  18.107  22.162  1.00  0.00     0.157 HD
BRANCH  32  36
HETATM   36  C17 UNL     1      41.390  18.140  22.246  1.00  0.00     0.448 C 
HETATM   37  F1  UNL     1      40.784  17.106  22.989  1.00  0.00    -0.163 F 
HETATM   38  F2  UNL     1      42.633  18.275  22.809  1.00  0.00    -0.163 F 
HETATM   39  F3  UNL     1      41.476  17.582  20.966  1.00  0.00    -0.163 F 
ENDBRANCH  32  36
ENDBRANCH  30  32
ENDBRANCH   8  30
BRANCH   1  40
HETATM   40  C2  UNL     1      46.895  23.523  22.570  1.00  0.00     0.042 C 
HETATM   41  C1  UNL     1      47.650  23.814  23.837  1.00  0.00     0.010 C 
ENDBRANCH   1  40
TORSDOF 11
ENDMDL
MODEL 2
REMARK VINA RESULT: -6.998837446      4.774      8.801
REMARK  11 active torsions:
REMARK  status: ('A' for Active; 'I' for Inactive)
REMARK    1  A    between atoms: C2_2  and  C3_3 
REMARK    2  A    between atoms: C5_8  and  C6_9 
REMARK    3  A    between atoms: N2_11  and  N3_13 
REMARK       I    between atoms: N3_13  and  C8_15 
REMARK    4  A    between atoms: C8_15  and  C9_17 
REMARK    5  A    between atoms: C9_17  and  N4_18 
REMARK    6  A    between atoms: N4_18  and  C10_19 
REMARK    7  A    between atoms: N4_18  and  C12_21 
REMARK    8  A    between atoms: C14_23  and  O2_24 
REMARK    9  A    between atoms: C15_26  and  N5_27 
REMARK   10  A    between atoms: N5_27  and  C16_29 
REMARK   11  A    between atoms: C16_29  and  C17_33 
ROOT
HETATM    1  C3  UNL     1      38.703  24.703  22.747  1.00  0.00    -0.006 A 
HETATM    2  S1  UNL     1      40.385  24.946  22.818  1.00  0.00    -0.075 SA
HETATM    3  C4  UNL     1      41.279  23.498  22.981  1.00  0.00     0.091 A 
HETATM    4  N1  UNL     1      42.621  23.476  23.040  1.00  0.00    -0.346 N 
ATOM      5  H1  UNL     1      43.117  24.367  22.996  1.00  0.00     0.167 HD
HETATM    6  C5  UNL     1      43.356  22.341  23.154  1.00  0.00     0.092 A 
HETATM    7  C14 UNL     1      42.677  21.169  23.211  1.00  0.00     0.122 A 
HETATM    8  C15 UNL     1      41.296  21.148  23.155  1.00  0.00     0.086 A 
HETATM    9  C18 UNL     1      40.569  22.310  23.037  1.00  0.00     0.078 A 
HETATM   10  C19 UNL     1      39.193  22.317  22.961  1.00  0.00     0.194 A 
HETATM   11  O3  UNL     1      38.622  21.173  23.016  1.00  0.00    -0.287 OA
HETATM   12  C20 UNL     1      38.351  23.366  22.833  1.00  0.00     0.002 A 
HETATM   13  C21 UNL     1      36.853  23.139  22.770  1.00  0.00     0.054 C 
ENDROOT
BRANCH   6  14
HETATM   14  C6  UNL     1      44.822  22.438  23.215  1.00  0.00     0.051 C 
HETATM   15  C7  UNL     1      45.469  23.291  24.218  1.00  0.00     0.072 C 
HETATM   16  N2  UNL     1      45.526  21.767  22.370  1.00  0.00    -0.300 N 
ATOM     17  H2  UNL     1      45.002  21.202  21.702  1.00  0.00     0.186 HD
BRANCH  16  18
HETATM   18  N3  UNL     1      46.896  21.717  22.256  1.00  0.00    -0.268 N 
HETATM   19  C8  UNL     1      47.566  22.430  21.195  1.00  0.00     0.264 C 
HETATM   20  O1  UNL     1      46.851  23.074  20.406  1.00  0.00    -0.270 OA
ATOM     21  H3  UNL     1      47.441  21.173  22.925  1.00  0.00     0.190 HD
BRANCH  19  22
HETATM   22  C9  UNL     1      49.021  22.368  21.093  1.00  0.00     0.376 C 
BRANCH  22  23
HETATM   23  N4  UNL     1      49.757  23.580  21.238  1.00  0.00     0.096 N 
BRANCH  23  24
HETATM   24  C10 UNL     1      50.415  23.618  22.563  1.00  0.00     0.268 C 
HETATM   25  C11 UNL     1      51.631  24.475  22.547  1.00  0.00     0.037 C 
ENDBRANCH  23  24
BRANCH  23  26
HETATM   26  C12 UNL     1      50.900  23.680  20.328  1.00  0.00     0.268 C 
HETATM   27  C13 UNL     1      50.682  23.016  19.010  1.00  0.00     0.037 C 
ENDBRANCH  23  26
ENDBRANCH  22  23
ENDBRANCH  19  22
ENDBRANCH  16  18
ENDBRANCH   6  14
BRANCH   7  28
HETATM   28  O2  UNL     1      43.380  19.946  23.325  1.00  0.00    -0.356 OA
ATOM     29  H2  UNL     1      43.585  19.592  24.183  1.00  0.00     0.218 HD
ENDBRANCH   7  28
BRANCH   8  30
HETATM   30  N5  UNL     1      40.661  19.871  23.232  1.00  0.00    -0.336 N 
ATOM     31  H5  UNL     1      40.293  19.605  24.145  1.00  0.00     0.167 HD
BRANCH  30  32
HETATM   32  C16 UNL     1      40.486  18.942  22.202  1.00  0.00     0.184 C 
HETATM   33  N6  UNL     1      39.841  19.388  21.142  1.00  0.00    -0.382 N 
ATOM     34  H62 UNL     1      39.540  20.361  21.193  1.00  0.00     0.157 HD
ATOM     35  H61 UNL     1      39.713  18.710  20.391  1.00  0.00     0.157 HD
BRANCH  32  36
HETATM   36  C17 UNL     1      40.919  17.544  22.129  1.00  0.00     0.448 C 
HETATM   37  F1  UNL     1      39.865  16.719  22.576  1.00  0.00    -0.163 F 
HETATM   38  F2  UNL     1      41.976  17.206  22.935  1.00  0.00    -0.163 F 
HETATM   39  F3  UNL     1      41.120  17.094  20.820  1.00  0.00    -0.163 F 
ENDBRANCH  32  36
ENDBRANCH  30  32
ENDBRANCH   8  30
BRANCH   1  40
HETATM   40  C2  UNL     1      37.717  25.798  22.608  1.00  0.00     0.042 C 
HETATM   41  C1  UNL     1      38.435  27.057  22.208  1.00  0.00     0.010 C 
ENDBRANCH   1  40
TORSDOF 11
ENDMDL
MODEL 3
REMARK VINA RESULT: -6.948229678      1.808      1.944
REMARK  11 active torsions:
REMARK  status: ('A' for Active; 'I' for Inactive)
REMARK    1  A    between atoms: C2_2  and  C3_3 
REMARK    2  A    between atoms: C5_8  and  C6_9 
REMARK    3  A    between atoms: N2_11  and  N3_13 
REMARK       I    between atoms: N3_13  and  C8_15 
REMARK    4  A    between atoms: C8_15  and  C9_17 
REMARK    5  A    between atoms: C9_17  and  N4_18 
REMARK    6  A    between atoms: N4_18  and  C10_19 
REMARK    7  A    between atoms: N4_18  and  C12_21 
REMARK    8  A    between atoms: C14_23  and  O2_24 
REMARK    9  A    between atoms: C15_26  and  N5_27 
REMARK   10  A    between atoms: N5_27  and  C16_29 
REMARK   11  A    between atoms: C16_29  and  C17_33 
ROOT
HETATM    1  C3  UNL     1      45.401  23.076  23.249  1.00  0.00    -0.006 A 
HETATM    2  S1  UNL     1      44.738  23.430  24.775  1.00  0.00    -0.075 SA
HETATM    3  C4  UNL     1      43.231  22.672  25.057  1.00  0.00     0.091 A 
HETATM    4  N1  UNL     1      42.552  22.813  26.207  1.00  0.00    -0.346 N 
ATOM      5  H1  UNL     1      42.955  23.409  26.932  1.00  0.00     0.167 HD
HETATM    6  C5  UNL     1      41.363  22.212  26.464  1.00  0.00     0.092 A 
HETATM    7  C14 UNL     1      40.845  21.426  25.488  1.00  0.00     0.122 A 
HETATM    8  C15 UNL     1      41.512  21.256  24.289  1.00  0.00     0.086 A 
HETATM    9  C18 UNL     1      42.718  21.872  24.049  1.00  0.00     0.078 A 
HETATM   10  C19 UNL     1      43.413  21.706  22.871  1.00  0.00     0.194 A 
HETATM   11  O3  UNL     1      42.864  20.946  21.999  1.00  0.00    -0.287 OA
HETATM   12  C20 UNL     1      44.601  22.231  22.499  1.00  0.00     0.002 A 
HETATM   13  C21 UNL     1      45.184  21.910  21.137  1.00  0.00     0.054 C 
ENDROOT
BRANCH   6  14
HETATM   14  C6  UNL     1      40.705  22.444  27.759  1.00  0.00     0.051 C 
HETATM   15  C7  UNL     1      41.011  21.589  28.911  1.00  0.00     0.072 C 
HETATM   16  N2  UNL     1      39.851  23.404  27.861  1.00  0.00    -0.300 N 
ATOM     17  H2  UNL     1      39.690  23.949  27.013  1.00  0.00     0.186 HD
BRANCH  16  18
HETATM   18  N3  UNL     1      39.132  23.786  28.968  1.00  0.00    -0.268 N 
HETATM   19  C8  UNL     1      39.576  24.894  29.779  1.00  0.00     0.264 C 
HETATM   20  O1  UNL     1      40.623  25.468  29.430  1.00  0.00    -0.270 OA
ATOM     21  H3  UNL     1      38.280  23.284  29.218  1.00  0.00     0.190 HD
BRANCH  19  22
HETATM   22  C9  UNL     1      38.796  25.289  30.949  1.00  0.00     0.376 C 
BRANCH  22  23
HETATM   23  N4  UNL     1      38.477  24.289  31.913  1.00  0.00     0.096 N 
BRANCH  23  24
HETATM   24  C10 UNL     1      39.045  24.654  33.229  1.00  0.00     0.268 C 
HETATM   25  C11 UNL     1      38.413  25.884  33.778  1.00  0.00     0.037 C 
ENDBRANCH  23  24
BRANCH  23  26
HETATM   26  C12 UNL     1      37.046  24.204  32.212  1.00  0.00     0.268 C 
HETATM   27  C13 UNL     1      36.249  23.505  31.162  1.00  0.00     0.037 C 
ENDBRANCH  23  26
ENDBRANCH  22  23
ENDBRANCH  19  22
ENDBRANCH  16  18
ENDBRANCH   6  14
BRANCH   7  28
HETATM   28  O2  UNL     1      39.610  20.764  25.689  1.00  0.00    -0.356 OA
ATOM     29  H2  UNL     1      39.566  19.998  26.249  1.00  0.00     0.218 HD
ENDBRANCH   7  28
BRANCH   8  30
HETATM   30  N5  UNL     1      40.890  20.419  23.312  1.00  0.00    -0.336 N 
ATOM     31  H5  UNL     1      41.414  19.593  23.027  1.00  0.00     0.167 HD
BRANCH  30  32
HETATM   32  C16 UNL     1      39.646  20.603  22.702  1.00  0.00     0.184 C 
HETATM   33  N6  UNL     1      38.756  19.659  22.936  1.00  0.00    -0.382 N 
ATOM     34  H62 UNL     1      39.075  18.898  23.536  1.00  0.00     0.157 HD
ATOM     35  H61 UNL     1      37.848  19.793  22.491  1.00  0.00     0.157 HD
BRANCH  32  36
HETATM   36  C17 UNL     1      39.187  21.696  21.840  1.00  0.00     0.448 C 
HETATM   37  F1  UNL     1      39.177  21.246  20.503  1.00  0.00    -0.163 F 
HETATM   38  F2  UNL     1      39.987  22.809  21.814  1.00  0.00    -0.163 F 
HETATM   39  F3  UNL     1      37.848  22.043  22.051  1.00  0.00    -0.163 F 
ENDBRANCH  32  36
ENDBRANCH  30  32
ENDBRANCH   8  30
BRANCH   1  40
HETATM   40  C2  UNL     1      46.696  23.612  22.769  1.00  0.00     0.042 C 
HETATM   41  C1  UNL     1      47.594  23.855  23.949  1.00  0.00     0.010 C 
ENDBRANCH   1  40
TORSDOF 11
ENDMDL
MODEL 4
REMARK VINA RESULT: -6.790618805      1.858      2.338
REMARK  11 active torsions:
REMARK  status: ('A' for Active; 'I' for Inactive)
REMARK    1  A    between atoms: C2_2  and  C3_3 
REMARK    2  A    between atoms: C5_8  and  C6_9 
REMARK    3  A    between atoms: N2_11  and  N3_13 
REMARK       I    between atoms: N3_13  and  C8_15 
REMARK    4  A    between atoms: C8_15  and  C9_17 
REMARK    5  A    between atoms: C9_17  and  N4_18 
REMARK    6  A    between atoms: N4_18  and  C10_19 
REMARK    7  A    between atoms: N4_18  and  C12_21 
REMARK    8  A    between atoms: C14_23  and  O2_24 
REMARK    9  A    between atoms: C15_26  and  N5_27 
REMARK   10  A    between atoms: N5_27  and  C16_29 
REMARK   11  A    between atoms: C16_29  and  C17_33 
ROOT
HETATM    1  C3  UNL     1      45.665  24.106  23.623  1.00  0.00    -0.006 A 
HETATM    2  S1  UNL     1      44.655  24.469  24.943  1.00  0.00    -0.075 SA
HETATM    3  C4  UNL     1      43.611  23.187  25.378  1.00  0.00     0.091 A 
HETATM    4  N1  UNL     1      42.747  23.270  26.403  1.00  0.00    -0.346 N 
ATOM      5  H1  UNL     1      42.712  24.143  26.931  1.00  0.00     0.167 HD
HETATM    6  C5  UNL     1      41.918  22.264  26.779  1.00  0.00     0.092 A 
HETATM    7  C14 UNL     1      41.980  21.113  26.064  1.00  0.00     0.122 A 
HETATM    8  C15 UNL     1      42.855  20.987  25.002  1.00  0.00     0.086 A 
HETATM    9  C18 UNL     1      43.689  22.019  24.637  1.00  0.00     0.078 A 
HETATM   10  C19 UNL     1      44.583  21.915  23.593  1.00  0.00     0.194 A 
HETATM   11  O3  UNL     1      44.588  20.798  22.969  1.00  0.00    -0.287 OA
HETATM   12  C20 UNL     1      45.464  22.828  23.131  1.00  0.00     0.002 A 
HETATM   13  C21 UNL     1      46.360  22.495  21.954  1.00  0.00     0.054 C 
ENDROOT
BRANCH   6  14
HETATM   14  C6  UNL     1      41.007  22.469  27.916  1.00  0.00     0.051 C 
HETATM   15  C7  UNL     1      39.563  22.603  27.696  1.00  0.00     0.072 C 
HETATM   16  N2  UNL     1      41.500  22.537  29.104  1.00  0.00    -0.300 N 
ATOM     17  H2  UNL     1      42.514  22.440  29.173  1.00  0.00     0.186 HD
BRANCH  16  18
HETATM   18  N3  UNL     1      40.832  22.722  30.291  1.00  0.00    -0.268 N 
HETATM   19  C8  UNL     1      40.474  24.051  30.726  1.00  0.00     0.264 C 
HETATM   20  O1  UNL     1      40.799  24.997  29.986  1.00  0.00    -0.270 OA
ATOM     21  H3  UNL     1      40.589  21.917  30.868  1.00  0.00     0.190 HD
BRANCH  19  22
HETATM   22  C9  UNL     1      39.761  24.228  31.988  1.00  0.00     0.376 C 
BRANCH  22  23
HETATM   23  N4  UNL     1      38.391  24.619  31.937  1.00  0.00     0.096 N 
BRANCH  23  24
HETATM   24  C10 UNL     1      37.521  23.423  31.970  1.00  0.00     0.268 C 
HETATM   25  C11 UNL     1      36.260  23.640  31.211  1.00  0.00     0.037 C 
ENDBRANCH  23  24
BRANCH  23  26
HETATM   26  C12 UNL     1      37.949  25.350  33.126  1.00  0.00     0.268 C 
HETATM   27  C13 UNL     1      38.951  26.328  33.642  1.00  0.00     0.037 C 
ENDBRANCH  23  26
ENDBRANCH  22  23
ENDBRANCH  19  22
ENDBRANCH  16  18
ENDBRANCH   6  14
BRANCH   7  28
HETATM   28  O2  UNL     1      41.147  20.020  26.404  1.00  0.00    -0.356 OA
ATOM     29  H2  UNL     1      40.448  19.753  25.819  1.00  0.00     0.218 HD
ENDBRANCH   7  28
BRANCH   8  30
HETATM   30  N5  UNL     1      42.847  19.745  24.297  1.00  0.00    -0.336 N 
ATOM     31  H5  UNL     1      43.611  19.103  24.506  1.00  0.00     0.167 HD
BRANCH  30  32
HETATM   32  C16 UNL     1      41.913  19.306  23.354  1.00  0.00     0.184 C 
HETATM   33  N6  UNL     1      41.938  18.014  23.091  1.00  0.00    -0.382 N 
ATOM     34  H62 UNL     1      42.638  17.479  23.604  1.00  0.00     0.157 HD
ATOM     35  H61 UNL     1      41.257  17.694  22.403  1.00  0.00     0.157 HD
BRANCH  32  36
HETATM   36  C17 UNL     1      40.907  20.075  22.616  1.00  0.00     0.448 C 
HETATM   37  F1  UNL     1      41.562  21.064  21.853  1.00  0.00    -0.163 F 
HETATM   38  F2  UNL     1      40.015  20.778  23.384  1.00  0.00    -0.163 F 
HETATM   39  F3  UNL     1      40.246  19.327  21.636  1.00  0.00    -0.163 F 
ENDBRANCH  32  36
ENDBRANCH  30  32
ENDBRANCH   8  30
BRANCH   1  40
HETATM   40  C2  UNL     1      46.655  25.052  23.059  1.00  0.00     0.042 C 
HETATM   41  C1  UNL     1      46.621  26.329  23.851  1.00  0.00     0.010 C 
ENDBRANCH   1  40
TORSDOF 11
ENDMDL
MODEL 5
REMARK VINA RESULT: -6.715711409      1.880      2.345
REMARK  11 active torsions:
REMARK  status: ('A' for Active; 'I' for Inactive)
REMARK    1  A    between atoms: C2_2  and  C3_3 
REMARK    2  A    between atoms: C5_8  and  C6_9 
REMARK    3  A    between atoms: N2_11  and  N3_13 
REMARK       I    between atoms: N3_13  and  C8_15 
REMARK    4  A    between atoms: C8_15  and  C9_17 
REMARK    5  A    between atoms: C9_17  and  N4_18 
REMARK    6  A    between atoms: N4_18  and  C10_19 
REMARK    7  A    between atoms: N4_18  and  C12_21 
REMARK    8  A    between atoms: C14_23  and  O2_24 
REMARK    9  A    between atoms: C15_26  and  N5_27 
REMARK   10  A    between atoms: N5_27  and  C16_29 
REMARK   11  A    between atoms: C16_29  and  C17_33 
ROOT
HETATM    1  C3  UNL     1      45.742  23.392  23.866  1.00  0.00    -0.006 A 
HETATM    2  S1  UNL     1      44.953  23.689  25.344  1.00  0.00    -0.075 SA
HETATM    3  C4  UNL     1      43.448  22.892  25.489  1.00  0.00     0.091 A 
HETATM    4  N1  UNL     1      42.678  22.987  26.585  1.00  0.00    -0.346 N 
ATOM      5  H1  UNL     1      43.009  23.571  27.353  1.00  0.00     0.167 HD
HETATM    6  C5  UNL     1      41.487  22.353  26.733  1.00  0.00     0.092 A 
HETATM    7  C14 UNL     1      41.066  21.583  25.700  1.00  0.00     0.122 A 
HETATM    8  C15 UNL     1      41.828  21.459  24.553  1.00  0.00     0.086 A 
HETATM    9  C18 UNL     1      43.034  22.108  24.423  1.00  0.00     0.078 A 
HETATM   10  C19 UNL     1      43.822  21.988  23.299  1.00  0.00     0.194 A 
HETATM   11  O3  UNL     1      43.361  21.241  22.369  1.00  0.00    -0.287 OA
HETATM   12  C20 UNL     1      45.022  22.550  23.036  1.00  0.00     0.002 A 
HETATM   13  C21 UNL     1      45.717  22.278  21.715  1.00  0.00     0.054 C 
ENDROOT
BRANCH   6  14
HETATM   14  C6  UNL     1      40.726  22.535  27.977  1.00  0.00     0.051 C 
HETATM   15  C7  UNL     1      41.068  21.764  29.177  1.00  0.00     0.072 C 
HETATM   16  N2  UNL     1      39.750  23.377  27.993  1.00  0.00    -0.300 N 
ATOM     17  H2  UNL     1      39.572  23.869  27.117  1.00  0.00     0.186 HD
BRANCH  16  18
HETATM   18  N3  UNL     1      38.919  23.694  29.041  1.00  0.00    -0.268 N 
HETATM   19  C8  UNL     1      39.294  24.721  29.984  1.00  0.00     0.264 C 
HETATM   20  O1  UNL     1      40.387  25.287  29.800  1.00  0.00    -0.270 OA
ATOM     21  H3  UNL     1      38.033  23.202  29.154  1.00  0.00     0.190 HD
BRANCH  19  22
HETATM   22  C9  UNL     1      38.397  25.048  31.088  1.00  0.00     0.376 C 
BRANCH  22  23
HETATM   23  N4  UNL     1      38.423  24.217  32.245  1.00  0.00     0.096 N 
BRANCH  23  24
HETATM   24  C10 UNL     1      37.524  23.057  32.056  1.00  0.00     0.268 C 
HETATM   25  C11 UNL     1      36.200  23.471  31.520  1.00  0.00     0.037 C 
ENDBRANCH  23  24
BRANCH  23  26
HETATM   26  C12 UNL     1      39.716  23.566  32.466  1.00  0.00     0.268 C 
HETATM   27  C13 UNL     1      40.225  23.692  33.863  1.00  0.00     0.037 C 
ENDBRANCH  23  26
ENDBRANCH  22  23
ENDBRANCH  19  22
ENDBRANCH  16  18
ENDBRANCH   6  14
BRANCH   7  28
HETATM   28  O2  UNL     1      39.835  20.889  25.787  1.00  0.00    -0.356 OA
ATOM     29  H2  UNL     1      39.100  21.152  25.245  1.00  0.00     0.218 HD
ENDBRANCH   7  28
BRANCH   8  30
HETATM   30  N5  UNL     1      41.304  20.636  23.510  1.00  0.00    -0.336 N 
ATOM     31  H5  UNL     1      41.836  19.795  23.288  1.00  0.00     0.167 HD
BRANCH  30  32
HETATM   32  C16 UNL     1      40.146  20.849  22.757  1.00  0.00     0.184 C 
HETATM   33  N6  UNL     1      39.216  19.922  22.874  1.00  0.00    -0.382 N 
ATOM     34  H62 UNL     1      39.446  19.151  23.500  1.00  0.00     0.157 HD
ATOM     35  H61 UNL     1      38.370  20.078  22.324  1.00  0.00     0.157 HD
BRANCH  32  36
HETATM   36  C17 UNL     1      39.814  21.958  21.857  1.00  0.00     0.448 C 
HETATM   37  F1  UNL     1      39.171  21.438  20.714  1.00  0.00    -0.163 F 
HETATM   38  F2  UNL     1      40.882  22.655  21.354  1.00  0.00    -0.163 F 
HETATM   39  F3  UNL     1      38.848  22.825  22.378  1.00  0.00    -0.163 F 
ENDBRANCH  32  36
ENDBRANCH  30  32
ENDBRANCH   8  30
BRANCH   1  40
HETATM   40  C2  UNL     1      47.056  23.968  23.503  1.00  0.00     0.042 C 
HETATM   41  C1  UNL     1      47.018  25.454  23.720  1.00  0.00     0.010 C 
ENDBRANCH   1  40
TORSDOF 11
ENDMDL
