MODEL 1
REMARK VINA RESULT: -7.509438293      0.000      0.000
REMARK  12 active torsions:
REMARK  status: ('A' for Active; 'I' for Inactive)
REMARK    1  A    between atoms: C2_2  and  N1_4 
REMARK       I    between atoms: N1_4  and  C4_6 
REMARK    2  A    between atoms: C4_6  and  C5_8 
REMARK    3  A    between atoms: C5_8  and  C6_9 
REMARK    4  A    between atoms: C6_9  and  N2_10 
REMARK    5  A    between atoms: C7_11  and  O2_12 
REMARK    6  A    between atoms: C10_16  and  O3_17 
REMARK    7  A    between atoms: C11_19  and  C13_21 
REMARK    8  A    between atoms: C13_21  and  O5_23 
REMARK    9  A    between atoms: O5_23  and  C14_24 
REMARK   10  A    between atoms: C14_24  and  C15_25 
REMARK   11  A    between atoms: C15_25  and  C16_26 
REMARK   12  A    between atoms: N3_36  and  O6_37 
ROOT
HETATM    1  N2  UNL     1      42.703  21.007  25.039  1.00  0.00    -0.306 N 
HETATM    2  C7  UNL     1      41.712  20.517  25.789  1.00  0.00     0.174 A 
HETATM    3  C8  UNL     1      40.884  21.544  26.254  1.00  0.00     0.120 A 
HETATM    4  C9  UNL     1      41.429  22.700  25.740  1.00  0.00     0.047 A 
HETATM    5  C10 UNL     1      42.531  22.345  25.009  1.00  0.00     0.154 A 
HETATM    6  C11 UNL     1      40.545  23.826  26.222  1.00  0.00     0.105 C 
HETATM    7  C12 UNL     1      41.325  25.092  26.403  1.00  0.00     0.034 C 
HETATM    8  C18 UNL     1      40.016  23.245  27.497  1.00  0.00     0.081 C 
HETATM    9  C19 UNL     1      38.841  23.913  28.087  1.00  0.00     0.035 C 
HETATM   10  C20 UNL     1      38.656  23.713  29.541  1.00  0.00     0.002 C 
HETATM   11  C21 UNL     1      39.905  23.711  30.353  1.00  0.00     0.000 C 
HETATM   12  C22 UNL     1      40.767  22.574  29.773  1.00  0.00     0.002 C 
HETATM   13  C23 UNL     1      41.209  23.102  28.430  1.00  0.00     0.035 C 
HETATM   14  N3  UNL     1      39.727  21.876  27.035  1.00  0.00    -0.244 N 
ENDROOT
BRANCH   6  15
HETATM   15  C13 UNL     1      39.577  24.044  25.149  1.00  0.00     0.274 C 
HETATM   16  O4  UNL     1      39.400  25.153  24.636  1.00  0.00    -0.264 OA
BRANCH  15  17
HETATM   17  O5  UNL     1      38.843  22.956  24.706  1.00  0.00    -0.320 OA
BRANCH  17  18
HETATM   18  C14 UNL     1      38.291  22.828  23.437  1.00  0.00     0.184 C 
BRANCH  18  19
HETATM   19  C15 UNL     1      39.209  23.151  22.304  1.00  0.00     0.105 C 
BRANCH  19  20
HETATM   20  C16 UNL     1      39.986  21.934  21.857  1.00  0.00     0.242 C 
HETATM   21  C17 UNL     1      41.338  22.300  21.297  1.00  0.00     0.090 C 
HETATM   22  F1  UNL     1      40.184  21.081  22.927  1.00  0.00    -0.207 F 
HETATM   23  F2  UNL     1      39.275  21.270  20.882  1.00  0.00    -0.207 F 
ENDBRANCH  19  20
ENDBRANCH  18  19
ENDBRANCH  17  18
ENDBRANCH  15  17
ENDBRANCH   6  15
BRANCH   5  24
HETATM   24  O3  UNL     1      43.352  23.234  24.333  1.00  0.00    -0.345 OA
ATOM     25  H3  UNL     1      44.254  23.424  24.565  1.00  0.00     0.219 HD
ENDBRANCH   5  24
BRANCH  14  26
HETATM   26  O6  UNL     1      38.688  21.083  27.241  1.00  0.00    -0.286 OA
ATOM     27  H6  UNL     1      38.580  20.497  27.982  1.00  0.00     0.244 HD
ENDBRANCH  14  26
BRANCH   2  28
HETATM   28  O2  UNL     1      41.506  19.169  26.084  1.00  0.00    -0.344 OA
ATOM     29  H2  UNL     1      41.098  18.532  25.508  1.00  0.00     0.219 HD
ENDBRANCH   2  28
BRANCH   1  30
HETATM   30  C6  UNL     1      43.754  20.263  24.386  1.00  0.00     0.142 C 
BRANCH  30  31
HETATM   31  C5  UNL     1      43.405  20.021  22.958  1.00  0.00     0.123 C 
BRANCH  31  32
HETATM   32  C4  UNL     1      42.636  18.751  22.877  1.00  0.00     0.219 C 
HETATM   33  N1  UNL     1      41.651  18.566  21.881  1.00  0.00    -0.357 N 
ATOM     34  H1  UNL     1      41.471  19.317  21.215  1.00  0.00     0.162 HD
HETATM   35  O1  UNL     1      42.841  17.813  23.686  1.00  0.00    -0.274 OA
BRANCH  33  36
HETATM   36  C2  UNL     1      40.903  17.359  21.784  1.00  0.00     0.076 C 
HETATM   37  C1  UNL     1      41.194  16.609  20.495  1.00  0.00     0.032 C 
HETATM   38  C3  UNL     1      39.431  17.668  21.861  1.00  0.00     0.032 C 
ENDBRANCH  33  36
ENDBRANCH  31  32
ENDBRANCH  30  31
ENDBRANCH   1  30
TORSDOF 12
ENDMDL
MODEL 2
REMARK VINA RESULT: -7.441080163      2.219      6.796
REMARK  12 active torsions:
REMARK  status: ('A' for Active; 'I' for Inactive)
REMARK    1  A    between atoms: C2_2  and  N1_4 
REMARK       I    between atoms: N1_4  and  C4_6 
REMARK    2  A    between atoms: C4_6  and  C5_8 
REMARK    3  A    between atoms: C5_8  and  C6_9 
REMARK    4  A    between atoms: C6_9  and  N2_10 
REMARK    5  A    between atoms: C7_11  and  O2_12 
REMARK    6  A    between atoms: C10_16  and  O3_17 
REMARK    7  A    between atoms: C11_19  and  C13_21 
REMARK    8  A    between atoms: C13_21  and  O5_23 
REMARK    9  A    between atoms: O5_23  and  C14_24 
REMARK   10  A    between atoms: C14_24  and  C15_25 
REMARK   11  A    between atoms: C15_25  and  C16_26 
REMARK   12  A    between atoms: N3_36  and  O6_37 
ROOT
HETATM    1  N2  UNL     1      40.985  21.553  27.633  1.00  0.00    -0.306 N 
HETATM    2  C7  UNL     1      40.090  21.337  26.664  1.00  0.00     0.174 A 
HETATM    3  C8  UNL     1      40.713  21.295  25.412  1.00  0.00     0.120 A 
HETATM    4  C9  UNL     1      42.050  21.499  25.673  1.00  0.00     0.047 A 
HETATM    5  C10 UNL     1      42.186  21.653  27.027  1.00  0.00     0.154 A 
HETATM    6  C11 UNL     1      42.747  21.449  24.335  1.00  0.00     0.105 C 
HETATM    7  C12 UNL     1      43.959  22.328  24.318  1.00  0.00     0.034 C 
HETATM    8  C18 UNL     1      41.647  21.905  23.426  1.00  0.00     0.081 C 
HETATM    9  C19 UNL     1      41.838  21.655  21.985  1.00  0.00     0.035 C 
HETATM   10  C20 UNL     1      41.074  22.540  21.077  1.00  0.00     0.002 C 
HETATM   11  C21 UNL     1      40.970  23.963  21.504  1.00  0.00     0.000 C 
HETATM   12  C22 UNL     1      40.296  23.926  22.889  1.00  0.00     0.002 C 
HETATM   13  C23 UNL     1      41.360  23.352  23.795  1.00  0.00     0.035 C 
HETATM   14  N3  UNL     1      40.528  21.136  23.999  1.00  0.00    -0.244 N 
ENDROOT
BRANCH   6  15
HETATM   15  C13 UNL     1      43.193  20.066  24.182  1.00  0.00     0.274 C 
HETATM   16  O4  UNL     1      44.374  19.773  23.972  1.00  0.00    -0.264 OA
BRANCH  15  17
HETATM   17  O5  UNL     1      42.243  19.062  24.280  1.00  0.00    -0.320 OA
BRANCH  17  18
HETATM   18  C14 UNL     1      42.143  17.970  23.427  1.00  0.00     0.184 C 
BRANCH  18  19
HETATM   19  C15 UNL     1      41.798  18.295  22.010  1.00  0.00     0.105 C 
BRANCH  19  20
HETATM   20  C16 UNL     1      40.617  17.483  21.529  1.00  0.00     0.242 C 
HETATM   21  C17 UNL     1      41.005  16.514  20.439  1.00  0.00     0.090 C 
HETATM   22  F1  UNL     1      40.086  16.755  22.577  1.00  0.00    -0.207 F 
HETATM   23  F2  UNL     1      39.649  18.330  21.037  1.00  0.00    -0.207 F 
ENDBRANCH  19  20
ENDBRANCH  18  19
ENDBRANCH  17  18
ENDBRANCH  15  17
ENDBRANCH   6  15
BRANCH   5  24
HETATM   24  O3  UNL     1      43.387  21.878  27.682  1.00  0.00    -0.345 OA
ATOM     25  H3  UNL     1      43.846  21.236  28.210  1.00  0.00     0.219 HD
ENDBRANCH   5  24
BRANCH  14  26
HETATM   26  O6  UNL     1      39.557  20.444  23.425  1.00  0.00    -0.286 OA
ATOM     27  H6  UNL     1      39.042  20.731  22.681  1.00  0.00     0.244 HD
ENDBRANCH  14  26
BRANCH   2  28
HETATM   28  O2  UNL     1      38.718  21.172  26.847  1.00  0.00    -0.344 OA
ATOM     29  H2  UNL     1      38.046  21.795  26.594  1.00  0.00     0.219 HD
ENDBRANCH   2  28
BRANCH   1  30
HETATM   30  C6  UNL     1      40.728  21.660  29.051  1.00  0.00     0.142 C 
BRANCH  30  31
HETATM   31  C5  UNL     1      40.627  23.093  29.450  1.00  0.00     0.123 C 
BRANCH  31  32
HETATM   32  C4  UNL     1      39.873  23.167  30.728  1.00  0.00     0.219 C 
HETATM   33  N1  UNL     1      38.472  23.349  30.730  1.00  0.00    -0.357 N 
ATOM     34  H1  UNL     1      37.980  23.429  29.840  1.00  0.00     0.162 HD
HETATM   35  O1  UNL     1      40.457  23.071  31.835  1.00  0.00    -0.274 OA
BRANCH  33  36
HETATM   36  C2  UNL     1      37.729  23.423  31.941  1.00  0.00     0.076 C 
HETATM   37  C1  UNL     1      36.274  23.028  31.744  1.00  0.00     0.032 C 
HETATM   38  C3  UNL     1      37.796  24.823  32.492  1.00  0.00     0.032 C 
ENDBRANCH  33  36
ENDBRANCH  31  32
ENDBRANCH  30  31
ENDBRANCH   1  30
TORSDOF 12
ENDMDL
MODEL 3
REMARK VINA RESULT: -7.361774941      3.238      7.482
REMARK  12 active torsions:
REMARK  status: ('A' for Active; 'I' for Inactive)
REMARK    1  A    between atoms: C2_2  and  N1_4 
REMARK       I    between atoms: N1_4  and  C4_6 
REMARK    2  A    between atoms: C4_6  and  C5_8 
REMARK    3  A    between atoms: C5_8  and  C6_9 
REMARK    4  A    between atoms: C6_9  and  N2_10 
REMARK    5  A    between atoms: C7_11  and  O2_12 
REMARK    6  A    between atoms: C10_16  and  O3_17 
REMARK    7  A    between atoms: C11_19  and  C13_21 
REMARK    8  A    between atoms: C13_21  and  O5_23 
REMARK    9  A    between atoms: O5_23  and  C14_24 
REMARK   10  A    between atoms: C14_24  and  C15_25 
REMARK   11  A    between atoms: C15_25  and  C16_26 
REMARK   12  A    between atoms: N3_36  and  O6_37 
ROOT
HETATM    1  N2  UNL     1      40.919  21.528  27.647  1.00  0.00    -0.306 N 
HETATM    2  C7  UNL     1      39.994  21.359  26.698  1.00  0.00     0.174 A 
HETATM    3  C8  UNL     1      40.587  21.268  25.435  1.00  0.00     0.120 A 
HETATM    4  C9  UNL     1      41.939  21.392  25.668  1.00  0.00     0.047 A 
HETATM    5  C10 UNL     1      42.112  21.549  27.017  1.00  0.00     0.154 A 
HETATM    6  C11 UNL     1      42.605  21.289  24.316  1.00  0.00     0.105 C 
HETATM    7  C12 UNL     1      43.867  22.093  24.266  1.00  0.00     0.034 C 
HETATM    8  C18 UNL     1      41.516  21.804  23.425  1.00  0.00     0.081 C 
HETATM    9  C19 UNL     1      41.662  21.531  21.983  1.00  0.00     0.035 C 
HETATM   10  C20 UNL     1      40.935  22.453  21.082  1.00  0.00     0.002 C 
HETATM   11  C21 UNL     1      40.926  23.883  21.497  1.00  0.00     0.000 C 
HETATM   12  C22 UNL     1      40.280  23.898  22.895  1.00  0.00     0.002 C 
HETATM   13  C23 UNL     1      41.324  23.269  23.785  1.00  0.00     0.035 C 
HETATM   14  N3  UNL     1      40.365  21.109  24.027  1.00  0.00    -0.244 N 
ENDROOT
BRANCH   6  15
HETATM   15  C13 UNL     1      42.963  19.880  24.167  1.00  0.00     0.274 C 
HETATM   16  O4  UNL     1      42.144  19.024  23.821  1.00  0.00    -0.264 OA
BRANCH  15  17
HETATM   17  O5  UNL     1      44.273  19.513  24.429  1.00  0.00    -0.320 OA
BRANCH  17  18
HETATM   18  C14 UNL     1      44.737  18.204  24.497  1.00  0.00     0.184 C 
BRANCH  18  19
HETATM   19  C15 UNL     1      45.071  17.714  25.868  1.00  0.00     0.105 C 
BRANCH  19  20
HETATM   20  C16 UNL     1      46.064  16.576  25.821  1.00  0.00     0.242 C 
HETATM   21  C17 UNL     1      46.885  16.595  24.555  1.00  0.00     0.090 C 
HETATM   22  F1  UNL     1      46.932  16.661  26.893  1.00  0.00    -0.207 F 
HETATM   23  F2  UNL     1      45.390  15.377  25.886  1.00  0.00    -0.207 F 
ENDBRANCH  19  20
ENDBRANCH  18  19
ENDBRANCH  17  18
ENDBRANCH  15  17
ENDBRANCH   6  15
BRANCH   5  24
HETATM   24  O3  UNL     1      43.337  21.707  27.645  1.00  0.00    -0.345 OA
ATOM     25  H3  UNL     1      43.525  21.452  28.541  1.00  0.00     0.219 HD
ENDBRANCH   5  24
BRANCH  14  26
HETATM   26  O6  UNL     1      39.342  20.472  23.479  1.00  0.00    -0.286 OA
ATOM     27  H6  UNL     1      39.405  19.715  22.909  1.00  0.00     0.244 HD
ENDBRANCH  14  26
BRANCH   2  28
HETATM   28  O2  UNL     1      38.618  21.278  26.910  1.00  0.00    -0.344 OA
ATOM     29  H2  UNL     1      37.958  21.800  26.468  1.00  0.00     0.219 HD
ENDBRANCH   2  28
BRANCH   1  30
HETATM   30  C6  UNL     1      40.698  21.662  29.068  1.00  0.00     0.142 C 
BRANCH  30  31
HETATM   31  C5  UNL     1      40.576  23.101  29.438  1.00  0.00     0.123 C 
BRANCH  31  32
HETATM   32  C4  UNL     1      39.822  23.190  30.715  1.00  0.00     0.219 C 
HETATM   33  N1  UNL     1      38.419  23.364  30.714  1.00  0.00    -0.357 N 
ATOM     34  H1  UNL     1      37.927  23.427  29.824  1.00  0.00     0.162 HD
HETATM   35  O1  UNL     1      40.407  23.115  31.823  1.00  0.00    -0.274 OA
BRANCH  33  36
HETATM   36  C2  UNL     1      37.676  23.452  31.925  1.00  0.00     0.076 C 
HETATM   37  C1  UNL     1      36.218  23.071  31.728  1.00  0.00     0.032 C 
HETATM   38  C3  UNL     1      37.757  24.854  32.468  1.00  0.00     0.032 C 
ENDBRANCH  33  36
ENDBRANCH  31  32
ENDBRANCH  30  31
ENDBRANCH   1  30
TORSDOF 12
ENDMDL
MODEL 4
REMARK VINA RESULT: -7.050523575      3.486      5.105
REMARK  12 active torsions:
REMARK  status: ('A' for Active; 'I' for Inactive)
REMARK    1  A    between atoms: C2_2  and  N1_4 
REMARK       I    between atoms: N1_4  and  C4_6 
REMARK    2  A    between atoms: C4_6  and  C5_8 
REMARK    3  A    between atoms: C5_8  and  C6_9 
REMARK    4  A    between atoms: C6_9  and  N2_10 
REMARK    5  A    between atoms: C7_11  and  O2_12 
REMARK    6  A    between atoms: C10_16  and  O3_17 
REMARK    7  A    between atoms: C11_19  and  C13_21 
REMARK    8  A    between atoms: C13_21  and  O5_23 
REMARK    9  A    between atoms: O5_23  and  C14_24 
REMARK   10  A    between atoms: C14_24  and  C15_25 
REMARK   11  A    between atoms: C15_25  and  C16_26 
REMARK   12  A    between atoms: N3_36  and  O6_37 
ROOT
HETATM    1  N2  UNL     1      44.015  22.014  22.596  1.00  0.00    -0.306 N 
HETATM    2  C7  UNL     1      43.881  21.003  23.459  1.00  0.00     0.174 A 
HETATM    3  C8  UNL     1      42.699  21.131  24.196  1.00  0.00     0.120 A 
HETATM    4  C9  UNL     1      42.113  22.287  23.729  1.00  0.00     0.047 A 
HETATM    5  C10 UNL     1      42.933  22.802  22.760  1.00  0.00     0.154 A 
HETATM    6  C11 UNL     1      40.827  22.444  24.506  1.00  0.00     0.105 C 
HETATM    7  C12 UNL     1      40.469  23.887  24.683  1.00  0.00     0.034 C 
HETATM    8  C18 UNL     1      41.178  21.739  25.780  1.00  0.00     0.081 C 
HETATM    9  C19 UNL     1      40.054  21.377  26.663  1.00  0.00     0.035 C 
HETATM   10  C20 UNL     1      40.397  21.194  28.091  1.00  0.00     0.002 C 
HETATM   11  C21 UNL     1      41.399  22.150  28.638  1.00  0.00     0.000 C 
HETATM   12  C22 UNL     1      42.658  21.965  27.769  1.00  0.00     0.002 C 
HETATM   13  C23 UNL     1      42.273  22.566  26.439  1.00  0.00     0.035 C 
HETATM   14  N3  UNL     1      41.871  20.565  25.221  1.00  0.00    -0.244 N 
ENDROOT
BRANCH   6  15
HETATM   15  C13 UNL     1      39.796  21.824  23.676  1.00  0.00     0.274 C 
HETATM   16  O4  UNL     1      38.594  21.907  23.945  1.00  0.00    -0.264 OA
BRANCH  15  17
HETATM   17  O5  UNL     1      40.202  21.123  22.552  1.00  0.00    -0.320 OA
BRANCH  17  18
HETATM   18  C14 UNL     1      39.689  19.897  22.146  1.00  0.00     0.184 C 
BRANCH  18  19
HETATM   19  C15 UNL     1      40.673  18.774  22.106  1.00  0.00     0.105 C 
BRANCH  19  20
HETATM   20  C16 UNL     1      40.071  17.534  21.484  1.00  0.00     0.242 C 
HETATM   21  C17 UNL     1      41.112  16.684  20.797  1.00  0.00     0.090 C 
HETATM   22  F1  UNL     1      39.466  16.763  22.458  1.00  0.00    -0.207 F 
HETATM   23  F2  UNL     1      39.124  17.902  20.554  1.00  0.00    -0.207 F 
ENDBRANCH  19  20
ENDBRANCH  18  19
ENDBRANCH  17  18
ENDBRANCH  15  17
ENDBRANCH   6  15
BRANCH   5  24
HETATM   24  O3  UNL     1      42.684  23.966  22.050  1.00  0.00    -0.345 OA
ATOM     25  H3  UNL     1      42.317  23.999  21.174  1.00  0.00     0.219 HD
ENDBRANCH   5  24
BRANCH  14  26
HETATM   26  O6  UNL     1      41.804  19.279  25.529  1.00  0.00    -0.286 OA
ATOM     27  H6  UNL     1      41.434  18.923  26.328  1.00  0.00     0.244 HD
ENDBRANCH  14  26
BRANCH   2  28
HETATM   28  O2  UNL     1      44.781  19.950  23.624  1.00  0.00    -0.344 OA
ATOM     29  H2  UNL     1      44.754  19.302  24.318  1.00  0.00     0.219 HD
ENDBRANCH   2  28
BRANCH   1  30
HETATM   30  C6  UNL     1      45.099  22.230  21.665  1.00  0.00     0.142 C 
BRANCH  30  31
HETATM   31  C5  UNL     1      46.040  23.255  22.199  1.00  0.00     0.123 C 
BRANCH  31  32
HETATM   32  C4  UNL     1      47.424  22.730  22.063  1.00  0.00     0.219 C 
HETATM   33  N1  UNL     1      48.518  23.611  21.905  1.00  0.00    -0.357 N 
ATOM     34  H1  UNL     1      48.347  24.616  21.885  1.00  0.00     0.162 HD
HETATM   35  O1  UNL     1      47.658  21.497  22.084  1.00  0.00    -0.274 OA
BRANCH  33  36
HETATM   36  C2  UNL     1      49.851  23.131  21.772  1.00  0.00     0.076 C 
HETATM   37  C1  UNL     1      50.841  23.971  22.563  1.00  0.00     0.032 C 
HETATM   38  C3  UNL     1      50.247  23.130  20.319  1.00  0.00     0.032 C 
ENDBRANCH  33  36
ENDBRANCH  31  32
ENDBRANCH  30  31
ENDBRANCH   1  30
TORSDOF 12
ENDMDL
MODEL 5
REMARK VINA RESULT: -7.028622280      1.668      2.415
REMARK  12 active torsions:
REMARK  status: ('A' for Active; 'I' for Inactive)
REMARK    1  A    between atoms: C2_2  and  N1_4 
REMARK       I    between atoms: N1_4  and  C4_6 
REMARK    2  A    between atoms: C4_6  and  C5_8 
REMARK    3  A    between atoms: C5_8  and  C6_9 
REMARK    4  A    between atoms: C6_9  and  N2_10 
REMARK    5  A    between atoms: C7_11  and  O2_12 
REMARK    6  A    between atoms: C10_16  and  O3_17 
REMARK    7  A    between atoms: C11_19  and  C13_21 
REMARK    8  A    between atoms: C13_21  and  O5_23 
REMARK    9  A    between atoms: O5_23  and  C14_24 
REMARK   10  A    between atoms: C14_24  and  C15_25 
REMARK   11  A    between atoms: C15_25  and  C16_26 
REMARK   12  A    between atoms: N3_36  and  O6_37 
ROOT
HETATM    1  N2  UNL     1      42.826  21.490  25.457  1.00  0.00    -0.306 N 
HETATM    2  C7  UNL     1      41.747  20.966  26.047  1.00  0.00     0.174 A 
HETATM    3  C8  UNL     1      40.864  21.971  26.454  1.00  0.00     0.120 A 
HETATM    4  C9  UNL     1      41.469  23.150  26.077  1.00  0.00     0.047 A 
HETATM    5  C10 UNL     1      42.657  22.828  25.476  1.00  0.00     0.154 A 
HETATM    6  C11 UNL     1      40.529  24.253  26.499  1.00  0.00     0.105 C 
HETATM    7  C12 UNL     1      41.276  25.504  26.846  1.00  0.00     0.034 C 
HETATM    8  C18 UNL     1      39.841  23.609  27.662  1.00  0.00     0.081 C 
HETATM    9  C19 UNL     1      38.598  24.250  28.130  1.00  0.00     0.035 C 
HETATM   10  C20 UNL     1      38.228  23.975  29.536  1.00  0.00     0.002 C 
HETATM   11  C21 UNL     1      39.361  23.925  30.501  1.00  0.00     0.000 C 
HETATM   12  C22 UNL     1      40.293  22.815  29.978  1.00  0.00     0.002 C 
HETATM   13  C23 UNL     1      40.904  23.411  28.733  1.00  0.00     0.035 C 
HETATM   14  N3  UNL     1      39.616  22.267  27.095  1.00  0.00    -0.244 N 
ENDROOT
BRANCH   6  15
HETATM   15  C13 UNL     1      39.707  24.532  25.323  1.00  0.00     0.274 C 
HETATM   16  O4  UNL     1      39.564  25.673  24.874  1.00  0.00    -0.264 OA
BRANCH  15  17
HETATM   17  O5  UNL     1      39.075  23.465  24.705  1.00  0.00    -0.320 OA
BRANCH  17  18
HETATM   18  C14 UNL     1      38.998  23.269  23.331  1.00  0.00     0.184 C 
BRANCH  18  19
HETATM   19  C15 UNL     1      40.019  22.341  22.760  1.00  0.00     0.105 C 
BRANCH  19  20
HETATM   20  C16 UNL     1      39.369  21.192  22.023  1.00  0.00     0.242 C 
HETATM   21  C17 UNL     1      40.102  19.891  22.246  1.00  0.00     0.090 C 
HETATM   22  F1  UNL     1      38.067  21.028  22.457  1.00  0.00    -0.207 F 
HETATM   23  F2  UNL     1      39.360  21.461  20.672  1.00  0.00    -0.207 F 
ENDBRANCH  19  20
ENDBRANCH  18  19
ENDBRANCH  17  18
ENDBRANCH  15  17
ENDBRANCH   6  15
BRANCH   5  24
HETATM   24  O3  UNL     1      43.557  23.747  24.959  1.00  0.00    -0.345 OA
ATOM     25  H3  UNL     1      43.317  24.532  24.480  1.00  0.00     0.219 HD
ENDBRANCH   5  24
BRANCH  14  26
HETATM   26  O6  UNL     1      38.560  21.470  27.124  1.00  0.00    -0.286 OA
ATOM     27  H6  UNL     1      38.155  21.064  26.366  1.00  0.00     0.244 HD
ENDBRANCH  14  26
BRANCH   2  28
HETATM   28  O2  UNL     1      41.508  19.606  26.241  1.00  0.00    -0.344 OA
ATOM     29  H2  UNL     1      40.740  19.131  25.945  1.00  0.00     0.219 HD
ENDBRANCH   2  28
BRANCH   1  30
HETATM   30  C6  UNL     1      43.954  20.775  24.907  1.00  0.00     0.142 C 
BRANCH  30  31
HETATM   31  C5  UNL     1      43.517  19.916  23.771  1.00  0.00     0.123 C 
BRANCH  31  32
HETATM   32  C4  UNL     1      43.931  18.518  24.060  1.00  0.00     0.219 C 
HETATM   33  N1  UNL     1      45.160  18.248  24.703  1.00  0.00    -0.357 N 
ATOM     34  H1  UNL     1      45.764  19.026  24.968  1.00  0.00     0.162 HD
HETATM   35  O1  UNL     1      43.205  17.545  23.743  1.00  0.00    -0.274 OA
BRANCH  33  36
HETATM   36  C2  UNL     1      45.578  16.918  24.989  1.00  0.00     0.076 C 
HETATM   37  C1  UNL     1      45.866  16.716  26.468  1.00  0.00     0.032 C 
HETATM   38  C3  UNL     1      46.812  16.591  24.191  1.00  0.00     0.032 C 
ENDBRANCH  33  36
ENDBRANCH  31  32
ENDBRANCH  30  31
ENDBRANCH   1  30
TORSDOF 12
ENDMDL
