MODEL 1
REMARK VINA RESULT: -5.381934200      0.000      0.000
REMARK  0 active torsions:
REMARK  status: ('A' for Active; 'I' for Inactive)
ROOT
HETATM    1  O1  UNL     1      18.436  11.317 -16.850  1.00  0.00    -0.247 OA
HETATM    2  C1  UNL     1      19.487  11.539 -17.534  1.00  0.00     0.328 A 
HETATM    3  N1  UNL     1      19.357  12.126 -18.735  1.00  0.00    -0.273 N 
ATOM      4  H1  UNL     1      18.441  12.390 -19.100  1.00  0.00     0.173 HD
HETATM    5  C2  UNL     1      20.479  12.351 -19.439  1.00  0.00     0.281 A 
HETATM    6  O2  UNL     1      20.366  12.898 -20.562  1.00  0.00    -0.265 OA
HETATM    7  C3  UNL     1      21.733  12.007 -18.980  1.00  0.00     0.160 A 
HETATM    8  N2  UNL     1      22.989  12.094 -19.424  1.00  0.00    -0.276 N 
ATOM      9  H2  UNL     1      23.259  12.495 -20.322  1.00  0.00     0.184 HD
HETATM   10  N3  UNL     1      23.836  11.588 -18.541  1.00  0.00    -0.020 NA
HETATM   11  N4  UNL     1      23.126  11.164 -17.507  1.00  0.00    -0.267 N 
ATOM     12  H4  UNL     1      23.507  10.725 -16.669  1.00  0.00     0.186 HD
HETATM   13  C4  UNL     1      21.823  11.404 -17.737  1.00  0.00     0.156 A 
HETATM   14  N5  UNL     1      20.694  11.190 -17.054  1.00  0.00    -0.291 N 
ATOM     15  H5  UNL     1      20.750  10.748 -16.138  1.00  0.00     0.172 HD
ENDROOT
TORSDOF 0
ENDMDL
MODEL 2
REMARK VINA RESULT: -5.298857990      1.695      2.608
REMARK  0 active torsions:
REMARK  status: ('A' for Active; 'I' for Inactive)
ROOT
HETATM    1  O1  UNL     1      18.455  10.437 -19.384  1.00  0.00    -0.247 OA
HETATM    2  C1  UNL     1      19.653  10.650 -19.006  1.00  0.00     0.328 A 
HETATM    3  N1  UNL     1      20.042  10.169 -17.814  1.00  0.00    -0.273 N 
ATOM      4  H1  UNL     1      19.400   9.645 -17.218  1.00  0.00     0.173 HD
HETATM    5  C2  UNL     1      21.309  10.404 -17.435  1.00  0.00     0.281 A 
HETATM    6  O2  UNL     1      21.680   9.958 -16.323  1.00  0.00    -0.265 OA
HETATM    7  C3  UNL     1      22.205  11.108 -18.212  1.00  0.00     0.160 A 
HETATM    8  N2  UNL     1      23.480  11.494 -18.120  1.00  0.00    -0.276 N 
ATOM      9  H2  UNL     1      24.089  11.294 -17.327  1.00  0.00     0.184 HD
HETATM   10  N3  UNL     1      23.845  12.172 -19.197  1.00  0.00    -0.020 NA
HETATM   11  N4  UNL     1      22.798  12.231 -20.003  1.00  0.00    -0.267 N 
ATOM     12  H4  UNL     1      22.777  12.693 -20.912  1.00  0.00     0.186 HD
HETATM   13  C4  UNL     1      21.763  11.587 -19.434  1.00  0.00     0.156 A 
HETATM   14  N5  UNL     1      20.499  11.340 -19.790  1.00  0.00    -0.291 N 
ATOM     15  H5  UNL     1      20.165  11.688 -20.688  1.00  0.00     0.172 HD
ENDROOT
TORSDOF 0
ENDMDL
MODEL 3
REMARK VINA RESULT: -5.291935421      2.003      4.120
REMARK  0 active torsions:
REMARK  status: ('A' for Active; 'I' for Inactive)
ROOT
HETATM    1  O1  UNL     1      23.695  12.604 -19.516  1.00  0.00    -0.247 OA
HETATM    2  C1  UNL     1      22.696  11.952 -19.068  1.00  0.00     0.328 A 
HETATM    3  N1  UNL     1      22.837  11.281 -17.913  1.00  0.00    -0.273 N 
ATOM      4  H1  UNL     1      23.719  11.287 -17.400  1.00  0.00     0.173 HD
HETATM    5  C2  UNL     1      21.771  10.600 -17.459  1.00  0.00     0.281 A 
HETATM    6  O2  UNL     1      21.895   9.971 -16.381  1.00  0.00    -0.265 OA
HETATM    7  C3  UNL     1      20.564  10.567 -18.124  1.00  0.00     0.160 A 
HETATM    8  N2  UNL     1      19.367  10.005 -17.941  1.00  0.00    -0.276 N 
ATOM      9  H2  UNL     1      19.120   9.416 -17.146  1.00  0.00     0.184 HD
HETATM   10  N3  UNL     1      18.544  10.318 -18.930  1.00  0.00    -0.020 NA
HETATM   11  N4  UNL     1      19.211  11.093 -19.771  1.00  0.00    -0.267 N 
ATOM     12  H4  UNL     1      18.835  11.490 -20.632  1.00  0.00     0.186 HD
HETATM   13  C4  UNL     1      20.462  11.272 -19.312  1.00  0.00     0.156 A 
HETATM   14  N5  UNL     1      21.534  11.942 -19.744  1.00  0.00    -0.291 N 
ATOM     15  H5  UNL     1      21.468  12.465 -20.617  1.00  0.00     0.172 HD
ENDROOT
TORSDOF 0
ENDMDL
MODEL 4
REMARK VINA RESULT: -5.199321997      1.046      2.665
REMARK  0 active torsions:
REMARK  status: ('A' for Active; 'I' for Inactive)
ROOT
HETATM    1  O1  UNL     1      19.299  13.947 -20.067  1.00  0.00    -0.247 OA
HETATM    2  C1  UNL     1      19.753  13.069 -19.264  1.00  0.00     0.328 A 
HETATM    3  N1  UNL     1      18.889  12.436 -18.453  1.00  0.00    -0.273 N 
ATOM      4  H1  UNL     1      17.891  12.649 -18.472  1.00  0.00     0.173 HD
HETATM    5  C2  UNL     1      19.389  11.514 -17.615  1.00  0.00     0.281 A 
HETATM    6  O2  UNL     1      18.589  10.919 -16.854  1.00  0.00    -0.265 OA
HETATM    7  C3  UNL     1      20.731  11.200 -17.559  1.00  0.00     0.160 A 
HETATM    8  N2  UNL     1      21.507  10.367 -16.864  1.00  0.00    -0.276 N 
ATOM      9  H2  UNL     1      21.171   9.725 -16.146  1.00  0.00     0.184 HD
HETATM   10  N3  UNL     1      22.774  10.485 -17.233  1.00  0.00    -0.020 NA
HETATM   11  N4  UNL     1      22.827  11.408 -18.180  1.00  0.00    -0.267 N 
ATOM     12  H4  UNL     1      23.673  11.717 -18.657  1.00  0.00     0.186 HD
HETATM   13  C4  UNL     1      21.587  11.876 -18.412  1.00  0.00     0.156 A 
HETATM   14  N5  UNL     1      21.067  12.789 -19.238  1.00  0.00    -0.291 N 
ATOM     15  H5  UNL     1      21.690  13.292 -19.870  1.00  0.00     0.172 HD
ENDROOT
TORSDOF 0
ENDMDL
MODEL 5
REMARK VINA RESULT: -5.159089084      1.966      2.870
REMARK  0 active torsions:
REMARK  status: ('A' for Active; 'I' for Inactive)
ROOT
HETATM    1  O1  UNL     1      19.686  11.946 -21.534  1.00  0.00    -0.247 OA
HETATM    2  C1  UNL     1      20.502  11.741 -20.578  1.00  0.00     0.328 A 
HETATM    3  N1  UNL     1      21.753  12.219 -20.689  1.00  0.00    -0.273 N 
ATOM      4  H1  UNL     1      22.051  12.733 -21.518  1.00  0.00     0.173 HD
HETATM    5  C2  UNL     1      22.595  11.992 -19.668  1.00  0.00     0.281 A 
HETATM    6  O2  UNL     1      23.765  12.435 -19.765  1.00  0.00    -0.265 OA
HETATM    7  C3  UNL     1      22.229  11.300 -18.533  1.00  0.00     0.160 A 
HETATM    8  N2  UNL     1      22.811  10.925 -17.392  1.00  0.00    -0.276 N 
ATOM      9  H2  UNL     1      23.779  11.125 -17.142  1.00  0.00     0.184 HD
HETATM   10  N3  UNL     1      21.960  10.256 -16.628  1.00  0.00    -0.020 NA
HETATM   11  N4  UNL     1      20.809  10.192 -17.277  1.00  0.00    -0.267 N 
ATOM     12  H4  UNL     1      19.963   9.736 -16.936  1.00  0.00     0.186 HD
HETATM   13  C4  UNL     1      20.930  10.825 -18.458  1.00  0.00     0.156 A 
HETATM   14  N5  UNL     1      20.109  11.063 -19.485  1.00  0.00    -0.291 N 
ATOM     15  H5  UNL     1      19.151  10.717 -19.439  1.00  0.00     0.172 HD
ENDROOT
TORSDOF 0
ENDMDL
