MODEL 1
REMARK VINA RESULT: -5.555633600      0.000      0.000
REMARK  0 active torsions:
REMARK  status: ('A' for Active; 'I' for Inactive)
REMARK       I    between atoms: N1_1  and  C1_4 
ROOT
HETATM    1  N1  UNL     1      19.735  11.128 -21.500  1.00  0.00    -0.234 N 
ATOM      2  H11 UNL     1      20.220  11.419 -22.348  1.00  0.00     0.174 HD
ATOM      3  H12 UNL     1      18.813  10.692 -21.484  1.00  0.00     0.174 HD
HETATM    4  C1  UNL     1      20.347  11.331 -20.382  1.00  0.00     0.680 C 
HETATM    5  N2  UNL     1      19.704  10.946 -19.258  1.00  0.00    -0.153 N 
ATOM      6  H2  UNL     1      18.688  10.905 -19.340  1.00  0.00     0.187 HD
HETATM    7  C2  UNL     1      20.184  10.607 -18.054  1.00  0.00     0.309 C 
HETATM    8  O1  UNL     1      19.356  10.150 -17.210  1.00  0.00    -0.263 OA
HETATM    9  C3  UNL     1      21.472  10.693 -17.614  1.00  0.00     0.243 C 
HETATM   10  O2  UNL     1      21.796  10.076 -16.575  1.00  0.00    -0.282 OA
HETATM   11  C4  UNL     1      22.501  11.414 -18.206  1.00  0.00     0.106 C 
HETATM   12  C5  UNL     1      22.561  11.910 -19.485  1.00  0.00     0.136 C 
HETATM   13  N3  UNL     1      23.803  12.487 -19.878  1.00  0.00    -0.082 NA
HETATM   14  N4  UNL     1      21.564  11.906 -20.402  1.00  0.00    -0.179 N 
ATOM     15  H4  UNL     1      21.771  12.427 -21.254  1.00  0.00     0.185 HD
ENDROOT
TORSDOF 0
ENDMDL
MODEL 2
REMARK VINA RESULT: -5.435489025      2.539      3.224
REMARK  0 active torsions:
REMARK  status: ('A' for Active; 'I' for Inactive)
REMARK       I    between atoms: N1_1  and  C1_4 
ROOT
HETATM    1  N1  UNL     1      18.630  11.121 -19.492  1.00  0.00    -0.234 N 
ATOM      2  H11 UNL     1      18.072  10.774 -18.711  1.00  0.00     0.174 HD
ATOM      3  H12 UNL     1      18.241  11.514 -20.349  1.00  0.00     0.174 HD
HETATM    4  C1  UNL     1      19.913  11.049 -19.365  1.00  0.00     0.680 C 
HETATM    5  N2  UNL     1      20.652  11.507 -20.399  1.00  0.00    -0.153 N 
ATOM      6  H2  UNL     1      20.178  11.494 -21.302  1.00  0.00     0.187 HD
HETATM    7  C2  UNL     1      21.907  11.976 -20.431  1.00  0.00     0.309 C 
HETATM    8  O1  UNL     1      22.309  12.472 -21.526  1.00  0.00    -0.263 OA
HETATM    9  C3  UNL     1      22.819  11.990 -19.418  1.00  0.00     0.243 C 
HETATM   10  O2  UNL     1      23.832  12.715 -19.530  1.00  0.00    -0.282 OA
HETATM   11  C4  UNL     1      22.751  11.266 -18.235  1.00  0.00     0.106 C 
HETATM   12  C5  UNL     1      21.655  10.656 -17.676  1.00  0.00     0.136 C 
HETATM   13  N3  UNL     1      21.837  10.103 -16.376  1.00  0.00    -0.082 NA
HETATM   14  N4  UNL     1      20.427  10.531 -18.234  1.00  0.00    -0.179 N 
ATOM     15  H4  UNL     1      19.780   9.943 -17.707  1.00  0.00     0.185 HD
ENDROOT
TORSDOF 0
ENDMDL
MODEL 3
REMARK VINA RESULT: -5.172056089      1.476      2.133
REMARK  0 active torsions:
REMARK  status: ('A' for Active; 'I' for Inactive)
REMARK       I    between atoms: N1_1  and  C1_4 
ROOT
HETATM    1  N1  UNL     1      18.547   9.479 -19.153  1.00  0.00    -0.234 N 
ATOM      2  H11 UNL     1      18.056   9.604 -20.038  1.00  0.00     0.174 HD
ATOM      3  H12 UNL     1      18.309   8.773 -18.456  1.00  0.00     0.174 HD
HETATM    4  C1  UNL     1      19.534  10.278 -18.920  1.00  0.00     0.680 C 
HETATM    5  N2  UNL     1      20.185  10.113 -17.747  1.00  0.00    -0.153 N 
ATOM      6  H2  UNL     1      19.632   9.678 -17.009  1.00  0.00     0.187 HD
HETATM    7  C2  UNL     1      21.439  10.429 -17.397  1.00  0.00     0.309 C 
HETATM    8  O1  UNL     1      21.837  10.035 -16.260  1.00  0.00    -0.263 OA
HETATM    9  C3  UNL     1      22.357  11.131 -18.121  1.00  0.00     0.243 C 
HETATM   10  O2  UNL     1      23.558  11.090 -17.772  1.00  0.00    -0.282 OA
HETATM   11  C4  UNL     1      22.104  11.914 -19.239  1.00  0.00     0.106 C 
HETATM   12  C5  UNL     1      20.992  11.906 -20.046  1.00  0.00     0.136 C 
HETATM   13  N3  UNL     1      21.058  12.714 -21.216  1.00  0.00    -0.082 NA
HETATM   14  N4  UNL     1      19.848  11.209 -19.839  1.00  0.00    -0.179 N 
ATOM     15  H4  UNL     1      19.096  11.428 -20.493  1.00  0.00     0.185 HD
ENDROOT
TORSDOF 0
ENDMDL
MODEL 4
REMARK VINA RESULT: -5.125227038      1.951      3.334
REMARK  0 active torsions:
REMARK  status: ('A' for Active; 'I' for Inactive)
REMARK       I    between atoms: N1_1  and  C1_4 
ROOT
HETATM    1  N1  UNL     1      19.307  13.942 -19.796  1.00  0.00    -0.234 N 
ATOM      2  H11 UNL     1      18.339  14.155 -19.557  1.00  0.00     0.174 HD
ATOM      3  H12 UNL     1      19.903  14.538 -20.371  1.00  0.00     0.174 HD
HETATM    4  C1  UNL     1      19.792  12.840 -19.329  1.00  0.00     0.680 C 
HETATM    5  N2  UNL     1      21.075  12.559 -19.647  1.00  0.00    -0.153 N 
ATOM      6  H2  UNL     1      21.408  12.996 -20.506  1.00  0.00     0.187 HD
HETATM    7  C2  UNL     1      21.980  11.797 -19.017  1.00  0.00     0.309 C 
HETATM    8  O1  UNL     1      23.163  11.816 -19.469  1.00  0.00    -0.263 OA
HETATM    9  C3  UNL     1      21.785  10.993 -17.933  1.00  0.00     0.243 C 
HETATM   10  O2  UNL     1      22.784  10.580 -17.303  1.00  0.00    -0.282 OA
HETATM   11  C4  UNL     1      20.564  10.564 -17.431  1.00  0.00     0.106 C 
HETATM   12  C5  UNL     1      19.316  11.083 -17.678  1.00  0.00     0.136 C 
HETATM   13  N3  UNL     1      18.246  10.538 -16.912  1.00  0.00    -0.082 NA
HETATM   14  N4  UNL     1      19.006  12.055 -18.570  1.00  0.00    -0.179 N 
ATOM     15  H4  UNL     1      18.006  12.219 -18.686  1.00  0.00     0.185 HD
ENDROOT
TORSDOF 0
ENDMDL
MODEL 5
REMARK VINA RESULT: -5.043956868      2.637      4.168
REMARK  0 active torsions:
REMARK  status: ('A' for Active; 'I' for Inactive)
REMARK       I    between atoms: N1_1  and  C1_4 
ROOT
HETATM    1  N1  UNL     1      23.799  11.265 -17.585  1.00  0.00    -0.234 N 
ATOM      2  H11 UNL     1      23.721  10.918 -16.629  1.00  0.00     0.174 HD
ATOM      3  H12 UNL     1      24.681  11.401 -18.079  1.00  0.00     0.174 HD
HETATM    4  C1  UNL     1      22.694  11.545 -18.192  1.00  0.00     0.680 C 
HETATM    5  N2  UNL     1      22.798  12.006 -19.458  1.00  0.00    -0.153 N 
ATOM      6  H2  UNL     1      23.686  12.456 -19.678  1.00  0.00     0.187 HD
HETATM    7  C2  UNL     1      21.922  11.967 -20.471  1.00  0.00     0.309 C 
HETATM    8  O1  UNL     1      22.334  12.358 -21.604  1.00  0.00    -0.263 OA
HETATM    9  C3  UNL     1      20.623  11.552 -20.438  1.00  0.00     0.243 C 
HETATM   10  O2  UNL     1      20.040  11.313 -21.518  1.00  0.00    -0.282 OA
HETATM   11  C4  UNL     1      19.847  11.360 -19.303  1.00  0.00     0.106 C 
HETATM   12  C5  UNL     1      20.265  11.219 -18.003  1.00  0.00     0.136 C 
HETATM   13  N3  UNL     1      19.260  10.885 -17.051  1.00  0.00    -0.082 NA
HETATM   14  N4  UNL     1      21.531  11.365 -17.540  1.00  0.00    -0.179 N 
ATOM     15  H4  UNL     1      21.616  11.334 -16.524  1.00  0.00     0.185 HD
ENDROOT
TORSDOF 0
ENDMDL
