MODEL 1
REMARK VINA RESULT: -5.670807514      0.000      0.000
REMARK  0 active torsions:
REMARK  status: ('A' for Active; 'I' for Inactive)
ROOT
HETATM    1  O1  UNL     1      18.470  11.313 -20.413  1.00  0.00    -0.247 OA
HETATM    2  C1  UNL     1      19.566  11.310 -19.802  1.00  0.00     0.326 A 
HETATM    3  N1  UNL     1      19.757  10.719 -18.613  1.00  0.00    -0.291 N 
ATOM      4  H1  UNL     1      19.061  10.211 -18.066  1.00  0.00     0.172 HD
HETATM    5  C2  UNL     1      21.042  10.925 -18.281  1.00  0.00     0.158 A 
HETATM    6  N2  UNL     1      21.750  10.555 -17.212  1.00  0.00    -0.269 N 
ATOM      7  H2  UNL     1      21.311  10.016 -16.466  1.00  0.00     0.190 HD
HETATM    8  N3  UNL     1      23.011  10.891 -17.131  1.00  0.00    -0.238 N 
ATOM      9  H3  UNL     1      23.537  10.600 -16.307  1.00  0.00     0.208 HD
HETATM   10  N4  UNL     1      23.633  11.582 -18.053  1.00  0.00    -0.250 N 
ATOM     11  H4  UNL     1      24.619  11.817 -17.940  1.00  0.00     0.192 HD
HETATM   12  C3  UNL     1      22.971  11.976 -19.141  1.00  0.00     0.291 A 
HETATM   13  O2  UNL     1      23.537  12.634 -20.033  1.00  0.00    -0.264 OA
HETATM   14  C4  UNL     1      21.643  11.652 -19.281  1.00  0.00     0.152 A 
HETATM   15  N5  UNL     1      20.699  11.885 -20.229  1.00  0.00    -0.301 N 
ATOM     16  H5  UNL     1      20.828  12.400 -21.101  1.00  0.00     0.171 HD
ENDROOT
TORSDOF 0
ENDMDL
MODEL 2
REMARK VINA RESULT: -5.379639021      1.619      2.257
REMARK  0 active torsions:
REMARK  status: ('A' for Active; 'I' for Inactive)
ROOT
HETATM    1  O1  UNL     1      18.584  11.377 -20.562  1.00  0.00    -0.247 OA
HETATM    2  C1  UNL     1      19.672  11.365 -19.936  1.00  0.00     0.326 A 
HETATM    3  N1  UNL     1      20.776  12.009 -20.345  1.00  0.00    -0.291 N 
ATOM      4  H1  UNL     1      20.875  12.573 -21.188  1.00  0.00     0.172 HD
HETATM    5  C2  UNL     1      21.726  11.764 -19.427  1.00  0.00     0.158 A 
HETATM    6  N2  UNL     1      22.999  12.159 -19.346  1.00  0.00    -0.269 N 
ATOM      7  H2  UNL     1      23.401  12.755 -20.069  1.00  0.00     0.190 HD
HETATM    8  N3  UNL     1      23.725  11.774 -18.328  1.00  0.00    -0.238 N 
ATOM      9  H3  UNL     1      24.696  12.084 -18.282  1.00  0.00     0.208 HD
HETATM   10  N4  UNL     1      23.270  11.011 -17.367  1.00  0.00    -0.250 N 
ATOM     11  H4  UNL     1      23.879  10.739 -16.595  1.00  0.00     0.192 HD
HETATM   12  C3  UNL     1      22.005  10.589 -17.401  1.00  0.00     0.291 A 
HETATM   13  O2  UNL     1      21.547   9.862 -16.501  1.00  0.00    -0.264 OA
HETATM   14  C4  UNL     1      21.195  10.962 -18.446  1.00  0.00     0.152 A 
HETATM   15  N5  UNL     1      19.902  10.721 -18.783  1.00  0.00    -0.301 N 
ATOM     16  H5  UNL     1      19.233  10.157 -18.259  1.00  0.00     0.171 HD
ENDROOT
TORSDOF 0
ENDMDL
MODEL 3
REMARK VINA RESULT: -5.366490380      1.364      1.543
REMARK  0 active torsions:
REMARK  status: ('A' for Active; 'I' for Inactive)
ROOT
HETATM    1  O1  UNL     1      18.413   9.973 -17.949  1.00  0.00    -0.247 OA
HETATM    2  C1  UNL     1      19.581  10.396 -18.125  1.00  0.00     0.326 A 
HETATM    3  N1  UNL     1      20.575  10.239 -17.236  1.00  0.00    -0.291 N 
ATOM      4  H1  UNL     1      20.515   9.771 -16.332  1.00  0.00     0.172 HD
HETATM    5  C2  UNL     1      21.663  10.818 -17.769  1.00  0.00     0.158 A 
HETATM    6  N2  UNL     1      22.910  10.948 -17.309  1.00  0.00    -0.269 N 
ATOM      7  H2  UNL     1      23.165  10.567 -16.399  1.00  0.00     0.190 HD
HETATM    8  N3  UNL     1      23.800  11.568 -18.040  1.00  0.00    -0.238 N 
ATOM      9  H3  UNL     1      24.748  11.659 -17.673  1.00  0.00     0.208 HD
HETATM   10  N4  UNL     1      23.537  12.078 -19.216  1.00  0.00    -0.250 N 
ATOM     11  H4  UNL     1      24.270  12.552 -19.745  1.00  0.00     0.192 HD
HETATM   12  C3  UNL     1      22.307  11.975 -19.720  1.00  0.00     0.291 A 
HETATM   13  O2  UNL     1      22.029  12.452 -20.836  1.00  0.00    -0.264 OA
HETATM   14  C4  UNL     1      21.330  11.335 -18.998  1.00  0.00     0.152 A 
HETATM   15  N5  UNL     1      20.016  11.060 -19.205  1.00  0.00    -0.301 N 
ATOM     16  H5  UNL     1      19.465  11.311 -20.026  1.00  0.00     0.171 HD
ENDROOT
TORSDOF 0
ENDMDL
MODEL 4
REMARK VINA RESULT: -5.209433578      1.122      3.122
REMARK  0 active torsions:
REMARK  status: ('A' for Active; 'I' for Inactive)
ROOT
HETATM    1  O1  UNL     1      23.427  12.836 -21.643  1.00  0.00    -0.247 OA
HETATM    2  C1  UNL     1      22.898  12.317 -20.630  1.00  0.00     0.326 A 
HETATM    3  N1  UNL     1      23.544  12.108 -19.473  1.00  0.00    -0.291 N 
ATOM      4  H1  UNL     1      24.517  12.335 -19.269  1.00  0.00     0.172 HD
HETATM    5  C2  UNL     1      22.661  11.540 -18.635  1.00  0.00     0.158 A 
HETATM    6  N2  UNL     1      22.780  11.130 -17.370  1.00  0.00    -0.269 N 
ATOM      7  H2  UNL     1      23.667  11.230 -16.878  1.00  0.00     0.190 HD
HETATM    8  N3  UNL     1      21.746  10.600 -16.769  1.00  0.00    -0.238 N 
ATOM      9  H3  UNL     1      21.854  10.293 -15.803  1.00  0.00     0.208 HD
HETATM   10  N4  UNL     1      20.580  10.445 -17.344  1.00  0.00    -0.250 N 
ATOM     11  H4  UNL     1      19.806  10.025 -16.829  1.00  0.00     0.192 HD
HETATM   12  C3  UNL     1      20.410  10.837 -18.607  1.00  0.00     0.291 A 
HETATM   13  O2  UNL     1      19.313  10.701 -19.178  1.00  0.00    -0.264 OA
HETATM   14  C4  UNL     1      21.461  11.401 -19.290  1.00  0.00     0.152 A 
HETATM   15  N5  UNL     1      21.628  11.895 -20.543  1.00  0.00    -0.301 N 
ATOM     16  H5  UNL     1      20.923  11.937 -21.279  1.00  0.00     0.171 HD
ENDROOT
TORSDOF 0
ENDMDL
MODEL 5
REMARK VINA RESULT: -5.118456781      1.688      2.520
REMARK  0 active torsions:
REMARK  status: ('A' for Active; 'I' for Inactive)
ROOT
HETATM    1  O1  UNL     1      20.279  12.154 -22.158  1.00  0.00    -0.247 OA
HETATM    2  C1  UNL     1      20.819  11.924 -21.050  1.00  0.00     0.326 A 
HETATM    3  N1  UNL     1      22.121  12.128 -20.795  1.00  0.00    -0.291 N 
ATOM      4  H1  UNL     1      22.820  12.485 -21.446  1.00  0.00     0.172 HD
HETATM    5  C2  UNL     1      22.324  11.770 -19.517  1.00  0.00     0.158 A 
HETATM    6  N2  UNL     1      23.426  11.773 -18.762  1.00  0.00    -0.269 N 
ATOM      7  H2  UNL     1      24.314  12.089 -19.150  1.00  0.00     0.190 HD
HETATM    8  N3  UNL     1      23.353  11.367 -17.521  1.00  0.00    -0.238 N 
ATOM      9  H3  UNL     1      24.204  11.376 -16.959  1.00  0.00     0.208 HD
HETATM   10  N4  UNL     1      22.244  10.950 -16.964  1.00  0.00    -0.250 N 
ATOM     11  H4  UNL     1      22.243  10.644 -15.990  1.00  0.00     0.192 HD
HETATM   12  C3  UNL     1      21.117  10.927 -17.674  1.00  0.00     0.291 A 
HETATM   13  O2  UNL     1      20.048  10.535 -17.170  1.00  0.00    -0.264 OA
HETATM   14  C4  UNL     1      21.132  11.342 -18.984  1.00  0.00     0.152 A 
HETATM   15  N5  UNL     1      20.196  11.446 -19.963  1.00  0.00    -0.301 N 
ATOM     16  H5  UNL     1      19.208  11.205 -19.886  1.00  0.00     0.171 HD
ENDROOT
TORSDOF 0
ENDMDL
