MODEL 1
REMARK VINA RESULT: -7.875498578      0.000      0.000
REMARK  5 active torsions:
REMARK  status: ('A' for Active; 'I' for Inactive)
REMARK    1  A    between atoms: C1_2  and  C2_4 
REMARK    2  A    between atoms: C4_6  and  C5_7 
REMARK       I    between atoms: C5_7  and  N2_9 
REMARK    3  A    between atoms: N2_9  and  N3_11 
REMARK    4  A    between atoms: N3_11  and  C6_13 
REMARK    5  A    between atoms: C9_17  and  N4_18 
ROOT
HETATM    1  C2  UNL     1      19.867  21.223  37.809  1.00  0.00     0.057 A 
HETATM    2  C3  UNL     1      19.834  20.478  36.641  1.00  0.00     0.036 A 
HETATM    3  C4  UNL     1      18.699  20.363  35.874  1.00  0.00     0.034 A 
HETATM    4  C7  UNL     1      17.570  21.036  36.330  1.00  0.00     0.019 A 
HETATM    5  C8  UNL     1      17.564  21.780  37.475  1.00  0.00     0.031 A 
HETATM    6  C9  UNL     1      18.730  21.874  38.226  1.00  0.00     0.049 A 
ENDROOT
BRANCH   3   7
HETATM    7  C5  UNL     1      18.617  19.592  34.641  1.00  0.00     0.270 C 
HETATM    8  O2  UNL     1      18.522  20.191  33.515  1.00  0.00    -0.266 OA
HETATM    9  N2  UNL     1      18.636  18.178  34.609  1.00  0.00    -0.264 N 
ATOM     10  H2  UNL     1      18.712  17.669  35.489  1.00  0.00     0.190 HD
BRANCH   9  11
HETATM   11  N3  UNL     1      18.556  17.454  33.416  1.00  0.00    -0.275 N 
ATOM     12  H3  UNL     1      19.402  17.075  32.992  1.00  0.00     0.189 HD
BRANCH  11  13
HETATM   13  C6  UNL     1      17.306  17.245  32.798  1.00  0.00     0.368 C 
HETATM   14  O3  UNL     1      16.522  16.390  33.254  1.00  0.00    -0.282 OA
ENDBRANCH  11  13
ENDBRANCH   9  11
ENDBRANCH   3   7
BRANCH   1  15
HETATM   15  C1  UNL     1      21.110  21.296  38.567  1.00  0.00     0.267 C 
HETATM   16  N1  UNL     1      21.873  22.484  38.630  1.00  0.00    -0.057 NA
HETATM   17  O1  UNL     1      21.554  20.297  39.198  1.00  0.00    -0.271 OA
ENDBRANCH   1  15
BRANCH   6  18
HETATM   18  N4  UNL     1      18.747  22.647  39.409  1.00  0.00    -0.332 N 
HETATM   19  C10 UNL     1      18.351  22.236  40.543  1.00  0.00     0.201 C 
HETATM   20  N5  UNL     1      17.845  20.949  40.759  1.00  0.00    -0.066 NA
HETATM   21  N6  UNL     1      18.446  23.170  41.627  1.00  0.00    -0.066 NA
ATOM     22  H4  UNL     1      19.102  23.601  39.347  1.00  0.00     0.168 HD
ENDBRANCH   6  18
TORSDOF 5
ENDMDL
MODEL 2
REMARK VINA RESULT: -7.750311797      1.234      1.234
REMARK  5 active torsions:
REMARK  status: ('A' for Active; 'I' for Inactive)
REMARK    1  A    between atoms: C1_2  and  C2_4 
REMARK    2  A    between atoms: C4_6  and  C5_7 
REMARK       I    between atoms: C5_7  and  N2_9 
REMARK    3  A    between atoms: N2_9  and  N3_11 
REMARK    4  A    between atoms: N3_11  and  C6_13 
REMARK    5  A    between atoms: C9_17  and  N4_18 
ROOT
HETATM    1  C2  UNL     1      19.535  21.913  37.772  1.00  0.00     0.057 A 
HETATM    2  C3  UNL     1      19.456  21.406  36.484  1.00  0.00     0.036 A 
HETATM    3  C4  UNL     1      18.256  21.215  35.841  1.00  0.00     0.034 A 
HETATM    4  C7  UNL     1      17.110  21.556  36.552  1.00  0.00     0.019 A 
HETATM    5  C8  UNL     1      17.147  22.058  37.821  1.00  0.00     0.031 A 
HETATM    6  C9  UNL     1      18.378  22.240  38.440  1.00  0.00     0.049 A 
ENDROOT
BRANCH   3   7
HETATM    7  C5  UNL     1      18.124  20.686  34.491  1.00  0.00     0.270 C 
HETATM    8  O2  UNL     1      17.542  21.376  33.585  1.00  0.00    -0.266 OA
HETATM    9  N2  UNL     1      18.614  19.416  34.106  1.00  0.00    -0.264 N 
ATOM     10  H2  UNL     1      19.083  18.839  34.803  1.00  0.00     0.190 HD
BRANCH   9  11
HETATM   11  N3  UNL     1      18.478  18.923  32.805  1.00  0.00    -0.275 N 
ATOM     12  H3  UNL     1      19.067  19.288  32.058  1.00  0.00     0.189 HD
BRANCH  11  13
HETATM   13  C6  UNL     1      17.527  17.919  32.524  1.00  0.00     0.368 C 
HETATM   14  O3  UNL     1      16.311  18.189  32.555  1.00  0.00    -0.282 OA
ENDBRANCH  11  13
ENDBRANCH   9  11
ENDBRANCH   3   7
BRANCH   1  15
HETATM   15  C1  UNL     1      20.845  22.087  38.385  1.00  0.00     0.267 C 
HETATM   16  N1  UNL     1      21.680  20.985  38.680  1.00  0.00    -0.057 NA
HETATM   17  O1  UNL     1      21.287  23.233  38.678  1.00  0.00    -0.271 OA
ENDBRANCH   1  15
BRANCH   6  18
HETATM   18  N4  UNL     1      18.439  22.767  39.749  1.00  0.00    -0.332 N 
HETATM   19  C10 UNL     1      18.230  22.096  40.807  1.00  0.00     0.201 C 
HETATM   20  N5  UNL     1      17.912  20.732  40.800  1.00  0.00    -0.066 NA
HETATM   21  N6  UNL     1      18.336  22.809  42.046  1.00  0.00    -0.066 NA
ATOM     22  H4  UNL     1      18.667  23.756  39.852  1.00  0.00     0.168 HD
ENDBRANCH   6  18
TORSDOF 5
ENDMDL
MODEL 3
REMARK VINA RESULT: -7.743864487      1.303      1.731
REMARK  5 active torsions:
REMARK  status: ('A' for Active; 'I' for Inactive)
REMARK    1  A    between atoms: C1_2  and  C2_4 
REMARK    2  A    between atoms: C4_6  and  C5_7 
REMARK       I    between atoms: C5_7  and  N2_9 
REMARK    3  A    between atoms: N2_9  and  N3_11 
REMARK    4  A    between atoms: N3_11  and  C6_13 
REMARK    5  A    between atoms: C9_17  and  N4_18 
ROOT
HETATM    1  C2  UNL     1      20.304  20.553  37.902  1.00  0.00     0.057 A 
HETATM    2  C3  UNL     1      20.047  19.914  36.699  1.00  0.00     0.036 A 
HETATM    3  C4  UNL     1      19.036  20.311  35.856  1.00  0.00     0.034 A 
HETATM    4  C7  UNL     1      18.272  21.397  36.271  1.00  0.00     0.019 A 
HETATM    5  C8  UNL     1      18.494  22.052  37.448  1.00  0.00     0.031 A 
HETATM    6  C9  UNL     1      19.525  21.624  38.276  1.00  0.00     0.049 A 
ENDROOT
BRANCH   3   7
HETATM    7  C5  UNL     1      18.730  19.671  34.584  1.00  0.00     0.270 C 
HETATM    8  O2  UNL     1      18.441  20.382  33.561  1.00  0.00    -0.266 OA
HETATM    9  N2  UNL     1      18.731  18.268  34.404  1.00  0.00    -0.264 N 
ATOM     10  H2  UNL     1      18.958  17.671  35.199  1.00  0.00     0.190 HD
BRANCH   9  11
HETATM   11  N3  UNL     1      18.434  17.669  33.176  1.00  0.00    -0.275 N 
ATOM     12  H3  UNL     1      19.169  17.543  32.480  1.00  0.00     0.189 HD
BRANCH  11  13
HETATM   13  C6  UNL     1      17.120  17.240  32.898  1.00  0.00     0.368 C 
HETATM   14  O3  UNL     1      16.263  18.064  32.526  1.00  0.00    -0.282 OA
ENDBRANCH  11  13
ENDBRANCH   9  11
ENDBRANCH   3   7
BRANCH   1  15
HETATM   15  C1  UNL     1      21.394  20.073  38.740  1.00  0.00     0.267 C 
HETATM   16  N1  UNL     1      22.692  19.862  38.223  1.00  0.00    -0.057 NA
HETATM   17  O1  UNL     1      21.220  19.824  39.966  1.00  0.00    -0.271 OA
ENDBRANCH   1  15
BRANCH   6  18
HETATM   18  N4  UNL     1      19.778  22.294  39.493  1.00  0.00    -0.332 N 
HETATM   19  C10 UNL     1      20.676  23.177  39.658  1.00  0.00     0.201 C 
HETATM   20  N5  UNL     1      21.534  23.598  38.634  1.00  0.00    -0.066 NA
HETATM   21  N6  UNL     1      20.780  23.744  40.970  1.00  0.00    -0.066 NA
ATOM     22  H4  UNL     1      19.198  22.052  40.297  1.00  0.00     0.168 HD
ENDBRANCH   6  18
TORSDOF 5
ENDMDL
MODEL 4
REMARK VINA RESULT: -7.698403886      1.487      1.631
REMARK  5 active torsions:
REMARK  status: ('A' for Active; 'I' for Inactive)
REMARK    1  A    between atoms: C1_2  and  C2_4 
REMARK    2  A    between atoms: C4_6  and  C5_7 
REMARK       I    between atoms: C5_7  and  N2_9 
REMARK    3  A    between atoms: N2_9  and  N3_11 
REMARK    4  A    between atoms: N3_11  and  C6_13 
REMARK    5  A    between atoms: C9_17  and  N4_18 
ROOT
HETATM    1  C2  UNL     1      20.351  20.488  37.945  1.00  0.00     0.057 A 
HETATM    2  C3  UNL     1      19.892  20.143  36.684  1.00  0.00     0.036 A 
HETATM    3  C4  UNL     1      18.574  19.831  36.441  1.00  0.00     0.034 A 
HETATM    4  C7  UNL     1      17.714  19.878  37.533  1.00  0.00     0.019 A 
HETATM    5  C8  UNL     1      18.129  20.214  38.790  1.00  0.00     0.031 A 
HETATM    6  C9  UNL     1      19.468  20.524  38.999  1.00  0.00     0.049 A 
ENDROOT
BRANCH   3   7
HETATM    7  C5  UNL     1      18.046  19.463  35.135  1.00  0.00     0.270 C 
HETATM    8  O2  UNL     1      16.867  19.824  34.794  1.00  0.00    -0.266 OA
HETATM    9  N2  UNL     1      18.777  18.707  34.190  1.00  0.00    -0.264 N 
ATOM     10  H2  UNL     1      19.721  18.403  34.429  1.00  0.00     0.190 HD
BRANCH   9  11
HETATM   11  N3  UNL     1      18.255  18.361  32.940  1.00  0.00    -0.275 N 
ATOM     12  H3  UNL     1      18.260  19.041  32.180  1.00  0.00     0.189 HD
BRANCH  11  13
HETATM   13  C6  UNL     1      17.721  17.073  32.728  1.00  0.00     0.368 C 
HETATM   14  O3  UNL     1      16.662  16.738  33.294  1.00  0.00    -0.282 OA
ENDBRANCH  11  13
ENDBRANCH   9  11
ENDBRANCH   3   7
BRANCH   1  15
HETATM   15  C1  UNL     1      21.762  20.805  38.122  1.00  0.00     0.267 C 
HETATM   16  N1  UNL     1      22.769  19.826  37.963  1.00  0.00    -0.057 NA
HETATM   17  O1  UNL     1      22.141  21.971  38.425  1.00  0.00    -0.271 OA
ENDBRANCH   1  15
BRANCH   6  18
HETATM   18  N4  UNL     1      19.916  20.884  40.289  1.00  0.00    -0.332 N 
HETATM   19  C10 UNL     1      19.778  22.035  40.806  1.00  0.00     0.201 C 
HETATM   20  N5  UNL     1      19.153  23.101  40.146  1.00  0.00    -0.066 NA
HETATM   21  N6  UNL     1      20.301  22.208  42.129  1.00  0.00    -0.066 NA
ATOM     22  H4  UNL     1      20.384  20.167  40.845  1.00  0.00     0.168 HD
ENDBRANCH   6  18
TORSDOF 5
ENDMDL
MODEL 5
REMARK VINA RESULT: -7.670389828      1.543      2.368
REMARK  5 active torsions:
REMARK  status: ('A' for Active; 'I' for Inactive)
REMARK    1  A    between atoms: C1_2  and  C2_4 
REMARK    2  A    between atoms: C4_6  and  C5_7 
REMARK       I    between atoms: C5_7  and  N2_9 
REMARK    3  A    between atoms: N2_9  and  N3_11 
REMARK    4  A    between atoms: N3_11  and  C6_13 
REMARK    5  A    between atoms: C9_17  and  N4_18 
ROOT
HETATM    1  C2  UNL     1      18.871  20.585  38.095  1.00  0.00     0.057 A 
HETATM    2  C3  UNL     1      18.338  19.885  37.025  1.00  0.00     0.036 A 
HETATM    3  C4  UNL     1      18.336  20.387  35.745  1.00  0.00     0.034 A 
HETATM    4  C7  UNL     1      18.898  21.647  35.571  1.00  0.00     0.019 A 
HETATM    5  C8  UNL     1      19.432  22.368  36.600  1.00  0.00     0.031 A 
HETATM    6  C9  UNL     1      19.419  21.829  37.881  1.00  0.00     0.049 A 
ENDROOT
BRANCH   3   7
HETATM    7  C5  UNL     1      17.788  19.687  34.590  1.00  0.00     0.270 C 
HETATM    8  O2  UNL     1      16.522  19.612  34.426  1.00  0.00    -0.266 OA
HETATM    9  N2  UNL     1      18.595  19.066  33.608  1.00  0.00    -0.264 N 
ATOM     10  H2  UNL     1      19.609  19.107  33.708  1.00  0.00     0.190 HD
BRANCH   9  11
HETATM   11  N3  UNL     1      18.053  18.397  32.507  1.00  0.00    -0.275 N 
ATOM     12  H3  UNL     1      17.882  18.903  31.638  1.00  0.00     0.189 HD
BRANCH  11  13
HETATM   13  C6  UNL     1      17.743  17.024  32.594  1.00  0.00     0.368 C 
HETATM   14  O3  UNL     1      16.679  16.660  33.131  1.00  0.00    -0.282 OA
ENDBRANCH  11  13
ENDBRANCH   9  11
ENDBRANCH   3   7
BRANCH   1  15
HETATM   15  C1  UNL     1      18.836  19.985  39.422  1.00  0.00     0.267 C 
HETATM   16  N1  UNL     1      17.791  20.257  40.334  1.00  0.00    -0.057 NA
HETATM   17  O1  UNL     1      19.742  19.196  39.811  1.00  0.00    -0.271 OA
ENDBRANCH   1  15
BRANCH   6  18
HETATM   18  N4  UNL     1      19.975  22.554  38.958  1.00  0.00    -0.332 N 
HETATM   19  C10 UNL     1      21.207  22.554  39.268  1.00  0.00     0.201 C 
HETATM   20  N5  UNL     1      22.174  21.823  38.566  1.00  0.00    -0.066 NA
HETATM   21  N6  UNL     1      21.580  23.353  40.398  1.00  0.00    -0.066 NA
ATOM     22  H4  UNL     1      19.343  23.118  39.527  1.00  0.00     0.168 HD
ENDBRANCH   6  18
TORSDOF 5
ENDMDL
