MODEL 1
REMARK VINA RESULT: -7.559186869      0.000      0.000
REMARK  5 active torsions:
REMARK  status: ('A' for Active; 'I' for Inactive)
REMARK    1  A    between atoms: C2_2  and  C3_4 
REMARK    2  A    between atoms: C3_4  and  N1_6 
REMARK       I    between atoms: N1_6  and  C5_8 
REMARK    3  A    between atoms: C5_8  and  C6_10 
REMARK    4  A    between atoms: C7_11  and  C8_12 
REMARK    5  A    between atoms: C10_21  and  N5_22 
ROOT
HETATM    1  C6  UNL     1      16.828  21.220  37.626  1.00  0.00     0.107 A 
HETATM    2  C7  UNL     1      17.939  21.151  38.434  1.00  0.00     0.121 A 
HETATM    3  N3  UNL     1      18.028  22.133  39.403  1.00  0.00    -0.303 N 
ATOM      4  H3  UNL     1      18.829  22.131  40.034  1.00  0.00     0.171 HD
HETATM    5  C9  UNL     1      17.107  23.078  39.539  1.00  0.00     0.326 A 
HETATM    6  O4  UNL     1      17.215  23.976  40.443  1.00  0.00    -0.247 OA
HETATM    7  N4  UNL     1      16.022  23.158  38.755  1.00  0.00    -0.294 N 
ATOM      8  H4  UNL     1      15.332  23.898  38.883  1.00  0.00     0.172 HD
HETATM    9  C10 UNL     1      15.876  22.240  37.804  1.00  0.00     0.121 A 
ENDROOT
BRANCH   1  10
HETATM   10  C5  UNL     1      16.563  20.167  36.659  1.00  0.00     0.258 C 
HETATM   11  N1  UNL     1      17.242  20.132  35.423  1.00  0.00    -0.346 N 
ATOM     12  H1  UNL     1      17.926  20.866  35.234  1.00  0.00     0.163 HD
HETATM   13  O2  UNL     1      15.741  19.233  36.838  1.00  0.00    -0.267 OA
BRANCH  11  14
HETATM   14  C3  UNL     1      17.033  19.123  34.407  1.00  0.00     0.150 C 
HETATM   15  C4  UNL     1      18.110  18.056  34.451  1.00  0.00     0.040 C 
BRANCH  14  16
HETATM   16  C2  UNL     1      16.981  19.681  33.038  1.00  0.00     0.145 C 
HETATM   17  C1  UNL     1      17.583  20.994  32.723  1.00  0.00     0.093 C 
HETATM   18  O1  UNL     1      16.437  19.056  32.161  1.00  0.00    -0.296 OA
ENDBRANCH  14  16
ENDBRANCH  11  14
ENDBRANCH   1  10
BRANCH   2  19
HETATM   19  C8  UNL     1      19.036  20.230  38.303  1.00  0.00     0.282 C 
HETATM   20  N2  UNL     1      19.951  20.176  37.255  1.00  0.00    -0.056 NA
HETATM   21  O3  UNL     1      19.207  19.371  39.235  1.00  0.00    -0.269 OA
ENDBRANCH   2  19
BRANCH   9  22
HETATM   22  N5  UNL     1      14.842  22.267  37.047  1.00  0.00    -0.384 N 
ATOM     23  H52 UNL     1      14.595  21.443  36.500  1.00  0.00     0.157 HD
ATOM     24  H51 UNL     1      14.290  23.123  36.991  1.00  0.00     0.157 HD
ENDBRANCH   9  22
TORSDOF 5
ENDMDL
MODEL 2
REMARK VINA RESULT: -6.985994639      1.944      3.476
REMARK  5 active torsions:
REMARK  status: ('A' for Active; 'I' for Inactive)
REMARK    1  A    between atoms: C2_2  and  C3_4 
REMARK    2  A    between atoms: C3_4  and  N1_6 
REMARK       I    between atoms: N1_6  and  C5_8 
REMARK    3  A    between atoms: C5_8  and  C6_10 
REMARK    4  A    between atoms: C7_11  and  C8_12 
REMARK    5  A    between atoms: C10_21  and  N5_22 
ROOT
HETATM    1  C6  UNL     1      18.438  20.213  37.636  1.00  0.00     0.107 A 
HETATM    2  C7  UNL     1      17.228  20.735  38.029  1.00  0.00     0.121 A 
HETATM    3  N3  UNL     1      17.104  20.990  39.381  1.00  0.00    -0.303 N 
ATOM      4  H3  UNL     1      16.229  21.380  39.731  1.00  0.00     0.171 HD
HETATM    5  C9  UNL     1      18.084  20.743  40.240  1.00  0.00     0.326 A 
HETATM    6  O4  UNL     1      17.941  20.987  41.488  1.00  0.00    -0.247 OA
HETATM    7  N4  UNL     1      19.267  20.231  39.871  1.00  0.00    -0.294 N 
ATOM      8  H4  UNL     1      20.001  20.051  40.556  1.00  0.00     0.172 HD
HETATM    9  C10 UNL     1      19.451  19.965  38.581  1.00  0.00     0.121 A 
ENDROOT
BRANCH   1  10
HETATM   10  C5  UNL     1      18.730  20.027  36.224  1.00  0.00     0.258 C 
HETATM   11  N1  UNL     1      18.259  18.891  35.532  1.00  0.00    -0.346 N 
ATOM     12  H1  UNL     1      17.708  18.209  36.054  1.00  0.00     0.163 HD
HETATM   13  O2  UNL     1      19.395  20.833  35.527  1.00  0.00    -0.267 OA
BRANCH  11  14
HETATM   14  C3  UNL     1      18.509  18.630  34.131  1.00  0.00     0.150 C 
HETATM   15  C4  UNL     1      17.915  19.711  33.248  1.00  0.00     0.040 C 
BRANCH  14  16
HETATM   16  C2  UNL     1      17.986  17.320  33.683  1.00  0.00     0.145 C 
HETATM   17  C1  UNL     1      16.874  17.230  32.714  1.00  0.00     0.093 C 
HETATM   18  O1  UNL     1      18.475  16.305  34.116  1.00  0.00    -0.296 OA
ENDBRANCH  14  16
ENDBRANCH  11  14
ENDBRANCH   1  10
BRANCH   2  19
HETATM   19  C8  UNL     1      16.076  20.944  37.193  1.00  0.00     0.282 C 
HETATM   20  N2  UNL     1      15.374  22.136  37.032  1.00  0.00    -0.056 NA
HETATM   21  O3  UNL     1      15.642  19.948  36.519  1.00  0.00    -0.269 OA
ENDBRANCH   2  19
BRANCH   9  22
HETATM   22  N5  UNL     1      20.574  19.496  38.182  1.00  0.00    -0.384 N 
ATOM     23  H52 UNL     1      20.826  19.556  37.196  1.00  0.00     0.157 HD
ATOM     24  H51 UNL     1      21.195  19.051  38.859  1.00  0.00     0.157 HD
ENDBRANCH   9  22
TORSDOF 5
ENDMDL
MODEL 3
REMARK VINA RESULT: -6.977031658      3.992      6.405
REMARK  5 active torsions:
REMARK  status: ('A' for Active; 'I' for Inactive)
REMARK    1  A    between atoms: C2_2  and  C3_4 
REMARK    2  A    between atoms: C3_4  and  N1_6 
REMARK       I    between atoms: N1_6  and  C5_8 
REMARK    3  A    between atoms: C5_8  and  C6_10 
REMARK    4  A    between atoms: C7_11  and  C8_12 
REMARK    5  A    between atoms: C10_21  and  N5_22 
ROOT
HETATM    1  C6  UNL     1      19.848  20.828  39.577  1.00  0.00     0.107 A 
HETATM    2  C7  UNL     1      21.052  21.383  39.941  1.00  0.00     0.121 A 
HETATM    3  N3  UNL     1      22.149  20.938  39.227  1.00  0.00    -0.303 N 
ATOM      4  H3  UNL     1      23.069  21.317  39.451  1.00  0.00     0.171 HD
HETATM    5  C9  UNL     1      22.045  20.035  38.262  1.00  0.00     0.326 A 
HETATM    6  O4  UNL     1      23.078  19.640  37.618  1.00  0.00    -0.247 OA
HETATM    7  N4  UNL     1      20.878  19.483  37.901  1.00  0.00    -0.294 N 
ATOM      8  H4  UNL     1      20.830  18.789  37.154  1.00  0.00     0.172 HD
HETATM    9  C10 UNL     1      19.783  19.871  38.548  1.00  0.00     0.121 A 
ENDROOT
BRANCH   1  10
HETATM   10  C5  UNL     1      18.611  21.314  40.169  1.00  0.00     0.258 C 
HETATM   11  N1  UNL     1      18.104  22.588  39.841  1.00  0.00    -0.346 N 
ATOM     12  H1  UNL     1      18.631  23.154  39.175  1.00  0.00     0.163 HD
HETATM   13  O2  UNL     1      17.915  20.661  40.986  1.00  0.00    -0.267 OA
BRANCH  11  14
HETATM   14  C3  UNL     1      16.886  23.145  40.388  1.00  0.00     0.150 C 
HETATM   15  C4  UNL     1      15.877  23.457  39.298  1.00  0.00     0.040 C 
BRANCH  14  16
HETATM   16  C2  UNL     1      17.115  24.374  41.180  1.00  0.00     0.145 C 
HETATM   17  C1  UNL     1      18.478  24.784  41.579  1.00  0.00     0.093 C 
HETATM   18  O1  UNL     1      16.174  25.053  41.510  1.00  0.00    -0.296 OA
ENDBRANCH  14  16
ENDBRANCH  11  14
ENDBRANCH   1  10
BRANCH   2  19
HETATM   19  C8  UNL     1      21.279  22.290  41.034  1.00  0.00     0.282 C 
HETATM   20  N2  UNL     1      21.220  21.984  42.391  1.00  0.00    -0.056 NA
HETATM   21  O3  UNL     1      21.573  23.503  40.751  1.00  0.00    -0.269 OA
ENDBRANCH   2  19
BRANCH   9  22
HETATM   22  N5  UNL     1      18.644  19.385  38.219  1.00  0.00    -0.384 N 
ATOM     23  H52 UNL     1      17.830  19.562  38.807  1.00  0.00     0.157 HD
ATOM     24  H51 UNL     1      18.573  18.811  37.379  1.00  0.00     0.157 HD
ENDBRANCH   9  22
TORSDOF 5
ENDMDL
MODEL 4
REMARK VINA RESULT: -6.956463630      2.144      5.827
REMARK  5 active torsions:
REMARK  status: ('A' for Active; 'I' for Inactive)
REMARK    1  A    between atoms: C2_2  and  C3_4 
REMARK    2  A    between atoms: C3_4  and  N1_6 
REMARK       I    between atoms: N1_6  and  C5_8 
REMARK    3  A    between atoms: C5_8  and  C6_10 
REMARK    4  A    between atoms: C7_11  and  C8_12 
REMARK    5  A    between atoms: C10_21  and  N5_22 
ROOT
HETATM    1  C6  UNL     1      18.233  19.963  35.821  1.00  0.00     0.107 A 
HETATM    2  C7  UNL     1      16.867  20.047  35.955  1.00  0.00     0.121 A 
HETATM    3  N3  UNL     1      16.136  19.521  34.906  1.00  0.00    -0.303 N 
ATOM      4  H3  UNL     1      15.118  19.552  34.950  1.00  0.00     0.171 HD
HETATM    5  C9  UNL     1      16.715  18.977  33.844  1.00  0.00     0.326 A 
HETATM    6  O4  UNL     1      16.014  18.498  32.886  1.00  0.00    -0.247 OA
HETATM    7  N4  UNL     1      18.046  18.893  33.701  1.00  0.00    -0.294 N 
ATOM      8  H4  UNL     1      18.461  18.470  32.870  1.00  0.00     0.172 HD
HETATM    9  C10 UNL     1      18.806  19.380  34.677  1.00  0.00     0.121 A 
ENDROOT
BRANCH   1  10
HETATM   10  C5  UNL     1      19.100  20.366  36.918  1.00  0.00     0.258 C 
HETATM   11  N1  UNL     1      19.413  19.468  37.960  1.00  0.00    -0.346 N 
ATOM     12  H1  UNL     1      19.014  18.529  37.916  1.00  0.00     0.163 HD
HETATM   13  O2  UNL     1      19.626  21.502  37.022  1.00  0.00    -0.267 OA
BRANCH  11  14
HETATM   14  C3  UNL     1      20.262  19.792  39.086  1.00  0.00     0.150 C 
HETATM   15  C4  UNL     1      19.579  20.752  40.041  1.00  0.00     0.040 C 
BRANCH  14  16
HETATM   16  C2  UNL     1      21.561  20.375  38.683  1.00  0.00     0.145 C 
HETATM   17  C1  UNL     1      22.446  19.683  37.722  1.00  0.00     0.093 C 
HETATM   18  O1  UNL     1      21.906  21.434  39.146  1.00  0.00    -0.296 OA
ENDBRANCH  14  16
ENDBRANCH  11  14
ENDBRANCH   1  10
BRANCH   2  19
HETATM   19  C8  UNL     1      16.150  20.703  37.015  1.00  0.00     0.282 C 
HETATM   20  N2  UNL     1      15.482  21.922  36.933  1.00  0.00    -0.056 NA
HETATM   21  O3  UNL     1      16.106  20.121  38.154  1.00  0.00    -0.269 OA
ENDBRANCH   2  19
BRANCH   9  22
HETATM   22  N5  UNL     1      20.081  19.299  34.590  1.00  0.00    -0.384 N 
ATOM     23  H52 UNL     1      20.546  18.411  34.777  1.00  0.00     0.157 HD
ATOM     24  H51 UNL     1      20.617  20.134  34.352  1.00  0.00     0.157 HD
ENDBRANCH   9  22
TORSDOF 5
ENDMDL
MODEL 5
REMARK VINA RESULT: -6.934220463      2.207      5.994
REMARK  5 active torsions:
REMARK  status: ('A' for Active; 'I' for Inactive)
REMARK    1  A    between atoms: C2_2  and  C3_4 
REMARK    2  A    between atoms: C3_4  and  N1_6 
REMARK       I    between atoms: N1_6  and  C5_8 
REMARK    3  A    between atoms: C5_8  and  C6_10 
REMARK    4  A    between atoms: C7_11  and  C8_12 
REMARK    5  A    between atoms: C10_21  and  N5_22 
ROOT
HETATM    1  C6  UNL     1      18.368  20.106  35.528  1.00  0.00     0.107 A 
HETATM    2  C7  UNL     1      17.011  20.242  35.708  1.00  0.00     0.121 A 
HETATM    3  N3  UNL     1      16.222  19.558  34.803  1.00  0.00    -0.303 N 
ATOM      4  H3  UNL     1      15.208  19.619  34.889  1.00  0.00     0.171 HD
HETATM    5  C9  UNL     1      16.740  18.825  33.827  1.00  0.00     0.326 A 
HETATM    6  O4  UNL     1      15.985  18.203  33.002  1.00  0.00    -0.247 OA
HETATM    7  N4  UNL     1      18.060  18.687  33.638  1.00  0.00    -0.294 N 
ATOM      8  H4  UNL     1      18.428  18.117  32.876  1.00  0.00     0.172 HD
HETATM    9  C10 UNL     1      18.875  19.320  34.477  1.00  0.00     0.121 A 
ENDROOT
BRANCH   1  10
HETATM   10  C5  UNL     1      19.294  20.674  36.496  1.00  0.00     0.258 C 
HETATM   11  N1  UNL     1      20.144  19.844  37.256  1.00  0.00    -0.346 N 
ATOM     12  H1  UNL     1      20.090  18.837  37.102  1.00  0.00     0.163 HD
HETATM   13  O2  UNL     1      19.413  21.904  36.722  1.00  0.00    -0.267 OA
BRANCH  11  14
HETATM   14  C3  UNL     1      21.089  20.329  38.239  1.00  0.00     0.150 C 
HETATM   15  C4  UNL     1      22.497  19.850  37.944  1.00  0.00     0.040 C 
BRANCH  14  16
HETATM   16  C2  UNL     1      20.739  19.935  39.622  1.00  0.00     0.145 C 
HETATM   17  C1  UNL     1      21.560  20.370  40.772  1.00  0.00     0.093 C 
HETATM   18  O1  UNL     1      19.769  19.246  39.817  1.00  0.00    -0.296 OA
ENDBRANCH  14  16
ENDBRANCH  11  14
ENDBRANCH   1  10
BRANCH   2  19
HETATM   19  C8  UNL     1      16.358  21.089  36.670  1.00  0.00     0.282 C 
HETATM   20  N2  UNL     1      15.966  20.731  37.958  1.00  0.00    -0.056 NA
HETATM   21  O3  UNL     1      16.109  22.296  36.329  1.00  0.00    -0.269 OA
ENDBRANCH   2  19
BRANCH   9  22
HETATM   22  N5  UNL     1      20.143  19.197  34.347  1.00  0.00    -0.384 N 
ATOM     23  H52 UNL     1      20.521  18.579  33.629  1.00  0.00     0.157 HD
ATOM     24  H51 UNL     1      20.759  19.709  34.979  1.00  0.00     0.157 HD
ENDBRANCH   9  22
TORSDOF 5
ENDMDL
