MODEL 1
REMARK VINA RESULT: -8.427750959      0.000      0.000
REMARK  15 active torsions:
REMARK  status: ('A' for Active; 'I' for Inactive)
REMARK    1  A    between atoms: C2_2  and  C3_3 
REMARK    2  A    between atoms: C3_3  and  C4_4 
REMARK    3  A    between atoms: C3_3  and  C25_36 
REMARK    4  A    between atoms: C5_5  and  C6_6 
REMARK    5  A    between atoms: C10_12  and  C11_13 
REMARK    6  A    between atoms: C13_15  and  C14_16 
REMARK    7  A    between atoms: C14_16  and  O3_17 
REMARK    8  A    between atoms: C14_16  and  C15_19 
REMARK    9  A    between atoms: C15_19  and  S1_20 
REMARK   10  A    between atoms: S1_20  and  C16_21 
REMARK   11  A    between atoms: N2_26  and  C19_27 
REMARK   12  A    between atoms: C19_27  and  C20_28 
REMARK   13  A    between atoms: C24_33  and  O5_34 
REMARK   14  A    between atoms: C25_36  and  C26_37 
REMARK   15  A    between atoms: C25_36  and  C30_41 
ROOT
HETATM    1  C6  UNL     1      19.608  47.424  -2.712  1.00  0.00     0.137 C 
HETATM    2  C7  UNL     1      18.767  48.556  -2.342  1.00  0.00     0.269 C 
HETATM    3  O1  UNL     1      18.221  49.244  -3.237  1.00  0.00    -0.264 OA
HETATM    4  O2  UNL     1      18.522  48.936  -1.029  1.00  0.00    -0.315 OA
HETATM    5  C8  UNL     1      18.642  48.004  -0.012  1.00  0.00     0.138 C 
HETATM    6  C9  UNL     1      17.300  47.380   0.311  1.00  0.00     0.041 C 
HETATM    7  C10 UNL     1      19.714  46.989  -0.207  1.00  0.00     0.073 C 
HETATM    8  C24 UNL     1      19.977  46.520  -1.587  1.00  0.00     0.146 C 
ENDROOT
BRANCH   7   9
HETATM    9  C11 UNL     1      20.972  47.302   0.574  1.00  0.00    -0.076 C 
HETATM   10  C12 UNL     1      22.262  46.798   0.029  1.00  0.00     0.044 C 
HETATM   11  C13 UNL     1      20.926  47.997   1.697  1.00  0.00     0.008 C 
BRANCH  11  12
HETATM   12  C14 UNL     1      22.039  48.383   2.567  1.00  0.00     0.151 C 
BRANCH  12  13
HETATM   13  O3  UNL     1      22.971  49.142   1.869  1.00  0.00    -0.391 OA
ATOM     14  H3  UNL     1      23.853  48.946   2.161  1.00  0.00     0.210 HD
ENDBRANCH  12  13
BRANCH  12  15
HETATM   15  C15 UNL     1      21.534  49.223   3.734  1.00  0.00     0.118 C 
BRANCH  15  16
HETATM   16  S1  UNL     1      22.449  48.932   5.243  1.00  0.00    -0.091 SA
BRANCH  16  17
HETATM   17  C16 UNL     1      22.623  50.338   6.296  1.00  0.00     0.146 A 
HETATM   18  N1  UNL     1      22.368  50.287   7.643  1.00  0.00    -0.345 N 
HETATM   19  C17 UNL     1      22.536  51.489   8.182  1.00  0.00     0.107 A 
ATOM     20  H1  UNL     1      22.090  49.449   8.155  1.00  0.00     0.167 HD
HETATM   21  C18 UNL     1      22.905  52.330   7.176  1.00  0.00     0.110 A 
HETATM   22  N2  UNL     1      22.951  51.596   6.023  1.00  0.00    -0.330 N 
BRANCH  22  23
HETATM   23  C19 UNL     1      23.302  52.167   4.756  1.00  0.00     0.195 C 
BRANCH  23  24
HETATM   24  C20 UNL     1      24.716  51.959   4.386  1.00  0.00     0.070 A 
HETATM   25  C21 UNL     1      25.259  51.015   3.560  1.00  0.00     0.036 A 
HETATM   26  C22 UNL     1      26.624  51.223   3.524  1.00  0.00     0.027 A 
HETATM   27  C23 UNL     1      26.866  52.298   4.336  1.00  0.00     0.142 A 
HETATM   28  O4  UNL     1      25.721  52.699   4.820  1.00  0.00    -0.325 OA
ENDBRANCH  23  24
ENDBRANCH  22  23
ENDBRANCH  16  17
ENDBRANCH  15  16
ENDBRANCH  12  15
ENDBRANCH  11  12
ENDBRANCH   7   9
BRANCH   8  29
HETATM   29  O5  UNL     1      21.359  46.212  -1.667  1.00  0.00    -0.394 OA
ATOM     30  H5  UNL     1      21.706  46.097  -0.790  1.00  0.00     0.210 HD
ENDBRANCH   8  29
BRANCH   1  31
HETATM   31  C5  UNL     1      19.129  46.616  -3.853  1.00  0.00    -0.013 C 
HETATM   32  C4  UNL     1      18.185  45.738  -3.889  1.00  0.00    -0.021 C 
BRANCH  32  33
HETATM   33  C3  UNL     1      17.826  44.983  -5.221  1.00  0.00     0.037 C 
BRANCH  33  34
HETATM   34  C2  UNL     1      16.432  45.330  -5.354  1.00  0.00     0.008 C 
HETATM   35  C1  UNL     1      15.494  44.510  -6.188  1.00  0.00     0.006 C 
ENDBRANCH  33  34
BRANCH  33  36
HETATM   36  C25 UNL     1      18.438  43.654  -4.965  1.00  0.00    -0.065 C 
BRANCH  36  37
HETATM   37  C26 UNL     1      18.002  43.271  -3.603  1.00  0.00     0.006 C 
HETATM   38  C27 UNL     1      17.000  42.854  -2.923  1.00  0.00    -0.087 C 
HETATM   39  C28 UNL     1      17.211  42.633  -1.381  1.00  0.00     0.043 C 
HETATM   40  C29 UNL     1      15.631  42.425  -3.204  1.00  0.00     0.043 C 
ENDBRANCH  36  37
BRANCH  36  41
HETATM   41  C30 UNL     1      19.790  43.298  -5.327  1.00  0.00    -0.027 C 
HETATM   42  C31 UNL     1      20.147  43.667  -6.800  1.00  0.00     0.019 C 
HETATM   43  C32 UNL     1      19.768  41.741  -5.468  1.00  0.00     0.019 C 
HETATM   44  C33 UNL     1      20.962  43.646  -4.521  1.00  0.00     0.019 C 
ENDBRANCH  36  41
ENDBRANCH  33  36
ENDBRANCH  32  33
ENDBRANCH   1  31
TORSDOF 15
ENDMDL
MODEL 2
REMARK VINA RESULT: -8.318809171      2.095      3.370
REMARK  15 active torsions:
REMARK  status: ('A' for Active; 'I' for Inactive)
REMARK    1  A    between atoms: C2_2  and  C3_3 
REMARK    2  A    between atoms: C3_3  and  C4_4 
REMARK    3  A    between atoms: C3_3  and  C25_36 
REMARK    4  A    between atoms: C5_5  and  C6_6 
REMARK    5  A    between atoms: C10_12  and  C11_13 
REMARK    6  A    between atoms: C13_15  and  C14_16 
REMARK    7  A    between atoms: C14_16  and  O3_17 
REMARK    8  A    between atoms: C14_16  and  C15_19 
REMARK    9  A    between atoms: C15_19  and  S1_20 
REMARK   10  A    between atoms: S1_20  and  C16_21 
REMARK   11  A    between atoms: N2_26  and  C19_27 
REMARK   12  A    between atoms: C19_27  and  C20_28 
REMARK   13  A    between atoms: C24_33  and  O5_34 
REMARK   14  A    between atoms: C25_36  and  C26_37 
REMARK   15  A    between atoms: C25_36  and  C30_41 
ROOT
HETATM    1  C6  UNL     1      18.376  45.355  -2.326  1.00  0.00     0.137 C 
HETATM    2  C7  UNL     1      19.685  45.944  -2.583  1.00  0.00     0.269 C 
HETATM    3  O1  UNL     1      20.558  45.276  -3.187  1.00  0.00    -0.264 OA
HETATM    4  O2  UNL     1      20.041  47.228  -2.194  1.00  0.00    -0.315 OA
HETATM    5  C8  UNL     1      19.057  48.180  -1.992  1.00  0.00     0.138 C 
HETATM    6  C9  UNL     1      18.850  49.017  -3.239  1.00  0.00     0.041 C 
HETATM    7  C10 UNL     1      17.779  47.662  -1.432  1.00  0.00     0.073 C 
HETATM    8  C24 UNL     1      17.336  46.314  -1.857  1.00  0.00     0.146 C 
ENDROOT
BRANCH   7   9
HETATM    9  C11 UNL     1      17.648  47.898   0.057  1.00  0.00    -0.076 C 
HETATM   10  C12 UNL     1      16.418  48.584   0.539  1.00  0.00     0.044 C 
HETATM   11  C13 UNL     1      18.591  47.507   0.897  1.00  0.00     0.008 C 
BRANCH  11  12
HETATM   12  C14 UNL     1      18.621  47.657   2.353  1.00  0.00     0.151 C 
BRANCH  12  13
HETATM   13  O3  UNL     1      18.371  46.441   2.980  1.00  0.00    -0.391 OA
ATOM     14  H3  UNL     1      18.876  45.744   2.578  1.00  0.00     0.210 HD
ENDBRANCH  12  13
BRANCH  12  15
HETATM   15  C15 UNL     1      19.993  48.140   2.809  1.00  0.00     0.118 C 
BRANCH  15  16
HETATM   16  S1  UNL     1      19.897  49.407   4.068  1.00  0.00    -0.091 SA
BRANCH  16  17
HETATM   17  C16 UNL     1      21.101  49.279   5.353  1.00  0.00     0.146 A 
HETATM   18  N1  UNL     1      20.765  49.292   6.682  1.00  0.00    -0.345 N 
HETATM   19  C17 UNL     1      21.862  49.224   7.428  1.00  0.00     0.107 A 
ATOM     20  H1  UNL     1      19.813  49.344   7.045  1.00  0.00     0.167 HD
HETATM   21  C18 UNL     1      22.922  49.167   6.575  1.00  0.00     0.110 A 
HETATM   22  N2  UNL     1      22.426  49.202   5.301  1.00  0.00    -0.330 N 
BRANCH  22  23
HETATM   23  C19 UNL     1      23.268  49.164   4.141  1.00  0.00     0.195 C 
BRANCH  23  24
HETATM   24  C20 UNL     1      23.909  50.459   3.835  1.00  0.00     0.070 A 
HETATM   25  C21 UNL     1      25.117  50.701   3.243  1.00  0.00     0.036 A 
HETATM   26  C22 UNL     1      25.283  52.069   3.169  1.00  0.00     0.027 A 
HETATM   27  C23 UNL     1      24.158  52.618   3.725  1.00  0.00     0.142 A 
HETATM   28  O4  UNL     1      23.380  51.639   4.101  1.00  0.00    -0.325 OA
ENDBRANCH  23  24
ENDBRANCH  22  23
ENDBRANCH  16  17
ENDBRANCH  15  16
ENDBRANCH  12  15
ENDBRANCH  11  12
ENDBRANCH   7   9
BRANCH   8  29
HETATM   29  O5  UNL     1      16.629  45.744  -0.768  1.00  0.00    -0.394 OA
ATOM     30  H5  UNL     1      16.724  46.302  -0.005  1.00  0.00     0.210 HD
ENDBRANCH   8  29
BRANCH   1  31
HETATM   31  C5  UNL     1      17.822  44.526  -3.416  1.00  0.00    -0.013 C 
HETATM   32  C4  UNL     1      17.682  44.811  -4.666  1.00  0.00    -0.021 C 
BRANCH  32  33
HETATM   33  C3  UNL     1      17.064  43.774  -5.674  1.00  0.00     0.037 C 
BRANCH  33  34
HETATM   34  C2  UNL     1      16.533  42.797  -4.754  1.00  0.00     0.008 C 
HETATM   35  C1  UNL     1      15.075  42.449  -4.732  1.00  0.00     0.006 C 
ENDBRANCH  33  34
BRANCH  33  36
HETATM   36  C25 UNL     1      18.174  43.632  -6.649  1.00  0.00    -0.065 C 
BRANCH  36  37
HETATM   37  C26 UNL     1      17.528  43.366  -7.954  1.00  0.00     0.006 C 
HETATM   38  C27 UNL     1      16.749  42.557  -8.569  1.00  0.00    -0.087 C 
HETATM   39  C28 UNL     1      16.439  42.859 -10.081  1.00  0.00     0.043 C 
HETATM   40  C29 UNL     1      15.946  41.386  -8.223  1.00  0.00     0.043 C 
ENDBRANCH  36  37
BRANCH  36  41
HETATM   41  C30 UNL     1      19.402  42.917  -6.385  1.00  0.00    -0.027 C 
HETATM   42  C31 UNL     1      20.632  43.858  -6.199  1.00  0.00     0.019 C 
HETATM   43  C32 UNL     1      19.793  42.279  -7.758  1.00  0.00     0.019 C 
HETATM   44  C33 UNL     1      19.526  41.872  -5.367  1.00  0.00     0.019 C 
ENDBRANCH  36  41
ENDBRANCH  33  36
ENDBRANCH  32  33
ENDBRANCH   1  31
TORSDOF 15
ENDMDL
MODEL 3
REMARK VINA RESULT: -8.299612270      4.251     10.484
REMARK  15 active torsions:
REMARK  status: ('A' for Active; 'I' for Inactive)
REMARK    1  A    between atoms: C2_2  and  C3_3 
REMARK    2  A    between atoms: C3_3  and  C4_4 
REMARK    3  A    between atoms: C3_3  and  C25_36 
REMARK    4  A    between atoms: C5_5  and  C6_6 
REMARK    5  A    between atoms: C10_12  and  C11_13 
REMARK    6  A    between atoms: C13_15  and  C14_16 
REMARK    7  A    between atoms: C14_16  and  O3_17 
REMARK    8  A    between atoms: C14_16  and  C15_19 
REMARK    9  A    between atoms: C15_19  and  S1_20 
REMARK   10  A    between atoms: S1_20  and  C16_21 
REMARK   11  A    between atoms: N2_26  and  C19_27 
REMARK   12  A    between atoms: C19_27  and  C20_28 
REMARK   13  A    between atoms: C24_33  and  O5_34 
REMARK   14  A    between atoms: C25_36  and  C26_37 
REMARK   15  A    between atoms: C25_36  and  C30_41 
ROOT
HETATM    1  C6  UNL     1      17.738  48.232  -0.405  1.00  0.00     0.137 C 
HETATM    2  C7  UNL     1      16.765  49.157  -0.973  1.00  0.00     0.269 C 
HETATM    3  O1  UNL     1      15.933  49.722  -0.223  1.00  0.00    -0.264 OA
HETATM    4  O2  UNL     1      16.693  49.464  -2.325  1.00  0.00    -0.315 OA
HETATM    5  C8  UNL     1      17.814  49.310  -3.123  1.00  0.00     0.138 C 
HETATM    6  C9  UNL     1      18.572  50.616  -3.249  1.00  0.00     0.041 C 
HETATM    7  C10 UNL     1      18.698  48.168  -2.761  1.00  0.00     0.073 C 
HETATM    8  C24 UNL     1      18.840  47.835  -1.325  1.00  0.00     0.146 C 
ENDROOT
BRANCH   7   9
HETATM    9  C11 UNL     1      18.487  46.956  -3.642  1.00  0.00    -0.076 C 
HETATM   10  C12 UNL     1      17.093  46.643  -4.059  1.00  0.00     0.044 C 
HETATM   11  C13 UNL     1      19.505  46.205  -4.028  1.00  0.00     0.008 C 
BRANCH  11  12
HETATM   12  C14 UNL     1      19.475  45.009  -4.872  1.00  0.00     0.151 C 
BRANCH  12  13
HETATM   13  O3  UNL     1      20.424  45.096  -5.884  1.00  0.00    -0.391 OA
ATOM     14  H3  UNL     1      20.403  44.322  -6.434  1.00  0.00     0.210 HD
ENDBRANCH  12  13
BRANCH  12  15
HETATM   15  C15 UNL     1      19.790  43.768  -4.045  1.00  0.00     0.118 C 
BRANCH  15  16
HETATM   16  S1  UNL     1      18.380  42.683  -3.859  1.00  0.00    -0.091 SA
BRANCH  16  17
HETATM   17  C16 UNL     1      17.157  43.234  -2.712  1.00  0.00     0.146 A 
HETATM   18  N1  UNL     1      17.476  43.907  -1.561  1.00  0.00    -0.345 N 
HETATM   19  C17 UNL     1      16.373  44.162  -0.865  1.00  0.00     0.107 A 
ATOM     20  H1  UNL     1      18.420  44.173  -1.280  1.00  0.00     0.167 HD
HETATM   21  C18 UNL     1      15.327  43.650  -1.571  1.00  0.00     0.110 A 
HETATM   22  N2  UNL     1      15.837  43.083  -2.707  1.00  0.00    -0.330 N 
BRANCH  22  23
HETATM   23  C19 UNL     1      15.013  42.440  -3.687  1.00  0.00     0.195 C 
BRANCH  23  24
HETATM   24  C20 UNL     1      14.829  43.235  -4.918  1.00  0.00     0.070 A 
HETATM   25  C21 UNL     1      15.255  42.964  -6.188  1.00  0.00     0.036 A 
HETATM   26  C22 UNL     1      14.843  44.001  -7.000  1.00  0.00     0.027 A 
HETATM   27  C23 UNL     1      14.172  44.876  -6.188  1.00  0.00     0.142 A 
HETATM   28  O4  UNL     1      14.187  44.387  -4.977  1.00  0.00    -0.325 OA
ENDBRANCH  23  24
ENDBRANCH  22  23
ENDBRANCH  16  17
ENDBRANCH  15  16
ENDBRANCH  12  15
ENDBRANCH  11  12
ENDBRANCH   7   9
BRANCH   8  29
HETATM   29  O5  UNL     1      19.041  46.434  -1.239  1.00  0.00    -0.394 OA
ATOM     30  H5  UNL     1      19.516  46.233  -0.441  1.00  0.00     0.210 HD
ENDBRANCH   8  29
BRANCH   1  31
HETATM   31  C5  UNL     1      18.307  48.624   0.901  1.00  0.00    -0.013 C 
HETATM   32  C4  UNL     1      19.359  48.177   1.499  1.00  0.00    -0.021 C 
BRANCH  32  33
HETATM   33  C3  UNL     1      19.798  48.737   2.902  1.00  0.00     0.037 C 
BRANCH  33  34
HETATM   34  C2  UNL     1      18.717  49.654   3.170  1.00  0.00     0.008 C 
HETATM   35  C1  UNL     1      18.047  49.709   4.510  1.00  0.00     0.006 C 
ENDBRANCH  33  34
BRANCH  33  36
HETATM   36  C25 UNL     1      21.232  49.030   2.651  1.00  0.00    -0.065 C 
BRANCH  36  37
HETATM   37  C26 UNL     1      21.640  48.119   1.558  1.00  0.00     0.006 C 
HETATM   38  C27 UNL     1      22.514  47.945   0.637  1.00  0.00    -0.087 C 
HETATM   39  C28 UNL     1      22.367  46.667  -0.269  1.00  0.00     0.043 C 
HETATM   40  C29 UNL     1      23.743  48.604   0.201  1.00  0.00     0.043 C 
ENDBRANCH  36  37
BRANCH  36  41
HETATM   41  C30 UNL     1      22.209  49.259   3.690  1.00  0.00    -0.027 C 
HETATM   42  C31 UNL     1      21.721  48.807   5.101  1.00  0.00     0.019 C 
HETATM   43  C32 UNL     1      22.194  50.807   3.916  1.00  0.00     0.019 C 
HETATM   44  C33 UNL     1      23.610  48.847   3.588  1.00  0.00     0.019 C 
ENDBRANCH  36  41
ENDBRANCH  33  36
ENDBRANCH  32  33
ENDBRANCH   1  31
TORSDOF 15
ENDMDL
MODEL 4
REMARK VINA RESULT: -8.226845287      4.776     10.960
REMARK  15 active torsions:
REMARK  status: ('A' for Active; 'I' for Inactive)
REMARK    1  A    between atoms: C2_2  and  C3_3 
REMARK    2  A    between atoms: C3_3  and  C4_4 
REMARK    3  A    between atoms: C3_3  and  C25_36 
REMARK    4  A    between atoms: C5_5  and  C6_6 
REMARK    5  A    between atoms: C10_12  and  C11_13 
REMARK    6  A    between atoms: C13_15  and  C14_16 
REMARK    7  A    between atoms: C14_16  and  O3_17 
REMARK    8  A    between atoms: C14_16  and  C15_19 
REMARK    9  A    between atoms: C15_19  and  S1_20 
REMARK   10  A    between atoms: S1_20  and  C16_21 
REMARK   11  A    between atoms: N2_26  and  C19_27 
REMARK   12  A    between atoms: C19_27  and  C20_28 
REMARK   13  A    between atoms: C24_33  and  O5_34 
REMARK   14  A    between atoms: C25_36  and  C26_37 
REMARK   15  A    between atoms: C25_36  and  C30_41 
ROOT
HETATM    1  C6  UNL     1      17.634  48.624  -0.161  1.00  0.00     0.137 C 
HETATM    2  C7  UNL     1      16.705  49.630  -0.663  1.00  0.00     0.269 C 
HETATM    3  O1  UNL     1      15.947  50.230   0.137  1.00  0.00    -0.264 OA
HETATM    4  O2  UNL     1      16.597  49.977  -2.002  1.00  0.00    -0.315 OA
HETATM    5  C8  UNL     1      17.669  49.769  -2.853  1.00  0.00     0.138 C 
HETATM    6  C9  UNL     1      18.511  51.023  -2.980  1.00  0.00     0.041 C 
HETATM    7  C10 UNL     1      18.486  48.559  -2.559  1.00  0.00     0.073 C 
HETATM    8  C24 UNL     1      18.666  48.178  -1.138  1.00  0.00     0.146 C 
ENDROOT
BRANCH   7   9
HETATM    9  C11 UNL     1      18.154  47.389  -3.459  1.00  0.00    -0.076 C 
HETATM   10  C12 UNL     1      16.752  47.269  -3.942  1.00  0.00     0.044 C 
HETATM   11  C13 UNL     1      19.077  46.507  -3.803  1.00  0.00     0.008 C 
BRANCH  11  12
HETATM   12  C14 UNL     1      18.925  45.327  -4.657  1.00  0.00     0.151 C 
BRANCH  12  13
HETATM   13  O3  UNL     1      20.033  45.169  -5.482  1.00  0.00    -0.391 OA
ATOM     14  H3  UNL     1      20.534  44.402  -5.230  1.00  0.00     0.210 HD
ENDBRANCH  12  13
BRANCH  12  15
HETATM   15  C15 UNL     1      18.794  44.070  -3.807  1.00  0.00     0.118 C 
BRANCH  15  16
HETATM   16  S1  UNL     1      17.135  43.403  -3.807  1.00  0.00    -0.091 SA
BRANCH  16  17
HETATM   17  C16 UNL     1      16.169  43.796  -5.231  1.00  0.00     0.146 A 
HETATM   18  N1  UNL     1      15.269  44.831  -5.249  1.00  0.00    -0.345 N 
HETATM   19  C17 UNL     1      14.653  44.875  -6.425  1.00  0.00     0.107 A 
ATOM     20  H1  UNL     1      15.098  45.471  -4.474  1.00  0.00     0.167 HD
HETATM   21  C18 UNL     1      15.158  43.860  -7.179  1.00  0.00     0.110 A 
HETATM   22  N2  UNL     1      16.091  43.210  -6.421  1.00  0.00    -0.330 N 
BRANCH  22  23
HETATM   23  C19 UNL     1      16.825  42.076  -6.901  1.00  0.00     0.195 C 
BRANCH  23  24
HETATM   24  C20 UNL     1      18.275  42.324  -7.031  1.00  0.00     0.070 A 
HETATM   25  C21 UNL     1      19.318  41.630  -6.483  1.00  0.00     0.036 A 
HETATM   26  C22 UNL     1      20.488  42.239  -6.891  1.00  0.00     0.027 A 
HETATM   27  C23 UNL     1      20.113  43.292  -7.682  1.00  0.00     0.142 A 
HETATM   28  O4  UNL     1      18.808  43.304  -7.738  1.00  0.00    -0.325 OA
ENDBRANCH  23  24
ENDBRANCH  22  23
ENDBRANCH  16  17
ENDBRANCH  15  16
ENDBRANCH  12  15
ENDBRANCH  11  12
ENDBRANCH   7   9
BRANCH   8  29
HETATM   29  O5  UNL     1      18.773  46.764  -1.096  1.00  0.00    -0.394 OA
ATOM     30  H5  UNL     1      19.559  46.523  -0.621  1.00  0.00     0.210 HD
ENDBRANCH   8  29
BRANCH   1  31
HETATM   31  C5  UNL     1      18.284  48.941   1.128  1.00  0.00    -0.013 C 
HETATM   32  C4  UNL     1      19.258  48.336   1.720  1.00  0.00    -0.021 C 
BRANCH  32  33
HETATM   33  C3  UNL     1      19.809  48.841   3.103  1.00  0.00     0.037 C 
BRANCH  33  34
HETATM   34  C2  UNL     1      18.784  49.788   3.466  1.00  0.00     0.008 C 
HETATM   35  C1  UNL     1      18.339  49.960   4.888  1.00  0.00     0.006 C 
ENDBRANCH  33  34
BRANCH  33  36
HETATM   36  C25 UNL     1      21.233  49.089   2.764  1.00  0.00    -0.065 C 
BRANCH  36  37
HETATM   37  C26 UNL     1      21.549  48.156   1.658  1.00  0.00     0.006 C 
HETATM   38  C27 UNL     1      22.376  47.933   0.706  1.00  0.00    -0.087 C 
HETATM   39  C28 UNL     1      22.124  46.665  -0.190  1.00  0.00     0.043 C 
HETATM   40  C29 UNL     1      23.621  48.524   0.221  1.00  0.00     0.043 C 
ENDBRANCH  36  37
BRANCH  36  41
HETATM   41  C30 UNL     1      22.277  49.300   3.740  1.00  0.00    -0.027 C 
HETATM   42  C31 UNL     1      21.872  48.850   5.178  1.00  0.00     0.019 C 
HETATM   43  C32 UNL     1      22.301  50.846   3.970  1.00  0.00     0.019 C 
HETATM   44  C33 UNL     1      23.662  48.866   3.549  1.00  0.00     0.019 C 
ENDBRANCH  36  41
ENDBRANCH  33  36
ENDBRANCH  32  33
ENDBRANCH   1  31
TORSDOF 15
ENDMDL
MODEL 5
REMARK VINA RESULT: -8.220090695      5.125     11.293
REMARK  15 active torsions:
REMARK  status: ('A' for Active; 'I' for Inactive)
REMARK    1  A    between atoms: C2_2  and  C3_3 
REMARK    2  A    between atoms: C3_3  and  C4_4 
REMARK    3  A    between atoms: C3_3  and  C25_36 
REMARK    4  A    between atoms: C5_5  and  C6_6 
REMARK    5  A    between atoms: C10_12  and  C11_13 
REMARK    6  A    between atoms: C13_15  and  C14_16 
REMARK    7  A    between atoms: C14_16  and  O3_17 
REMARK    8  A    between atoms: C14_16  and  C15_19 
REMARK    9  A    between atoms: C15_19  and  S1_20 
REMARK   10  A    between atoms: S1_20  and  C16_21 
REMARK   11  A    between atoms: N2_26  and  C19_27 
REMARK   12  A    between atoms: C19_27  and  C20_28 
REMARK   13  A    between atoms: C24_33  and  O5_34 
REMARK   14  A    between atoms: C25_36  and  C26_37 
REMARK   15  A    between atoms: C25_36  and  C30_41 
ROOT
HETATM    1  C6  UNL     1      20.057  46.265  -0.070  1.00  0.00     0.137 C 
HETATM    2  C7  UNL     1      18.930  46.027   0.824  1.00  0.00     0.269 C 
HETATM    3  O1  UNL     1      19.140  45.796   2.039  1.00  0.00    -0.264 OA
HETATM    4  O2  UNL     1      17.605  46.037   0.412  1.00  0.00    -0.315 OA
HETATM    5  C8  UNL     1      17.246  46.743  -0.723  1.00  0.00     0.138 C 
HETATM    6  C9  UNL     1      16.755  48.131  -0.365  1.00  0.00     0.041 C 
HETATM    7  C10 UNL     1      18.265  46.759  -1.809  1.00  0.00     0.073 C 
HETATM    8  C24 UNL     1      19.693  46.796  -1.414  1.00  0.00     0.146 C 
ENDROOT
BRANCH   7   9
HETATM    9  C11 UNL     1      17.971  45.764  -2.910  1.00  0.00    -0.076 C 
HETATM   10  C12 UNL     1      17.930  46.276  -4.307  1.00  0.00     0.044 C 
HETATM   11  C13 UNL     1      17.758  44.487  -2.640  1.00  0.00     0.008 C 
BRANCH  11  12
HETATM   12  C14 UNL     1      17.462  43.403  -3.579  1.00  0.00     0.151 C 
BRANCH  12  13
HETATM   13  O3  UNL     1      17.594  42.165  -2.960  1.00  0.00    -0.391 OA
ATOM     14  H3  UNL     1      18.392  42.128  -2.446  1.00  0.00     0.210 HD
ENDBRANCH  12  13
BRANCH  12  15
HETATM   15  C15 UNL     1      16.031  43.518  -4.089  1.00  0.00     0.118 C 
BRANCH  15  16
HETATM   16  S1  UNL     1      15.648  42.314  -5.355  1.00  0.00    -0.091 SA
BRANCH  16  17
HETATM   17  C16 UNL     1      16.117  42.775  -6.993  1.00  0.00     0.146 A 
HETATM   18  N1  UNL     1      15.294  43.492  -7.822  1.00  0.00    -0.345 N 
HETATM   19  C17 UNL     1      15.877  43.662  -9.004  1.00  0.00     0.107 A 
ATOM     20  H1  UNL     1      14.371  43.844  -7.569  1.00  0.00     0.167 HD
HETATM   21  C18 UNL     1      17.091  43.049  -8.942  1.00  0.00     0.110 A 
HETATM   22  N2  UNL     1      17.216  42.510  -7.692  1.00  0.00    -0.330 N 
BRANCH  22  23
HETATM   23  C19 UNL     1      18.377  41.780  -7.276  1.00  0.00     0.195 C 
BRANCH  23  24
HETATM   24  C20 UNL     1      19.349  42.597  -6.521  1.00  0.00     0.070 A 
HETATM   25  C21 UNL     1      20.314  42.191  -5.642  1.00  0.00     0.036 A 
HETATM   26  C22 UNL     1      20.974  43.317  -5.192  1.00  0.00     0.027 A 
HETATM   27  C23 UNL     1      20.383  44.380  -5.822  1.00  0.00     0.142 A 
HETATM   28  O4  UNL     1      19.437  43.913  -6.591  1.00  0.00    -0.325 OA
ENDBRANCH  23  24
ENDBRANCH  22  23
ENDBRANCH  16  17
ENDBRANCH  15  16
ENDBRANCH  12  15
ENDBRANCH  11  12
ENDBRANCH   7   9
BRANCH   8  29
HETATM   29  O5  UNL     1      20.419  46.094  -2.408  1.00  0.00    -0.394 OA
ATOM     30  H5  UNL     1      20.060  46.298  -3.263  1.00  0.00     0.210 HD
ENDBRANCH   8  29
BRANCH   1  31
HETATM   31  C5  UNL     1      21.161  47.072   0.492  1.00  0.00    -0.013 C 
HETATM   32  C4  UNL     1      21.105  48.155   1.189  1.00  0.00    -0.021 C 
BRANCH  32  33
HETATM   33  C3  UNL     1      22.413  48.864   1.698  1.00  0.00     0.037 C 
BRANCH  33  34
HETATM   34  C2  UNL     1      23.420  48.032   1.085  1.00  0.00     0.008 C 
HETATM   35  C1  UNL     1      24.279  48.536  -0.036  1.00  0.00     0.006 C 
ENDBRANCH  33  34
BRANCH  33  36
HETATM   36  C25 UNL     1      22.096  49.039   3.138  1.00  0.00    -0.065 C 
BRANCH  36  37
HETATM   37  C26 UNL     1      20.619  49.100   3.217  1.00  0.00     0.006 C 
HETATM   38  C27 UNL     1      19.639  49.294   4.019  1.00  0.00    -0.087 C 
HETATM   39  C28 UNL     1      18.186  49.205   3.424  1.00  0.00     0.043 C 
HETATM   40  C29 UNL     1      19.474  49.676   5.420  1.00  0.00     0.043 C 
ENDBRANCH  36  37
BRANCH  36  41
HETATM   41  C30 UNL     1      22.820  49.914   4.030  1.00  0.00    -0.027 C 
HETATM   42  C31 UNL     1      24.345  49.991   3.710  1.00  0.00     0.019 C 
HETATM   43  C32 UNL     1      22.898  49.131   5.381  1.00  0.00     0.019 C 
HETATM   44  C33 UNL     1      22.396  51.281   4.342  1.00  0.00     0.019 C 
ENDBRANCH  36  41
ENDBRANCH  33  36
ENDBRANCH  32  33
ENDBRANCH   1  31
TORSDOF 15
ENDMDL
