MODEL 1
REMARK VINA RESULT: -6.152616628      0.000      0.000
REMARK  5 active torsions:
REMARK  status: ('A' for Active; 'I' for Inactive)
REMARK    1  A    between atoms: C5_5  and  C6_6 
REMARK    2  A    between atoms: C6_6  and  O1_7 
REMARK    3  A    between atoms: C10_13  and  O3_14 
REMARK    4  A    between atoms: C10_13  and  C11_16 
REMARK    5  A    between atoms: C11_16  and  O4_17 
ROOT
HETATM    1  C1  UNL     1      37.650   2.057   8.445  1.00  0.00     0.047 C 
HETATM    2  C2  UNL     1      36.758   1.116   9.225  1.00  0.00     0.069 C 
HETATM    3  C3  UNL     1      36.239   0.081   8.299  1.00  0.00     0.039 C 
HETATM    4  C4  UNL     1      34.868   0.277   7.793  1.00  0.00     0.010 C 
HETATM    5  C5  UNL     1      34.363   1.662   7.723  1.00  0.00     0.010 C 
HETATM    6  C7  UNL     1      34.930   2.613   8.719  1.00  0.00     0.016 C 
HETATM    7  C8  UNL     1      35.564   1.847   9.830  1.00  0.00     0.044 C 
HETATM    8  C9  UNL     1      35.999   2.670  10.993  1.00  0.00     0.181 C 
HETATM    9  O2  UNL     1      37.330   2.649  11.270  1.00  0.00    -0.331 OA
HETATM   10  C10 UNL     1      37.968   1.454  11.167  1.00  0.00     0.303 C 
HETATM   11  O5  UNL     1      37.429   0.546  10.303  1.00  0.00    -0.320 OA
ENDROOT
BRANCH  10  12
HETATM   12  O3  UNL     1      39.285   1.722  10.723  1.00  0.00    -0.342 OA
ATOM     13  H3  UNL     1      39.263   1.732   9.772  1.00  0.00     0.215 HD
ENDBRANCH  10  12
BRANCH  10  14
HETATM   14  C11 UNL     1      38.112   0.759  12.527  1.00  0.00     0.266 C 
BRANCH  14  15
HETATM   15  O4  UNL     1      38.181  -0.617  12.391  1.00  0.00    -0.393 OA
ATOM     16  H4  UNL     1      37.992  -1.059  13.210  1.00  0.00     0.209 HD
ENDBRANCH  14  15
ENDBRANCH  10  14
BRANCH   5  17
HETATM   17  C6  UNL     1      32.847   1.642   7.935  1.00  0.00     0.168 C 
BRANCH  17  18
HETATM   18  O1  UNL     1      32.493   0.406   8.416  1.00  0.00    -0.400 OA
ATOM     19  H1  UNL     1      32.644   0.395   9.353  1.00  0.00     0.209 HD
ENDBRANCH  17  18
ENDBRANCH   5  17
TORSDOF 5
ENDMDL
MODEL 2
REMARK VINA RESULT: -6.102545183      2.351      3.503
REMARK  5 active torsions:
REMARK  status: ('A' for Active; 'I' for Inactive)
REMARK    1  A    between atoms: C5_5  and  C6_6 
REMARK    2  A    between atoms: C6_6  and  O1_7 
REMARK    3  A    between atoms: C10_13  and  O3_14 
REMARK    4  A    between atoms: C10_13  and  C11_16 
REMARK    5  A    between atoms: C11_16  and  O4_17 
ROOT
HETATM    1  C1  UNL     1      36.357   2.450  11.073  1.00  0.00     0.047 C 
HETATM    2  C2  UNL     1      37.169   3.200  10.041  1.00  0.00     0.069 C 
HETATM    3  C3  UNL     1      36.997   4.655  10.269  1.00  0.00     0.039 C 
HETATM    4  C4  UNL     1      36.034   5.351   9.395  1.00  0.00     0.010 C 
HETATM    5  C5  UNL     1      34.934   4.548   8.825  1.00  0.00     0.010 C 
HETATM    6  C7  UNL     1      35.226   3.104   8.608  1.00  0.00     0.016 C 
HETATM    7  C8  UNL     1      36.701   2.889   8.622  1.00  0.00     0.044 C 
HETATM    8  C9  UNL     1      37.141   1.523   8.223  1.00  0.00     0.181 C 
HETATM    9  O2  UNL     1      37.820   0.819   9.167  1.00  0.00    -0.331 OA
HETATM   10  C10 UNL     1      38.729   1.497   9.915  1.00  0.00     0.303 C 
HETATM   11  O5  UNL     1      38.512   2.834  10.076  1.00  0.00    -0.320 OA
ENDROOT
BRANCH  10  12
HETATM   12  O3  UNL     1      38.724   0.916  11.206  1.00  0.00    -0.342 OA
ATOM     13  H3  UNL     1      37.888   1.128  11.606  1.00  0.00     0.215 HD
ENDBRANCH  10  12
BRANCH  10  14
HETATM   14  C11 UNL     1      40.157   1.329   9.379  1.00  0.00     0.266 C 
BRANCH  14  15
HETATM   15  O4  UNL     1      40.738   0.160   9.841  1.00  0.00    -0.393 OA
ATOM     16  H4  UNL     1      41.466  -0.108   9.292  1.00  0.00     0.209 HD
ENDBRANCH  14  15
ENDBRANCH  10  14
BRANCH   5  17
HETATM   17  C6  UNL     1      34.552   5.138   7.465  1.00  0.00     0.168 C 
BRANCH  17  18
HETATM   18  O1  UNL     1      34.477   6.502   7.589  1.00  0.00    -0.400 OA
ATOM     19  H1  UNL     1      34.959   6.896   6.871  1.00  0.00     0.209 HD
ENDBRANCH  17  18
ENDBRANCH   5  17
TORSDOF 5
ENDMDL
MODEL 3
REMARK VINA RESULT: -5.988814284      3.569      5.488
REMARK  5 active torsions:
REMARK  status: ('A' for Active; 'I' for Inactive)
REMARK    1  A    between atoms: C5_5  and  C6_6 
REMARK    2  A    between atoms: C6_6  and  O1_7 
REMARK    3  A    between atoms: C10_13  and  O3_14 
REMARK    4  A    between atoms: C10_13  and  C11_16 
REMARK    5  A    between atoms: C11_16  and  O4_17 
ROOT
HETATM    1  C1  UNL     1      34.168   4.665   8.798  1.00  0.00     0.047 C 
HETATM    2  C2  UNL     1      35.112   3.662   8.171  1.00  0.00     0.069 C 
HETATM    3  C3  UNL     1      34.623   2.296   8.479  1.00  0.00     0.039 C 
HETATM    4  C4  UNL     1      35.292   1.590   9.588  1.00  0.00     0.010 C 
HETATM    5  C5  UNL     1      35.910   2.418  10.643  1.00  0.00     0.010 C 
HETATM    6  C7  UNL     1      36.394   3.761  10.217  1.00  0.00     0.016 C 
HETATM    7  C8  UNL     1      36.524   3.793   8.732  1.00  0.00     0.044 C 
HETATM    8  C9  UNL     1      37.185   5.011   8.185  1.00  0.00     0.181 C 
HETATM    9  O2  UNL     1      36.429   5.771   7.349  1.00  0.00    -0.331 OA
HETATM   10  C10 UNL     1      35.643   5.117   6.454  1.00  0.00     0.303 C 
HETATM   11  O5  UNL     1      35.238   3.861   6.799  1.00  0.00    -0.320 OA
ENDROOT
BRANCH  10  12
HETATM   12  O3  UNL     1      34.475   5.898   6.277  1.00  0.00    -0.342 OA
ATOM     13  H3  UNL     1      34.064   5.985   7.129  1.00  0.00     0.215 HD
ENDBRANCH  10  12
BRANCH  10  14
HETATM   14  C11 UNL     1      36.302   5.020   5.073  1.00  0.00     0.266 C 
BRANCH  14  15
HETATM   15  O4  UNL     1      36.272   6.234   4.408  1.00  0.00    -0.393 OA
ATOM     16  H4  UNL     1      36.794   6.211   3.615  1.00  0.00     0.209 HD
ENDBRANCH  14  15
ENDBRANCH  10  14
BRANCH   5  17
HETATM   17  C6  UNL     1      37.117   1.666  11.210  1.00  0.00     0.168 C 
BRANCH  17  18
HETATM   18  O1  UNL     1      36.983   0.336  10.901  1.00  0.00    -0.400 OA
ATOM     19  H1  UNL     1      37.629   0.115  10.241  1.00  0.00     0.209 HD
ENDBRANCH  17  18
ENDBRANCH   5  17
TORSDOF 5
ENDMDL
MODEL 4
REMARK VINA RESULT: -5.982244991      2.855      4.508
REMARK  5 active torsions:
REMARK  status: ('A' for Active; 'I' for Inactive)
REMARK    1  A    between atoms: C5_5  and  C6_6 
REMARK    2  A    between atoms: C6_6  and  O1_7 
REMARK    3  A    between atoms: C10_13  and  O3_14 
REMARK    4  A    between atoms: C10_13  and  C11_16 
REMARK    5  A    between atoms: C11_16  and  O4_17 
ROOT
HETATM    1  C1  UNL     1      35.290   0.422   8.924  1.00  0.00     0.047 C 
HETATM    2  C2  UNL     1      34.514   1.529   9.601  1.00  0.00     0.069 C 
HETATM    3  C3  UNL     1      34.558   1.310  11.067  1.00  0.00     0.039 C 
HETATM    4  C4  UNL     1      33.369   0.685  11.676  1.00  0.00     0.010 C 
HETATM    5  C5  UNL     1      32.545  -0.186  10.815  1.00  0.00     0.010 C 
HETATM    6  C7  UNL     1      32.550   0.143   9.362  1.00  0.00     0.016 C 
HETATM    7  C8  UNL     1      33.050   1.534   9.170  1.00  0.00     0.044 C 
HETATM    8  C9  UNL     1      32.923   2.062   7.783  1.00  0.00     0.181 C 
HETATM    9  O2  UNL     1      34.087   2.397   7.167  1.00  0.00    -0.331 OA
HETATM   10  C10 UNL     1      35.029   3.028   7.916  1.00  0.00     0.303 C 
HETATM   11  O5  UNL     1      35.004   2.787   9.258  1.00  0.00    -0.320 OA
ENDROOT
BRANCH  10  12
HETATM   12  O3  UNL     1      36.294   2.605   7.440  1.00  0.00    -0.342 OA
ATOM     13  H3  UNL     1      36.139   2.073   6.668  1.00  0.00     0.215 HD
ENDBRANCH  10  12
BRANCH  10  14
HETATM   14  C11 UNL     1      34.991   4.549   7.726  1.00  0.00     0.266 C 
BRANCH  14  15
HETATM   15  O4  UNL     1      34.170   5.158   8.660  1.00  0.00    -0.393 OA
ATOM     16  H4  UNL     1      34.150   6.101   8.545  1.00  0.00     0.209 HD
ENDBRANCH  14  15
ENDBRANCH  10  14
BRANCH   5  17
HETATM   17  C6  UNL     1      31.091  -0.108  11.288  1.00  0.00     0.168 C 
BRANCH  17  18
HETATM   18  O1  UNL     1      30.986   0.916  12.196  1.00  0.00    -0.400 OA
ATOM     19  H1  UNL     1      30.685   0.554  13.021  1.00  0.00     0.209 HD
ENDBRANCH  17  18
ENDBRANCH   5  17
TORSDOF 5
ENDMDL
MODEL 5
REMARK VINA RESULT: -5.962802392      1.964      2.307
REMARK  5 active torsions:
REMARK  status: ('A' for Active; 'I' for Inactive)
REMARK    1  A    between atoms: C5_5  and  C6_6 
REMARK    2  A    between atoms: C6_6  and  O1_7 
REMARK    3  A    between atoms: C10_13  and  O3_14 
REMARK    4  A    between atoms: C10_13  and  C11_16 
REMARK    5  A    between atoms: C11_16  and  O4_17 
ROOT
HETATM    1  C1  UNL     1      38.202   2.205   8.524  1.00  0.00     0.047 C 
HETATM    2  C2  UNL     1      36.963   2.035   9.375  1.00  0.00     0.069 C 
HETATM    3  C3  UNL     1      35.827   1.679   8.491  1.00  0.00     0.039 C 
HETATM    4  C4  UNL     1      34.907   2.773   8.125  1.00  0.00     0.010 C 
HETATM    5  C5  UNL     1      35.453   4.144   8.126  1.00  0.00     0.010 C 
HETATM    6  C7  UNL     1      36.571   4.400   9.075  1.00  0.00     0.016 C 
HETATM    7  C8  UNL     1      36.602   3.324  10.106  1.00  0.00     0.044 C 
HETATM    8  C9  UNL     1      37.549   3.559  11.232  1.00  0.00     0.181 C 
HETATM    9  O2  UNL     1      38.541   2.641  11.375  1.00  0.00    -0.331 OA
HETATM   10  C10 UNL     1      38.211   1.336  11.193  1.00  0.00     0.303 C 
HETATM   11  O5  UNL     1      37.150   1.083  10.373  1.00  0.00    -0.320 OA
ENDROOT
BRANCH  10  12
HETATM   12  O3  UNL     1      39.339   0.696  10.623  1.00  0.00    -0.342 OA
ATOM     13  H3  UNL     1      39.047  -0.148  10.297  1.00  0.00     0.215 HD
ENDBRANCH  10  12
BRANCH  10  14
HETATM   14  C11 UNL     1      37.942   0.619  12.522  1.00  0.00     0.266 C 
BRANCH  14  15
HETATM   15  O4  UNL     1      38.297  -0.718  12.459  1.00  0.00    -0.393 OA
ATOM     16  H4  UNL     1      39.040  -0.908  13.020  1.00  0.00     0.209 HD
ENDBRANCH  14  15
ENDBRANCH  10  14
BRANCH   5  17
HETATM   17  C6  UNL     1      34.327   5.118   8.486  1.00  0.00     0.168 C 
BRANCH  17  18
HETATM   18  O1  UNL     1      34.337   6.147   7.580  1.00  0.00    -0.400 OA
ATOM     19  H1  UNL     1      33.442   6.426   7.433  1.00  0.00     0.209 HD
ENDBRANCH  17  18
ENDBRANCH   5  17
TORSDOF 5
ENDMDL
