MODEL 1
REMARK VINA RESULT: -5.864517653      0.000      0.000
REMARK  5 active torsions:
REMARK  status: ('A' for Active; 'I' for Inactive)
REMARK    1  A    between atoms: C5_5  and  S1_6 
REMARK    2  A    between atoms: S1_6  and  C6_7 
REMARK    3  A    between atoms: C8_10  and  O2_11 
REMARK    4  A    between atoms: C9_13  and  O3_14 
REMARK    5  A    between atoms: C10_16  and  N1_17 
ROOT
HETATM    1  C1  UNL     1      31.222   0.428  11.584  1.00  0.00     0.102 C 
HETATM    2  C2  UNL     1      32.051   0.562  10.671  1.00  0.00    -0.153 C 
HETATM    3  C3  UNL     1      32.997   0.706   9.605  1.00  0.00    -0.015 C 
HETATM    4  C4  UNL     1      32.634   1.177   8.262  1.00  0.00     0.057 C 
HETATM    5  C5  UNL     1      34.251   0.381   9.874  1.00  0.00     0.062 C 
ENDROOT
BRANCH   5   6
HETATM    6  S1  UNL     1      35.510   0.535   8.583  1.00  0.00    -0.106 SA
BRANCH   6   7
HETATM    7  C6  UNL     1      36.885   1.515   9.261  1.00  0.00     0.220 C 
HETATM    8  O1  UNL     1      37.288   0.953  10.441  1.00  0.00    -0.370 OA
HETATM    9  C7  UNL     1      38.366   1.614  11.014  1.00  0.00     0.203 C 
HETATM   10  C8  UNL     1      39.547   1.760  10.117  1.00  0.00     0.172 C 
HETATM   11  C9  UNL     1      39.108   2.326   8.777  1.00  0.00     0.182 C 
HETATM   12  C10 UNL     1      38.006   1.441   8.229  1.00  0.00     0.253 C 
BRANCH  10  13
HETATM   13  O2  UNL     1      40.212   0.556   9.916  1.00  0.00    -0.391 OA
ATOM     14  H2  UNL     1      41.025   0.504  10.405  1.00  0.00     0.210 HD
ENDBRANCH  10  13
BRANCH  11  15
HETATM   15  O3  UNL     1      38.528   3.577   9.037  1.00  0.00    -0.391 OA
ATOM     16  H3  UNL     1      37.926   3.753   8.323  1.00  0.00     0.210 HD
ENDBRANCH  11  15
BRANCH  12  17
HETATM   17  N1  UNL     1      38.370   0.076   8.082  1.00  0.00    -0.069 N 
ATOM     18  H13 UNL     1      38.650  -0.356   8.963  1.00  0.00     0.275 HD
ATOM     19  H12 UNL     1      37.572  -0.527   7.882  1.00  0.00     0.275 HD
ATOM     20  H11 UNL     1      39.096   0.024   7.367  1.00  0.00     0.275 HD
ENDBRANCH  12  17
ENDBRANCH   6   7
ENDBRANCH   5   6
TORSDOF 5
ENDMDL
MODEL 2
REMARK VINA RESULT: -5.759536052      1.636      2.292
REMARK  5 active torsions:
REMARK  status: ('A' for Active; 'I' for Inactive)
REMARK    1  A    between atoms: C5_5  and  S1_6 
REMARK    2  A    between atoms: S1_6  and  C6_7 
REMARK    3  A    between atoms: C8_10  and  O2_11 
REMARK    4  A    between atoms: C9_13  and  O3_14 
REMARK    5  A    between atoms: C10_16  and  N1_17 
ROOT
HETATM    1  C1  UNL     1      31.079  -0.119  11.604  1.00  0.00     0.102 C 
HETATM    2  C2  UNL     1      31.909   0.250  10.759  1.00  0.00    -0.153 C 
HETATM    3  C3  UNL     1      32.860   0.665   9.771  1.00  0.00    -0.015 C 
HETATM    4  C4  UNL     1      32.477   1.199   8.458  1.00  0.00     0.057 C 
HETATM    5  C5  UNL     1      34.138   0.539  10.086  1.00  0.00     0.062 C 
ENDROOT
BRANCH   5   6
HETATM    6  S1  UNL     1      35.405   1.041   8.895  1.00  0.00    -0.106 SA
BRANCH   6   7
HETATM    7  C6  UNL     1      37.013   1.010   9.746  1.00  0.00     0.220 C 
HETATM    8  O1  UNL     1      37.943   1.630   8.956  1.00  0.00    -0.370 OA
HETATM    9  C7  UNL     1      39.198   1.689   9.545  1.00  0.00     0.203 C 
HETATM   10  C8  UNL     1      39.216   2.315  10.897  1.00  0.00     0.172 C 
HETATM   11  C9  UNL     1      38.146   1.681  11.771  1.00  0.00     0.182 C 
HETATM   12  C10 UNL     1      36.820   1.787  11.044  1.00  0.00     0.253 C 
BRANCH  10  13
HETATM   13  O2  UNL     1      39.018   3.691  10.848  1.00  0.00    -0.391 OA
ATOM     14  H2  UNL     1      39.708   4.139  10.375  1.00  0.00     0.210 HD
ENDBRANCH  10  13
BRANCH  11  15
HETATM   15  O3  UNL     1      38.451   0.314  11.855  1.00  0.00    -0.391 OA
ATOM     16  H3  UNL     1      39.387   0.252  12.011  1.00  0.00     0.210 HD
ENDBRANCH  11  15
BRANCH  12  17
HETATM   17  N1  UNL     1      36.443   3.113  10.704  1.00  0.00    -0.069 N 
ATOM     18  H13 UNL     1      37.130   3.807  10.998  1.00  0.00     0.275 HD
ATOM     19  H12 UNL     1      36.489   3.292   9.700  1.00  0.00     0.275 HD
ATOM     20  H11 UNL     1      35.516   3.282  11.094  1.00  0.00     0.275 HD
ENDBRANCH  12  17
ENDBRANCH   6   7
ENDBRANCH   5   6
TORSDOF 5
ENDMDL
MODEL 3
REMARK VINA RESULT: -5.679862941      3.235      3.909
REMARK  5 active torsions:
REMARK  status: ('A' for Active; 'I' for Inactive)
REMARK    1  A    between atoms: C5_5  and  S1_6 
REMARK    2  A    between atoms: S1_6  and  C6_7 
REMARK    3  A    between atoms: C8_10  and  O2_11 
REMARK    4  A    between atoms: C9_13  and  O3_14 
REMARK    5  A    between atoms: C10_16  and  N1_17 
ROOT
HETATM    1  C1  UNL     1      31.297   0.013  11.607  1.00  0.00     0.102 C 
HETATM    2  C2  UNL     1      32.204   0.321  10.819  1.00  0.00    -0.153 C 
HETATM    3  C3  UNL     1      33.258   0.688   9.921  1.00  0.00    -0.015 C 
HETATM    4  C4  UNL     1      34.682   0.596  10.269  1.00  0.00     0.057 C 
HETATM    5  C5  UNL     1      32.897   1.138   8.731  1.00  0.00     0.062 C 
ENDROOT
BRANCH   5   6
HETATM    6  S1  UNL     1      34.167   1.623   7.536  1.00  0.00    -0.106 SA
BRANCH   6   7
HETATM    7  C6  UNL     1      34.319   3.436   7.590  1.00  0.00     0.220 C 
HETATM    8  O1  UNL     1      34.463   3.827   8.893  1.00  0.00    -0.370 OA
HETATM    9  C7  UNL     1      34.627   5.199   9.030  1.00  0.00     0.203 C 
HETATM   10  C8  UNL     1      35.743   5.770   8.225  1.00  0.00     0.172 C 
HETATM   11  C9  UNL     1      35.635   5.294   6.785  1.00  0.00     0.182 C 
HETATM   12  C10 UNL     1      35.572   3.780   6.793  1.00  0.00     0.253 C 
BRANCH  10  13
HETATM   13  O2  UNL     1      36.992   5.428   8.732  1.00  0.00    -0.391 OA
ATOM     14  H2  UNL     1      37.340   6.092   9.316  1.00  0.00     0.210 HD
ENDBRANCH  10  13
BRANCH  11  15
HETATM   15  O3  UNL     1      34.397   5.746   6.302  1.00  0.00    -0.391 OA
ATOM     16  H3  UNL     1      34.311   5.413   5.417  1.00  0.00     0.210 HD
ENDBRANCH  11  15
BRANCH  12  17
HETATM   17  N1  UNL     1      36.676   3.151   7.428  1.00  0.00    -0.069 N 
ATOM     18  H13 UNL     1      37.413   2.889   6.774  1.00  0.00     0.275 HD
ATOM     19  H12 UNL     1      37.224   3.796   7.999  1.00  0.00     0.275 HD
ATOM     20  H11 UNL     1      36.318   2.358   7.960  1.00  0.00     0.275 HD
ENDBRANCH  12  17
ENDBRANCH   6   7
ENDBRANCH   5   6
TORSDOF 5
ENDMDL
MODEL 4
REMARK VINA RESULT: -5.631031875      2.888      5.771
REMARK  5 active torsions:
REMARK  status: ('A' for Active; 'I' for Inactive)
REMARK    1  A    between atoms: C5_5  and  S1_6 
REMARK    2  A    between atoms: S1_6  and  C6_7 
REMARK    3  A    between atoms: C8_10  and  O2_11 
REMARK    4  A    between atoms: C9_13  and  O3_14 
REMARK    5  A    between atoms: C10_16  and  N1_17 
ROOT
HETATM    1  C1  UNL     1      38.429   5.442  12.961  1.00  0.00     0.102 C 
HETATM    2  C2  UNL     1      38.236   4.404  12.309  1.00  0.00    -0.153 C 
HETATM    3  C3  UNL     1      38.023   3.214  11.541  1.00  0.00    -0.015 C 
HETATM    4  C4  UNL     1      39.111   2.452  10.915  1.00  0.00     0.057 C 
HETATM    5  C5  UNL     1      36.770   2.812  11.402  1.00  0.00     0.062 C 
ENDROOT
BRANCH   5   6
HETATM    6  S1  UNL     1      36.413   1.316  10.448  1.00  0.00    -0.106 SA
BRANCH   6   7
HETATM    7  C6  UNL     1      34.763   1.510   9.704  1.00  0.00     0.220 C 
HETATM    8  O1  UNL     1      34.720   2.701   9.032  1.00  0.00    -0.370 OA
HETATM    9  C7  UNL     1      33.505   2.917   8.395  1.00  0.00     0.203 C 
HETATM   10  C8  UNL     1      33.089   1.823   7.473  1.00  0.00     0.172 C 
HETATM   11  C9  UNL     1      33.191   0.484   8.185  1.00  0.00     0.182 C 
HETATM   12  C10 UNL     1      34.598   0.347   8.732  1.00  0.00     0.253 C 
BRANCH  10  13
HETATM   13  O2  UNL     1      33.852   1.788   6.312  1.00  0.00    -0.391 OA
ATOM     14  H2  UNL     1      33.325   1.638   5.536  1.00  0.00     0.210 HD
ENDBRANCH  10  13
BRANCH  11  15
HETATM   15  O3  UNL     1      32.332   0.550   9.294  1.00  0.00    -0.391 OA
ATOM     16  H3  UNL     1      32.022  -0.334   9.452  1.00  0.00     0.210 HD
ENDBRANCH  11  15
BRANCH  12  17
HETATM   17  N1  UNL     1      35.620   0.452   7.752  1.00  0.00    -0.069 N 
ATOM     18  H13 UNL     1      35.269   0.763   6.846  1.00  0.00     0.275 HD
ATOM     19  H12 UNL     1      36.256   1.230   7.926  1.00  0.00     0.275 HD
ATOM     20  H11 UNL     1      36.098  -0.448   7.704  1.00  0.00     0.275 HD
ENDBRANCH  12  17
ENDBRANCH   6   7
ENDBRANCH   5   6
TORSDOF 5
ENDMDL
MODEL 5
REMARK VINA RESULT: -5.605962443      3.320      4.218
REMARK  5 active torsions:
REMARK  status: ('A' for Active; 'I' for Inactive)
REMARK    1  A    between atoms: C5_5  and  S1_6 
REMARK    2  A    between atoms: S1_6  and  C6_7 
REMARK    3  A    between atoms: C8_10  and  O2_11 
REMARK    4  A    between atoms: C9_13  and  O3_14 
REMARK    5  A    between atoms: C10_16  and  N1_17 
ROOT
HETATM    1  C1  UNL     1      31.872   0.017  11.496  1.00  0.00     0.102 C 
HETATM    2  C2  UNL     1      32.625   0.286  10.548  1.00  0.00    -0.153 C 
HETATM    3  C3  UNL     1      33.496   0.579   9.448  1.00  0.00    -0.015 C 
HETATM    4  C4  UNL     1      33.171   0.252   8.054  1.00  0.00     0.057 C 
HETATM    5  C5  UNL     1      34.646   1.165   9.739  1.00  0.00     0.062 C 
ENDROOT
BRANCH   5   6
HETATM    6  S1  UNL     1      35.803   1.571   8.408  1.00  0.00    -0.106 SA
BRANCH   6   7
HETATM    7  C6  UNL     1      35.987   3.381   8.363  1.00  0.00     0.220 C 
HETATM    8  O1  UNL     1      36.568   3.736   7.176  1.00  0.00    -0.370 OA
HETATM    9  C7  UNL     1      36.712   5.110   7.035  1.00  0.00     0.203 C 
HETATM   10  C8  UNL     1      35.451   5.883   7.209  1.00  0.00     0.172 C 
HETATM   11  C9  UNL     1      34.759   5.457   8.494  1.00  0.00     0.182 C 
HETATM   12  C10 UNL     1      34.576   3.953   8.454  1.00  0.00     0.253 C 
BRANCH  10  13
HETATM   13  O2  UNL     1      34.578   5.724   6.139  1.00  0.00    -0.391 OA
ATOM     14  H2  UNL     1      33.905   6.394   6.116  1.00  0.00     0.210 HD
ENDBRANCH  10  13
BRANCH  11  15
HETATM   15  O3  UNL     1      35.653   5.726   9.542  1.00  0.00    -0.391 OA
ATOM     16  H3  UNL     1      35.758   4.916  10.027  1.00  0.00     0.210 HD
ENDBRANCH  11  15
BRANCH  12  17
HETATM   17  N1  UNL     1      33.845   3.482   7.331  1.00  0.00    -0.069 N 
ATOM     18  H13 UNL     1      34.122   2.543   7.044  1.00  0.00     0.275 HD
ATOM     19  H12 UNL     1      32.870   3.274   7.552  1.00  0.00     0.275 HD
ATOM     20  H11 UNL     1      33.944   4.170   6.585  1.00  0.00     0.275 HD
ENDBRANCH  12  17
ENDBRANCH   6   7
ENDBRANCH   5   6
TORSDOF 5
ENDMDL
