MODEL 1
REMARK VINA RESULT: -5.784798446      0.000      0.000
REMARK  5 active torsions:
REMARK  status: ('A' for Active; 'I' for Inactive)
REMARK    1  A    between atoms: O1_2  and  C2_3 
REMARK    2  A    between atoms: C5_7  and  C6_8 
REMARK    3  A    between atoms: C8_10  and  N1_11 
REMARK    4  A    between atoms: C9_15  and  O3_16 
REMARK    5  A    between atoms: C11_19  and  O4_20 
ROOT
HETATM    1  C6  UNL     1      35.672   1.719   9.504  1.00  0.00     0.048 C 
HETATM    2  C7  UNL     1      34.490   0.944   9.996  1.00  0.00     0.045 C 
HETATM    3  C8  UNL     1      33.266   1.379   9.233  1.00  0.00     0.212 C 
HETATM    4  C9  UNL     1      33.618   2.087   7.952  1.00  0.00     0.151 C 
HETATM    5  C10 UNL     1      34.692   1.315   7.229  1.00  0.00     0.066 C 
HETATM    6  C11 UNL     1      35.946   1.387   8.040  1.00  0.00     0.127 C 
ENDROOT
BRANCH   1   7
HETATM    7  C5  UNL     1      36.936   1.416  10.261  1.00  0.00     0.157 C 
HETATM    8  C2  UNL     1      37.539   2.607  10.936  1.00  0.00     0.152 C 
HETATM    9  C3  UNL     1      38.498   1.923  11.922  1.00  0.00     0.061 C 
HETATM   10  C4  UNL     1      37.798   0.617  12.151  1.00  0.00     0.171 C 
HETATM   11  O2  UNL     1      36.716   0.543  11.313  1.00  0.00    -0.383 OA
BRANCH   8  12
HETATM   12  O1  UNL     1      38.250   3.353   9.996  1.00  0.00    -0.388 OA
HETATM   13  C1  UNL     1      39.529   2.842   9.796  1.00  0.00     0.202 C 
ENDBRANCH   8  12
ENDBRANCH   1   7
BRANCH   6  14
HETATM   14  O4  UNL     1      36.840   2.332   7.535  1.00  0.00    -0.395 OA
ATOM     15  H4  UNL     1      37.713   2.111   7.837  1.00  0.00     0.210 HD
ENDBRANCH   6  14
BRANCH   3  16
HETATM   16  N1  UNL     1      32.394   0.258   8.913  1.00  0.00    -0.073 N 
ATOM     17  H13 UNL     1      32.791  -0.623   9.239  1.00  0.00     0.274 HD
ATOM     18  H12 UNL     1      31.547   0.274   9.480  1.00  0.00     0.274 HD
ATOM     19  H11 UNL     1      32.173   0.217   7.918  1.00  0.00     0.274 HD
ENDBRANCH   3  16
BRANCH   4  20
HETATM   20  O3  UNL     1      32.512   2.145   7.107  1.00  0.00    -0.393 OA
ATOM     21  H3  UNL     1      32.696   2.696   6.356  1.00  0.00     0.210 HD
ENDBRANCH   4  20
TORSDOF 5
ENDMDL
MODEL 2
REMARK VINA RESULT: -5.666292917      2.477      5.201
REMARK  5 active torsions:
REMARK  status: ('A' for Active; 'I' for Inactive)
REMARK    1  A    between atoms: O1_2  and  C2_3 
REMARK    2  A    between atoms: C5_7  and  C6_8 
REMARK    3  A    between atoms: C8_10  and  N1_11 
REMARK    4  A    between atoms: C9_15  and  O3_16 
REMARK    5  A    between atoms: C11_19  and  O4_20 
ROOT
HETATM    1  C6  UNL     1      36.062   0.870   9.824  1.00  0.00     0.048 C 
HETATM    2  C7  UNL     1      35.996   2.127  10.633  1.00  0.00     0.045 C 
HETATM    3  C8  UNL     1      37.314   2.330  11.333  1.00  0.00     0.212 C 
HETATM    4  C9  UNL     1      38.419   1.523  10.705  1.00  0.00     0.151 C 
HETATM    5  C10 UNL     1      38.359   1.668   9.206  1.00  0.00     0.066 C 
HETATM    6  C11 UNL     1      37.108   1.008   8.722  1.00  0.00     0.127 C 
ENDROOT
BRANCH   1   7
HETATM    7  C5  UNL     1      34.762   0.532   9.147  1.00  0.00     0.157 C 
HETATM    8  C2  UNL     1      33.550   0.946   9.921  1.00  0.00     0.152 C 
HETATM    9  C3  UNL     1      32.472   0.871   8.830  1.00  0.00     0.061 C 
HETATM   10  C4  UNL     1      33.284   1.145   7.599  1.00  0.00     0.171 C 
HETATM   11  O2  UNL     1      34.607   1.209   7.949  1.00  0.00    -0.383 OA
BRANCH   8  12
HETATM   12  O1  UNL     1      33.304   0.005  10.920  1.00  0.00    -0.388 OA
HETATM   13  C1  UNL     1      31.981   0.046  11.350  1.00  0.00     0.202 C 
ENDBRANCH   8  12
ENDBRANCH   1   7
BRANCH   6  14
HETATM   14  O4  UNL     1      37.358  -0.258   8.192  1.00  0.00    -0.395 OA
ATOM     15  H4  UNL     1      37.998  -0.171   7.495  1.00  0.00     0.210 HD
ENDBRANCH   6  14
BRANCH   3  16
HETATM   16  N1  UNL     1      37.718   3.729  11.345  1.00  0.00    -0.073 N 
ATOM     17  H13 UNL     1      38.024   4.032  10.421  1.00  0.00     0.274 HD
ATOM     18  H12 UNL     1      36.913   4.345  11.459  1.00  0.00     0.274 HD
ATOM     19  H11 UNL     1      38.430   3.916  12.050  1.00  0.00     0.274 HD
ENDBRANCH   3  16
BRANCH   4  20
HETATM   20  O3  UNL     1      39.663   1.997  11.115  1.00  0.00    -0.393 OA
ATOM     21  H3  UNL     1      39.602   2.388  11.979  1.00  0.00     0.210 HD
ENDBRANCH   4  20
TORSDOF 5
ENDMDL
MODEL 3
REMARK VINA RESULT: -5.458844060      1.670      2.269
REMARK  5 active torsions:
REMARK  status: ('A' for Active; 'I' for Inactive)
REMARK    1  A    between atoms: O1_2  and  C2_3 
REMARK    2  A    between atoms: C5_7  and  C6_8 
REMARK    3  A    between atoms: C8_10  and  N1_11 
REMARK    4  A    between atoms: C9_15  and  O3_16 
REMARK    5  A    between atoms: C11_19  and  O4_20 
ROOT
HETATM    1  C6  UNL     1      35.677   1.031   9.024  1.00  0.00     0.048 C 
HETATM    2  C7  UNL     1      35.898   2.283   8.234  1.00  0.00     0.045 C 
HETATM    3  C8  UNL     1      34.745   2.474   7.284  1.00  0.00     0.212 C 
HETATM    4  C9  UNL     1      33.540   1.666   7.686  1.00  0.00     0.151 C 
HETATM    5  C10 UNL     1      33.300   1.823   9.165  1.00  0.00     0.066 C 
HETATM    6  C11 UNL     1      34.432   1.173   9.895  1.00  0.00     0.127 C 
ENDROOT
BRANCH   1   7
HETATM    7  C5  UNL     1      36.817   0.706   9.950  1.00  0.00     0.157 C 
HETATM    8  C2  UNL     1      37.983   1.635   9.825  1.00  0.00     0.152 C 
HETATM    9  C3  UNL     1      38.738   1.326  11.126  1.00  0.00     0.061 C 
HETATM   10  C4  UNL     1      37.614   0.894  12.019  1.00  0.00     0.171 C 
HETATM   11  O2  UNL     1      36.461   0.837  11.281  1.00  0.00    -0.383 OA
BRANCH   8  12
HETATM   12  O1  UNL     1      38.744   1.267   8.716  1.00  0.00    -0.388 OA
HETATM   13  C1  UNL     1      40.097   1.175   9.028  1.00  0.00     0.202 C 
ENDBRANCH   8  12
ENDBRANCH   1   7
BRANCH   6  14
HETATM   14  O4  UNL     1      34.085  -0.090  10.375  1.00  0.00    -0.395 OA
ATOM     15  H4  UNL     1      34.764  -0.381  10.972  1.00  0.00     0.210 HD
ENDBRANCH   6  14
BRANCH   3  16
HETATM   16  N1  UNL     1      34.347   3.870   7.180  1.00  0.00    -0.073 N 
ATOM     17  H13 UNL     1      33.641   4.000   6.456  1.00  0.00     0.274 HD
ATOM     18  H12 UNL     1      33.802   4.161   7.991  1.00  0.00     0.274 HD
ATOM     19  H11 UNL     1      35.146   4.486   7.032  1.00  0.00     0.274 HD
ENDBRANCH   3  16
BRANCH   4  20
HETATM   20  O3  UNL     1      32.401   2.130   7.032  1.00  0.00    -0.393 OA
ATOM     21  H3  UNL     1      31.617   1.843   7.483  1.00  0.00     0.210 HD
ENDBRANCH   4  20
TORSDOF 5
ENDMDL
MODEL 4
REMARK VINA RESULT: -5.356567112      1.855      2.799
REMARK  5 active torsions:
REMARK  status: ('A' for Active; 'I' for Inactive)
REMARK    1  A    between atoms: O1_2  and  C2_3 
REMARK    2  A    between atoms: C5_7  and  C6_8 
REMARK    3  A    between atoms: C8_10  and  N1_11 
REMARK    4  A    between atoms: C9_15  and  O3_16 
REMARK    5  A    between atoms: C11_19  and  O4_20 
ROOT
HETATM    1  C6  UNL     1      36.291   2.560   9.542  1.00  0.00     0.048 C 
HETATM    2  C7  UNL     1      35.961   3.816   8.800  1.00  0.00     0.045 C 
HETATM    3  C8  UNL     1      35.323   3.456   7.484  1.00  0.00     0.212 C 
HETATM    4  C9  UNL     1      34.800   2.044   7.475  1.00  0.00     0.151 C 
HETATM    5  C10 UNL     1      34.041   1.781   8.750  1.00  0.00     0.066 C 
HETATM    6  C11 UNL     1      35.013   1.801   9.887  1.00  0.00     0.127 C 
ENDROOT
BRANCH   1   7
HETATM    7  C5  UNL     1      37.009   2.810  10.840  1.00  0.00     0.157 C 
HETATM    8  C2  UNL     1      38.412   2.291  10.867  1.00  0.00     0.152 C 
HETATM    9  C3  UNL     1      38.976   3.050  12.077  1.00  0.00     0.061 C 
HETATM   10  C4  UNL     1      38.137   4.292  12.059  1.00  0.00     0.171 C 
HETATM   11  O2  UNL     1      37.176   4.162  11.091  1.00  0.00    -0.383 OA
BRANCH   8  12
HETATM   12  O1  UNL     1      38.386   0.919  11.115  1.00  0.00    -0.388 OA
HETATM   13  C1  UNL     1      38.029   0.642  12.432  1.00  0.00     0.202 C 
ENDBRANCH   8  12
ENDBRANCH   1   7
BRANCH   6  14
HETATM   14  O4  UNL     1      35.362   0.514  10.297  1.00  0.00    -0.395 OA
ATOM     15  H4  UNL     1      34.917   0.329  11.115  1.00  0.00     0.210 HD
ENDBRANCH   6  14
BRANCH   3  16
HETATM   16  N1  UNL     1      34.227   4.352   7.143  1.00  0.00    -0.073 N 
ATOM     17  H13 UNL     1      33.452   3.843   6.719  1.00  0.00     0.274 HD
ATOM     18  H12 UNL     1      33.757   4.697   7.980  1.00  0.00     0.274 HD
ATOM     19  H11 UNL     1      34.534   5.122   6.548  1.00  0.00     0.274 HD
ENDBRANCH   3  16
BRANCH   4  20
HETATM   20  O3  UNL     1      33.910   1.860   6.420  1.00  0.00    -0.393 OA
ATOM     21  H3  UNL     1      33.832   2.655   5.907  1.00  0.00     0.210 HD
ENDBRANCH   4  20
TORSDOF 5
ENDMDL
MODEL 5
REMARK VINA RESULT: -5.350634375      1.463      1.518
REMARK  5 active torsions:
REMARK  status: ('A' for Active; 'I' for Inactive)
REMARK    1  A    between atoms: O1_2  and  C2_3 
REMARK    2  A    between atoms: C5_7  and  C6_8 
REMARK    3  A    between atoms: C8_10  and  N1_11 
REMARK    4  A    between atoms: C9_15  and  O3_16 
REMARK    5  A    between atoms: C11_19  and  O4_20 
ROOT
HETATM    1  C6  UNL     1      36.679   1.637   8.970  1.00  0.00     0.048 C 
HETATM    2  C7  UNL     1      35.568   2.579   9.315  1.00  0.00     0.045 C 
HETATM    3  C8  UNL     1      34.700   2.781   8.100  1.00  0.00     0.212 C 
HETATM    4  C9  UNL     1      34.898   1.696   7.076  1.00  0.00     0.151 C 
HETATM    5  C10 UNL     1      34.896   0.352   7.758  1.00  0.00     0.066 C 
HETATM    6  C11 UNL     1      36.114   0.263   8.621  1.00  0.00     0.127 C 
ENDROOT
BRANCH   1   7
HETATM    7  C5  UNL     1      37.652   1.432  10.097  1.00  0.00     0.157 C 
HETATM    8  C2  UNL     1      37.903   2.660  10.914  1.00  0.00     0.152 C 
HETATM    9  C3  UNL     1      38.548   2.047  12.165  1.00  0.00     0.061 C 
HETATM   10  C4  UNL     1      37.924   0.684  12.176  1.00  0.00     0.171 C 
HETATM   11  O2  UNL     1      37.180   0.530  11.036  1.00  0.00    -0.383 OA
BRANCH   8  12
HETATM   12  O1  UNL     1      38.813   3.476  10.242  1.00  0.00    -0.388 OA
HETATM   13  C1  UNL     1      39.986   2.793   9.935  1.00  0.00     0.202 C 
ENDBRANCH   8  12
ENDBRANCH   1   7
BRANCH   6  14
HETATM   14  O4  UNL     1      37.124  -0.488   8.020  1.00  0.00    -0.395 OA
ATOM     15  H4  UNL     1      37.423  -1.141   8.641  1.00  0.00     0.210 HD
ENDBRANCH   6  14
BRANCH   3  16
HETATM   16  N1  UNL     1      33.286   2.837   8.441  1.00  0.00    -0.073 N 
ATOM     17  H13 UNL     1      32.707   2.506   7.670  1.00  0.00     0.274 HD
ATOM     18  H12 UNL     1      33.045   2.132   9.138  1.00  0.00     0.274 HD
ATOM     19  H11 UNL     1      33.002   3.769   8.744  1.00  0.00     0.274 HD
ENDBRANCH   3  16
BRANCH   4  20
HETATM   20  O3  UNL     1      33.850   1.694   6.159  1.00  0.00    -0.393 OA
ATOM     21  H3  UNL     1      33.283   0.946   6.302  1.00  0.00     0.210 HD
ENDBRANCH   4  20
TORSDOF 5
ENDMDL
