MODEL 1
REMARK VINA RESULT: -6.371595596      0.000      0.000
REMARK  6 active torsions:
REMARK  status: ('A' for Active; 'I' for Inactive)
REMARK    1  A    between atoms: C2_2  and  O2_4 
REMARK    2  A    between atoms: O2_4  and  C3_5 
REMARK    3  A    between atoms: C12_14  and  O3_15 
REMARK    4  A    between atoms: C20_24  and  C22_26 
REMARK    5  A    between atoms: C22_26  and  C23_27 
REMARK    6  A    between atoms: C23_27  and  C24_28 
ROOT
HETATM    1  C3  UNL     1     -21.850 -17.973  11.509  1.00  0.00     0.230 C 
HETATM    2  C4  UNL     1     -22.253 -16.561  11.886  1.00  0.00     0.058 C 
HETATM    3  C5  UNL     1     -21.716 -16.006  13.148  1.00  0.00    -0.011 C 
HETATM    4  C6  UNL     1     -21.154 -14.614  12.747  1.00  0.00     0.010 C 
HETATM    5  C7  UNL     1     -22.761 -15.765  14.177  1.00  0.00     0.049 C 
HETATM    6  C8  UNL     1     -22.770 -16.657  15.376  1.00  0.00     0.111 C 
HETATM    7  C9  UNL     1     -23.246 -15.812  16.572  1.00  0.00     0.054 C 
HETATM    8  C10 UNL     1     -21.498 -17.326  15.693  1.00  0.00     0.016 C 
HETATM    9  C11 UNL     1     -20.875 -18.386  15.350  1.00  0.00     0.033 C 
HETATM   10  C12 UNL     1     -21.031 -19.518  14.483  1.00  0.00     0.070 C 
HETATM   11  C13 UNL     1     -21.142 -19.761  13.057  1.00  0.00     0.079 C 
HETATM   12  C14 UNL     1     -19.772 -20.149  12.521  1.00  0.00     0.046 C 
HETATM   13  C15 UNL     1     -22.093 -20.926  12.726  1.00  0.00     0.072 C 
HETATM   14  C16 UNL     1     -23.087 -19.898  12.490  1.00  0.00     0.048 C 
HETATM   15  C17 UNL     1     -23.893 -20.176  11.242  1.00  0.00     0.043 C 
HETATM   16  C18 UNL     1     -23.984 -19.345  13.554  1.00  0.00     0.003 C 
HETATM   17  C19 UNL     1     -24.454 -19.620  14.678  1.00  0.00     0.012 C 
HETATM   18  C20 UNL     1     -25.363 -18.951  15.697  1.00  0.00     0.111 C 
HETATM   19  C21 UNL     1     -26.701 -18.541  15.287  1.00  0.00     0.054 C 
HETATM   20  O4  UNL     1     -24.650 -17.749  16.111  1.00  0.00    -0.225 OA
HETATM   21  O5  UNL     1     -23.764 -17.537  15.170  1.00  0.00    -0.225 OA
HETATM   22  N2  UNL     1     -21.980 -18.985  12.358  1.00  0.00    -0.360 N 
ENDROOT
BRANCH  18  23
HETATM   23  C22 UNL     1     -25.341 -19.780  16.967  1.00  0.00     0.050 C 
BRANCH  23  24
HETATM   24  C23 UNL     1     -26.506 -19.560  17.846  1.00  0.00     0.047 C 
BRANCH  24  25
HETATM   25  C24 UNL     1     -26.224 -18.742  19.041  1.00  0.00     0.052 C 
HETATM   26  N1  UNL     1     -25.654 -17.599  19.004  1.00  0.00    -0.411 N 
ATOM     27  H12 UNL     1     -25.385 -17.245  18.086  1.00  0.00     0.155 HD
ATOM     28  H11 UNL     1     -25.459 -17.033  19.829  1.00  0.00     0.155 HD
ENDBRANCH  24  25
ENDBRANCH  23  24
ENDBRANCH  18  23
BRANCH   1  29
HETATM   29  O2  UNL     1     -20.521 -17.791  11.005  1.00  0.00    -0.296 OA
BRANCH  29  30
HETATM   30  C2  UNL     1     -20.357 -17.322   9.720  1.00  0.00     0.256 C 
HETATM   31  C1  UNL     1     -19.654 -16.020   9.445  1.00  0.00     0.126 C 
HETATM   32  O1  UNL     1     -20.779 -17.941   8.711  1.00  0.00    -0.266 OA
ENDBRANCH  29  30
ENDBRANCH   1  29
BRANCH  10  33
HETATM   33  O3  UNL     1     -21.087 -20.670  15.134  1.00  0.00    -0.362 OA
ATOM     34  H3  UNL     1     -21.725 -20.671  15.838  1.00  0.00     0.217 HD
ENDBRANCH  10  33
TORSDOF 6
ENDMDL
MODEL 2
REMARK VINA RESULT: -6.190466519      1.076      1.288
REMARK  6 active torsions:
REMARK  status: ('A' for Active; 'I' for Inactive)
REMARK    1  A    between atoms: C2_2  and  O2_4 
REMARK    2  A    between atoms: O2_4  and  C3_5 
REMARK    3  A    between atoms: C12_14  and  O3_15 
REMARK    4  A    between atoms: C20_24  and  C22_26 
REMARK    5  A    between atoms: C22_26  and  C23_27 
REMARK    6  A    between atoms: C23_27  and  C24_28 
ROOT
HETATM    1  C3  UNL     1     -21.832 -17.803  11.425  1.00  0.00     0.230 C 
HETATM    2  C4  UNL     1     -22.288 -16.443  11.916  1.00  0.00     0.058 C 
HETATM    3  C5  UNL     1     -21.780 -15.979  13.226  1.00  0.00    -0.011 C 
HETATM    4  C6  UNL     1     -21.267 -14.538  12.950  1.00  0.00     0.010 C 
HETATM    5  C7  UNL     1     -22.840 -15.864  14.261  1.00  0.00     0.049 C 
HETATM    6  C8  UNL     1     -22.825 -16.855  15.380  1.00  0.00     0.111 C 
HETATM    7  C9  UNL     1     -23.340 -16.132  16.639  1.00  0.00     0.054 C 
HETATM    8  C10 UNL     1     -21.531 -17.502  15.652  1.00  0.00     0.016 C 
HETATM    9  C11 UNL     1     -20.868 -18.507  15.225  1.00  0.00     0.033 C 
HETATM   10  C12 UNL     1     -20.976 -19.565  14.264  1.00  0.00     0.070 C 
HETATM   11  C13 UNL     1     -21.069 -19.690  12.822  1.00  0.00     0.079 C 
HETATM   12  C14 UNL     1     -19.682 -19.981  12.268  1.00  0.00     0.046 C 
HETATM   13  C15 UNL     1     -21.974 -20.855  12.384  1.00  0.00     0.072 C 
HETATM   14  C16 UNL     1     -23.004 -19.847  12.227  1.00  0.00     0.048 C 
HETATM   15  C17 UNL     1     -23.791 -20.046  10.951  1.00  0.00     0.043 C 
HETATM   16  C18 UNL     1     -23.928 -19.419  13.325  1.00  0.00     0.003 C 
HETATM   17  C19 UNL     1     -24.395 -19.805  14.417  1.00  0.00     0.012 C 
HETATM   18  C20 UNL     1     -25.335 -19.259  15.479  1.00  0.00     0.111 C 
HETATM   19  C21 UNL     1     -26.684 -18.864  15.093  1.00  0.00     0.054 C 
HETATM   20  O4  UNL     1     -24.669 -18.072  16.001  1.00  0.00    -0.225 OA
HETATM   21  O5  UNL     1     -23.785 -17.749  15.090  1.00  0.00    -0.225 OA
HETATM   22  N2  UNL     1     -21.930 -18.887  12.183  1.00  0.00    -0.360 N 
ENDROOT
BRANCH  18  23
HETATM   23  C22 UNL     1     -25.291 -20.192  16.674  1.00  0.00     0.050 C 
BRANCH  23  24
HETATM   24  C23 UNL     1     -24.081 -21.038  16.729  1.00  0.00     0.047 C 
BRANCH  24  25
HETATM   25  C24 UNL     1     -24.182 -22.189  17.645  1.00  0.00     0.052 C 
HETATM   26  N1  UNL     1     -24.510 -22.094  18.877  1.00  0.00    -0.411 N 
ATOM     27  H12 UNL     1     -24.710 -21.159  19.231  1.00  0.00     0.155 HD
ATOM     28  H11 UNL     1     -24.580 -22.890  19.510  1.00  0.00     0.155 HD
ENDBRANCH  24  25
ENDBRANCH  23  24
ENDBRANCH  18  23
BRANCH   1  29
HETATM   29  O2  UNL     1     -20.507 -17.530  10.951  1.00  0.00    -0.296 OA
BRANCH  29  30
HETATM   30  C2  UNL     1     -20.352 -16.951   9.711  1.00  0.00     0.256 C 
HETATM   31  C1  UNL     1     -19.695 -15.606   9.550  1.00  0.00     0.126 C 
HETATM   32  O1  UNL     1     -20.743 -17.499   8.649  1.00  0.00    -0.266 OA
ENDBRANCH  29  30
ENDBRANCH   1  29
BRANCH  10  33
HETATM   33  O3  UNL     1     -20.995 -20.770  14.815  1.00  0.00    -0.362 OA
ATOM     34  H3  UNL     1     -21.324 -21.443  14.231  1.00  0.00     0.217 HD
ENDBRANCH  10  33
TORSDOF 6
ENDMDL
MODEL 3
REMARK VINA RESULT: -5.961542867      2.272      6.615
REMARK  6 active torsions:
REMARK  status: ('A' for Active; 'I' for Inactive)
REMARK    1  A    between atoms: C2_2  and  O2_4 
REMARK    2  A    between atoms: O2_4  and  C3_5 
REMARK    3  A    between atoms: C12_14  and  O3_15 
REMARK    4  A    between atoms: C20_24  and  C22_26 
REMARK    5  A    between atoms: C22_26  and  C23_27 
REMARK    6  A    between atoms: C23_27  and  C24_28 
ROOT
HETATM    1  C3  UNL     1     -25.757 -19.191  17.624  1.00  0.00     0.230 C 
HETATM    2  C4  UNL     1     -25.070 -17.940  18.135  1.00  0.00     0.058 C 
HETATM    3  C5  UNL     1     -24.902 -16.813  17.191  1.00  0.00    -0.011 C 
HETATM    4  C6  UNL     1     -25.424 -15.576  17.973  1.00  0.00     0.010 C 
HETATM    5  C7  UNL     1     -23.483 -16.536  16.850  1.00  0.00     0.049 C 
HETATM    6  C8  UNL     1     -23.026 -16.865  15.466  1.00  0.00     0.111 C 
HETATM    7  C9  UNL     1     -21.962 -15.821  15.075  1.00  0.00     0.054 C 
HETATM    8  C10 UNL     1     -24.078 -16.936  14.439  1.00  0.00     0.016 C 
HETATM    9  C11 UNL     1     -24.904 -17.801  13.990  1.00  0.00     0.033 C 
HETATM   10  C12 UNL     1     -25.292 -19.164  14.207  1.00  0.00     0.070 C 
HETATM   11  C13 UNL     1     -25.874 -19.949  15.278  1.00  0.00     0.079 C 
HETATM   12  C14 UNL     1     -27.371 -20.068  15.036  1.00  0.00     0.046 C 
HETATM   13  C15 UNL     1     -25.319 -21.384  15.332  1.00  0.00     0.072 C 
HETATM   14  C16 UNL     1     -24.435 -20.882  16.364  1.00  0.00     0.048 C 
HETATM   15  C17 UNL     1     -24.327 -21.845  17.525  1.00  0.00     0.043 C 
HETATM   16  C18 UNL     1     -23.093 -20.273  16.091  1.00  0.00     0.003 C 
HETATM   17  C19 UNL     1     -22.195 -20.233  15.224  1.00  0.00     0.012 C 
HETATM   18  C20 UNL     1     -20.851 -19.545  15.047  1.00  0.00     0.111 C 
HETATM   19  C21 UNL     1     -19.813 -19.754  16.049  1.00  0.00     0.054 C 
HETATM   20  O4  UNL     1     -21.154 -18.119  15.029  1.00  0.00    -0.225 OA
HETATM   21  O5  UNL     1     -22.343 -18.017  15.570  1.00  0.00    -0.225 OA
HETATM   22  N2  UNL     1     -25.368 -19.794  16.508  1.00  0.00    -0.360 N 
ENDROOT
BRANCH  18  23
HETATM   23  C22 UNL     1     -20.383 -19.783  13.624  1.00  0.00     0.050 C 
BRANCH  23  24
HETATM   24  C23 UNL     1     -21.477 -20.058  12.672  1.00  0.00     0.047 C 
BRANCH  24  25
HETATM   25  C24 UNL     1     -21.759 -18.959  11.730  1.00  0.00     0.052 C 
HETATM   26  N1  UNL     1     -21.527 -17.727  11.982  1.00  0.00    -0.411 N 
ATOM     27  H12 UNL     1     -21.124 -17.509  12.893  1.00  0.00     0.155 HD
ATOM     28  H11 UNL     1     -21.722 -16.967  11.331  1.00  0.00     0.155 HD
ENDBRANCH  24  25
ENDBRANCH  23  24
ENDBRANCH  18  23
BRANCH   1  29
HETATM   29  O2  UNL     1     -27.139 -18.813  17.642  1.00  0.00    -0.296 OA
BRANCH  29  30
HETATM   30  C2  UNL     1     -28.023 -19.561  18.388  1.00  0.00     0.256 C 
HETATM   31  C1  UNL     1     -27.549 -20.438  19.516  1.00  0.00     0.126 C 
HETATM   32  O1  UNL     1     -29.262 -19.561  18.177  1.00  0.00    -0.266 OA
ENDBRANCH  29  30
ENDBRANCH   1  29
BRANCH  10  33
HETATM   33  O3  UNL     1     -25.073 -19.942  13.156  1.00  0.00    -0.362 OA
ATOM     34  H3  UNL     1     -24.156 -20.152  13.031  1.00  0.00     0.217 HD
ENDBRANCH  10  33
TORSDOF 6
ENDMDL
MODEL 4
REMARK VINA RESULT: -5.742028581      1.755      1.867
REMARK  6 active torsions:
REMARK  status: ('A' for Active; 'I' for Inactive)
REMARK    1  A    between atoms: C2_2  and  O2_4 
REMARK    2  A    between atoms: O2_4  and  C3_5 
REMARK    3  A    between atoms: C12_14  and  O3_15 
REMARK    4  A    between atoms: C20_24  and  C22_26 
REMARK    5  A    between atoms: C22_26  and  C23_27 
REMARK    6  A    between atoms: C23_27  and  C24_28 
ROOT
HETATM    1  C3  UNL     1     -21.877 -17.916  11.280  1.00  0.00     0.230 C 
HETATM    2  C4  UNL     1     -22.546 -16.734  11.953  1.00  0.00     0.058 C 
HETATM    3  C5  UNL     1     -22.175 -16.440  13.355  1.00  0.00    -0.011 C 
HETATM    4  C6  UNL     1     -21.859 -14.919  13.359  1.00  0.00     0.010 C 
HETATM    5  C7  UNL     1     -23.291 -16.647  14.315  1.00  0.00     0.049 C 
HETATM    6  C8  UNL     1     -23.191 -17.806  15.253  1.00  0.00     0.111 C 
HETATM    7  C9  UNL     1     -23.866 -17.385  16.573  1.00  0.00     0.054 C 
HETATM    8  C10 UNL     1     -21.834 -18.314  15.509  1.00  0.00     0.016 C 
HETATM    9  C11 UNL     1     -21.013 -19.133  14.973  1.00  0.00     0.033 C 
HETATM   10  C12 UNL     1     -20.922 -20.014  13.846  1.00  0.00     0.070 C 
HETATM   11  C13 UNL     1     -20.924 -19.899  12.400  1.00  0.00     0.079 C 
HETATM   12  C14 UNL     1     -19.484 -19.904  11.909  1.00  0.00     0.046 C 
HETATM   13  C15 UNL     1     -21.631 -21.080  11.711  1.00  0.00     0.072 C 
HETATM   14  C16 UNL     1     -22.784 -20.204  11.646  1.00  0.00     0.048 C 
HETATM   15  C17 UNL     1     -23.470 -20.282  10.301  1.00  0.00     0.043 C 
HETATM   16  C18 UNL     1     -23.814 -20.098  12.729  1.00  0.00     0.003 C 
HETATM   17  C19 UNL     1     -24.275 -20.726  13.706  1.00  0.00     0.012 C 
HETATM   18  C20 UNL     1     -25.335 -20.500  14.772  1.00  0.00     0.111 C 
HETATM   19  C21 UNL     1     -26.706 -20.225  14.358  1.00  0.00     0.054 C 
HETATM   20  O4  UNL     1     -24.872 -19.344  15.529  1.00  0.00    -0.225 OA
HETATM   21  O5  UNL     1     -23.998 -18.754  14.751  1.00  0.00    -0.225 OA
HETATM   22  N2  UNL     1     -21.858 -19.118  11.840  1.00  0.00    -0.360 N 
ENDROOT
BRANCH  18  23
HETATM   23  C22 UNL     1     -25.218 -21.611  15.797  1.00  0.00     0.050 C 
BRANCH  23  24
HETATM   24  C23 UNL     1     -24.480 -21.226  17.016  1.00  0.00     0.047 C 
BRANCH  24  25
HETATM   25  C24 UNL     1     -23.268 -22.027  17.275  1.00  0.00     0.052 C 
HETATM   26  N1  UNL     1     -22.444 -22.386  16.367  1.00  0.00    -0.411 N 
ATOM     27  H12 UNL     1     -22.651 -22.094  15.412  1.00  0.00     0.155 HD
ATOM     28  H11 UNL     1     -21.606 -22.939  16.545  1.00  0.00     0.155 HD
ENDBRANCH  24  25
ENDBRANCH  23  24
ENDBRANCH  18  23
BRANCH   1  29
HETATM   29  O2  UNL     1     -20.582 -17.394  10.956  1.00  0.00    -0.296 OA
BRANCH  29  30
HETATM   30  C2  UNL     1     -20.438 -16.641   9.811  1.00  0.00     0.256 C 
HETATM   31  C1  UNL     1     -20.026 -15.194   9.871  1.00  0.00     0.126 C 
HETATM   32  O1  UNL     1     -20.638 -17.106   8.661  1.00  0.00    -0.266 OA
ENDBRANCH  29  30
ENDBRANCH   1  29
BRANCH  10  33
HETATM   33  O3  UNL     1     -20.797 -21.288  14.188  1.00  0.00    -0.362 OA
ATOM     34  H3  UNL     1     -20.743 -21.872  13.441  1.00  0.00     0.217 HD
ENDBRANCH  10  33
TORSDOF 6
ENDMDL
MODEL 5
REMARK VINA RESULT: -5.600844215      2.276      3.622
REMARK  6 active torsions:
REMARK  status: ('A' for Active; 'I' for Inactive)
REMARK    1  A    between atoms: C2_2  and  O2_4 
REMARK    2  A    between atoms: O2_4  and  C3_5 
REMARK    3  A    between atoms: C12_14  and  O3_15 
REMARK    4  A    between atoms: C20_24  and  C22_26 
REMARK    5  A    between atoms: C22_26  and  C23_27 
REMARK    6  A    between atoms: C23_27  and  C24_28 
ROOT
HETATM    1  C3  UNL     1     -24.681 -19.171  12.644  1.00  0.00     0.230 C 
HETATM    2  C4  UNL     1     -23.890 -17.915  12.337  1.00  0.00     0.058 C 
HETATM    3  C5  UNL     1     -22.530 -17.802  12.909  1.00  0.00    -0.011 C 
HETATM    4  C6  UNL     1     -21.638 -17.393  11.704  1.00  0.00     0.010 C 
HETATM    5  C7  UNL     1     -22.404 -16.719  13.920  1.00  0.00     0.049 C 
HETATM    6  C8  UNL     1     -22.226 -17.123  15.348  1.00  0.00     0.111 C 
HETATM    7  C9  UNL     1     -21.327 -16.064  16.014  1.00  0.00     0.054 C 
HETATM    8  C10 UNL     1     -21.685 -18.473  15.574  1.00  0.00     0.016 C 
HETATM    9  C11 UNL     1     -22.128 -19.668  15.662  1.00  0.00     0.033 C 
HETATM   10  C12 UNL     1     -23.368 -20.385  15.593  1.00  0.00     0.070 C 
HETATM   11  C13 UNL     1     -24.396 -20.644  14.604  1.00  0.00     0.079 C 
HETATM   12  C14 UNL     1     -24.132 -22.001  13.970  1.00  0.00     0.046 C 
HETATM   13  C15 UNL     1     -25.807 -20.709  15.217  1.00  0.00     0.072 C 
HETATM   14  C16 UNL     1     -25.933 -19.331  14.789  1.00  0.00     0.048 C 
HETATM   15  C17 UNL     1     -27.283 -19.061  14.164  1.00  0.00     0.043 C 
HETATM   16  C18 UNL     1     -25.523 -18.156  15.624  1.00  0.00     0.003 C 
HETATM   17  C19 UNL     1     -25.303 -17.827  16.808  1.00  0.00     0.012 C 
HETATM   18  C20 UNL     1     -24.860 -16.576  17.550  1.00  0.00     0.111 C 
HETATM   19  C21 UNL     1     -25.640 -15.353  17.401  1.00  0.00     0.054 C 
HETATM   20  O4  UNL     1     -23.518 -16.295  17.054  1.00  0.00    -0.225 OA
HETATM   21  O5  UNL     1     -23.426 -16.957  15.927  1.00  0.00    -0.225 OA
HETATM   22  N2  UNL     1     -24.844 -19.606  13.887  1.00  0.00    -0.360 N 
ENDROOT
BRANCH  18  23
HETATM   23  C22 UNL     1     -24.587 -16.954  18.993  1.00  0.00     0.050 C 
BRANCH  23  24
HETATM   24  C23 UNL     1     -24.725 -15.832  19.943  1.00  0.00     0.047 C 
BRANCH  24  25
HETATM   25  C24 UNL     1     -25.737 -16.044  20.995  1.00  0.00     0.052 C 
HETATM   26  N1  UNL     1     -26.384 -15.098  21.563  1.00  0.00    -0.411 N 
ATOM     27  H12 UNL     1     -26.175 -14.147  21.258  1.00  0.00     0.155 HD
ATOM     28  H11 UNL     1     -27.083 -15.244  22.290  1.00  0.00     0.155 HD
ENDBRANCH  24  25
ENDBRANCH  23  24
ENDBRANCH  18  23
BRANCH   1  29
HETATM   29  O2  UNL     1     -24.095 -20.129  11.754  1.00  0.00    -0.296 OA
BRANCH  29  30
HETATM   30  C2  UNL     1     -24.814 -20.537  10.652  1.00  0.00     0.256 C 
HETATM   31  C1  UNL     1     -25.983 -21.477  10.782  1.00  0.00     0.126 C 
HETATM   32  O1  UNL     1     -24.544 -20.158   9.484  1.00  0.00    -0.266 OA
ENDBRANCH  29  30
ENDBRANCH   1  29
BRANCH  10  33
HETATM   33  O3  UNL     1     -23.683 -20.992  16.729  1.00  0.00    -0.362 OA
ATOM     34  H3  UNL     1     -24.580 -21.303  16.750  1.00  0.00     0.217 HD
ENDBRANCH  10  33
TORSDOF 6
ENDMDL
