MODEL 1
REMARK VINA RESULT: -10.043448183      0.000      0.000
REMARK  4 active torsions:
REMARK  status: ('A' for Active; 'I' for Inactive)
REMARK    1  A    between atoms: C2_2  and  C3_3 
REMARK    2  A    between atoms: C3_3  and  N1_4 
REMARK    3  A    between atoms: N1_4  and  C4_6 
REMARK    4  A    between atoms: C9_11  and  N2_12 
ROOT
HETATM    1  C1  UNL     1     -16.650  -8.884  13.178  1.00  0.00     0.016 C 
HETATM    2  C2  UNL     1     -16.958  -9.264  14.609  1.00  0.00    -0.028 C 
HETATM    3  C12 UNL     1     -18.164  -8.560  15.170  1.00  0.00     0.016 C 
HETATM    4  C13 UNL     1     -18.017  -8.355  16.684  1.00  0.00     0.072 C 
HETATM    5  C14 UNL     1     -16.905  -7.385  16.992  1.00  0.00     0.200 C 
HETATM    6  C15 UNL     1     -15.999  -7.363  15.770  1.00  0.00     0.072 C 
HETATM    7  C16 UNL     1     -15.733  -8.835  15.426  1.00  0.00     0.016 C 
HETATM    8  O3  UNL     1     -17.361  -6.148  17.366  1.00  0.00    -0.197 OA
HETATM    9  O4  UNL     1     -17.431  -6.214  18.696  1.00  0.00    -0.197 OA
HETATM   10  C17 UNL     1     -16.202  -6.740  18.998  1.00  0.00     0.200 C 
HETATM   11  C18 UNL     1     -15.126  -5.723  18.704  1.00  0.00     0.071 C 
HETATM   12  C19 UNL     1     -13.813  -6.464  18.810  1.00  0.00     0.006 C 
HETATM   13  C20 UNL     1     -13.599  -6.785  20.257  1.00  0.00     0.000 C 
HETATM   14  C21 UNL     1     -14.820  -6.920  21.086  1.00  0.00     0.006 C 
HETATM   15  C22 UNL     1     -16.071  -7.335  20.369  1.00  0.00     0.071 C 
HETATM   16  O5  UNL     1     -16.108  -7.776  18.062  1.00  0.00    -0.313 OA
ENDROOT
BRANCH   2  17
HETATM   17  C3  UNL     1     -17.130 -10.781  14.712  1.00  0.00     0.129 C 
BRANCH  17  18
HETATM   18  N1  UNL     1     -16.729 -11.404  13.485  1.00  0.00    -0.387 N 
ATOM     19  H1  UNL     1     -15.749 -11.350  13.209  1.00  0.00     0.159 HD
BRANCH  18  20
HETATM   20  C4  UNL     1     -17.634 -12.090  12.640  1.00  0.00     0.063 A 
HETATM   21  C5  UNL     1     -18.812 -12.603  13.135  1.00  0.00     0.032 A 
HETATM   22  C6  UNL     1     -19.692 -13.264  12.306  1.00  0.00     0.012 A 
HETATM   23  C7  UNL     1     -19.423 -13.430  10.976  1.00  0.00    -0.028 A 
HETATM   24  C8  UNL     1     -18.258 -12.929  10.464  1.00  0.00     0.070 A 
HETATM   25  C11 UNL     1     -20.208 -14.097   9.890  1.00  0.00     0.060 C 
HETATM   26  C9  UNL     1     -17.379 -12.268  11.293  1.00  0.00     0.155 A 
HETATM   27  N3  UNL     1     -18.199 -13.223   9.081  1.00  0.00    -0.387 N 
HETATM   28  C10 UNL     1     -19.249 -14.154   8.718  1.00  0.00     0.124 C 
ATOM     29  H3  UNL     1     -17.515 -12.834   8.431  1.00  0.00     0.159 HD
BRANCH  26  30
HETATM   30  N2  UNL     1     -16.168 -11.753  10.739  1.00  0.00    -0.111 N 
HETATM   31  O1  UNL     1     -16.209 -10.763   9.982  1.00  0.00    -0.532 OA
HETATM   32  O2  UNL     1     -14.975 -12.346  11.043  1.00  0.00    -0.532 OA
ENDBRANCH  26  30
ENDBRANCH  18  20
ENDBRANCH  17  18
ENDBRANCH   2  17
TORSDOF 4
ENDMDL
MODEL 2
REMARK VINA RESULT: -8.849862909      5.142     10.712
REMARK  4 active torsions:
REMARK  status: ('A' for Active; 'I' for Inactive)
REMARK    1  A    between atoms: C2_2  and  C3_3 
REMARK    2  A    between atoms: C3_3  and  N1_4 
REMARK    3  A    between atoms: N1_4  and  C4_6 
REMARK    4  A    between atoms: C9_11  and  N2_12 
ROOT
HETATM    1  C1  UNL     1     -17.779  -5.805  20.845  1.00  0.00     0.016 C 
HETATM    2  C2  UNL     1     -16.790  -6.793  20.266  1.00  0.00    -0.028 C 
HETATM    3  C12 UNL     1     -15.639  -6.139  19.550  1.00  0.00     0.016 C 
HETATM    4  C13 UNL     1     -15.133  -7.031  18.409  1.00  0.00     0.072 C 
HETATM    5  C14 UNL     1     -16.165  -7.150  17.317  1.00  0.00     0.200 C 
HETATM    6  C15 UNL     1     -17.504  -6.799  17.948  1.00  0.00     0.072 C 
HETATM    7  C16 UNL     1     -17.579  -7.619  19.242  1.00  0.00     0.016 C 
HETATM    8  O3  UNL     1     -15.861  -6.404  16.209  1.00  0.00    -0.197 OA
HETATM    9  O4  UNL     1     -15.192  -7.246  15.421  1.00  0.00    -0.197 OA
HETATM   10  C17 UNL     1     -16.014  -8.342  15.449  1.00  0.00     0.200 C 
HETATM   11  C18 UNL     1     -17.294  -8.037  14.710  1.00  0.00     0.071 C 
HETATM   12  C19 UNL     1     -18.232  -9.184  15.013  1.00  0.00     0.006 C 
HETATM   13  C20 UNL     1     -17.703 -10.391  14.303  1.00  0.00     0.000 C 
HETATM   14  C21 UNL     1     -16.242 -10.417  14.054  1.00  0.00     0.006 C 
HETATM   15  C22 UNL     1     -15.389  -9.632  15.007  1.00  0.00     0.071 C 
HETATM   16  O5  UNL     1     -16.297  -8.440  16.816  1.00  0.00    -0.313 OA
ENDROOT
BRANCH   2  17
HETATM   17  C3  UNL     1     -16.276  -7.715  21.373  1.00  0.00     0.129 C 
BRANCH  17  18
HETATM   18  N1  UNL     1     -16.293  -7.027  22.630  1.00  0.00    -0.387 N 
ATOM     19  H1  UNL     1     -16.879  -7.395  23.380  1.00  0.00     0.159 HD
BRANCH  18  20
HETATM   20  C4  UNL     1     -15.531  -5.859  22.877  1.00  0.00     0.063 A 
HETATM   21  C5  UNL     1     -16.146  -4.665  23.181  1.00  0.00     0.032 A 
HETATM   22  C6  UNL     1     -15.399  -3.534  23.426  1.00  0.00     0.012 A 
HETATM   23  C7  UNL     1     -14.033  -3.563  23.374  1.00  0.00    -0.028 A 
HETATM   24  C8  UNL     1     -13.402  -4.737  23.071  1.00  0.00     0.070 A 
HETATM   25  C11 UNL     1     -13.019  -2.485  23.599  1.00  0.00     0.060 C 
HETATM   26  C9  UNL     1     -14.149  -5.868  22.827  1.00  0.00     0.155 A 
HETATM   27  N3  UNL     1     -12.004  -4.522  23.072  1.00  0.00    -0.387 N 
HETATM   28  C10 UNL     1     -11.712  -3.104  23.145  1.00  0.00     0.124 C 
ATOM     29  H3  UNL     1     -11.300  -5.260  23.029  1.00  0.00     0.159 HD
BRANCH  26  30
HETATM   30  N2  UNL     1     -13.472  -7.084  22.513  1.00  0.00    -0.111 N 
HETATM   31  O1  UNL     1     -12.794  -7.160  21.469  1.00  0.00    -0.532 OA
HETATM   32  O2  UNL     1     -13.570  -8.156  23.356  1.00  0.00    -0.532 OA
ENDBRANCH  26  30
ENDBRANCH  18  20
ENDBRANCH  17  18
ENDBRANCH   2  17
TORSDOF 4
ENDMDL
MODEL 3
REMARK VINA RESULT: -8.788276379      8.276     12.660
REMARK  4 active torsions:
REMARK  status: ('A' for Active; 'I' for Inactive)
REMARK    1  A    between atoms: C2_2  and  C3_3 
REMARK    2  A    between atoms: C3_3  and  N1_4 
REMARK    3  A    between atoms: N1_4  and  C4_6 
REMARK    4  A    between atoms: C9_11  and  N2_12 
ROOT
HETATM    1  C1  UNL     1     -21.922 -19.105  15.388  1.00  0.00     0.016 C 
HETATM    2  C2  UNL     1     -23.102 -18.166  15.261  1.00  0.00    -0.028 C 
HETATM    3  C12 UNL     1     -23.994 -18.158  16.473  1.00  0.00     0.016 C 
HETATM    4  C13 UNL     1     -25.445 -17.860  16.076  1.00  0.00     0.072 C 
HETATM    5  C14 UNL     1     -26.024 -18.986  15.259  1.00  0.00     0.200 C 
HETATM    6  C15 UNL     1     -24.844 -19.751  14.678  1.00  0.00     0.072 C 
HETATM    7  C16 UNL     1     -23.920 -18.686  14.072  1.00  0.00     0.016 C 
HETATM    8  O3  UNL     1     -26.897 -19.770  15.968  1.00  0.00    -0.197 OA
HETATM    9  O4  UNL     1     -28.091 -19.224  15.732  1.00  0.00    -0.197 OA
HETATM   10  C17 UNL     1     -28.057 -19.095  14.369  1.00  0.00     0.200 C 
HETATM   11  C18 UNL     1     -28.107 -20.459  13.726  1.00  0.00     0.071 C 
HETATM   12  C19 UNL     1     -27.801 -20.241  12.262  1.00  0.00     0.006 C 
HETATM   13  C20 UNL     1     -28.977 -19.534  11.662  1.00  0.00     0.000 C 
HETATM   14  C21 UNL     1     -29.779 -18.696  12.586  1.00  0.00     0.006 C 
HETATM   15  C22 UNL     1     -29.059 -18.146  13.782  1.00  0.00     0.071 C 
HETATM   16  O5  UNL     1     -26.780 -18.554  14.175  1.00  0.00    -0.313 OA
ENDROOT
BRANCH   2  17
HETATM   17  C3  UNL     1     -22.604 -16.753  14.954  1.00  0.00     0.129 C 
BRANCH  17  18
HETATM   18  N1  UNL     1     -22.813 -16.449  13.569  1.00  0.00    -0.387 N 
ATOM     19  H1  UNL     1     -23.627 -16.846  13.101  1.00  0.00     0.159 HD
BRANCH  18  20
HETATM   20  C4  UNL     1     -21.938 -15.623  12.823  1.00  0.00     0.063 A 
HETATM   21  C5  UNL     1     -21.600 -14.366  13.270  1.00  0.00     0.032 A 
HETATM   22  C6  UNL     1     -20.743 -13.570  12.542  1.00  0.00     0.012 A 
HETATM   23  C7  UNL     1     -20.206 -14.002  11.362  1.00  0.00    -0.028 A 
HETATM   24  C8  UNL     1     -20.530 -15.247  10.899  1.00  0.00     0.070 A 
HETATM   25  C11 UNL     1     -19.266 -13.334  10.408  1.00  0.00     0.060 C 
HETATM   26  C9  UNL     1     -21.386 -16.043  11.626  1.00  0.00     0.155 A 
HETATM   27  N3  UNL     1     -19.863 -15.469   9.670  1.00  0.00    -0.387 N 
HETATM   28  C10 UNL     1     -19.268 -14.237   9.190  1.00  0.00     0.124 C 
ATOM     29  H3  UNL     1     -19.808 -16.368   9.191  1.00  0.00     0.159 HD
BRANCH  26  30
HETATM   30  N2  UNL     1     -21.711 -17.339  11.126  1.00  0.00    -0.111 N 
HETATM   31  O1  UNL     1     -20.800 -18.164  10.915  1.00  0.00    -0.532 OA
HETATM   32  O2  UNL     1     -23.015 -17.667  10.881  1.00  0.00    -0.532 OA
ENDBRANCH  26  30
ENDBRANCH  18  20
ENDBRANCH  17  18
ENDBRANCH   2  17
TORSDOF 4
ENDMDL
MODEL 4
REMARK VINA RESULT: -8.628211786      5.154     10.850
REMARK  4 active torsions:
REMARK  status: ('A' for Active; 'I' for Inactive)
REMARK    1  A    between atoms: C2_2  and  C3_3 
REMARK    2  A    between atoms: C3_3  and  N1_4 
REMARK    3  A    between atoms: N1_4  and  C4_6 
REMARK    4  A    between atoms: C9_11  and  N2_12 
ROOT
HETATM    1  C1  UNL     1     -17.619  -5.775  20.923  1.00  0.00     0.016 C 
HETATM    2  C2  UNL     1     -16.657  -6.772  20.316  1.00  0.00    -0.028 C 
HETATM    3  C12 UNL     1     -15.515  -6.129  19.577  1.00  0.00     0.016 C 
HETATM    4  C13 UNL     1     -15.047  -7.021  18.420  1.00  0.00     0.072 C 
HETATM    5  C14 UNL     1     -16.105  -7.121  17.352  1.00  0.00     0.200 C 
HETATM    6  C15 UNL     1     -17.425  -6.755  18.015  1.00  0.00     0.072 C 
HETATM    7  C16 UNL     1     -17.481  -7.582  19.307  1.00  0.00     0.016 C 
HETATM    8  O3  UNL     1     -15.817  -6.371  16.241  1.00  0.00    -0.197 OA
HETATM    9  O4  UNL     1     -15.177  -7.218  15.434  1.00  0.00    -0.197 OA
HETATM   10  C17 UNL     1     -16.013  -8.303  15.474  1.00  0.00     0.200 C 
HETATM   11  C18 UNL     1     -17.305  -7.978  14.767  1.00  0.00     0.071 C 
HETATM   12  C19 UNL     1     -18.251  -9.113  15.085  1.00  0.00     0.006 C 
HETATM   13  C20 UNL     1     -17.755 -10.323  14.356  1.00  0.00     0.000 C 
HETATM   14  C21 UNL     1     -16.301 -10.368  14.074  1.00  0.00     0.006 C 
HETATM   15  C22 UNL     1     -15.415  -9.599  15.011  1.00  0.00     0.071 C 
HETATM   16  O5  UNL     1     -16.265  -8.406  16.847  1.00  0.00    -0.313 OA
ENDROOT
BRANCH   2  17
HETATM   17  C3  UNL     1     -16.130  -7.707  21.406  1.00  0.00     0.129 C 
BRANCH  17  18
HETATM   18  N1  UNL     1     -15.711  -6.944  22.545  1.00  0.00    -0.387 N 
ATOM     19  H1  UNL     1     -16.416  -6.650  23.221  1.00  0.00     0.159 HD
BRANCH  18  20
HETATM   20  C4  UNL     1     -14.361  -6.582  22.772  1.00  0.00     0.063 A 
HETATM   21  C5  UNL     1     -13.394  -7.544  22.960  1.00  0.00     0.032 A 
HETATM   22  C6  UNL     1     -12.081  -7.184  23.175  1.00  0.00     0.012 A 
HETATM   23  C7  UNL     1     -11.703  -5.871  23.208  1.00  0.00    -0.028 A 
HETATM   24  C8  UNL     1     -12.648  -4.901  23.026  1.00  0.00     0.070 A 
HETATM   25  C11 UNL     1     -10.361  -5.241  23.419  1.00  0.00     0.060 C 
HETATM   26  C9  UNL     1     -13.960  -5.259  22.811  1.00  0.00     0.155 A 
HETATM   27  N3  UNL     1     -12.026  -3.632  23.104  1.00  0.00    -0.387 N 
HETATM   28  C10 UNL     1     -10.667  -3.766  23.591  1.00  0.00     0.124 C 
ATOM     29  H3  UNL     1     -12.470  -2.748  22.854  1.00  0.00     0.159 HD
BRANCH  26  30
HETATM   30  N2  UNL     1     -14.931  -4.231  22.622  1.00  0.00    -0.111 N 
HETATM   31  O1  UNL     1     -14.774  -3.394  21.711  1.00  0.00    -0.532 OA
HETATM   32  O2  UNL     1     -16.026  -4.170  23.439  1.00  0.00    -0.532 OA
ENDBRANCH  26  30
ENDBRANCH  18  20
ENDBRANCH  17  18
ENDBRANCH   2  17
TORSDOF 4
ENDMDL
MODEL 5
REMARK VINA RESULT: -8.533866184      2.078      2.409
REMARK  4 active torsions:
REMARK  status: ('A' for Active; 'I' for Inactive)
REMARK    1  A    between atoms: C2_2  and  C3_3 
REMARK    2  A    between atoms: C3_3  and  N1_4 
REMARK    3  A    between atoms: N1_4  and  C4_6 
REMARK    4  A    between atoms: C9_11  and  N2_12 
ROOT
HETATM    1  C1  UNL     1     -16.156  -9.774  12.795  1.00  0.00     0.016 C 
HETATM    2  C2  UNL     1     -16.746  -9.951  14.177  1.00  0.00    -0.028 C 
HETATM    3  C12 UNL     1     -17.980  -9.123  14.413  1.00  0.00     0.016 C 
HETATM    4  C13 UNL     1     -18.096  -8.731  15.892  1.00  0.00     0.072 C 
HETATM    5  C14 UNL     1     -16.993  -7.784  16.288  1.00  0.00     0.200 C 
HETATM    6  C15 UNL     1     -15.881  -7.964  15.266  1.00  0.00     0.072 C 
HETATM    7  C16 UNL     1     -15.662  -9.479  15.155  1.00  0.00     0.016 C 
HETATM    8  O3  UNL     1     -17.421  -6.488  16.420  1.00  0.00    -0.197 OA
HETATM    9  O4  UNL     1     -17.735  -6.378  17.711  1.00  0.00    -0.197 OA
HETATM   10  C17 UNL     1     -16.622  -6.919  18.300  1.00  0.00     0.200 C 
HETATM   11  C18 UNL     1     -15.442  -6.001  18.097  1.00  0.00     0.071 C 
HETATM   12  C19 UNL     1     -14.225  -6.784  18.536  1.00  0.00     0.006 C 
HETATM   13  C20 UNL     1     -14.300  -6.924  20.025  1.00  0.00     0.000 C 
HETATM   14  C21 UNL     1     -15.658  -6.893  20.618  1.00  0.00     0.006 C 
HETATM   15  C22 UNL     1     -16.785  -7.337  19.731  1.00  0.00     0.071 C 
HETATM   16  O5  UNL     1     -16.433  -8.071  17.528  1.00  0.00    -0.313 OA
ENDROOT
BRANCH   2  17
HETATM   17  C3  UNL     1     -17.040 -11.432  14.425  1.00  0.00     0.129 C 
BRANCH  17  18
HETATM   18  N1  UNL     1     -18.289 -11.790  13.820  1.00  0.00    -0.387 N 
ATOM     19  H1  UNL     1     -19.150 -11.614  14.338  1.00  0.00     0.159 HD
BRANCH  18  20
HETATM   20  C4  UNL     1     -18.380 -12.379  12.536  1.00  0.00     0.063 A 
HETATM   21  C5  UNL     1     -17.410 -12.154  11.585  1.00  0.00     0.032 A 
HETATM   22  C6  UNL     1     -17.501 -12.735  10.339  1.00  0.00     0.012 A 
HETATM   23  C7  UNL     1     -18.551 -13.547  10.012  1.00  0.00    -0.028 A 
HETATM   24  C8  UNL     1     -19.526 -13.783  10.941  1.00  0.00     0.070 A 
HETATM   25  C11 UNL     1     -18.866 -14.284   8.747  1.00  0.00     0.060 C 
HETATM   26  C9  UNL     1     -19.435 -13.202  12.186  1.00  0.00     0.155 A 
HETATM   27  N3  UNL     1     -20.500 -14.641  10.378  1.00  0.00    -0.387 N 
HETATM   28  C10 UNL     1     -20.282 -14.785   8.952  1.00  0.00     0.124 C 
ATOM     29  H3  UNL     1     -21.250 -15.095  10.901  1.00  0.00     0.159 HD
BRANCH  26  30
HETATM   30  N2  UNL     1     -20.463 -13.461  13.141  1.00  0.00    -0.111 N 
HETATM   31  O1  UNL     1     -20.156 -13.849  14.286  1.00  0.00    -0.532 OA
HETATM   32  O2  UNL     1     -21.773 -13.281  12.797  1.00  0.00    -0.532 OA
ENDBRANCH  26  30
ENDBRANCH  18  20
ENDBRANCH  17  18
ENDBRANCH   2  17
TORSDOF 4
ENDMDL
