MODEL 1
REMARK VINA RESULT: -7.514571585      0.000      0.000
REMARK  14 active torsions:
REMARK  status: ('A' for Active; 'I' for Inactive)
REMARK    1  A    between atoms: C2_2  and  O2_4 
REMARK    2  A    between atoms: O2_4  and  C3_5 
REMARK    3  A    between atoms: C3_5  and  C5_7 
REMARK    4  A    between atoms: C3_5  and  C6_10 
REMARK    5  A    between atoms: C5_7  and  O3_8 
REMARK    6  A    between atoms: C6_10  and  O5_12 
REMARK    7  A    between atoms: O5_12  and  C7_13 
REMARK    8  A    between atoms: C8_14  and  C9_15 
REMARK    9  A    between atoms: C9_15  and  C10_16 
REMARK   10  A    between atoms: C16_24  and  C17_25 
REMARK   11  A    between atoms: C17_25  and  C20_28 
REMARK   12  A    between atoms: C20_28  and  C21_29 
REMARK   13  A    between atoms: C21_29  and  C22_30 
REMARK   14  A    between atoms: C28_37  and  C29_38 
ROOT
HETATM    1  C7  UNL     1     -13.053 -15.480 -50.720  1.00  0.00     0.175 C 
HETATM    2  C8  UNL     1     -12.453 -16.777 -51.218  1.00  0.00     0.058 C 
HETATM    3  C11 UNL     1     -13.645 -17.655 -51.134  1.00  0.00    -0.066 C 
HETATM    4  C12 UNL     1     -14.562 -18.056 -51.988  1.00  0.00    -0.074 C 
HETATM    5  C13 UNL     1     -15.495 -18.948 -51.374  1.00  0.00     0.035 C 
HETATM    6  C14 UNL     1     -15.005 -19.016 -49.917  1.00  0.00     0.014 C 
HETATM    7  C15 UNL     1     -14.180 -17.805 -49.722  1.00  0.00     0.023 C 
HETATM    8  C16 UNL     1     -15.037 -16.489 -49.521  1.00  0.00     0.038 C 
HETATM    9  C26 UNL     1     -14.586 -15.563 -50.603  1.00  0.00     0.090 C 
HETATM   10  C27 UNL     1     -14.913 -14.087 -50.450  1.00  0.00     0.049 C 
HETATM   11  O8  UNL     1     -15.254 -15.894 -51.739  1.00  0.00    -0.371 OA
HETATM   12  C28 UNL     1     -14.938 -15.945 -52.986  1.00  0.00     0.134 C 
HETATM   13  C33 UNL     1     -14.792 -17.465 -53.393  1.00  0.00     0.067 C 
ENDROOT
BRANCH   1  14
HETATM   14  O5  UNL     1     -12.607 -14.353 -51.422  1.00  0.00    -0.310 OA
BRANCH  14  15
HETATM   15  C6  UNL     1     -11.338 -13.836 -51.228  1.00  0.00     0.296 C 
HETATM   16  O4  UNL     1     -10.434 -14.239 -52.037  1.00  0.00    -0.262 OA
BRANCH  15  17
HETATM   17  C3  UNL     1     -10.927 -12.877 -50.197  1.00  0.00     0.175 C 
HETATM   18  C4  UNL     1      -9.656 -12.211 -50.577  1.00  0.00     0.060 C 
BRANCH  17  19
HETATM   19  O2  UNL     1     -11.956 -12.001 -49.820  1.00  0.00    -0.298 OA
BRANCH  19  20
HETATM   20  C2  UNL     1     -11.796 -10.933 -48.961  1.00  0.00     0.256 C 
HETATM   21  C1  UNL     1     -11.236  -9.631 -49.436  1.00  0.00     0.126 C 
HETATM   22  O1  UNL     1     -12.142 -11.112 -47.769  1.00  0.00    -0.266 OA
ENDBRANCH  19  20
ENDBRANCH  17  19
BRANCH  17  23
HETATM   23  C5  UNL     1     -10.621 -13.698 -48.931  1.00  0.00     0.213 C 
BRANCH  23  24
HETATM   24  O3  UNL     1      -9.516 -14.491 -49.246  1.00  0.00    -0.397 OA
ATOM     25  H3  UNL     1      -9.790 -15.389 -49.103  1.00  0.00     0.209 HD
ENDBRANCH  23  24
ENDBRANCH  17  23
ENDBRANCH  15  17
ENDBRANCH  14  15
ENDBRANCH   1  14
BRANCH   2  26
HETATM   26  C9  UNL     1     -11.337 -17.325 -50.408  1.00  0.00     0.124 C 
BRANCH  26  27
HETATM   27  C10 UNL     1     -10.114 -17.446 -51.280  1.00  0.00     0.173 C 
HETATM   28  O6  UNL     1     -10.186 -17.937 -52.426  1.00  0.00    -0.648 OA
HETATM   29  O7  UNL     1      -8.930 -16.992 -50.751  1.00  0.00    -0.648 OA
ENDBRANCH  26  27
ENDBRANCH   2  26
BRANCH   8  30
HETATM   30  C17 UNL     1     -15.179 -16.160 -48.115  1.00  0.00    -0.040 C 
HETATM   31  C18 UNL     1     -16.152 -17.034 -47.329  1.00  0.00     0.015 C 
HETATM   32  C19 UNL     1     -13.854 -16.509 -47.402  1.00  0.00     0.015 C 
BRANCH  30  33
HETATM   33  C20 UNL     1     -15.447 -14.763 -47.709  1.00  0.00     0.013 C 
BRANCH  33  34
HETATM   34  C21 UNL     1     -16.263 -14.703 -46.410  1.00  0.00     0.028 C 
BRANCH  34  35
HETATM   35  C22 UNL     1     -17.352 -13.667 -46.572  1.00  0.00    -0.025 C 
HETATM   36  C23 UNL     1     -18.577 -13.982 -46.252  1.00  0.00    -0.091 C 
HETATM   37  C24 UNL     1     -19.651 -12.962 -46.413  1.00  0.00     0.042 C 
HETATM   38  C25 UNL     1     -18.977 -15.314 -45.725  1.00  0.00     0.042 C 
ENDBRANCH  34  35
ENDBRANCH  33  34
ENDBRANCH  30  33
ENDBRANCH   8  30
BRANCH  12  39
HETATM   39  C29 UNL     1     -16.064 -15.478 -53.886  1.00  0.00    -0.025 C 
HETATM   40  C30 UNL     1     -16.794 -14.272 -53.337  1.00  0.00     0.017 C 
HETATM   41  C31 UNL     1     -15.629 -15.219 -55.308  1.00  0.00     0.017 C 
HETATM   42  C32 UNL     1     -17.124 -16.595 -53.984  1.00  0.00     0.017 C 
ENDBRANCH  12  39
TORSDOF 14
ENDMDL
MODEL 2
REMARK VINA RESULT: -7.137703400      2.510      4.961
REMARK  14 active torsions:
REMARK  status: ('A' for Active; 'I' for Inactive)
REMARK    1  A    between atoms: C2_2  and  O2_4 
REMARK    2  A    between atoms: O2_4  and  C3_5 
REMARK    3  A    between atoms: C3_5  and  C5_7 
REMARK    4  A    between atoms: C3_5  and  C6_10 
REMARK    5  A    between atoms: C5_7  and  O3_8 
REMARK    6  A    between atoms: C6_10  and  O5_12 
REMARK    7  A    between atoms: O5_12  and  C7_13 
REMARK    8  A    between atoms: C8_14  and  C9_15 
REMARK    9  A    between atoms: C9_15  and  C10_16 
REMARK   10  A    between atoms: C16_24  and  C17_25 
REMARK   11  A    between atoms: C17_25  and  C20_28 
REMARK   12  A    between atoms: C20_28  and  C21_29 
REMARK   13  A    between atoms: C21_29  and  C22_30 
REMARK   14  A    between atoms: C28_37  and  C29_38 
ROOT
HETATM    1  C7  UNL     1     -11.134 -15.888 -49.596  1.00  0.00     0.175 C 
HETATM    2  C8  UNL     1     -10.937 -16.939 -48.525  1.00  0.00     0.058 C 
HETATM    3  C11 UNL     1     -12.336 -17.403 -48.365  1.00  0.00    -0.066 C 
HETATM    4  C12 UNL     1     -13.040 -18.403 -48.846  1.00  0.00    -0.074 C 
HETATM    5  C13 UNL     1     -14.373 -18.403 -48.327  1.00  0.00     0.035 C 
HETATM    6  C14 UNL     1     -14.394 -17.158 -47.423  1.00  0.00     0.014 C 
HETATM    7  C15 UNL     1     -13.278 -16.310 -47.893  1.00  0.00     0.023 C 
HETATM    8  C16 UNL     1     -13.608 -15.522 -49.226  1.00  0.00     0.038 C 
HETATM    9  C26 UNL     1     -12.552 -15.939 -50.196  1.00  0.00     0.090 C 
HETATM   10  C27 UNL     1     -12.342 -15.073 -51.426  1.00  0.00     0.049 C 
HETATM   11  O8  UNL     1     -12.928 -17.128 -50.737  1.00  0.00    -0.371 OA
HETATM   12  C28 UNL     1     -12.301 -18.198 -51.084  1.00  0.00     0.134 C 
HETATM   13  C33 UNL     1     -12.612 -19.316 -50.012  1.00  0.00     0.067 C 
ENDROOT
BRANCH   1  14
HETATM   14  O5  UNL     1     -10.120 -15.878 -50.562  1.00  0.00    -0.310 OA
BRANCH  14  15
HETATM   15  C6  UNL     1      -8.919 -15.225 -50.340  1.00  0.00     0.296 C 
HETATM   16  O4  UNL     1      -8.950 -14.249 -49.516  1.00  0.00    -0.262 OA
BRANCH  15  17
HETATM   17  C3  UNL     1      -7.621 -15.541 -50.948  1.00  0.00     0.175 C 
HETATM   18  C4  UNL     1      -7.436 -17.010 -51.053  1.00  0.00     0.060 C 
BRANCH  17  19
HETATM   19  O2  UNL     1      -7.386 -14.835 -52.137  1.00  0.00    -0.298 OA
BRANCH  19  20
HETATM   20  C2  UNL     1      -8.377 -14.365 -52.975  1.00  0.00     0.256 C 
HETATM   21  C1  UNL     1      -9.110 -15.281 -53.902  1.00  0.00     0.126 C 
HETATM   22  O1  UNL     1      -8.629 -13.138 -52.915  1.00  0.00    -0.266 OA
ENDBRANCH  19  20
ENDBRANCH  17  19
BRANCH  17  23
HETATM   23  C5  UNL     1      -6.545 -15.040 -49.969  1.00  0.00     0.213 C 
BRANCH  23  24
HETATM   24  O3  UNL     1      -6.616 -15.880 -48.857  1.00  0.00    -0.397 OA
ATOM     25  H3  UNL     1      -5.756 -15.855 -48.455  1.00  0.00     0.209 HD
ENDBRANCH  23  24
ENDBRANCH  17  23
ENDBRANCH  15  17
ENDBRANCH  14  15
ENDBRANCH   1  14
BRANCH   2  26
HETATM   26  C9  UNL     1     -10.393 -16.449 -47.234  1.00  0.00     0.124 C 
BRANCH  26  27
HETATM   27  C10 UNL     1      -9.072 -17.127 -46.972  1.00  0.00     0.173 C 
HETATM   28  O6  UNL     1      -8.593 -17.942 -47.788  1.00  0.00    -0.648 OA
HETATM   29  O7  UNL     1      -8.432 -16.804 -45.800  1.00  0.00    -0.648 OA
ENDBRANCH  26  27
ENDBRANCH   2  26
BRANCH   8  30
HETATM   30  C17 UNL     1     -14.026 -14.162 -48.946  1.00  0.00    -0.040 C 
HETATM   31  C18 UNL     1     -14.812 -13.472 -50.058  1.00  0.00     0.015 C 
HETATM   32  C19 UNL     1     -15.098 -14.206 -47.835  1.00  0.00     0.015 C 
BRANCH  30  33
HETATM   33  C20 UNL     1     -13.040 -13.174 -48.454  1.00  0.00     0.013 C 
BRANCH  33  34
HETATM   34  C21 UNL     1     -12.760 -12.090 -49.503  1.00  0.00     0.028 C 
BRANCH  34  35
HETATM   35  C22 UNL     1     -12.100 -10.915 -48.818  1.00  0.00    -0.025 C 
HETATM   36  C23 UNL     1     -10.904 -10.554 -49.195  1.00  0.00    -0.091 C 
HETATM   37  C24 UNL     1     -10.252  -9.397 -48.520  1.00  0.00     0.042 C 
HETATM   38  C25 UNL     1     -10.138 -11.232 -50.275  1.00  0.00     0.042 C 
ENDBRANCH  34  35
ENDBRANCH  33  34
ENDBRANCH  30  33
ENDBRANCH   8  30
BRANCH  12  39
HETATM   39  C29 UNL     1     -12.858 -18.806 -52.354  1.00  0.00    -0.025 C 
HETATM   40  C30 UNL     1     -12.204 -18.258 -53.604  1.00  0.00     0.017 C 
HETATM   41  C31 UNL     1     -12.817 -20.315 -52.366  1.00  0.00     0.017 C 
HETATM   42  C32 UNL     1     -14.351 -18.440 -52.474  1.00  0.00     0.017 C 
ENDBRANCH  12  39
TORSDOF 14
ENDMDL
MODEL 3
REMARK VINA RESULT: -7.119073571      2.913      6.557
REMARK  14 active torsions:
REMARK  status: ('A' for Active; 'I' for Inactive)
REMARK    1  A    between atoms: C2_2  and  O2_4 
REMARK    2  A    between atoms: O2_4  and  C3_5 
REMARK    3  A    between atoms: C3_5  and  C5_7 
REMARK    4  A    between atoms: C3_5  and  C6_10 
REMARK    5  A    between atoms: C5_7  and  O3_8 
REMARK    6  A    between atoms: C6_10  and  O5_12 
REMARK    7  A    between atoms: O5_12  and  C7_13 
REMARK    8  A    between atoms: C8_14  and  C9_15 
REMARK    9  A    between atoms: C9_15  and  C10_16 
REMARK   10  A    between atoms: C16_24  and  C17_25 
REMARK   11  A    between atoms: C17_25  and  C20_28 
REMARK   12  A    between atoms: C20_28  and  C21_29 
REMARK   13  A    between atoms: C21_29  and  C22_30 
REMARK   14  A    between atoms: C28_37  and  C29_38 
ROOT
HETATM    1  C7  UNL     1     -11.416 -15.474 -49.062  1.00  0.00     0.175 C 
HETATM    2  C8  UNL     1     -12.729 -16.191 -48.835  1.00  0.00     0.058 C 
HETATM    3  C11 UNL     1     -13.606 -15.404 -49.736  1.00  0.00    -0.066 C 
HETATM    4  C12 UNL     1     -14.039 -15.552 -50.968  1.00  0.00    -0.074 C 
HETATM    5  C13 UNL     1     -14.911 -14.485 -51.350  1.00  0.00     0.035 C 
HETATM    6  C14 UNL     1     -14.924 -13.585 -50.102  1.00  0.00     0.014 C 
HETATM    7  C15 UNL     1     -13.705 -13.941 -49.345  1.00  0.00     0.023 C 
HETATM    8  C16 UNL     1     -12.385 -13.317 -49.955  1.00  0.00     0.038 C 
HETATM    9  C26 UNL     1     -11.498 -14.484 -50.239  1.00  0.00     0.090 C 
HETATM   10  C27 UNL     1     -10.018 -14.212 -50.449  1.00  0.00     0.049 C 
HETATM   11  O8  UNL     1     -11.871 -15.010 -51.435  1.00  0.00    -0.371 OA
HETATM   12  C28 UNL     1     -11.967 -16.205 -51.903  1.00  0.00     0.134 C 
HETATM   13  C33 UNL     1     -13.501 -16.577 -51.986  1.00  0.00     0.067 C 
ENDROOT
BRANCH   1  14
HETATM   14  O5  UNL     1     -10.314 -16.337 -49.134  1.00  0.00    -0.310 OA
BRANCH  14  15
HETATM   15  C6  UNL     1      -9.653 -16.760 -47.994  1.00  0.00     0.296 C 
HETATM   16  O4  UNL     1      -9.885 -16.096 -46.927  1.00  0.00    -0.262 OA
BRANCH  15  17
HETATM   17  C3  UNL     1      -8.722 -17.889 -47.885  1.00  0.00     0.175 C 
HETATM   18  C4  UNL     1      -7.670 -17.803 -48.929  1.00  0.00     0.060 C 
BRANCH  17  19
HETATM   19  O2  UNL     1      -8.238 -18.078 -46.582  1.00  0.00    -0.298 OA
BRANCH  19  20
HETATM   20  C2  UNL     1      -6.968 -17.734 -46.164  1.00  0.00     0.256 C 
HETATM   21  C1  UNL     1      -5.908 -18.769 -45.967  1.00  0.00     0.126 C 
HETATM   22  O1  UNL     1      -6.754 -16.515 -45.962  1.00  0.00    -0.266 OA
ENDBRANCH  19  20
ENDBRANCH  17  19
BRANCH  17  23
HETATM   23  C5  UNL     1      -9.535 -19.159 -48.196  1.00  0.00     0.213 C 
BRANCH  23  24
HETATM   24  O3  UNL     1     -10.836 -18.897 -47.765  1.00  0.00    -0.397 OA
ATOM     25  H3  UNL     1     -11.314 -19.711 -47.867  1.00  0.00     0.209 HD
ENDBRANCH  23  24
ENDBRANCH  17  23
ENDBRANCH  15  17
ENDBRANCH  14  15
ENDBRANCH   1  14
BRANCH   2  26
HETATM   26  C9  UNL     1     -13.245 -16.167 -47.444  1.00  0.00     0.124 C 
BRANCH  26  27
HETATM   27  C10 UNL     1     -14.291 -17.242 -47.292  1.00  0.00     0.173 C 
HETATM   28  O6  UNL     1     -15.499 -16.952 -47.167  1.00  0.00    -0.648 OA
HETATM   29  O7  UNL     1     -13.847 -18.542 -47.297  1.00  0.00    -0.648 OA
ENDBRANCH  26  27
ENDBRANCH   2  26
BRANCH   8  30
HETATM   30  C17 UNL     1     -12.005 -12.101 -49.260  1.00  0.00    -0.040 C 
HETATM   31  C18 UNL     1     -12.616 -10.813 -49.804  1.00  0.00     0.015 C 
HETATM   32  C19 UNL     1     -12.635 -12.135 -47.850  1.00  0.00     0.015 C 
BRANCH  30  33
HETATM   33  C20 UNL     1     -10.575 -11.813 -49.007  1.00  0.00     0.013 C 
BRANCH  33  34
HETATM   34  C21 UNL     1     -10.186 -10.417 -49.512  1.00  0.00     0.028 C 
BRANCH  34  35
HETATM   35  C22 UNL     1      -9.170 -10.572 -50.621  1.00  0.00    -0.025 C 
HETATM   36  C23 UNL     1      -8.228  -9.678 -50.743  1.00  0.00    -0.091 C 
HETATM   37  C24 UNL     1      -7.227  -9.828 -51.837  1.00  0.00     0.042 C 
HETATM   38  C25 UNL     1      -8.084  -8.499 -49.847  1.00  0.00     0.042 C 
ENDBRANCH  34  35
ENDBRANCH  33  34
ENDBRANCH  30  33
ENDBRANCH   8  30
BRANCH  12  39
HETATM   39  C29 UNL     1     -11.536 -16.294 -53.352  1.00  0.00    -0.025 C 
HETATM   40  C30 UNL     1     -12.701 -16.247 -54.317  1.00  0.00     0.017 C 
HETATM   41  C31 UNL     1     -10.502 -15.263 -53.737  1.00  0.00     0.017 C 
HETATM   42  C32 UNL     1     -10.855 -17.658 -53.591  1.00  0.00     0.017 C 
ENDBRANCH  12  39
TORSDOF 14
ENDMDL
MODEL 4
REMARK VINA RESULT: -7.075493626      2.879      4.905
REMARK  14 active torsions:
REMARK  status: ('A' for Active; 'I' for Inactive)
REMARK    1  A    between atoms: C2_2  and  O2_4 
REMARK    2  A    between atoms: O2_4  and  C3_5 
REMARK    3  A    between atoms: C3_5  and  C5_7 
REMARK    4  A    between atoms: C3_5  and  C6_10 
REMARK    5  A    between atoms: C5_7  and  O3_8 
REMARK    6  A    between atoms: C6_10  and  O5_12 
REMARK    7  A    between atoms: O5_12  and  C7_13 
REMARK    8  A    between atoms: C8_14  and  C9_15 
REMARK    9  A    between atoms: C9_15  and  C10_16 
REMARK   10  A    between atoms: C16_24  and  C17_25 
REMARK   11  A    between atoms: C17_25  and  C20_28 
REMARK   12  A    between atoms: C20_28  and  C21_29 
REMARK   13  A    between atoms: C21_29  and  C22_30 
REMARK   14  A    between atoms: C28_37  and  C29_38 
ROOT
HETATM    1  C7  UNL     1     -11.992 -16.769 -49.925  1.00  0.00     0.175 C 
HETATM    2  C8  UNL     1     -12.920 -17.794 -50.541  1.00  0.00     0.058 C 
HETATM    3  C11 UNL     1     -13.609 -16.943 -51.540  1.00  0.00    -0.066 C 
HETATM    4  C12 UNL     1     -13.447 -16.704 -52.823  1.00  0.00    -0.074 C 
HETATM    5  C13 UNL     1     -14.437 -15.798 -53.317  1.00  0.00     0.035 C 
HETATM    6  C14 UNL     1     -15.264 -15.469 -52.062  1.00  0.00     0.014 C 
HETATM    7  C15 UNL     1     -14.392 -15.802 -50.916  1.00  0.00     0.023 C 
HETATM    8  C16 UNL     1     -13.278 -14.712 -50.640  1.00  0.00     0.038 C 
HETATM    9  C26 UNL     1     -11.982 -15.451 -50.722  1.00  0.00     0.090 C 
HETATM   10  C27 UNL     1     -10.754 -14.793 -50.115  1.00  0.00     0.049 C 
HETATM   11  O8  UNL     1     -11.642 -15.551 -52.034  1.00  0.00    -0.371 OA
HETATM   12  C28 UNL     1     -11.095 -16.466 -52.756  1.00  0.00     0.134 C 
HETATM   13  C33 UNL     1     -12.219 -17.114 -53.659  1.00  0.00     0.067 C 
ENDROOT
BRANCH   1  14
HETATM   14  O5  UNL     1     -10.712 -17.266 -49.653  1.00  0.00    -0.310 OA
BRANCH  14  15
HETATM   15  C6  UNL     1     -10.352 -17.678 -48.381  1.00  0.00     0.296 C 
HETATM   16  O4  UNL     1     -11.154 -17.362 -47.437  1.00  0.00    -0.262 OA
BRANCH  15  17
HETATM   17  C3  UNL     1      -9.154 -18.439 -48.008  1.00  0.00     0.175 C 
HETATM   18  C4  UNL     1      -8.000 -18.046 -48.856  1.00  0.00     0.060 C 
BRANCH  17  19
HETATM   19  O2  UNL     1      -8.899 -18.421 -46.629  1.00  0.00    -0.298 OA
BRANCH  19  20
HETATM   20  C2  UNL     1      -8.054 -17.527 -46.003  1.00  0.00     0.256 C 
HETATM   21  C1  UNL     1      -6.668 -17.919 -45.602  1.00  0.00     0.126 C 
HETATM   22  O1  UNL     1      -8.507 -16.376 -45.793  1.00  0.00    -0.266 OA
ENDBRANCH  19  20
ENDBRANCH  17  19
BRANCH  17  23
HETATM   23  C5  UNL     1      -9.450 -19.912 -48.339  1.00  0.00     0.213 C 
BRANCH  23  24
HETATM   24  O3  UNL     1     -10.461 -20.307 -47.461  1.00  0.00    -0.397 OA
ATOM     25  H3  UNL     1     -10.276 -21.212 -47.240  1.00  0.00     0.209 HD
ENDBRANCH  23  24
ENDBRANCH  17  23
ENDBRANCH  15  17
ENDBRANCH  14  15
ENDBRANCH   1  14
BRANCH   2  26
HETATM   26  C9  UNL     1     -13.897 -18.419 -49.616  1.00  0.00     0.124 C 
BRANCH  26  27
HETATM   27  C10 UNL     1     -13.288 -19.668 -49.032  1.00  0.00     0.173 C 
HETATM   28  O6  UNL     1     -12.661 -20.475 -49.750  1.00  0.00    -0.648 OA
HETATM   29  O7  UNL     1     -13.459 -19.867 -47.684  1.00  0.00    -0.648 OA
ENDBRANCH  26  27
ENDBRANCH   2  26
BRANCH   8  30
HETATM   30  C17 UNL     1     -13.679 -13.801 -49.585  1.00  0.00    -0.040 C 
HETATM   31  C18 UNL     1     -12.860 -12.518 -49.475  1.00  0.00     0.015 C 
HETATM   32  C19 UNL     1     -15.061 -13.217 -49.952  1.00  0.00     0.015 C 
BRANCH  30  33
HETATM   33  C20 UNL     1     -13.858 -14.305 -48.205  1.00  0.00     0.013 C 
BRANCH  33  34
HETATM   34  C21 UNL     1     -15.247 -13.955 -47.655  1.00  0.00     0.028 C 
BRANCH  34  35
HETATM   35  C22 UNL     1     -15.896 -15.220 -47.141  1.00  0.00    -0.025 C 
HETATM   36  C23 UNL     1     -17.087 -15.151 -46.614  1.00  0.00    -0.091 C 
HETATM   37  C24 UNL     1     -17.726 -16.397 -46.106  1.00  0.00     0.042 C 
HETATM   38  C25 UNL     1     -17.862 -13.887 -46.487  1.00  0.00     0.042 C 
ENDBRANCH  34  35
ENDBRANCH  33  34
ENDBRANCH  30  33
ENDBRANCH   8  30
BRANCH  12  39
HETATM   39  C29 UNL     1     -10.143 -15.896 -53.786  1.00  0.00    -0.025 C 
HETATM   40  C30 UNL     1     -10.840 -15.467 -55.058  1.00  0.00     0.017 C 
HETATM   41  C31 UNL     1      -9.288 -14.770 -53.257  1.00  0.00     0.017 C 
HETATM   42  C32 UNL     1      -9.147 -16.995 -54.211  1.00  0.00     0.017 C 
ENDBRANCH  12  39
TORSDOF 14
ENDMDL
MODEL 5
REMARK VINA RESULT: -7.012652011      2.820      6.551
REMARK  14 active torsions:
REMARK  status: ('A' for Active; 'I' for Inactive)
REMARK    1  A    between atoms: C2_2  and  O2_4 
REMARK    2  A    between atoms: O2_4  and  C3_5 
REMARK    3  A    between atoms: C3_5  and  C5_7 
REMARK    4  A    between atoms: C3_5  and  C6_10 
REMARK    5  A    between atoms: C5_7  and  O3_8 
REMARK    6  A    between atoms: C6_10  and  O5_12 
REMARK    7  A    between atoms: O5_12  and  C7_13 
REMARK    8  A    between atoms: C8_14  and  C9_15 
REMARK    9  A    between atoms: C9_15  and  C10_16 
REMARK   10  A    between atoms: C16_24  and  C17_25 
REMARK   11  A    between atoms: C17_25  and  C20_28 
REMARK   12  A    between atoms: C20_28  and  C21_29 
REMARK   13  A    between atoms: C21_29  and  C22_30 
REMARK   14  A    between atoms: C28_37  and  C29_38 
ROOT
HETATM    1  C7  UNL     1     -11.292 -15.418 -49.138  1.00  0.00     0.175 C 
HETATM    2  C8  UNL     1     -12.587 -16.150 -48.860  1.00  0.00     0.058 C 
HETATM    3  C11 UNL     1     -13.508 -15.374 -49.724  1.00  0.00    -0.066 C 
HETATM    4  C12 UNL     1     -13.988 -15.527 -50.939  1.00  0.00    -0.074 C 
HETATM    5  C13 UNL     1     -14.887 -14.470 -51.284  1.00  0.00     0.035 C 
HETATM    6  C14 UNL     1     -14.861 -13.570 -50.036  1.00  0.00     0.014 C 
HETATM    7  C15 UNL     1     -13.609 -13.912 -49.329  1.00  0.00     0.023 C 
HETATM    8  C16 UNL     1     -12.321 -13.272 -49.990  1.00  0.00     0.038 C 
HETATM    9  C26 UNL     1     -11.432 -14.429 -50.310  1.00  0.00     0.090 C 
HETATM   10  C27 UNL     1      -9.965 -14.139 -50.579  1.00  0.00     0.049 C 
HETATM   11  O8  UNL     1     -11.847 -14.958 -51.491  1.00  0.00    -0.371 OA
HETATM   12  C28 UNL     1     -11.947 -16.155 -51.956  1.00  0.00     0.134 C 
HETATM   13  C33 UNL     1     -13.478 -16.545 -51.978  1.00  0.00     0.067 C 
ENDROOT
BRANCH   1  14
HETATM   14  O5  UNL     1     -10.184 -16.267 -49.255  1.00  0.00    -0.310 OA
BRANCH  14  15
HETATM   15  C6  UNL     1      -9.581 -16.825 -48.140  1.00  0.00     0.296 C 
HETATM   16  O4  UNL     1      -9.745 -16.200 -47.038  1.00  0.00    -0.262 OA
BRANCH  15  17
HETATM   17  C3  UNL     1      -8.782 -18.054 -48.095  1.00  0.00     0.175 C 
HETATM   18  C4  UNL     1      -8.475 -18.428 -46.692  1.00  0.00     0.060 C 
BRANCH  17  19
HETATM   19  O2  UNL     1      -9.323 -19.090 -48.871  1.00  0.00    -0.298 OA
BRANCH  19  20
HETATM   20  C2  UNL     1     -10.645 -19.485 -48.832  1.00  0.00     0.256 C 
HETATM   21  C1  UNL     1     -11.530 -19.355 -50.031  1.00  0.00     0.126 C 
HETATM   22  O1  UNL     1     -11.061 -19.955 -47.746  1.00  0.00    -0.266 OA
ENDBRANCH  19  20
ENDBRANCH  17  19
BRANCH  17  23
HETATM   23  C5  UNL     1      -7.433 -17.724 -48.758  1.00  0.00     0.213 C 
BRANCH  23  24
HETATM   24  O3  UNL     1      -7.320 -16.334 -48.728  1.00  0.00    -0.397 OA
ATOM     25  H3  UNL     1      -7.979 -16.005 -49.328  1.00  0.00     0.209 HD
ENDBRANCH  23  24
ENDBRANCH  17  23
ENDBRANCH  15  17
ENDBRANCH  14  15
ENDBRANCH   1  14
BRANCH   2  26
HETATM   26  C9  UNL     1     -13.047 -16.133 -47.449  1.00  0.00     0.124 C 
BRANCH  26  27
HETATM   27  C10 UNL     1     -14.211 -17.080 -47.303  1.00  0.00     0.173 C 
HETATM   28  O6  UNL     1     -14.031 -18.313 -47.225  1.00  0.00    -0.648 OA
HETATM   29  O7  UNL     1     -15.464 -16.518 -47.261  1.00  0.00    -0.648 OA
ENDBRANCH  26  27
ENDBRANCH   2  26
BRANCH   8  30
HETATM   30  C17 UNL     1     -11.928 -12.052 -49.310  1.00  0.00    -0.040 C 
HETATM   31  C18 UNL     1     -12.578 -10.772 -49.827  1.00  0.00     0.015 C 
HETATM   32  C19 UNL     1     -12.500 -12.094 -47.876  1.00  0.00     0.015 C 
BRANCH  30  33
HETATM   33  C20 UNL     1     -10.494 -11.746 -49.116  1.00  0.00     0.013 C 
BRANCH  33  34
HETATM   34  C21 UNL     1     -10.146 -10.339 -49.621  1.00  0.00     0.028 C 
BRANCH  34  35
HETATM   35  C22 UNL     1      -9.112 -10.461 -50.716  1.00  0.00    -0.025 C 
HETATM   36  C23 UNL     1      -8.158  -9.574 -50.786  1.00  0.00    -0.091 C 
HETATM   37  C24 UNL     1      -7.138  -9.693 -51.867  1.00  0.00     0.042 C 
HETATM   38  C25 UNL     1      -8.018  -8.434 -49.841  1.00  0.00     0.042 C 
ENDBRANCH  34  35
ENDBRANCH  33  34
ENDBRANCH  30  33
ENDBRANCH   8  30
BRANCH  12  39
HETATM   39  C29 UNL     1     -11.573 -16.238 -53.421  1.00  0.00    -0.025 C 
HETATM   40  C30 UNL     1     -12.763 -16.084 -54.342  1.00  0.00     0.017 C 
HETATM   41  C31 UNL     1     -10.481 -15.274 -53.819  1.00  0.00     0.017 C 
HETATM   42  C32 UNL     1     -11.001 -17.641 -53.714  1.00  0.00     0.017 C 
ENDBRANCH  12  39
TORSDOF 14
ENDMDL
