MODEL 1
REMARK VINA RESULT: -9.045550294      0.000      0.000
REMARK  12 active torsions:
REMARK  status: ('A' for Active; 'I' for Inactive)
REMARK    1  A    between atoms: C2_2  and  C3_3 
REMARK    2  A    between atoms: C3_3  and  C4_4 
REMARK    3  A    between atoms: C3_3  and  C28_42 
REMARK    4  A    between atoms: C4_4  and  C5_5 
REMARK    5  A    between atoms: C5_5  and  C6_6 
REMARK    6  A    between atoms: C9_10  and  O2_11 
REMARK    7  A    between atoms: O2_11  and  C10_12 
REMARK    8  A    between atoms: C10_12  and  C11_14 
REMARK    9  A    between atoms: C11_14  and  N1_15 
REMARK   10  A    between atoms: C11_14  and  C16_27 
REMARK       I    between atoms: N1_15  and  C12_17 
REMARK       I    between atoms: C12_17  and  N2_19 
REMARK   11  A    between atoms: N2_19  and  C13_21 
REMARK   12  A    between atoms: C27_39  and  O6_40 
ROOT
HETATM    1  C6  UNL     1     -15.254 -14.465 -47.092  1.00  0.00     0.125 C 
HETATM    2  O1  UNL     1     -14.486 -13.776 -47.981  1.00  0.00    -0.385 OA
HETATM    3  C7  UNL     1     -14.828 -13.761 -49.290  1.00  0.00     0.180 C 
HETATM    4  C8  UNL     1     -13.663 -13.822 -50.261  1.00  0.00     0.095 C 
HETATM    5  C9  UNL     1     -12.346 -13.942 -49.588  1.00  0.00     0.278 C 
HETATM    6  O5  UNL     1     -11.996 -15.189 -49.142  1.00  0.00    -0.354 OA
HETATM    7  C19 UNL     1     -12.509 -16.279 -49.739  1.00  0.00     0.135 C 
HETATM    8  C20 UNL     1     -13.514 -16.920 -48.793  1.00  0.00     0.033 C 
HETATM    9  C21 UNL     1     -13.552 -16.256 -47.459  1.00  0.00     0.009 C 
HETATM   10  C22 UNL     1     -14.953 -15.939 -46.973  1.00  0.00     0.011 C 
HETATM   11  C23 UNL     1     -16.001 -16.835 -47.579  1.00  0.00     0.012 C 
HETATM   12  C24 UNL     1     -13.041 -16.101 -51.128  1.00  0.00     0.005 C 
HETATM   13  C25 UNL     1     -11.839 -16.143 -52.081  1.00  0.00     0.020 C 
HETATM   14  C26 UNL     1     -13.876 -17.327 -51.453  1.00  0.00     0.020 C 
HETATM   15  C27 UNL     1     -13.853 -14.867 -51.335  1.00  0.00     0.139 C 
ENDROOT
BRANCH   5  16
HETATM   16  O2  UNL     1     -11.266 -13.454 -50.351  1.00  0.00    -0.287 OA
BRANCH  16  17
HETATM   17  C10 UNL     1     -10.086 -12.974 -49.849  1.00  0.00     0.284 C 
HETATM   18  O3  UNL     1      -9.332 -13.810 -49.286  1.00  0.00    -0.263 OA
BRANCH  17  19
HETATM   19  C11 UNL     1      -9.773 -11.547 -49.994  1.00  0.00     0.189 C 
BRANCH  19  20
HETATM   20  N1  UNL     1      -9.553 -11.166 -51.373  1.00  0.00    -0.329 N 
HETATM   21  C12 UNL     1      -8.422 -10.433 -51.807  1.00  0.00     0.322 C 
HETATM   22  O4  UNL     1      -7.514 -10.058 -50.996  1.00  0.00    -0.247 OA
HETATM   23  N2  UNL     1      -8.265 -10.091 -53.165  1.00  0.00    -0.289 N 
ATOM     24  H2  UNL     1      -8.975 -10.379 -53.839  1.00  0.00     0.172 HD
ATOM     25  H1  UNL     1     -10.247 -11.439 -52.068  1.00  0.00     0.165 HD
BRANCH  23  26
HETATM   26  C13 UNL     1      -7.116  -9.340 -53.621  1.00  0.00     0.152 A 
HETATM   27  N3  UNL     1      -6.715  -8.139 -53.227  1.00  0.00    -0.346 N 
HETATM   28  C14 UNL     1      -5.655  -7.612 -53.747  1.00  0.00     0.097 A 
ATOM     29  H3  UNL     1      -7.242  -7.632 -52.515  1.00  0.00     0.167 HD
HETATM   30  C15 UNL     1      -4.983  -8.338 -54.699  1.00  0.00     0.070 A 
HETATM   31  S1  UNL     1      -5.940  -9.755 -54.784  1.00  0.00    -0.064 SA
ENDBRANCH  23  26
ENDBRANCH  19  20
BRANCH  19  32
HETATM   32  C16 UNL     1     -10.913 -10.706 -49.436  1.00  0.00     0.010 C 
HETATM   33  C17 UNL     1     -10.792  -9.260 -49.792  1.00  0.00     0.012 C 
HETATM   34  C18 UNL     1     -11.088 -10.899 -47.962  1.00  0.00     0.012 C 
ENDBRANCH  19  32
ENDBRANCH  17  19
ENDBRANCH  16  17
ENDBRANCH   5  16
BRANCH  15  35
HETATM   35  O6  UNL     1     -15.226 -15.135 -51.484  1.00  0.00    -0.394 OA
ATOM     36  H6  UNL     1     -15.336 -15.965 -51.932  1.00  0.00     0.210 HD
ENDBRANCH  15  35
BRANCH   1  37
HETATM   37  C5  UNL     1     -16.735 -14.182 -47.142  1.00  0.00     0.033 C 
BRANCH  37  38
HETATM   38  C4  UNL     1     -17.485 -14.571 -45.913  1.00  0.00     0.007 C 
BRANCH  38  39
HETATM   39  C3  UNL     1     -18.892 -15.028 -46.053  1.00  0.00    -0.012 C 
BRANCH  39  40
HETATM   40  C2  UNL     1     -19.979 -14.031 -45.993  1.00  0.00     0.000 C 
HETATM   41  C1  UNL     1     -19.717 -12.612 -46.304  1.00  0.00     0.005 C 
ENDBRANCH  39  40
BRANCH  39  42
HETATM   42  C28 UNL     1     -19.162 -16.188 -45.060  1.00  0.00    -0.019 C 
HETATM   43  C29 UNL     1     -18.585 -17.471 -45.583  1.00  0.00     0.010 C 
HETATM   44  C30 UNL     1     -20.622 -16.369 -44.809  1.00  0.00     0.010 C 
ENDBRANCH  39  42
ENDBRANCH  38  39
ENDBRANCH  37  38
ENDBRANCH   1  37
TORSDOF 12
ENDMDL
MODEL 2
REMARK VINA RESULT: -8.678191972      0.499      1.342
REMARK  12 active torsions:
REMARK  status: ('A' for Active; 'I' for Inactive)
REMARK    1  A    between atoms: C2_2  and  C3_3 
REMARK    2  A    between atoms: C3_3  and  C4_4 
REMARK    3  A    between atoms: C3_3  and  C28_42 
REMARK    4  A    between atoms: C4_4  and  C5_5 
REMARK    5  A    between atoms: C5_5  and  C6_6 
REMARK    6  A    between atoms: C9_10  and  O2_11 
REMARK    7  A    between atoms: O2_11  and  C10_12 
REMARK    8  A    between atoms: C10_12  and  C11_14 
REMARK    9  A    between atoms: C11_14  and  N1_15 
REMARK   10  A    between atoms: C11_14  and  C16_27 
REMARK       I    between atoms: N1_15  and  C12_17 
REMARK       I    between atoms: C12_17  and  N2_19 
REMARK   11  A    between atoms: N2_19  and  C13_21 
REMARK   12  A    between atoms: C27_39  and  O6_40 
ROOT
HETATM    1  C6  UNL     1     -15.200 -14.509 -47.144  1.00  0.00     0.125 C 
HETATM    2  O1  UNL     1     -14.468 -13.797 -48.045  1.00  0.00    -0.385 OA
HETATM    3  C7  UNL     1     -14.787 -13.850 -49.359  1.00  0.00     0.180 C 
HETATM    4  C8  UNL     1     -13.604 -13.859 -50.310  1.00  0.00     0.095 C 
HETATM    5  C9  UNL     1     -12.294 -13.861 -49.613  1.00  0.00     0.278 C 
HETATM    6  O5  UNL     1     -11.863 -15.063 -49.119  1.00  0.00    -0.354 OA
HETATM    7  C19 UNL     1     -12.286 -16.207 -49.685  1.00  0.00     0.135 C 
HETATM    8  C20 UNL     1     -13.259 -16.888 -48.733  1.00  0.00     0.033 C 
HETATM    9  C21 UNL     1     -13.368 -16.183 -47.423  1.00  0.00     0.009 C 
HETATM   10  C22 UNL     1     -14.796 -15.953 -46.970  1.00  0.00     0.011 C 
HETATM   11  C23 UNL     1     -15.767 -16.942 -47.560  1.00  0.00     0.012 C 
HETATM   12  C24 UNL     1     -12.805 -16.114 -51.087  1.00  0.00     0.005 C 
HETATM   13  C25 UNL     1     -11.586 -16.101 -52.020  1.00  0.00     0.020 C 
HETATM   14  C26 UNL     1     -13.544 -17.408 -51.382  1.00  0.00     0.020 C 
HETATM   15  C27 UNL     1     -13.699 -14.950 -51.349  1.00  0.00     0.139 C 
ENDROOT
BRANCH   5  16
HETATM   16  O2  UNL     1     -11.239 -13.322 -50.375  1.00  0.00    -0.287 OA
BRANCH  16  17
HETATM   17  C10 UNL     1     -10.034 -12.895 -49.883  1.00  0.00     0.284 C 
HETATM   18  O3  UNL     1      -9.264 -13.782 -49.431  1.00  0.00    -0.263 OA
BRANCH  17  19
HETATM   19  C11 UNL     1      -9.716 -11.461 -49.911  1.00  0.00     0.189 C 
BRANCH  19  20
HETATM   20  N1  UNL     1      -9.438 -10.983 -51.249  1.00  0.00    -0.329 N 
HETATM   21  C12 UNL     1      -8.273 -10.255 -51.589  1.00  0.00     0.322 C 
HETATM   22  O4  UNL     1      -7.382  -9.971 -50.723  1.00  0.00    -0.247 OA
HETATM   23  N2  UNL     1      -8.060  -9.815 -52.910  1.00  0.00    -0.289 N 
ATOM     24  H2  UNL     1      -8.754 -10.028 -53.627  1.00  0.00     0.172 HD
ATOM     25  H1  UNL     1     -10.116 -11.180 -51.985  1.00  0.00     0.165 HD
BRANCH  23  26
HETATM   26  C13 UNL     1      -6.875  -9.066 -53.271  1.00  0.00     0.152 A 
HETATM   27  N3  UNL     1      -6.553  -7.828 -52.924  1.00  0.00    -0.346 N 
HETATM   28  C14 UNL     1      -5.444  -7.311 -53.340  1.00  0.00     0.097 A 
ATOM     29  H3  UNL     1      -7.180  -7.284 -52.331  1.00  0.00     0.167 HD
HETATM   30  C15 UNL     1      -4.637  -8.087 -54.135  1.00  0.00     0.070 A 
HETATM   31  S1  UNL     1      -5.547  -9.534 -54.232  1.00  0.00    -0.064 SA
ENDBRANCH  23  26
ENDBRANCH  19  20
BRANCH  19  32
HETATM   32  C16 UNL     1     -10.878 -10.659 -49.343  1.00  0.00     0.010 C 
HETATM   33  C17 UNL     1     -10.811  -9.211 -49.702  1.00  0.00     0.012 C 
HETATM   34  C18 UNL     1     -11.031 -10.856 -47.867  1.00  0.00     0.012 C 
ENDBRANCH  19  32
ENDBRANCH  17  19
ENDBRANCH  16  17
ENDBRANCH   5  16
BRANCH  15  35
HETATM   35  O6  UNL     1     -15.047 -15.321 -51.510  1.00  0.00    -0.394 OA
ATOM     36  H6  UNL     1     -15.111 -16.269 -51.527  1.00  0.00     0.210 HD
ENDBRANCH  15  35
BRANCH   1  37
HETATM   37  C5  UNL     1     -16.697 -14.336 -47.227  1.00  0.00     0.033 C 
BRANCH  37  38
HETATM   38  C4  UNL     1     -17.382 -14.203 -45.909  1.00  0.00     0.007 C 
BRANCH  38  39
HETATM   39  C3  UNL     1     -18.685 -14.889 -45.712  1.00  0.00    -0.012 C 
BRANCH  39  40
HETATM   40  C2  UNL     1     -18.820 -16.302 -46.121  1.00  0.00     0.000 C 
HETATM   41  C1  UNL     1     -18.685 -17.387 -45.131  1.00  0.00     0.005 C 
ENDBRANCH  39  40
BRANCH  39  42
HETATM   42  C28 UNL     1     -19.821 -14.033 -46.329  1.00  0.00    -0.019 C 
HETATM   43  C29 UNL     1     -19.583 -12.575 -46.063  1.00  0.00     0.010 C 
HETATM   44  C30 UNL     1     -21.158 -14.420 -45.790  1.00  0.00     0.010 C 
ENDBRANCH  39  42
ENDBRANCH  38  39
ENDBRANCH  37  38
ENDBRANCH   1  37
TORSDOF 12
ENDMDL
MODEL 3
REMARK VINA RESULT: -8.653709881      1.858      2.040
REMARK  12 active torsions:
REMARK  status: ('A' for Active; 'I' for Inactive)
REMARK    1  A    between atoms: C2_2  and  C3_3 
REMARK    2  A    between atoms: C3_3  and  C4_4 
REMARK    3  A    between atoms: C3_3  and  C28_42 
REMARK    4  A    between atoms: C4_4  and  C5_5 
REMARK    5  A    between atoms: C5_5  and  C6_6 
REMARK    6  A    between atoms: C9_10  and  O2_11 
REMARK    7  A    between atoms: O2_11  and  C10_12 
REMARK    8  A    between atoms: C10_12  and  C11_14 
REMARK    9  A    between atoms: C11_14  and  N1_15 
REMARK   10  A    between atoms: C11_14  and  C16_27 
REMARK       I    between atoms: N1_15  and  C12_17 
REMARK       I    between atoms: C12_17  and  N2_19 
REMARK   11  A    between atoms: N2_19  and  C13_21 
REMARK   12  A    between atoms: C27_39  and  O6_40 
ROOT
HETATM    1  C6  UNL     1     -15.336 -14.425 -46.916  1.00  0.00     0.125 C 
HETATM    2  O1  UNL     1     -14.549 -13.620 -47.681  1.00  0.00    -0.385 OA
HETATM    3  C7  UNL     1     -14.797 -13.506 -49.007  1.00  0.00     0.180 C 
HETATM    4  C8  UNL     1     -13.564 -13.418 -49.888  1.00  0.00     0.095 C 
HETATM    5  C9  UNL     1     -12.294 -13.528 -49.128  1.00  0.00     0.278 C 
HETATM    6  O5  UNL     1     -11.903 -14.789 -48.765  1.00  0.00    -0.354 OA
HETATM    7  C19 UNL     1     -12.306 -15.846 -49.491  1.00  0.00     0.135 C 
HETATM    8  C20 UNL     1     -13.336 -16.623 -48.683  1.00  0.00     0.033 C 
HETATM    9  C21 UNL     1     -13.509 -16.083 -47.303  1.00  0.00     0.009 C 
HETATM   10  C22 UNL     1     -14.958 -15.886 -46.901  1.00  0.00     0.011 C 
HETATM   11  C23 UNL     1     -15.905 -16.778 -47.659  1.00  0.00     0.012 C 
HETATM   12  C24 UNL     1     -12.747 -15.573 -50.896  1.00  0.00     0.005 C 
HETATM   13  C25 UNL     1     -11.479 -15.466 -51.754  1.00  0.00     0.020 C 
HETATM   14  C26 UNL     1     -13.482 -16.808 -51.387  1.00  0.00     0.020 C 
HETATM   15  C27 UNL     1     -13.613 -14.371 -51.058  1.00  0.00     0.139 C 
ENDROOT
BRANCH   5  16
HETATM   16  O2  UNL     1     -11.193 -12.917 -49.761  1.00  0.00    -0.287 OA
BRANCH  16  17
HETATM   17  C10 UNL     1     -10.444 -11.892 -49.249  1.00  0.00     0.284 C 
HETATM   18  O3  UNL     1     -10.686 -11.557 -48.059  1.00  0.00    -0.263 OA
BRANCH  17  19
HETATM   19  C11 UNL     1      -9.423 -11.257 -50.093  1.00  0.00     0.189 C 
BRANCH  19  20
HETATM   20  N1  UNL     1      -9.333 -11.865 -51.404  1.00  0.00    -0.329 N 
HETATM   21  C12 UNL     1      -8.107 -12.213 -52.018  1.00  0.00     0.322 C 
HETATM   22  O4  UNL     1      -6.988 -12.010 -51.444  1.00  0.00    -0.247 OA
HETATM   23  N2  UNL     1      -8.085 -12.802 -53.297  1.00  0.00    -0.289 N 
ATOM     24  H2  UNL     1      -8.965 -12.980 -53.782  1.00  0.00     0.172 HD
ATOM     25  H1  UNL     1     -10.198 -12.052 -51.911  1.00  0.00     0.165 HD
BRANCH  23  26
HETATM   26  C13 UNL     1      -6.838 -13.159 -53.938  1.00  0.00     0.152 A 
HETATM   27  N3  UNL     1      -5.773 -12.396 -54.138  1.00  0.00    -0.346 N 
HETATM   28  C14 UNL     1      -4.734 -12.883 -54.733  1.00  0.00     0.097 A 
ATOM     29  H3  UNL     1      -5.773 -11.425 -53.824  1.00  0.00     0.167 HD
HETATM   30  C15 UNL     1      -4.786 -14.195 -55.136  1.00  0.00     0.070 A 
HETATM   31  S1  UNL     1      -6.356 -14.646 -54.621  1.00  0.00    -0.064 SA
ENDBRANCH  23  26
ENDBRANCH  19  20
BRANCH  19  32
HETATM   32  C16 UNL     1      -9.739  -9.778 -50.267  1.00  0.00     0.010 C 
HETATM   33  C17 UNL     1      -8.729  -8.891 -49.618  1.00  0.00     0.012 C 
HETATM   34  C18 UNL     1     -11.131  -9.443 -49.828  1.00  0.00     0.012 C 
ENDBRANCH  19  32
ENDBRANCH  17  19
ENDBRANCH  16  17
ENDBRANCH   5  16
BRANCH  15  35
HETATM   35  O6  UNL     1     -14.955 -14.696 -51.334  1.00  0.00    -0.394 OA
ATOM     36  H6  UNL     1     -15.025 -15.631 -51.485  1.00  0.00     0.210 HD
ENDBRANCH  15  35
BRANCH   1  37
HETATM   37  C5  UNL     1     -16.824 -14.217 -47.055  1.00  0.00     0.033 C 
BRANCH  37  38
HETATM   38  C4  UNL     1     -17.618 -14.571 -45.843  1.00  0.00     0.007 C 
BRANCH  38  39
HETATM   39  C3  UNL     1     -19.024 -15.020 -46.020  1.00  0.00    -0.012 C 
BRANCH  39  40
HETATM   40  C2  UNL     1     -20.110 -14.022 -45.941  1.00  0.00     0.000 C 
HETATM   41  C1  UNL     1     -19.873 -12.620 -46.335  1.00  0.00     0.005 C 
ENDBRANCH  39  40
BRANCH  39  42
HETATM   42  C28 UNL     1     -19.311 -16.213 -45.072  1.00  0.00    -0.019 C 
HETATM   43  C29 UNL     1     -18.643 -17.458 -45.579  1.00  0.00     0.010 C 
HETATM   44  C30 UNL     1     -20.775 -16.462 -44.928  1.00  0.00     0.010 C 
ENDBRANCH  39  42
ENDBRANCH  38  39
ENDBRANCH  37  38
ENDBRANCH   1  37
TORSDOF 12
ENDMDL
MODEL 4
REMARK VINA RESULT: -8.640302118      2.256      2.799
REMARK  12 active torsions:
REMARK  status: ('A' for Active; 'I' for Inactive)
REMARK    1  A    between atoms: C2_2  and  C3_3 
REMARK    2  A    between atoms: C3_3  and  C4_4 
REMARK    3  A    between atoms: C3_3  and  C28_42 
REMARK    4  A    between atoms: C4_4  and  C5_5 
REMARK    5  A    between atoms: C5_5  and  C6_6 
REMARK    6  A    between atoms: C9_10  and  O2_11 
REMARK    7  A    between atoms: O2_11  and  C10_12 
REMARK    8  A    between atoms: C10_12  and  C11_14 
REMARK    9  A    between atoms: C11_14  and  N1_15 
REMARK   10  A    between atoms: C11_14  and  C16_27 
REMARK       I    between atoms: N1_15  and  C12_17 
REMARK       I    between atoms: C12_17  and  N2_19 
REMARK   11  A    between atoms: N2_19  and  C13_21 
REMARK   12  A    between atoms: C27_39  and  O6_40 
ROOT
HETATM    1  C6  UNL     1     -15.324 -14.448 -46.906  1.00  0.00     0.125 C 
HETATM    2  O1  UNL     1     -14.518 -13.650 -47.661  1.00  0.00    -0.385 OA
HETATM    3  C7  UNL     1     -14.755 -13.522 -48.987  1.00  0.00     0.180 C 
HETATM    4  C8  UNL     1     -13.516 -13.449 -49.859  1.00  0.00     0.095 C 
HETATM    5  C9  UNL     1     -12.252 -13.587 -49.093  1.00  0.00     0.278 C 
HETATM    6  O5  UNL     1     -11.886 -14.857 -48.737  1.00  0.00    -0.354 OA
HETATM    7  C19 UNL     1     -12.303 -15.902 -49.474  1.00  0.00     0.135 C 
HETATM    8  C20 UNL     1     -13.352 -16.666 -48.678  1.00  0.00     0.033 C 
HETATM    9  C21 UNL     1     -13.524 -16.135 -47.295  1.00  0.00     0.009 C 
HETATM   10  C22 UNL     1     -14.971 -15.915 -46.901  1.00  0.00     0.011 C 
HETATM   11  C23 UNL     1     -15.929 -16.784 -47.672  1.00  0.00     0.012 C 
HETATM   12  C24 UNL     1     -12.730 -15.610 -50.879  1.00  0.00     0.005 C 
HETATM   13  C25 UNL     1     -11.455 -15.518 -51.729  1.00  0.00     0.020 C 
HETATM   14  C26 UNL     1     -13.484 -16.828 -51.385  1.00  0.00     0.020 C 
HETATM   15  C27 UNL     1     -13.574 -14.391 -51.038  1.00  0.00     0.139 C 
ENDROOT
BRANCH   5  16
HETATM   16  O2  UNL     1     -11.137 -12.990 -49.714  1.00  0.00    -0.287 OA
BRANCH  16  17
HETATM   17  C10 UNL     1     -10.443 -11.908 -49.243  1.00  0.00     0.284 C 
HETATM   18  O3  UNL     1     -10.711 -11.534 -48.071  1.00  0.00    -0.263 OA
BRANCH  17  19
HETATM   19  C11 UNL     1      -9.446 -11.263 -50.107  1.00  0.00     0.189 C 
BRANCH  19  20
HETATM   20  N1  UNL     1      -9.390 -11.857 -51.426  1.00  0.00    -0.329 N 
HETATM   21  C12 UNL     1      -8.543 -12.942 -51.755  1.00  0.00     0.322 C 
HETATM   22  O4  UNL     1      -7.765 -13.471 -50.896  1.00  0.00    -0.247 OA
HETATM   23  N2  UNL     1      -8.533 -13.477 -53.058  1.00  0.00    -0.289 N 
ATOM     24  H2  UNL     1      -9.147 -13.076 -53.769  1.00  0.00     0.172 HD
ATOM     25  H1  UNL     1      -9.991 -11.475 -52.156  1.00  0.00     0.165 HD
BRANCH  23  26
HETATM   26  C13 UNL     1      -7.669 -14.583 -53.409  1.00  0.00     0.152 A 
HETATM   27  N3  UNL     1      -6.362 -14.692 -53.219  1.00  0.00    -0.346 N 
HETATM   28  C14 UNL     1      -5.743 -15.762 -53.598  1.00  0.00     0.097 A 
ATOM     29  H3  UNL     1      -5.845 -13.933 -52.775  1.00  0.00     0.167 HD
HETATM   30  C15 UNL     1      -6.487 -16.753 -54.190  1.00  0.00     0.070 A 
HETATM   31  S1  UNL     1      -8.055 -16.065 -54.160  1.00  0.00    -0.064 SA
ENDBRANCH  23  26
ENDBRANCH  19  20
BRANCH  19  32
HETATM   32  C16 UNL     1      -9.770  -9.783 -50.258  1.00  0.00     0.010 C 
HETATM   33  C17 UNL     1      -8.795  -8.902 -49.548  1.00  0.00     0.012 C 
HETATM   34  C18 UNL     1     -11.182  -9.472 -49.867  1.00  0.00     0.012 C 
ENDBRANCH  19  32
ENDBRANCH  17  19
ENDBRANCH  16  17
ENDBRANCH   5  16
BRANCH  15  35
HETATM   35  O6  UNL     1     -14.919 -14.691 -51.325  1.00  0.00    -0.394 OA
ATOM     36  H6  UNL     1     -15.139 -15.534 -50.947  1.00  0.00     0.210 HD
ENDBRANCH  15  35
BRANCH   1  37
HETATM   37  C5  UNL     1     -16.807 -14.213 -47.053  1.00  0.00     0.033 C 
BRANCH  37  38
HETATM   38  C4  UNL     1     -17.615 -14.564 -45.850  1.00  0.00     0.007 C 
BRANCH  38  39
HETATM   39  C3  UNL     1     -19.017 -15.020 -46.042  1.00  0.00    -0.012 C 
BRANCH  39  40
HETATM   40  C2  UNL     1     -20.105 -14.022 -46.010  1.00  0.00     0.000 C 
HETATM   41  C1  UNL     1     -19.830 -12.599 -46.288  1.00  0.00     0.005 C 
ENDBRANCH  39  40
BRANCH  39  42
HETATM   42  C28 UNL     1     -19.320 -16.189 -45.070  1.00  0.00    -0.019 C 
HETATM   43  C29 UNL     1     -18.610 -17.436 -45.510  1.00  0.00     0.010 C 
HETATM   44  C30 UNL     1     -20.784 -16.462 -44.977  1.00  0.00     0.010 C 
ENDBRANCH  39  42
ENDBRANCH  38  39
ENDBRANCH  37  38
ENDBRANCH   1  37
TORSDOF 12
ENDMDL
MODEL 5
REMARK VINA RESULT: -8.610861537      1.336      1.861
REMARK  12 active torsions:
REMARK  status: ('A' for Active; 'I' for Inactive)
REMARK    1  A    between atoms: C2_2  and  C3_3 
REMARK    2  A    between atoms: C3_3  and  C4_4 
REMARK    3  A    between atoms: C3_3  and  C28_42 
REMARK    4  A    between atoms: C4_4  and  C5_5 
REMARK    5  A    between atoms: C5_5  and  C6_6 
REMARK    6  A    between atoms: C9_10  and  O2_11 
REMARK    7  A    between atoms: O2_11  and  C10_12 
REMARK    8  A    between atoms: C10_12  and  C11_14 
REMARK    9  A    between atoms: C11_14  and  N1_15 
REMARK   10  A    between atoms: C11_14  and  C16_27 
REMARK       I    between atoms: N1_15  and  C12_17 
REMARK       I    between atoms: C12_17  and  N2_19 
REMARK   11  A    between atoms: N2_19  and  C13_21 
REMARK   12  A    between atoms: C27_39  and  O6_40 
ROOT
HETATM    1  C6  UNL     1     -15.227 -14.608 -46.913  1.00  0.00     0.125 C 
HETATM    2  O1  UNL     1     -14.308 -13.901 -47.627  1.00  0.00    -0.385 OA
HETATM    3  C7  UNL     1     -14.494 -13.710 -48.954  1.00  0.00     0.180 C 
HETATM    4  C8  UNL     1     -13.233 -13.773 -49.797  1.00  0.00     0.095 C 
HETATM    5  C9  UNL     1     -12.017 -14.090 -49.007  1.00  0.00     0.278 C 
HETATM    6  O5  UNL     1     -11.823 -15.406 -48.679  1.00  0.00    -0.354 OA
HETATM    7  C19 UNL     1     -12.350 -16.370 -49.453  1.00  0.00     0.135 C 
HETATM    8  C20 UNL     1     -13.507 -17.014 -48.703  1.00  0.00     0.033 C 
HETATM    9  C21 UNL     1     -13.646 -16.500 -47.310  1.00  0.00     0.009 C 
HETATM   10  C22 UNL     1     -15.063 -16.108 -46.941  1.00  0.00     0.011 C 
HETATM   11  C23 UNL     1     -16.104 -16.829 -47.757  1.00  0.00     0.012 C 
HETATM   12  C24 UNL     1     -12.702 -15.991 -50.860  1.00  0.00     0.005 C 
HETATM   13  C25 UNL     1     -11.404 -16.041 -51.678  1.00  0.00     0.020 C 
HETATM   14  C26 UNL     1     -13.591 -17.090 -51.415  1.00  0.00     0.020 C 
HETATM   15  C27 UNL     1     -13.381 -14.671 -51.002  1.00  0.00     0.139 C 
ENDROOT
BRANCH   5  16
HETATM   16  O2  UNL     1     -10.820 -13.625 -49.587  1.00  0.00    -0.287 OA
BRANCH  16  17
HETATM   17  C10 UNL     1     -10.577 -12.342 -50.000  1.00  0.00     0.284 C 
HETATM   18  O3  UNL     1     -11.258 -11.436 -49.452  1.00  0.00    -0.263 OA
BRANCH  17  19
HETATM   19  C11 UNL     1      -9.559 -12.101 -51.030  1.00  0.00     0.189 C 
BRANCH  19  20
HETATM   20  N1  UNL     1      -8.678 -11.003 -50.691  1.00  0.00    -0.329 N 
HETATM   21  C12 UNL     1      -8.208 -10.061 -51.637  1.00  0.00     0.322 C 
HETATM   22  O4  UNL     1      -8.538 -10.123 -52.866  1.00  0.00    -0.247 OA
HETATM   23  N2  UNL     1      -7.351  -9.014 -51.245  1.00  0.00    -0.289 N 
ATOM     24  H2  UNL     1      -7.070  -8.937 -50.267  1.00  0.00     0.172 HD
ATOM     25  H1  UNL     1      -8.380 -10.903 -49.721  1.00  0.00     0.165 HD
BRANCH  23  26
HETATM   26  C13 UNL     1      -6.860  -8.047 -52.203  1.00  0.00     0.152 A 
HETATM   27  N3  UNL     1      -6.678  -8.207 -53.506  1.00  0.00    -0.346 N 
HETATM   28  C14 UNL     1      -6.227  -7.226 -54.217  1.00  0.00     0.097 A 
ATOM     29  H3  UNL     1      -6.893  -9.102 -53.947  1.00  0.00     0.167 HD
HETATM   30  C15 UNL     1      -5.955  -6.044 -53.575  1.00  0.00     0.070 A 
HETATM   31  S1  UNL     1      -6.375  -6.430 -51.960  1.00  0.00    -0.064 SA
ENDBRANCH  23  26
ENDBRANCH  19  20
BRANCH  19  32
HETATM   32  C16 UNL     1      -8.716 -13.352 -51.231  1.00  0.00     0.010 C 
HETATM   33  C17 UNL     1      -7.389 -13.271 -50.550  1.00  0.00     0.012 C 
HETATM   34  C18 UNL     1      -8.573 -13.711 -52.677  1.00  0.00     0.012 C 
ENDBRANCH  19  32
ENDBRANCH  17  19
ENDBRANCH  16  17
ENDBRANCH   5  16
BRANCH  15  35
HETATM   35  O6  UNL     1     -14.745 -14.790 -51.327  1.00  0.00    -0.394 OA
ATOM     36  H6  UNL     1     -15.052 -13.970 -51.694  1.00  0.00     0.210 HD
ENDBRANCH  15  35
BRANCH   1  37
HETATM   37  C5  UNL     1     -16.665 -14.183 -47.086  1.00  0.00     0.033 C 
BRANCH  37  38
HETATM   38  C4  UNL     1     -17.523 -14.388 -45.884  1.00  0.00     0.007 C 
BRANCH  38  39
HETATM   39  C3  UNL     1     -18.915 -14.870 -46.077  1.00  0.00    -0.012 C 
BRANCH  39  40
HETATM   40  C2  UNL     1     -20.026 -13.899 -46.015  1.00  0.00     0.000 C 
HETATM   41  C1  UNL     1     -19.793 -12.471 -46.308  1.00  0.00     0.005 C 
ENDBRANCH  39  40
BRANCH  39  42
HETATM   42  C28 UNL     1     -19.185 -16.068 -45.130  1.00  0.00    -0.019 C 
HETATM   43  C29 UNL     1     -18.511 -17.306 -45.644  1.00  0.00     0.010 C 
HETATM   44  C30 UNL     1     -20.647 -16.330 -44.976  1.00  0.00     0.010 C 
ENDBRANCH  39  42
ENDBRANCH  38  39
ENDBRANCH  37  38
ENDBRANCH   1  37
TORSDOF 12
ENDMDL
