MODEL 1
REMARK VINA RESULT: -9.463730483      0.000      0.000
REMARK  9 active torsions:
REMARK  status: ('A' for Active; 'I' for Inactive)
REMARK    1  A    between atoms: C4_4  and  C5_5 
REMARK    2  A    between atoms: C5_5  and  C6_6 
REMARK    3  A    between atoms: C5_5  and  N1_14 
REMARK    4  A    between atoms: C6_6  and  C7_7 
REMARK    5  A    between atoms: C7_7  and  C8_8 
REMARK    6  A    between atoms: N1_14  and  C13_16 
REMARK    7  A    between atoms: C13_16  and  C14_17 
REMARK    8  A    between atoms: C13_16  and  C23_33 
REMARK    9  A    between atoms: C16_19  and  C17_20 
REMARK       I    between atoms: C17_20  and  N2_22 
ROOT
HETATM    1  C17 UNL     1     -10.949  10.352  -9.919  1.00  0.00     0.281 C 
HETATM    2  O2  UNL     1     -11.884   9.644  -9.386  1.00  0.00    -0.265 OA
HETATM    3  N2  UNL     1     -10.808  10.226 -11.314  1.00  0.00    -0.325 N 
HETATM    4  C18 UNL     1      -9.821  10.893 -12.130  1.00  0.00     0.153 C 
HETATM    5  C19 UNL     1      -9.898  10.284 -13.538  1.00  0.00     0.187 C 
HETATM    6  O3  UNL     1      -9.913   8.911 -13.439  1.00  0.00    -0.387 OA
HETATM    7  C20 UNL     1     -11.187   8.516 -13.080  1.00  0.00     0.208 C 
HETATM    8  C21 UNL     1     -11.748   9.366 -12.007  1.00  0.00     0.218 C 
HETATM    9  C22 UNL     1     -12.851  10.202 -12.529  1.00  0.00     0.087 C 
HETATM   10  N3  UNL     1     -13.710  10.863 -12.958  1.00  0.00    -0.195 NA
ENDROOT
BRANCH   1  11
HETATM   11  C16 UNL     1     -10.166  11.185  -9.024  1.00  0.00     0.168 A 
HETATM   12  C15 UNL     1     -10.530  12.167  -8.139  1.00  0.00     0.074 A 
HETATM   13  C14 UNL     1      -9.370  12.636  -7.542  1.00  0.00     0.058 A 
HETATM   14  N4  UNL     1      -8.381  11.948  -8.062  1.00  0.00    -0.263 N 
HETATM   15  O4  UNL     1      -8.853  11.111  -8.919  1.00  0.00    -0.232 OA
ATOM     16  H4  UNL     1      -7.395  12.059  -7.826  1.00  0.00     0.194 HD
BRANCH  13  17
HETATM   17  C13 UNL     1      -9.329  13.743  -6.473  1.00  0.00     0.133 C 
BRANCH  17  18
HETATM   18  N1  UNL     1     -10.150  14.740  -6.931  1.00  0.00    -0.404 N 
ATOM     19  H1  UNL     1     -10.843  14.451  -7.621  1.00  0.00     0.154 HD
BRANCH  18  20
HETATM   20  C5  UNL     1     -10.176  16.085  -6.592  1.00  0.00     0.100 C 
BRANCH  20  21
HETATM   21  C4  UNL     1      -9.518  17.193  -7.278  1.00  0.00    -0.000 C 
HETATM   22  C2  UNL     1      -9.421  17.358  -8.712  1.00  0.00    -0.089 C 
HETATM   23  C1  UNL     1      -8.720  16.189  -9.425  1.00  0.00     0.042 C 
HETATM   24  C3  UNL     1     -10.533  17.796  -9.532  1.00  0.00     0.042 C 
ENDBRANCH  20  21
BRANCH  20  25
HETATM   25  C6  UNL     1     -11.748  16.429  -6.686  1.00  0.00     0.029 C 
BRANCH  25  26
HETATM   26  C7  UNL     1     -12.541  15.259  -7.058  1.00  0.00     0.007 C 
BRANCH  26  27
HETATM   27  C8  UNL     1     -13.400  15.467  -8.296  1.00  0.00    -0.010 C 
HETATM   28  C9  UNL     1     -14.702  14.692  -8.092  1.00  0.00     0.031 C 
HETATM   29  C10 UNL     1     -15.405  14.561  -9.431  1.00  0.00     0.168 C 
HETATM   30  O1  UNL     1     -14.897  15.480 -10.349  1.00  0.00    -0.391 OA
HETATM   31  C11 UNL     1     -13.600  15.232 -10.721  1.00  0.00     0.168 C 
HETATM   32  C12 UNL     1     -12.764  14.855  -9.535  1.00  0.00     0.031 C 
ENDBRANCH  26  27
ENDBRANCH  25  26
ENDBRANCH  20  25
ENDBRANCH  18  20
ENDBRANCH  17  18
BRANCH  17  33
HETATM   33  C23 UNL     1      -9.613  13.116  -5.158  1.00  0.00     0.014 C 
HETATM   34  C24 UNL     1      -8.396  12.595  -4.465  1.00  0.00     0.007 C 
HETATM   35  C25 UNL     1      -8.160  13.451  -3.232  1.00  0.00     0.000 C 
HETATM   36  C26 UNL     1      -9.346  14.338  -3.064  1.00  0.00     0.000 C 
HETATM   37  C27 UNL     1     -10.309  14.037  -4.184  1.00  0.00     0.007 C 
ENDBRANCH  17  33
ENDBRANCH  13  17
ENDBRANCH   1  11
TORSDOF 9
ENDMDL
MODEL 2
REMARK VINA RESULT: -9.396107891      3.727      7.663
REMARK  9 active torsions:
REMARK  status: ('A' for Active; 'I' for Inactive)
REMARK    1  A    between atoms: C4_4  and  C5_5 
REMARK    2  A    between atoms: C5_5  and  C6_6 
REMARK    3  A    between atoms: C5_5  and  N1_14 
REMARK    4  A    between atoms: C6_6  and  C7_7 
REMARK    5  A    between atoms: C7_7  and  C8_8 
REMARK    6  A    between atoms: N1_14  and  C13_16 
REMARK    7  A    between atoms: C13_16  and  C14_17 
REMARK    8  A    between atoms: C13_16  and  C23_33 
REMARK    9  A    between atoms: C16_19  and  C17_20 
REMARK       I    between atoms: C17_20  and  N2_22 
ROOT
HETATM    1  C17 UNL     1     -17.602  14.310  -7.638  1.00  0.00     0.281 C 
HETATM    2  O2  UNL     1     -17.633  13.470  -6.661  1.00  0.00    -0.265 OA
HETATM    3  N2  UNL     1     -18.803  15.000  -7.888  1.00  0.00    -0.325 N 
HETATM    4  C18 UNL     1     -19.021  15.966  -8.940  1.00  0.00     0.153 C 
HETATM    5  C19 UNL     1     -20.525  16.280  -8.971  1.00  0.00     0.187 C 
HETATM    6  O3  UNL     1     -21.236  15.101  -8.944  1.00  0.00    -0.387 OA
HETATM    7  C20 UNL     1     -21.251  14.634  -7.644  1.00  0.00     0.208 C 
HETATM    8  C21 UNL     1     -19.921  14.741  -7.003  1.00  0.00     0.218 C 
HETATM    9  C22 UNL     1     -19.935  15.776  -5.948  1.00  0.00     0.087 C 
HETATM   10  N3  UNL     1     -19.957  16.605  -5.128  1.00  0.00    -0.195 NA
ENDROOT
BRANCH   1  11
HETATM   11  C16 UNL     1     -16.343  14.439  -8.351  1.00  0.00     0.168 A 
HETATM   12  C15 UNL     1     -15.052  14.562  -7.908  1.00  0.00     0.074 A 
HETATM   13  C14 UNL     1     -14.237  14.653  -9.026  1.00  0.00     0.058 A 
HETATM   14  N4  UNL     1     -15.031  14.582 -10.069  1.00  0.00    -0.263 N 
HETATM   15  O4  UNL     1     -16.248  14.458  -9.667  1.00  0.00    -0.232 OA
ATOM     16  H4  UNL     1     -14.732  14.618 -11.043  1.00  0.00     0.194 HD
BRANCH  13  17
HETATM   17  C13 UNL     1     -12.706  14.796  -8.976  1.00  0.00     0.133 C 
BRANCH  17  18
HETATM   18  N1  UNL     1     -12.396  15.085  -7.674  1.00  0.00    -0.404 N 
ATOM     19  H1  UNL     1     -13.149  14.934  -7.003  1.00  0.00     0.154 HD
BRANCH  18  20
HETATM   20  C5  UNL     1     -11.205  15.553  -7.135  1.00  0.00     0.100 C 
BRANCH  20  21
HETATM   21  C4  UNL     1     -10.666  16.908  -7.200  1.00  0.00    -0.000 C 
HETATM   22  C2  UNL     1      -9.934  17.471  -8.313  1.00  0.00    -0.089 C 
HETATM   23  C1  UNL     1      -8.658  16.692  -8.674  1.00  0.00     0.042 C 
HETATM   24  C3  UNL     1     -10.573  17.901  -9.541  1.00  0.00     0.042 C 
ENDBRANCH  20  21
BRANCH  20  25
HETATM   25  C6  UNL     1     -11.414  15.277  -5.561  1.00  0.00     0.029 C 
BRANCH  25  26
HETATM   26  C7  UNL     1     -10.214  15.590  -4.787  1.00  0.00     0.007 C 
BRANCH  26  27
HETATM   27  C8  UNL     1      -9.543  14.370  -4.174  1.00  0.00    -0.010 C 
HETATM   28  C9  UNL     1      -9.312  13.356  -5.294  1.00  0.00     0.031 C 
HETATM   29  C10 UNL     1      -9.006  12.005  -4.674  1.00  0.00     0.168 C 
HETATM   30  O1  UNL     1      -8.643  12.148  -3.334  1.00  0.00    -0.391 OA
HETATM   31  C11 UNL     1      -9.667  12.570  -2.525  1.00  0.00     0.168 C 
HETATM   32  C12 UNL     1     -10.455  13.664  -3.181  1.00  0.00     0.031 C 
ENDBRANCH  26  27
ENDBRANCH  25  26
ENDBRANCH  20  25
ENDBRANCH  18  20
ENDBRANCH  17  18
BRANCH  17  33
HETATM   33  C23 UNL     1     -12.117  13.590  -9.612  1.00  0.00     0.014 C 
HETATM   34  C24 UNL     1     -10.718  13.790 -10.101  1.00  0.00     0.007 C 
HETATM   35  C25 UNL     1      -9.799  12.941  -9.239  1.00  0.00     0.000 C 
HETATM   36  C26 UNL     1     -10.655  12.071  -8.384  1.00  0.00     0.000 C 
HETATM   37  C27 UNL     1     -12.094  12.379  -8.711  1.00  0.00     0.007 C 
ENDBRANCH  17  33
ENDBRANCH  13  17
ENDBRANCH   1  11
TORSDOF 9
ENDMDL
MODEL 3
REMARK VINA RESULT: -9.383420406      1.794      3.555
REMARK  9 active torsions:
REMARK  status: ('A' for Active; 'I' for Inactive)
REMARK    1  A    between atoms: C4_4  and  C5_5 
REMARK    2  A    between atoms: C5_5  and  C6_6 
REMARK    3  A    between atoms: C5_5  and  N1_14 
REMARK    4  A    between atoms: C6_6  and  C7_7 
REMARK    5  A    between atoms: C7_7  and  C8_8 
REMARK    6  A    between atoms: N1_14  and  C13_16 
REMARK    7  A    between atoms: C13_16  and  C14_17 
REMARK    8  A    between atoms: C13_16  and  C23_33 
REMARK    9  A    between atoms: C16_19  and  C17_20 
REMARK       I    between atoms: C17_20  and  N2_22 
ROOT
HETATM    1  C17 UNL     1      -9.322   9.511 -10.392  1.00  0.00     0.281 C 
HETATM    2  O2  UNL     1      -9.978   8.616  -9.737  1.00  0.00    -0.265 OA
HETATM    3  N2  UNL     1      -8.903   9.139 -11.683  1.00  0.00    -0.325 N 
HETATM    4  C18 UNL     1      -8.134   9.956 -12.592  1.00  0.00     0.153 C 
HETATM    5  C19 UNL     1      -7.719   9.065 -13.773  1.00  0.00     0.187 C 
HETATM    6  O3  UNL     1      -7.206   7.881 -13.290  1.00  0.00    -0.387 OA
HETATM    7  C20 UNL     1      -8.262   7.074 -12.913  1.00  0.00     0.208 C 
HETATM    8  C21 UNL     1      -9.291   7.826 -12.160  1.00  0.00     0.218 C 
HETATM    9  C22 UNL     1     -10.525   7.964 -12.962  1.00  0.00     0.087 C 
HETATM   10  N3  UNL     1     -11.486   8.076 -13.612  1.00  0.00    -0.195 NA
ENDROOT
BRANCH   1  11
HETATM   11  C16 UNL     1      -9.100  10.781  -9.722  1.00  0.00     0.168 A 
HETATM   12  C15 UNL     1      -9.910  11.872  -9.545  1.00  0.00     0.074 A 
HETATM   13  C14 UNL     1      -9.186  12.813  -8.829  1.00  0.00     0.058 A 
HETATM   14  N4  UNL     1      -8.008  12.279  -8.602  1.00  0.00    -0.263 N 
HETATM   15  O4  UNL     1      -7.969  11.103  -9.124  1.00  0.00    -0.232 OA
ATOM     16  H4  UNL     1      -7.245  12.726  -8.094  1.00  0.00     0.194 HD
BRANCH  13  17
HETATM   17  C13 UNL     1      -9.728  14.190  -8.406  1.00  0.00     0.133 C 
BRANCH  17  18
HETATM   18  N1  UNL     1      -9.864  14.139  -7.044  1.00  0.00    -0.404 N 
ATOM     19  H1  UNL     1      -8.990  14.134  -6.519  1.00  0.00     0.154 HD
BRANCH  18  20
HETATM   20  C5  UNL     1     -11.019  14.094  -6.275  1.00  0.00     0.100 C 
BRANCH  20  21
HETATM   21  C4  UNL     1     -11.336  14.886  -5.090  1.00  0.00    -0.000 C 
HETATM   22  C2  UNL     1     -10.377  15.584  -4.262  1.00  0.00    -0.089 C 
HETATM   23  C1  UNL     1      -9.301  14.669  -3.652  1.00  0.00     0.042 C 
HETATM   24  C3  UNL     1      -9.750  16.829  -4.659  1.00  0.00     0.042 C 
ENDBRANCH  20  21
BRANCH  20  25
HETATM   25  C6  UNL     1     -12.154  14.497  -7.345  1.00  0.00     0.029 C 
BRANCH  25  26
HETATM   26  C7  UNL     1     -12.570  15.891  -7.202  1.00  0.00     0.007 C 
BRANCH  26  27
HETATM   27  C8  UNL     1     -13.403  16.407  -8.366  1.00  0.00    -0.010 C 
HETATM   28  C9  UNL     1     -12.935  15.682  -9.627  1.00  0.00     0.031 C 
HETATM   29  C10 UNL     1     -13.460  16.428 -10.841  1.00  0.00     0.168 C 
HETATM   30  O1  UNL     1     -14.500  17.286 -10.482  1.00  0.00    -0.391 OA
HETATM   31  C11 UNL     1     -14.105  18.336  -9.693  1.00  0.00     0.168 C 
HETATM   32  C12 UNL     1     -13.144  17.882  -8.636  1.00  0.00     0.031 C 
ENDBRANCH  26  27
ENDBRANCH  25  26
ENDBRANCH  20  25
ENDBRANCH  18  20
ENDBRANCH  17  18
BRANCH  17  33
HETATM   33  C23 UNL     1      -8.855  15.228  -9.010  1.00  0.00     0.014 C 
HETATM   34  C24 UNL     1      -9.141  15.488 -10.454  1.00  0.00     0.007 C 
HETATM   35  C25 UNL     1      -9.719  16.889 -10.568  1.00  0.00     0.000 C 
HETATM   36  C26 UNL     1      -9.578  17.546  -9.237  1.00  0.00     0.000 C 
HETATM   37  C27 UNL     1      -8.920  16.561  -8.305  1.00  0.00     0.007 C 
ENDBRANCH  17  33
ENDBRANCH  13  17
ENDBRANCH   1  11
TORSDOF 9
ENDMDL
MODEL 4
REMARK VINA RESULT: -9.222061911      1.004      1.337
REMARK  9 active torsions:
REMARK  status: ('A' for Active; 'I' for Inactive)
REMARK    1  A    between atoms: C4_4  and  C5_5 
REMARK    2  A    between atoms: C5_5  and  C6_6 
REMARK    3  A    between atoms: C5_5  and  N1_14 
REMARK    4  A    between atoms: C6_6  and  C7_7 
REMARK    5  A    between atoms: C7_7  and  C8_8 
REMARK    6  A    between atoms: N1_14  and  C13_16 
REMARK    7  A    between atoms: C13_16  and  C14_17 
REMARK    8  A    between atoms: C13_16  and  C23_33 
REMARK    9  A    between atoms: C16_19  and  C17_20 
REMARK       I    between atoms: C17_20  and  N2_22 
ROOT
HETATM    1  C17 UNL     1     -10.935  10.278 -10.000  1.00  0.00     0.281 C 
HETATM    2  O2  UNL     1     -11.854   9.564  -9.445  1.00  0.00    -0.265 OA
HETATM    3  N2  UNL     1     -10.803  10.127 -11.393  1.00  0.00    -0.325 N 
HETATM    4  C18 UNL     1      -9.833  10.795 -12.230  1.00  0.00     0.153 C 
HETATM    5  C19 UNL     1      -9.912  10.157 -13.625  1.00  0.00     0.187 C 
HETATM    6  O3  UNL     1      -9.903   8.786 -13.499  1.00  0.00    -0.387 OA
HETATM    7  C20 UNL     1     -11.167   8.377 -13.123  1.00  0.00     0.208 C 
HETATM    8  C21 UNL     1     -11.734   9.238 -12.062  1.00  0.00     0.218 C 
HETATM    9  C22 UNL     1     -12.855  10.045 -12.590  1.00  0.00     0.087 C 
HETATM   10  N3  UNL     1     -13.728  10.683 -13.025  1.00  0.00    -0.195 NA
ENDROOT
BRANCH   1  11
HETATM   11  C16 UNL     1     -10.159  11.141  -9.127  1.00  0.00     0.168 A 
HETATM   12  C15 UNL     1     -10.519  12.206  -8.343  1.00  0.00     0.074 A 
HETATM   13  C14 UNL     1      -9.370  12.666  -7.718  1.00  0.00     0.058 A 
HETATM   14  N4  UNL     1      -8.391  11.893  -8.126  1.00  0.00    -0.263 N 
HETATM   15  O4  UNL     1      -8.859  11.013  -8.942  1.00  0.00    -0.232 OA
ATOM     16  H4  UNL     1      -7.415  11.975  -7.842  1.00  0.00     0.194 HD
BRANCH  13  17
HETATM   17  C13 UNL     1      -9.329  13.851  -6.737  1.00  0.00     0.133 C 
BRANCH  17  18
HETATM   18  N1  UNL     1     -10.005  14.873  -7.351  1.00  0.00    -0.404 N 
ATOM     19  H1  UNL     1     -10.990  14.692  -7.539  1.00  0.00     0.154 HD
BRANCH  18  20
HETATM   20  C5  UNL     1      -9.542  16.118  -7.753  1.00  0.00     0.100 C 
BRANCH  20  21
HETATM   21  C4  UNL     1      -9.269  16.573  -9.113  1.00  0.00    -0.000 C 
HETATM   22  C2  UNL     1      -8.825  15.739 -10.208  1.00  0.00    -0.089 C 
HETATM   23  C1  UNL     1      -7.500  15.007  -9.933  1.00  0.00     0.042 C 
HETATM   24  C3  UNL     1      -9.708  14.838 -10.921  1.00  0.00     0.042 C 
ENDBRANCH  20  21
BRANCH  20  25
HETATM   25  C6  UNL     1     -10.707  17.098  -7.226  1.00  0.00     0.029 C 
BRANCH  25  26
HETATM   26  C7  UNL     1     -11.958  16.381  -6.985  1.00  0.00     0.007 C 
BRANCH  26  27
HETATM   27  C8  UNL     1     -13.062  16.721  -7.975  1.00  0.00    -0.010 C 
HETATM   28  C9  UNL     1     -13.238  15.520  -8.903  1.00  0.00     0.031 C 
HETATM   29  C10 UNL     1     -14.039  15.955 -10.117  1.00  0.00     0.168 C 
HETATM   30  O1  UNL     1     -14.700  17.159  -9.867  1.00  0.00    -0.391 OA
HETATM   31  C11 UNL     1     -13.859  18.232  -9.724  1.00  0.00     0.168 C 
HETATM   32  C12 UNL     1     -12.667  17.873  -8.887  1.00  0.00     0.031 C 
ENDBRANCH  26  27
ENDBRANCH  25  26
ENDBRANCH  20  25
ENDBRANCH  18  20
ENDBRANCH  17  18
BRANCH  17  33
HETATM   33  C23 UNL     1      -9.797  13.363  -5.414  1.00  0.00     0.014 C 
HETATM   34  C24 UNL     1      -8.811  12.484  -4.715  1.00  0.00     0.007 C 
HETATM   35  C25 UNL     1      -8.309  13.232  -3.491  1.00  0.00     0.000 C 
HETATM   36  C26 UNL     1      -9.144  14.456  -3.334  1.00  0.00     0.000 C 
HETATM   37  C27 UNL     1     -10.155  14.470  -4.452  1.00  0.00     0.007 C 
ENDBRANCH  17  33
ENDBRANCH  13  17
ENDBRANCH   1  11
TORSDOF 9
ENDMDL
MODEL 5
REMARK VINA RESULT: -9.195532062      1.623      2.277
REMARK  9 active torsions:
REMARK  status: ('A' for Active; 'I' for Inactive)
REMARK    1  A    between atoms: C4_4  and  C5_5 
REMARK    2  A    between atoms: C5_5  and  C6_6 
REMARK    3  A    between atoms: C5_5  and  N1_14 
REMARK    4  A    between atoms: C6_6  and  C7_7 
REMARK    5  A    between atoms: C7_7  and  C8_8 
REMARK    6  A    between atoms: N1_14  and  C13_16 
REMARK    7  A    between atoms: C13_16  and  C14_17 
REMARK    8  A    between atoms: C13_16  and  C23_33 
REMARK    9  A    between atoms: C16_19  and  C17_20 
REMARK       I    between atoms: C17_20  and  N2_22 
ROOT
HETATM    1  C17 UNL     1      -9.301   9.251 -10.072  1.00  0.00     0.281 C 
HETATM    2  O2  UNL     1      -9.902   8.285  -9.465  1.00  0.00    -0.265 OA
HETATM    3  N2  UNL     1      -8.980   9.017 -11.422  1.00  0.00    -0.325 N 
HETATM    4  C18 UNL     1      -8.286   9.932 -12.298  1.00  0.00     0.153 C 
HETATM    5  C19 UNL     1      -7.958   9.171 -13.592  1.00  0.00     0.187 C 
HETATM    6  O3  UNL     1      -7.405   7.950 -13.273  1.00  0.00    -0.387 OA
HETATM    7  C20 UNL     1      -8.426   7.097 -12.902  1.00  0.00     0.208 C 
HETATM    8  C21 UNL     1      -9.397   7.755 -12.001  1.00  0.00     0.218 C 
HETATM    9  C22 UNL     1     -10.689   7.959 -12.690  1.00  0.00     0.087 C 
HETATM   10  N3  UNL     1     -11.698   8.126 -13.250  1.00  0.00    -0.195 NA
ENDROOT
BRANCH   1  11
HETATM   11  C16 UNL     1      -9.035  10.448  -9.294  1.00  0.00     0.168 A 
HETATM   12  C15 UNL     1      -9.806  11.147  -8.402  1.00  0.00     0.074 A 
HETATM   13  C14 UNL     1      -9.051  12.219  -7.953  1.00  0.00     0.058 A 
HETATM   14  N4  UNL     1      -7.890  12.136  -8.563  1.00  0.00    -0.263 N 
HETATM   15  O4  UNL     1      -7.893  11.107  -9.336  1.00  0.00    -0.232 OA
ATOM     16  H4  UNL     1      -7.112  12.783  -8.442  1.00  0.00     0.194 HD
BRANCH  13  17
HETATM   17  C13 UNL     1      -9.539  13.258  -6.928  1.00  0.00     0.133 C 
BRANCH  17  18
HETATM   18  N1  UNL     1     -10.680  13.802  -7.456  1.00  0.00    -0.404 N 
ATOM     19  H1  UNL     1     -10.886  13.532  -8.417  1.00  0.00     0.154 HD
BRANCH  18  20
HETATM   20  C5  UNL     1     -11.595  14.667  -6.872  1.00  0.00     0.100 C 
BRANCH  20  21
HETATM   21  C4  UNL     1     -11.616  16.125  -6.939  1.00  0.00    -0.000 C 
HETATM   22  C2  UNL     1     -10.499  16.998  -6.652  1.00  0.00    -0.089 C 
HETATM   23  C1  UNL     1      -9.934  16.837  -5.231  1.00  0.00     0.042 C 
HETATM   24  C3  UNL     1      -9.392  17.190  -7.568  1.00  0.00     0.042 C 
ENDBRANCH  20  21
BRANCH  20  25
HETATM   25  C6  UNL     1     -12.979  14.211  -7.560  1.00  0.00     0.029 C 
BRANCH  25  26
HETATM   26  C7  UNL     1     -13.324  15.054  -8.704  1.00  0.00     0.007 C 
BRANCH  26  27
HETATM   27  C8  UNL     1     -14.783  14.954  -9.123  1.00  0.00    -0.010 C 
HETATM   28  C9  UNL     1     -15.241  16.351  -9.541  1.00  0.00     0.031 C 
HETATM   29  C10 UNL     1     -16.758  16.371  -9.595  1.00  0.00     0.168 C 
HETATM   30  O1  UNL     1     -17.267  15.072  -9.639  1.00  0.00    -0.391 OA
HETATM   31  C11 UNL     1     -17.066  14.359  -8.486  1.00  0.00     0.168 C 
HETATM   32  C12 UNL     1     -15.681  14.575  -7.955  1.00  0.00     0.031 C 
ENDBRANCH  26  27
ENDBRANCH  25  26
ENDBRANCH  20  25
ENDBRANCH  18  20
ENDBRANCH  17  18
BRANCH  17  33
HETATM   33  C23 UNL     1      -9.598  12.594  -5.601  1.00  0.00     0.014 C 
HETATM   34  C24 UNL     1      -8.367  11.816  -5.262  1.00  0.00     0.007 C 
HETATM   35  C25 UNL     1      -7.673  12.524  -4.110  1.00  0.00     0.000 C 
HETATM   36  C26 UNL     1      -8.589  13.591  -3.616  1.00  0.00     0.000 C 
HETATM   37  C27 UNL     1      -9.840  13.548  -4.456  1.00  0.00     0.007 C 
ENDBRANCH  17  33
ENDBRANCH  13  17
ENDBRANCH   1  11
TORSDOF 9
ENDMDL
