MODEL 1
REMARK VINA RESULT: -9.118786916      0.000      0.000
REMARK  15 active torsions:
REMARK  status: ('A' for Active; 'I' for Inactive)
REMARK    1  A    between atoms: C2_2  and  C4_4 
REMARK    2  A    between atoms: C4_4  and  O2_6 
REMARK    3  A    between atoms: O2_6  and  C5_7 
REMARK    4  A    between atoms: C5_7  and  C6_8 
REMARK    5  A    between atoms: C6_8  and  C8_10 
REMARK    6  A    between atoms: C8_10  and  N1_11 
REMARK    7  A    between atoms: C8_10  and  C22_27 
REMARK    8  A    between atoms: N1_11  and  C9_12 
REMARK    9  A    between atoms: C9_12  and  C11_14 
REMARK   10  A    between atoms: N2_15  and  C12_17 
REMARK   11  A    between atoms: C13_18  and  C14_19 
REMARK   12  A    between atoms: C15_20  and  C16_21 
REMARK   13  A    between atoms: C22_27  and  O4_29 
REMARK   14  A    between atoms: O4_29  and  C23_30 
REMARK   15  A    between atoms: C29_36  and  O5_37 
ROOT
HETATM    1  C8  UNL     1     -14.373  15.095  -8.392  1.00  0.00     0.268 C 
ENDROOT
BRANCH   1   2
HETATM    2  C6  UNL     1     -15.534  14.539  -9.266  1.00  0.00     0.052 C 
HETATM    3  C7  UNL     1     -15.090  14.675 -10.730  1.00  0.00     0.016 C 
BRANCH   2   4
HETATM    4  C5  UNL     1     -16.798  15.266  -9.042  1.00  0.00     0.187 C 
BRANCH   4   5
HETATM    5  O2  UNL     1     -17.858  14.421  -8.598  1.00  0.00    -0.317 OA
BRANCH   5   6
HETATM    6  C4  UNL     1     -18.355  14.360  -7.326  1.00  0.00     0.288 C 
HETATM    7  O1  UNL     1     -17.679  13.778  -6.447  1.00  0.00    -0.260 OA
BRANCH   6   8
HETATM    8  C2  UNL     1     -19.640  14.939  -6.940  1.00  0.00     0.004 C 
HETATM    9  C1  UNL     1     -19.658  15.887  -6.029  1.00  0.00     0.024 C 
HETATM   10  C3  UNL     1     -20.921  14.484  -7.556  1.00  0.00     0.054 C 
ENDBRANCH   6   8
ENDBRANCH   5   6
ENDBRANCH   4   5
ENDBRANCH   2   4
ENDBRANCH   1   2
BRANCH   1  11
HETATM   11  N1  UNL     1     -13.899  16.268  -8.862  1.00  0.00    -0.435 NA
BRANCH  11  12
HETATM   12  C9  UNL     1     -13.467  17.308  -9.277  1.00  0.00     0.090 C 
HETATM   13  C10 UNL     1     -14.282  18.334 -10.049  1.00  0.00     0.086 C 
BRANCH  12  14
HETATM   14  C11 UNL     1     -12.045  17.720  -9.067  1.00  0.00     0.126 C 
HETATM   15  N2  UNL     1     -11.371  17.133  -8.169  1.00  0.00    -0.372 N 
ATOM     16  H2  UNL     1     -11.853  16.406  -7.639  1.00  0.00     0.164 HD
BRANCH  15  17
HETATM   17  C12 UNL     1     -10.033  17.377  -7.827  1.00  0.00     0.087 C 
HETATM   18  C13 UNL     1      -9.573  17.124  -6.567  1.00  0.00     0.017 C 
BRANCH  18  19
HETATM   19  C14 UNL     1     -10.474  16.605  -5.600  1.00  0.00     0.002 C 
HETATM   20  C15 UNL     1     -10.549  15.509  -4.963  1.00  0.00     0.011 C 
BRANCH  20  21
HETATM   21  C16 UNL     1      -9.774  14.295  -4.926  1.00  0.00    -0.036 A 
HETATM   22  C17 UNL     1      -9.153  13.955  -3.698  1.00  0.00     0.011 A 
HETATM   23  C18 UNL     1      -8.414  12.803  -3.583  1.00  0.00     0.001 A 
HETATM   24  C19 UNL     1      -8.234  11.931  -4.626  1.00  0.00     0.000 A 
HETATM   25  C20 UNL     1      -8.831  12.253  -5.817  1.00  0.00     0.001 A 
HETATM   26  C21 UNL     1      -9.588  13.420  -5.954  1.00  0.00     0.011 A 
ENDBRANCH  20  21
ENDBRANCH  18  19
ENDBRANCH  15  17
ENDBRANCH  12  14
ENDBRANCH  11  12
ENDBRANCH   1  11
BRANCH   1  27
HETATM   27  C22 UNL     1     -13.288  14.074  -8.410  1.00  0.00     0.295 C 
HETATM   28  O3  UNL     1     -12.071  14.311  -8.351  1.00  0.00    -0.262 OA
BRANCH  27  29
HETATM   29  O4  UNL     1     -13.588  12.705  -8.498  1.00  0.00    -0.311 OA
BRANCH  29  30
HETATM   30  C23 UNL     1     -12.859  11.837  -9.320  1.00  0.00     0.160 C 
HETATM   31  C24 UNL     1     -13.897  10.894  -9.956  1.00  0.00     0.035 C 
HETATM   32  C25 UNL     1     -13.666  10.818 -11.470  1.00  0.00     0.002 C 
HETATM   33  C26 UNL     1     -12.222  10.577 -11.798  1.00  0.00     0.000 C 
HETATM   34  C27 UNL     1     -11.664   9.628 -10.756  1.00  0.00     0.002 C 
HETATM   35  C28 UNL     1     -10.955  10.306  -9.634  1.00  0.00     0.034 C 
HETATM   36  C29 UNL     1     -11.839  10.997  -8.641  1.00  0.00     0.147 C 
BRANCH  36  37
HETATM   37  O5  UNL     1     -12.405  10.039  -7.801  1.00  0.00    -0.393 OA
ATOM     38  H5  UNL     1     -13.155   9.606  -8.191  1.00  0.00     0.210 HD
ENDBRANCH  36  37
ENDBRANCH  29  30
ENDBRANCH  27  29
ENDBRANCH   1  27
TORSDOF 15
ENDMDL
MODEL 2
REMARK VINA RESULT: -8.626165892      3.513      6.766
REMARK  15 active torsions:
REMARK  status: ('A' for Active; 'I' for Inactive)
REMARK    1  A    between atoms: C2_2  and  C4_4 
REMARK    2  A    between atoms: C4_4  and  O2_6 
REMARK    3  A    between atoms: O2_6  and  C5_7 
REMARK    4  A    between atoms: C5_7  and  C6_8 
REMARK    5  A    between atoms: C6_8  and  C8_10 
REMARK    6  A    between atoms: C8_10  and  N1_11 
REMARK    7  A    between atoms: C8_10  and  C22_27 
REMARK    8  A    between atoms: N1_11  and  C9_12 
REMARK    9  A    between atoms: C9_12  and  C11_14 
REMARK   10  A    between atoms: N2_15  and  C12_17 
REMARK   11  A    between atoms: C13_18  and  C14_19 
REMARK   12  A    between atoms: C15_20  and  C16_21 
REMARK   13  A    between atoms: C22_27  and  O4_29 
REMARK   14  A    between atoms: O4_29  and  C23_30 
REMARK   15  A    between atoms: C29_36  and  O5_37 
ROOT
HETATM    1  C8  UNL     1      -9.930  14.635  -6.631  1.00  0.00     0.268 C 
ENDROOT
BRANCH   1   2
HETATM    2  C6  UNL     1     -10.892  15.282  -5.594  1.00  0.00     0.052 C 
HETATM    3  C7  UNL     1     -10.281  16.638  -5.210  1.00  0.00     0.016 C 
BRANCH   2   4
HETATM    4  C5  UNL     1     -11.070  14.439  -4.396  1.00  0.00     0.187 C 
BRANCH   4   5
HETATM    5  O2  UNL     1     -10.185  14.783  -3.333  1.00  0.00    -0.317 OA
BRANCH   5   6
HETATM    6  C4  UNL     1      -9.069  14.086  -2.961  1.00  0.00     0.288 C 
HETATM    7  O1  UNL     1      -8.228  14.651  -2.226  1.00  0.00    -0.260 OA
BRANCH   6   8
HETATM    8  C2  UNL     1      -8.806  12.712  -3.383  1.00  0.00     0.004 C 
HETATM    9  C1  UNL     1      -9.466  11.735  -2.802  1.00  0.00     0.024 C 
HETATM   10  C3  UNL     1      -7.815  12.398  -4.455  1.00  0.00     0.054 C 
ENDBRANCH   6   8
ENDBRANCH   5   6
ENDBRANCH   4   5
ENDBRANCH   2   4
ENDBRANCH   1   2
BRANCH   1  11
HETATM   11  N1  UNL     1      -9.780  15.400  -7.734  1.00  0.00    -0.435 NA
BRANCH  11  12
HETATM   12  C9  UNL     1      -9.641  16.071  -8.719  1.00  0.00     0.090 C 
HETATM   13  C10 UNL     1     -10.008  17.543  -8.818  1.00  0.00     0.086 C 
BRANCH  12  14
HETATM   14  C11 UNL     1      -9.069  15.518  -9.985  1.00  0.00     0.126 C 
HETATM   15  N2  UNL     1      -8.468  14.404  -9.941  1.00  0.00    -0.372 N 
ATOM     16  H2  UNL     1      -8.412  13.951  -9.029  1.00  0.00     0.164 HD
BRANCH  15  17
HETATM   17  C12 UNL     1      -7.872  13.728 -11.016  1.00  0.00     0.087 C 
HETATM   18  C13 UNL     1      -7.655  12.381 -10.965  1.00  0.00     0.017 C 
BRANCH  18  19
HETATM   19  C14 UNL     1      -8.046  11.667  -9.800  1.00  0.00     0.002 C 
HETATM   20  C15 UNL     1      -8.518  10.507  -9.594  1.00  0.00     0.011 C 
BRANCH  20  21
HETATM   21  C16 UNL     1      -8.878   9.388 -10.428  1.00  0.00    -0.036 A 
HETATM   22  C17 UNL     1      -9.893   8.521  -9.953  1.00  0.00     0.011 A 
HETATM   23  C18 UNL     1     -10.301   7.445 -10.702  1.00  0.00     0.001 A 
HETATM   24  C19 UNL     1      -9.763   7.148 -11.929  1.00  0.00     0.000 A 
HETATM   25  C20 UNL     1      -8.780   7.983 -12.395  1.00  0.00     0.001 A 
HETATM   26  C21 UNL     1      -8.352   9.084 -11.648  1.00  0.00     0.011 A 
ENDBRANCH  20  21
ENDBRANCH  18  19
ENDBRANCH  15  17
ENDBRANCH  12  14
ENDBRANCH  11  12
ENDBRANCH   1  11
BRANCH   1  27
HETATM   27  C22 UNL     1     -10.520  13.321  -7.011  1.00  0.00     0.295 C 
HETATM   28  O3  UNL     1     -10.020  12.208  -6.776  1.00  0.00    -0.262 OA
BRANCH  27  29
HETATM   29  O4  UNL     1     -11.744  13.251  -7.695  1.00  0.00    -0.311 OA
BRANCH  29  30
HETATM   30  C23 UNL     1     -11.917  12.448  -8.829  1.00  0.00     0.160 C 
HETATM   31  C24 UNL     1     -12.409  13.394  -9.940  1.00  0.00     0.035 C 
HETATM   32  C25 UNL     1     -11.582  13.171 -11.212  1.00  0.00     0.002 C 
HETATM   33  C26 UNL     1     -11.465  11.712 -11.547  1.00  0.00     0.000 C 
HETATM   34  C27 UNL     1     -12.788  11.054 -11.209  1.00  0.00     0.002 C 
HETATM   35  C28 UNL     1     -12.818  10.405  -9.869  1.00  0.00     0.034 C 
HETATM   36  C29 UNL     1     -12.902  11.344  -8.704  1.00  0.00     0.147 C 
BRANCH  36  37
HETATM   37  O5  UNL     1     -14.213  11.803  -8.591  1.00  0.00    -0.393 OA
ATOM     38  H5  UNL     1     -14.850  11.175  -8.910  1.00  0.00     0.210 HD
ENDBRANCH  36  37
ENDBRANCH  29  30
ENDBRANCH  27  29
ENDBRANCH   1  27
TORSDOF 15
ENDMDL
MODEL 3
REMARK VINA RESULT: -8.594431052      1.534      2.198
REMARK  15 active torsions:
REMARK  status: ('A' for Active; 'I' for Inactive)
REMARK    1  A    between atoms: C2_2  and  C4_4 
REMARK    2  A    between atoms: C4_4  and  O2_6 
REMARK    3  A    between atoms: O2_6  and  C5_7 
REMARK    4  A    between atoms: C5_7  and  C6_8 
REMARK    5  A    between atoms: C6_8  and  C8_10 
REMARK    6  A    between atoms: C8_10  and  N1_11 
REMARK    7  A    between atoms: C8_10  and  C22_27 
REMARK    8  A    between atoms: N1_11  and  C9_12 
REMARK    9  A    between atoms: C9_12  and  C11_14 
REMARK   10  A    between atoms: N2_15  and  C12_17 
REMARK   11  A    between atoms: C13_18  and  C14_19 
REMARK   12  A    between atoms: C15_20  and  C16_21 
REMARK   13  A    between atoms: C22_27  and  O4_29 
REMARK   14  A    between atoms: O4_29  and  C23_30 
REMARK   15  A    between atoms: C29_36  and  O5_37 
ROOT
HETATM    1  C8  UNL     1     -13.004  13.974  -9.741  1.00  0.00     0.268 C 
ENDROOT
BRANCH   1   2
HETATM    2  C6  UNL     1     -14.365  14.555  -9.262  1.00  0.00     0.052 C 
HETATM    3  C7  UNL     1     -14.040  15.731  -8.328  1.00  0.00     0.016 C 
BRANCH   2   4
HETATM    4  C5  UNL     1     -15.184  13.550  -8.559  1.00  0.00     0.187 C 
BRANCH   4   5
HETATM    5  O2  UNL     1     -16.584  13.812  -8.642  1.00  0.00    -0.317 OA
BRANCH   5   6
HETATM    6  C4  UNL     1     -17.374  14.275  -7.627  1.00  0.00     0.288 C 
HETATM    7  O1  UNL     1     -17.333  13.690  -6.521  1.00  0.00    -0.260 OA
BRANCH   6   8
HETATM    8  C2  UNL     1     -18.270  15.422  -7.770  1.00  0.00     0.004 C 
HETATM    9  C1  UNL     1     -19.142  15.666  -6.818  1.00  0.00     0.024 C 
HETATM   10  C3  UNL     1     -18.211  16.316  -8.964  1.00  0.00     0.054 C 
ENDBRANCH   6   8
ENDBRANCH   5   6
ENDBRANCH   4   5
ENDBRANCH   2   4
ENDBRANCH   1   2
BRANCH   1  11
HETATM   11  N1  UNL     1     -12.252  14.897 -10.378  1.00  0.00    -0.435 NA
BRANCH  11  12
HETATM   12  C9  UNL     1     -11.587  15.725 -10.936  1.00  0.00     0.090 C 
HETATM   13  C10 UNL     1     -11.574  15.950 -12.440  1.00  0.00     0.086 C 
BRANCH  12  14
HETATM   14  C11 UNL     1     -10.685  16.657 -10.193  1.00  0.00     0.126 C 
HETATM   15  N2  UNL     1     -10.384  16.380  -8.994  1.00  0.00    -0.372 N 
ATOM     16  H2  UNL     1     -10.786  15.526  -8.608  1.00  0.00     0.164 HD
BRANCH  15  17
HETATM   17  C12 UNL     1      -9.556  17.125  -8.141  1.00  0.00     0.087 C 
HETATM   18  C13 UNL     1      -9.787  17.163  -6.796  1.00  0.00     0.017 C 
BRANCH  18  19
HETATM   19  C14 UNL     1     -10.884  16.431  -6.267  1.00  0.00     0.002 C 
HETATM   20  C15 UNL     1     -10.986  15.387  -5.553  1.00  0.00     0.011 C 
BRANCH  20  21
HETATM   21  C16 UNL     1     -10.053  14.464  -4.956  1.00  0.00    -0.036 A 
HETATM   22  C17 UNL     1      -9.599  13.387  -5.757  1.00  0.00     0.011 A 
HETATM   23  C18 UNL     1      -8.696  12.479  -5.262  1.00  0.00     0.001 A 
HETATM   24  C19 UNL     1      -8.190  12.555  -3.989  1.00  0.00     0.000 A 
HETATM   25  C20 UNL     1      -8.626  13.594  -3.208  1.00  0.00     0.001 A 
HETATM   26  C21 UNL     1      -9.543  14.529  -3.693  1.00  0.00     0.011 A 
ENDBRANCH  20  21
ENDBRANCH  18  19
ENDBRANCH  15  17
ENDBRANCH  12  14
ENDBRANCH  11  12
ENDBRANCH   1  11
BRANCH   1  27
HETATM   27  C22 UNL     1     -13.313  12.853 -10.672  1.00  0.00     0.295 C 
HETATM   28  O3  UNL     1     -13.754  12.972 -11.827  1.00  0.00    -0.262 OA
BRANCH  27  29
HETATM   29  O4  UNL     1     -13.116  11.518 -10.283  1.00  0.00    -0.311 OA
BRANCH  29  30
HETATM   30  C23 UNL     1     -11.842  11.005 -10.010  1.00  0.00     0.160 C 
HETATM   31  C24 UNL     1     -11.855   9.556 -10.531  1.00  0.00     0.035 C 
HETATM   32  C25 UNL     1     -10.611   9.305 -11.391  1.00  0.00     0.002 C 
HETATM   33  C26 UNL     1      -9.361   9.784 -10.710  1.00  0.00     0.000 C 
HETATM   34  C27 UNL     1      -9.503   9.492  -9.229  1.00  0.00     0.002 C 
HETATM   35  C28 UNL     1      -9.989  10.649  -8.426  1.00  0.00     0.034 C 
HETATM   36  C29 UNL     1     -11.445  10.969  -8.579  1.00  0.00     0.147 C 
BRANCH  36  37
HETATM   37  O5  UNL     1     -12.187  10.050  -7.838  1.00  0.00    -0.393 OA
ATOM     38  H5  UNL     1     -12.515  10.415  -7.025  1.00  0.00     0.210 HD
ENDBRANCH  36  37
ENDBRANCH  29  30
ENDBRANCH  27  29
ENDBRANCH   1  27
TORSDOF 15
ENDMDL
MODEL 4
REMARK VINA RESULT: -8.575274916      2.287      5.243
REMARK  15 active torsions:
REMARK  status: ('A' for Active; 'I' for Inactive)
REMARK    1  A    between atoms: C2_2  and  C4_4 
REMARK    2  A    between atoms: C4_4  and  O2_6 
REMARK    3  A    between atoms: O2_6  and  C5_7 
REMARK    4  A    between atoms: C5_7  and  C6_8 
REMARK    5  A    between atoms: C6_8  and  C8_10 
REMARK    6  A    between atoms: C8_10  and  N1_11 
REMARK    7  A    between atoms: C8_10  and  C22_27 
REMARK    8  A    between atoms: N1_11  and  C9_12 
REMARK    9  A    between atoms: C9_12  and  C11_14 
REMARK   10  A    between atoms: N2_15  and  C12_17 
REMARK   11  A    between atoms: C13_18  and  C14_19 
REMARK   12  A    between atoms: C15_20  and  C16_21 
REMARK   13  A    between atoms: C22_27  and  O4_29 
REMARK   14  A    between atoms: O4_29  and  C23_30 
REMARK   15  A    between atoms: C29_36  and  O5_37 
ROOT
HETATM    1  C8  UNL     1     -14.036  15.154 -10.431  1.00  0.00     0.268 C 
ENDROOT
BRANCH   1   2
HETATM    2  C6  UNL     1     -15.046  15.618  -9.344  1.00  0.00     0.052 C 
HETATM    3  C7  UNL     1     -15.020  14.557  -8.234  1.00  0.00     0.016 C 
BRANCH   2   4
HETATM    4  C5  UNL     1     -16.412  15.771  -9.879  1.00  0.00     0.187 C 
BRANCH   4   5
HETATM    5  O2  UNL     1     -17.383  15.013  -9.160  1.00  0.00    -0.317 OA
BRANCH   5   6
HETATM    6  C4  UNL     1     -18.419  15.525  -8.430  1.00  0.00     0.288 C 
HETATM    7  O1  UNL     1     -19.197  16.337  -8.981  1.00  0.00    -0.260 OA
BRANCH   6   8
HETATM    8  C2  UNL     1     -18.664  15.173  -7.032  1.00  0.00     0.004 C 
HETATM    9  C1  UNL     1     -17.961  14.203  -6.492  1.00  0.00     0.024 C 
HETATM   10  C3  UNL     1     -19.685  15.890  -6.212  1.00  0.00     0.054 C 
ENDBRANCH   6   8
ENDBRANCH   5   6
ENDBRANCH   4   5
ENDBRANCH   2   4
ENDBRANCH   1   2
BRANCH   1  11
HETATM   11  N1  UNL     1     -12.948  14.559  -9.896  1.00  0.00    -0.435 NA
BRANCH  11  12
HETATM   12  C9  UNL     1     -11.984  14.021  -9.425  1.00  0.00     0.090 C 
HETATM   13  C10 UNL     1     -11.901  12.540  -9.092  1.00  0.00     0.086 C 
BRANCH  12  14
HETATM   14  C11 UNL     1     -10.726  14.768  -9.116  1.00  0.00     0.126 C 
HETATM   15  N2  UNL     1     -10.815  15.886  -8.527  1.00  0.00    -0.372 N 
ATOM     16  H2  UNL     1     -11.756  16.208  -8.300  1.00  0.00     0.164 HD
BRANCH  15  17
HETATM   17  C12 UNL     1      -9.755  16.726  -8.154  1.00  0.00     0.087 C 
HETATM   18  C13 UNL     1      -9.625  17.162  -6.867  1.00  0.00     0.017 C 
BRANCH  18  19
HETATM   19  C14 UNL     1     -10.584  16.750  -5.903  1.00  0.00     0.002 C 
HETATM   20  C15 UNL     1     -10.673  15.758  -5.115  1.00  0.00     0.011 C 
BRANCH  20  21
HETATM   21  C16 UNL     1      -9.861  14.601  -4.836  1.00  0.00    -0.036 A 
HETATM   22  C17 UNL     1      -9.310  14.489  -3.535  1.00  0.00     0.011 A 
HETATM   23  C18 UNL     1      -8.542  13.404  -3.192  1.00  0.00     0.001 A 
HETATM   24  C19 UNL     1      -8.263  12.385  -4.067  1.00  0.00     0.000 A 
HETATM   25  C20 UNL     1      -8.792  12.487  -5.328  1.00  0.00     0.001 A 
HETATM   26  C21 UNL     1      -9.578  13.582  -5.697  1.00  0.00     0.011 A 
ENDBRANCH  20  21
ENDBRANCH  18  19
ENDBRANCH  15  17
ENDBRANCH  12  14
ENDBRANCH  11  12
ENDBRANCH   1  11
BRANCH   1  27
HETATM   27  C22 UNL     1     -13.621  16.368 -11.188  1.00  0.00     0.295 C 
HETATM   28  O3  UNL     1     -13.385  16.417 -12.406  1.00  0.00    -0.262 OA
BRANCH  27  29
HETATM   29  O4  UNL     1     -13.461  17.602 -10.537  1.00  0.00    -0.311 OA
BRANCH  29  30
HETATM   30  C23 UNL     1     -13.872  18.808 -11.120  1.00  0.00     0.160 C 
HETATM   31  C24 UNL     1     -12.586  19.629 -11.331  1.00  0.00     0.035 C 
HETATM   32  C25 UNL     1     -12.551  20.175 -12.763  1.00  0.00     0.002 C 
HETATM   33  C26 UNL     1     -13.853  20.820 -13.141  1.00  0.00     0.000 C 
HETATM   34  C27 UNL     1     -14.384  21.541 -11.918  1.00  0.00     0.002 C 
HETATM   35  C28 UNL     1     -15.378  20.756 -11.134  1.00  0.00     0.034 C 
HETATM   36  C29 UNL     1     -14.812  19.633 -10.320  1.00  0.00     0.147 C 
BRANCH  36  37
HETATM   37  O5  UNL     1     -14.220  20.164  -9.174  1.00  0.00    -0.393 OA
ATOM     38  H5  UNL     1     -14.516  19.740  -8.378  1.00  0.00     0.210 HD
ENDBRANCH  36  37
ENDBRANCH  29  30
ENDBRANCH  27  29
ENDBRANCH   1  27
TORSDOF 15
ENDMDL
MODEL 5
REMARK VINA RESULT: -8.526180284      1.536      2.175
REMARK  15 active torsions:
REMARK  status: ('A' for Active; 'I' for Inactive)
REMARK    1  A    between atoms: C2_2  and  C4_4 
REMARK    2  A    between atoms: C4_4  and  O2_6 
REMARK    3  A    between atoms: O2_6  and  C5_7 
REMARK    4  A    between atoms: C5_7  and  C6_8 
REMARK    5  A    between atoms: C6_8  and  C8_10 
REMARK    6  A    between atoms: C8_10  and  N1_11 
REMARK    7  A    between atoms: C8_10  and  C22_27 
REMARK    8  A    between atoms: N1_11  and  C9_12 
REMARK    9  A    between atoms: C9_12  and  C11_14 
REMARK   10  A    between atoms: N2_15  and  C12_17 
REMARK   11  A    between atoms: C13_18  and  C14_19 
REMARK   12  A    between atoms: C15_20  and  C16_21 
REMARK   13  A    between atoms: C22_27  and  O4_29 
REMARK   14  A    between atoms: O4_29  and  C23_30 
REMARK   15  A    between atoms: C29_36  and  O5_37 
ROOT
HETATM    1  C8  UNL     1     -13.960  15.658  -8.779  1.00  0.00     0.268 C 
ENDROOT
BRANCH   1   2
HETATM    2  C6  UNL     1     -15.068  15.027  -9.670  1.00  0.00     0.052 C 
HETATM    3  C7  UNL     1     -15.940  16.185 -10.178  1.00  0.00     0.016 C 
BRANCH   2   4
HETATM    4  C5  UNL     1     -15.890  14.050  -8.930  1.00  0.00     0.187 C 
BRANCH   4   5
HETATM    5  O2  UNL     1     -16.356  14.546  -7.677  1.00  0.00    -0.317 OA
BRANCH   5   6
HETATM    6  C4  UNL     1     -17.547  14.231  -7.083  1.00  0.00     0.288 C 
HETATM    7  O1  UNL     1     -17.534  13.500  -6.067  1.00  0.00    -0.260 OA
BRANCH   6   8
HETATM    8  C2  UNL     1     -18.838  14.706  -7.578  1.00  0.00     0.004 C 
HETATM    9  C1  UNL     1     -18.933  15.944  -8.010  1.00  0.00     0.024 C 
HETATM   10  C3  UNL     1     -20.039  13.820  -7.606  1.00  0.00     0.054 C 
ENDBRANCH   6   8
ENDBRANCH   5   6
ENDBRANCH   4   5
ENDBRANCH   2   4
ENDBRANCH   1   2
BRANCH   1  11
HETATM   11  N1  UNL     1     -13.194  16.535  -9.463  1.00  0.00    -0.435 NA
BRANCH  11  12
HETATM   12  C9  UNL     1     -12.505  17.309 -10.067  1.00  0.00     0.090 C 
HETATM   13  C10 UNL     1     -12.905  17.988 -11.368  1.00  0.00     0.086 C 
BRANCH  12  14
HETATM   14  C11 UNL     1     -11.146  17.707  -9.587  1.00  0.00     0.126 C 
HETATM   15  N2  UNL     1     -10.682  17.146  -8.551  1.00  0.00    -0.372 N 
ATOM     16  H2  UNL     1     -11.277  16.449  -8.104  1.00  0.00     0.164 HD
BRANCH  15  17
HETATM   17  C12 UNL     1      -9.434  17.383  -7.954  1.00  0.00     0.087 C 
HETATM   18  C13 UNL     1      -9.261  17.234  -6.608  1.00  0.00     0.017 C 
BRANCH  18  19
HETATM   19  C14 UNL     1     -10.369  16.832  -5.814  1.00  0.00     0.002 C 
HETATM   20  C15 UNL     1     -10.588  15.850  -5.039  1.00  0.00     0.011 C 
BRANCH  20  21
HETATM   21  C16 UNL     1      -9.834  14.700  -4.611  1.00  0.00    -0.036 A 
HETATM   22  C17 UNL     1      -9.712  13.623  -5.524  1.00  0.00     0.011 A 
HETATM   23  C18 UNL     1      -8.993  12.501  -5.192  1.00  0.00     0.001 A 
HETATM   24  C19 UNL     1      -8.362  12.356  -3.982  1.00  0.00     0.000 A 
HETATM   25  C20 UNL     1      -8.476  13.394  -3.093  1.00  0.00     0.001 A 
HETATM   26  C21 UNL     1      -9.203  14.544  -3.412  1.00  0.00     0.011 A 
ENDBRANCH  20  21
ENDBRANCH  18  19
ENDBRANCH  15  17
ENDBRANCH  12  14
ENDBRANCH  11  12
ENDBRANCH   1  11
BRANCH   1  27
HETATM   27  C22 UNL     1     -13.112  14.538  -8.281  1.00  0.00     0.295 C 
HETATM   28  O3  UNL     1     -12.822  14.324  -7.092  1.00  0.00    -0.262 OA
BRANCH  27  29
HETATM   29  O4  UNL     1     -12.558  13.603  -9.169  1.00  0.00    -0.311 OA
BRANCH  29  30
HETATM   30  C23 UNL     1     -11.270  13.083  -8.992  1.00  0.00     0.160 C 
HETATM   31  C24 UNL     1     -10.476  13.500 -10.243  1.00  0.00     0.035 C 
HETATM   32  C25 UNL     1      -9.137  14.117  -9.823  1.00  0.00     0.002 C 
HETATM   33  C26 UNL     1      -8.430  13.267  -8.807  1.00  0.00     0.000 C 
HETATM   34  C27 UNL     1      -8.676  11.816  -9.169  1.00  0.00     0.002 C 
HETATM   35  C28 UNL     1      -9.804  11.187  -8.426  1.00  0.00     0.034 C 
HETATM   36  C29 UNL     1     -11.174  11.606  -8.864  1.00  0.00     0.147 C 
BRANCH  36  37
HETATM   37  O5  UNL     1     -11.489  10.942 -10.049  1.00  0.00    -0.393 OA
ATOM     38  H5  UNL     1     -11.001  10.135 -10.157  1.00  0.00     0.210 HD
ENDBRANCH  36  37
ENDBRANCH  29  30
ENDBRANCH  27  29
ENDBRANCH   1  27
TORSDOF 15
ENDMDL
