MODEL 1
REMARK VINA RESULT: -8.464806904      0.000      0.000
REMARK  14 active torsions:
REMARK  status: ('A' for Active; 'I' for Inactive)
REMARK    1  A    between atoms: C2_2  and  C3_3 
REMARK    2  A    between atoms: C3_3  and  C4_4 
REMARK    3  A    between atoms: C4_4  and  C5_5 
REMARK    4  A    between atoms: C5_5  and  N1_6 
REMARK    5  A    between atoms: C5_5  and  C6_10 
REMARK    6  A    between atoms: C6_10  and  O2_12 
REMARK    7  A    between atoms: O2_12  and  C7_13 
REMARK    8  A    between atoms: C8_14  and  O3_15 
REMARK    9  A    between atoms: O3_15  and  C9_16 
REMARK   10  A    between atoms: C9_16  and  C10_18 
REMARK   11  A    between atoms: C10_18  and  C11_19 
REMARK   12  A    between atoms: C25_33  and  C26_34 
REMARK   13  A    between atoms: C26_34  and  O5_35 
REMARK   14  A    between atoms: O5_35  and  C27_36 
ROOT
HETATM    1  C7  UNL     1     -11.280  12.961  -7.694  1.00  0.00     0.175 C 
HETATM    2  C8  UNL     1     -10.014  13.341  -6.914  1.00  0.00     0.185 C 
HETATM    3  C14 UNL     1     -10.156  14.521  -6.062  1.00  0.00     0.010 C 
HETATM    4  C15 UNL     1     -10.887  15.591  -5.988  1.00  0.00    -0.084 C 
HETATM    5  C16 UNL     1     -10.532  16.447  -4.840  1.00  0.00     0.043 C 
HETATM    6  C17 UNL     1     -11.987  16.168  -6.788  1.00  0.00     0.042 C 
HETATM    7  C18 UNL     1     -11.450  16.354  -8.169  1.00  0.00     0.019 C 
HETATM    8  C19 UNL     1     -12.211  17.391  -8.926  1.00  0.00     0.010 C 
HETATM    9  C20 UNL     1     -11.487  17.802 -10.197  1.00  0.00     0.009 C 
HETATM   10  C21 UNL     1     -10.553  16.756 -10.711  1.00  0.00     0.004 C 
HETATM   11  C22 UNL     1      -9.108  17.173 -10.490  1.00  0.00     0.014 C 
HETATM   12  C23 UNL     1     -10.834  15.381 -10.210  1.00  0.00    -0.019 C 
HETATM   13  C24 UNL     1     -11.279  15.138  -8.953  1.00  0.00    -0.070 C 
HETATM   14  C25 UNL     1     -11.398  13.654  -8.981  1.00  0.00     0.071 C 
ENDROOT
BRANCH   1  15
HETATM   15  O2  UNL     1     -11.079  11.554  -7.931  1.00  0.00    -0.311 OA
BRANCH  15  16
HETATM   16  C6  UNL     1     -11.954  10.659  -8.416  1.00  0.00     0.290 C 
HETATM   17  O1  UNL     1     -13.097  10.575  -7.905  1.00  0.00    -0.263 OA
BRANCH  16  18
HETATM   18  C5  UNL     1     -11.620   9.731  -9.572  1.00  0.00     0.282 C 
BRANCH  18  19
HETATM   19  C4  UNL     1     -10.350  10.192 -10.160  1.00  0.00     0.043 C 
BRANCH  19  20
HETATM   20  C3  UNL     1      -9.123   9.397  -9.982  1.00  0.00     0.002 C 
BRANCH  20  21
HETATM   21  C2  UNL     1      -7.852  10.170 -10.116  1.00  0.00    -0.004 C 
HETATM   22  C1  UNL     1      -8.065  11.629  -9.680  1.00  0.00     0.005 C 
ENDBRANCH  20  21
ENDBRANCH  19  20
ENDBRANCH  18  19
BRANCH  18  23
HETATM   23  N1  UNL     1     -12.732   9.551 -10.425  1.00  0.00    -0.066 N 
ATOM     24  H13 UNL     1     -13.564   9.921  -9.966  1.00  0.00     0.275 HD
ATOM     25  H12 UNL     1     -12.646  10.185 -11.220  1.00  0.00     0.275 HD
ATOM     26  H11 UNL     1     -12.934   8.612 -10.770  1.00  0.00     0.275 HD
ENDBRANCH  18  23
ENDBRANCH  16  18
ENDBRANCH  15  16
ENDBRANCH   1  15
BRANCH   2  27
HETATM   27  O3  UNL     1      -9.839  12.242  -5.991  1.00  0.00    -0.309 OA
BRANCH  27  28
HETATM   28  C9  UNL     1      -8.668  11.930  -5.374  1.00  0.00     0.259 C 
HETATM   29  O4  UNL     1      -7.596  12.001  -6.014  1.00  0.00    -0.265 OA
BRANCH  28  30
HETATM   30  C10 UNL     1      -8.717  11.509  -3.934  1.00  0.00     0.115 C 
BRANCH  30  31
HETATM   31  C11 UNL     1      -9.410  12.664  -3.204  1.00  0.00    -0.013 C 
HETATM   32  C12 UNL     1      -8.414  13.758  -2.960  1.00  0.00     0.010 C 
HETATM   33  C13 UNL     1     -10.066  12.153  -1.938  1.00  0.00     0.010 C 
ENDBRANCH  30  31
ENDBRANCH  28  30
ENDBRANCH  27  28
ENDBRANCH   2  27
BRANCH  14  34
HETATM   34  C26 UNL     1     -12.698  13.347  -9.682  1.00  0.00     0.190 C 
BRANCH  34  35
HETATM   35  O5  UNL     1     -13.880  13.608  -9.183  1.00  0.00    -0.321 OA
BRANCH  35  36
HETATM   36  C27 UNL     1     -15.107  13.433  -8.838  1.00  0.00     0.254 C 
HETATM   37  C28 UNL     1     -15.901  14.443  -8.058  1.00  0.00     0.126 C 
HETATM   38  O6  UNL     1     -15.689  12.359  -9.163  1.00  0.00    -0.266 OA
ENDBRANCH  35  36
ENDBRANCH  34  35
ENDBRANCH  14  34
TORSDOF 14
ENDMDL
MODEL 2
REMARK VINA RESULT: -8.393630683      0.648      1.057
REMARK  14 active torsions:
REMARK  status: ('A' for Active; 'I' for Inactive)
REMARK    1  A    between atoms: C2_2  and  C3_3 
REMARK    2  A    between atoms: C3_3  and  C4_4 
REMARK    3  A    between atoms: C4_4  and  C5_5 
REMARK    4  A    between atoms: C5_5  and  N1_6 
REMARK    5  A    between atoms: C5_5  and  C6_10 
REMARK    6  A    between atoms: C6_10  and  O2_12 
REMARK    7  A    between atoms: O2_12  and  C7_13 
REMARK    8  A    between atoms: C8_14  and  O3_15 
REMARK    9  A    between atoms: O3_15  and  C9_16 
REMARK   10  A    between atoms: C9_16  and  C10_18 
REMARK   11  A    between atoms: C10_18  and  C11_19 
REMARK   12  A    between atoms: C25_33  and  C26_34 
REMARK   13  A    between atoms: C26_34  and  O5_35 
REMARK   14  A    between atoms: O5_35  and  C27_36 
ROOT
HETATM    1  C7  UNL     1     -11.257  12.961  -7.717  1.00  0.00     0.175 C 
HETATM    2  C8  UNL     1      -9.999  13.338  -6.922  1.00  0.00     0.185 C 
HETATM    3  C14 UNL     1     -10.167  14.477  -6.022  1.00  0.00     0.010 C 
HETATM    4  C15 UNL     1     -10.922  15.526  -5.902  1.00  0.00    -0.084 C 
HETATM    5  C16 UNL     1     -10.586  16.342  -4.720  1.00  0.00     0.043 C 
HETATM    6  C17 UNL     1     -12.037  16.110  -6.677  1.00  0.00     0.042 C 
HETATM    7  C18 UNL     1     -11.507  16.366  -8.050  1.00  0.00     0.019 C 
HETATM    8  C19 UNL     1     -12.293  17.416  -8.762  1.00  0.00     0.010 C 
HETATM    9  C20 UNL     1     -11.581  17.897 -10.015  1.00  0.00     0.009 C 
HETATM   10  C21 UNL     1     -10.624  16.895 -10.573  1.00  0.00     0.004 C 
HETATM   11  C22 UNL     1      -9.189  17.336 -10.336  1.00  0.00     0.014 C 
HETATM   12  C23 UNL     1     -10.871  15.494 -10.130  1.00  0.00    -0.019 C 
HETATM   13  C24 UNL     1     -11.309  15.188  -8.884  1.00  0.00    -0.070 C 
HETATM   14  C25 UNL     1     -11.393  13.705  -8.973  1.00  0.00     0.071 C 
ENDROOT
BRANCH   1  15
HETATM   15  O2  UNL     1     -11.024  11.571  -8.013  1.00  0.00    -0.311 OA
BRANCH  15  16
HETATM   16  C6  UNL     1     -11.910  10.644  -8.406  1.00  0.00     0.290 C 
HETATM   17  O1  UNL     1     -13.039  10.599  -7.858  1.00  0.00    -0.263 OA
BRANCH  16  18
HETATM   18  C5  UNL     1     -11.609   9.633  -9.500  1.00  0.00     0.282 C 
BRANCH  18  19
HETATM   19  C4  UNL     1     -10.280   9.954 -10.049  1.00  0.00     0.043 C 
BRANCH  19  20
HETATM   20  C3  UNL     1      -9.304   8.880 -10.295  1.00  0.00     0.002 C 
BRANCH  20  21
HETATM   21  C2  UNL     1      -9.365   8.279 -11.661  1.00  0.00    -0.004 C 
HETATM   22  C1  UNL     1     -10.127   6.943 -11.622  1.00  0.00     0.005 C 
ENDBRANCH  20  21
ENDBRANCH  19  20
ENDBRANCH  18  19
BRANCH  18  23
HETATM   23  N1  UNL     1     -12.695   9.504 -10.395  1.00  0.00    -0.066 N 
ATOM     24  H13 UNL     1     -13.216  10.380 -10.412  1.00  0.00     0.275 HD
ATOM     25  H12 UNL     1     -12.335   9.469 -11.349  1.00  0.00     0.275 HD
ATOM     26  H11 UNL     1     -13.348   8.732 -10.259  1.00  0.00     0.275 HD
ENDBRANCH  18  23
ENDBRANCH  16  18
ENDBRANCH  15  16
ENDBRANCH   1  15
BRANCH   2  27
HETATM   27  O3  UNL     1      -9.797  12.206  -6.047  1.00  0.00    -0.309 OA
BRANCH  27  28
HETATM   28  C9  UNL     1      -8.627  11.915  -5.416  1.00  0.00     0.259 C 
HETATM   29  O4  UNL     1      -7.548  12.013  -6.042  1.00  0.00    -0.265 OA
BRANCH  28  30
HETATM   30  C10 UNL     1      -8.685  11.484  -3.980  1.00  0.00     0.115 C 
BRANCH  30  31
HETATM   31  C11 UNL     1      -9.408  12.622  -3.251  1.00  0.00    -0.013 C 
HETATM   32  C12 UNL     1      -8.432  13.728  -2.979  1.00  0.00     0.010 C 
HETATM   33  C13 UNL     1     -10.079  12.088  -2.002  1.00  0.00     0.010 C 
ENDBRANCH  30  31
ENDBRANCH  28  30
ENDBRANCH  27  28
ENDBRANCH   2  27
BRANCH  14  34
HETATM   34  C26 UNL     1     -12.686  13.397  -9.686  1.00  0.00     0.190 C 
BRANCH  34  35
HETATM   35  O5  UNL     1     -13.874  13.616  -9.179  1.00  0.00    -0.321 OA
BRANCH  35  36
HETATM   36  C27 UNL     1     -15.097  13.404  -8.841  1.00  0.00     0.254 C 
HETATM   37  C28 UNL     1     -15.926  14.390  -8.068  1.00  0.00     0.126 C 
HETATM   38  O6  UNL     1     -15.644  12.313  -9.170  1.00  0.00    -0.266 OA
ENDBRANCH  35  36
ENDBRANCH  34  35
ENDBRANCH  14  34
TORSDOF 14
ENDMDL
MODEL 3
REMARK VINA RESULT: -8.321003964      1.362      1.590
REMARK  14 active torsions:
REMARK  status: ('A' for Active; 'I' for Inactive)
REMARK    1  A    between atoms: C2_2  and  C3_3 
REMARK    2  A    between atoms: C3_3  and  C4_4 
REMARK    3  A    between atoms: C4_4  and  C5_5 
REMARK    4  A    between atoms: C5_5  and  N1_6 
REMARK    5  A    between atoms: C5_5  and  C6_10 
REMARK    6  A    between atoms: C6_10  and  O2_12 
REMARK    7  A    between atoms: O2_12  and  C7_13 
REMARK    8  A    between atoms: C8_14  and  O3_15 
REMARK    9  A    between atoms: O3_15  and  C9_16 
REMARK   10  A    between atoms: C9_16  and  C10_18 
REMARK   11  A    between atoms: C10_18  and  C11_19 
REMARK   12  A    between atoms: C25_33  and  C26_34 
REMARK   13  A    between atoms: C26_34  and  O5_35 
REMARK   14  A    between atoms: O5_35  and  C27_36 
ROOT
HETATM    1  C7  UNL     1     -11.582  13.336  -7.491  1.00  0.00     0.175 C 
HETATM    2  C8  UNL     1     -10.206  13.646  -6.887  1.00  0.00     0.185 C 
HETATM    3  C14 UNL     1     -10.163  14.850  -6.059  1.00  0.00     0.010 C 
HETATM    4  C15 UNL     1     -10.808  15.968  -5.925  1.00  0.00    -0.084 C 
HETATM    5  C16 UNL     1     -10.256  16.823  -4.857  1.00  0.00     0.043 C 
HETATM    6  C17 UNL     1     -11.961  16.601  -6.597  1.00  0.00     0.042 C 
HETATM    7  C18 UNL     1     -11.593  16.722  -8.040  1.00  0.00     0.019 C 
HETATM    8  C19 UNL     1     -12.376  17.792  -8.725  1.00  0.00     0.010 C 
HETATM    9  C20 UNL     1     -11.795  18.127 -10.088  1.00  0.00     0.009 C 
HETATM   10  C21 UNL     1     -11.004  17.009 -10.685  1.00  0.00     0.004 C 
HETATM   11  C22 UNL     1      -9.518  17.333 -10.659  1.00  0.00     0.014 C 
HETATM   12  C23 UNL     1     -11.305  15.666 -10.113  1.00  0.00    -0.019 C 
HETATM   13  C24 UNL     1     -11.602  15.480  -8.804  1.00  0.00    -0.070 C 
HETATM   14  C25 UNL     1     -11.818  14.008  -8.772  1.00  0.00     0.071 C 
ENDROOT
BRANCH   1  15
HETATM   15  O2  UNL     1     -11.505  11.914  -7.710  1.00  0.00    -0.311 OA
BRANCH  15  16
HETATM   16  C6  UNL     1     -11.095  11.262  -8.809  1.00  0.00     0.290 C 
HETATM   17  O1  UNL     1     -11.915  10.568  -9.456  1.00  0.00    -0.263 OA
BRANCH  16  18
HETATM   18  C5  UNL     1      -9.663  11.329  -9.316  1.00  0.00     0.282 C 
BRANCH  18  19
HETATM   19  C4  UNL     1      -9.703  11.855 -10.692  1.00  0.00     0.043 C 
BRANCH  19  20
HETATM   20  C3  UNL     1      -8.906  13.038 -11.053  1.00  0.00     0.002 C 
BRANCH  20  21
HETATM   21  C2  UNL     1      -8.163  13.663  -9.919  1.00  0.00    -0.004 C 
HETATM   22  C1  UNL     1      -7.044  14.576 -10.450  1.00  0.00     0.005 C 
ENDBRANCH  20  21
ENDBRANCH  19  20
ENDBRANCH  18  19
BRANCH  18  23
HETATM   23  N1  UNL     1      -8.974  10.119  -9.076  1.00  0.00    -0.066 N 
ATOM     24  H13 UNL     1      -9.550   9.341  -9.398  1.00  0.00     0.275 HD
ATOM     25  H12 UNL     1      -8.182  10.057  -9.715  1.00  0.00     0.275 HD
ATOM     26  H11 UNL     1      -8.652   9.923  -8.128  1.00  0.00     0.275 HD
ENDBRANCH  18  23
ENDBRANCH  16  18
ENDBRANCH  15  16
ENDBRANCH   1  15
BRANCH   2  27
HETATM   27  O3  UNL     1      -9.986  12.557  -5.962  1.00  0.00    -0.309 OA
BRANCH  27  28
HETATM   28  C9  UNL     1      -8.766  12.046  -5.645  1.00  0.00     0.259 C 
HETATM   29  O4  UNL     1      -7.906  11.904  -6.542  1.00  0.00    -0.265 OA
BRANCH  28  30
HETATM   30  C10 UNL     1      -8.505  11.672  -4.215  1.00  0.00     0.115 C 
BRANCH  30  31
HETATM   31  C11 UNL     1      -9.307  12.681  -3.387  1.00  0.00    -0.013 C 
HETATM   32  C12 UNL     1      -8.408  13.813  -2.987  1.00  0.00     0.010 C 
HETATM   33  C13 UNL     1      -9.955  11.980  -2.210  1.00  0.00     0.010 C 
ENDBRANCH  30  31
ENDBRANCH  28  30
ENDBRANCH  27  28
ENDBRANCH   2  27
BRANCH  14  34
HETATM   34  C26 UNL     1     -13.214  13.775  -9.295  1.00  0.00     0.190 C 
BRANCH  34  35
HETATM   35  O5  UNL     1     -14.292  14.305  -8.773  1.00  0.00    -0.321 OA
BRANCH  35  36
HETATM   36  C27 UNL     1     -15.397  14.958  -8.697  1.00  0.00     0.254 C 
HETATM   37  C28 UNL     1     -15.675  16.210  -9.480  1.00  0.00     0.126 C 
HETATM   38  O6  UNL     1     -16.307  14.537  -7.927  1.00  0.00    -0.266 OA
ENDBRANCH  35  36
ENDBRANCH  34  35
ENDBRANCH  14  34
TORSDOF 14
ENDMDL
MODEL 4
REMARK VINA RESULT: -8.189604426      1.222      1.888
REMARK  14 active torsions:
REMARK  status: ('A' for Active; 'I' for Inactive)
REMARK    1  A    between atoms: C2_2  and  C3_3 
REMARK    2  A    between atoms: C3_3  and  C4_4 
REMARK    3  A    between atoms: C4_4  and  C5_5 
REMARK    4  A    between atoms: C5_5  and  N1_6 
REMARK    5  A    between atoms: C5_5  and  C6_10 
REMARK    6  A    between atoms: C6_10  and  O2_12 
REMARK    7  A    between atoms: O2_12  and  C7_13 
REMARK    8  A    between atoms: C8_14  and  O3_15 
REMARK    9  A    between atoms: O3_15  and  C9_16 
REMARK   10  A    between atoms: C9_16  and  C10_18 
REMARK   11  A    between atoms: C10_18  and  C11_19 
REMARK   12  A    between atoms: C25_33  and  C26_34 
REMARK   13  A    between atoms: C26_34  and  O5_35 
REMARK   14  A    between atoms: O5_35  and  C27_36 
ROOT
HETATM    1  C7  UNL     1     -11.216  12.994  -7.692  1.00  0.00     0.175 C 
HETATM    2  C8  UNL     1      -9.957  13.353  -6.891  1.00  0.00     0.185 C 
HETATM    3  C14 UNL     1     -10.122  14.477  -5.971  1.00  0.00     0.010 C 
HETATM    4  C15 UNL     1     -10.874  15.525  -5.834  1.00  0.00    -0.084 C 
HETATM    5  C16 UNL     1     -10.535  16.320  -4.638  1.00  0.00     0.043 C 
HETATM    6  C17 UNL     1     -11.987  16.126  -6.598  1.00  0.00     0.042 C 
HETATM    7  C18 UNL     1     -11.456  16.405  -7.966  1.00  0.00     0.019 C 
HETATM    8  C19 UNL     1     -12.239  17.469  -8.660  1.00  0.00     0.010 C 
HETATM    9  C20 UNL     1     -11.525  17.969  -9.905  1.00  0.00     0.009 C 
HETATM   10  C21 UNL     1     -10.572  16.974 -10.480  1.00  0.00     0.004 C 
HETATM   11  C22 UNL     1      -9.135  17.407 -10.236  1.00  0.00     0.014 C 
HETATM   12  C23 UNL     1     -10.823  15.566 -10.061  1.00  0.00    -0.019 C 
HETATM   13  C24 UNL     1     -11.261  15.240  -8.821  1.00  0.00    -0.070 C 
HETATM   14  C25 UNL     1     -11.349  13.759  -8.936  1.00  0.00     0.071 C 
ENDROOT
BRANCH   1  15
HETATM   15  O2  UNL     1     -10.987  11.608  -8.012  1.00  0.00    -0.311 OA
BRANCH  15  16
HETATM   16  C6  UNL     1     -11.881  10.683  -8.392  1.00  0.00     0.290 C 
HETATM   17  O1  UNL     1     -12.989  10.618  -7.805  1.00  0.00    -0.263 OA
BRANCH  16  18
HETATM   18  C5  UNL     1     -11.614   9.697  -9.518  1.00  0.00     0.282 C 
BRANCH  18  19
HETATM   19  C4  UNL     1     -10.307  10.040 -10.108  1.00  0.00     0.043 C 
BRANCH  19  20
HETATM   20  C3  UNL     1      -9.274   9.003 -10.266  1.00  0.00     0.002 C 
BRANCH  20  21
HETATM   21  C2  UNL     1      -9.243   8.350 -11.609  1.00  0.00    -0.004 C 
HETATM   22  C1  UNL     1     -10.096   7.070 -11.601  1.00  0.00     0.005 C 
ENDBRANCH  20  21
ENDBRANCH  19  20
ENDBRANCH  18  19
BRANCH  18  23
HETATM   23  N1  UNL     1     -12.730   9.580 -10.376  1.00  0.00    -0.066 N 
ATOM     24  H13 UNL     1     -13.335   8.834 -10.031  1.00  0.00     0.275 HD
ATOM     25  H12 UNL     1     -13.331  10.395 -10.250  1.00  0.00     0.275 HD
ATOM     26  H11 UNL     1     -12.566   9.439 -11.372  1.00  0.00     0.275 HD
ENDBRANCH  18  23
ENDBRANCH  16  18
ENDBRANCH  15  16
ENDBRANCH   1  15
BRANCH   2  27
HETATM   27  O3  UNL     1      -9.758  12.205  -6.035  1.00  0.00    -0.309 OA
BRANCH  27  28
HETATM   28  C9  UNL     1      -8.598  11.916  -5.387  1.00  0.00     0.259 C 
HETATM   29  O4  UNL     1      -7.510  12.018  -5.996  1.00  0.00    -0.265 OA
BRANCH  28  30
HETATM   30  C10 UNL     1      -8.677  11.481  -3.953  1.00  0.00     0.115 C 
BRANCH  30  31
HETATM   31  C11 UNL     1      -9.395  12.624  -3.229  1.00  0.00    -0.013 C 
HETATM   32  C12 UNL     1      -8.411  13.719  -2.942  1.00  0.00     0.010 C 
HETATM   33  C13 UNL     1     -10.087  12.094  -1.990  1.00  0.00     0.010 C 
ENDBRANCH  30  31
ENDBRANCH  28  30
ENDBRANCH  27  28
ENDBRANCH   2  27
BRANCH  14  34
HETATM   34  C26 UNL     1     -12.644  13.467  -9.653  1.00  0.00     0.190 C 
BRANCH  34  35
HETATM   35  O5  UNL     1     -12.721  12.863 -10.813  1.00  0.00    -0.321 OA
BRANCH  35  36
HETATM   36  C27 UNL     1     -12.418  12.522 -12.015  1.00  0.00     0.254 C 
HETATM   37  C28 UNL     1     -11.183  13.001 -12.726  1.00  0.00     0.126 C 
HETATM   38  O6  UNL     1     -13.189  11.745 -12.646  1.00  0.00    -0.266 OA
ENDBRANCH  35  36
ENDBRANCH  34  35
ENDBRANCH  14  34
TORSDOF 14
ENDMDL
MODEL 5
REMARK VINA RESULT: -8.188339078      1.449      1.804
REMARK  14 active torsions:
REMARK  status: ('A' for Active; 'I' for Inactive)
REMARK    1  A    between atoms: C2_2  and  C3_3 
REMARK    2  A    between atoms: C3_3  and  C4_4 
REMARK    3  A    between atoms: C4_4  and  C5_5 
REMARK    4  A    between atoms: C5_5  and  N1_6 
REMARK    5  A    between atoms: C5_5  and  C6_10 
REMARK    6  A    between atoms: C6_10  and  O2_12 
REMARK    7  A    between atoms: O2_12  and  C7_13 
REMARK    8  A    between atoms: C8_14  and  O3_15 
REMARK    9  A    between atoms: O3_15  and  C9_16 
REMARK   10  A    between atoms: C9_16  and  C10_18 
REMARK   11  A    between atoms: C10_18  and  C11_19 
REMARK   12  A    between atoms: C25_33  and  C26_34 
REMARK   13  A    between atoms: C26_34  and  O5_35 
REMARK   14  A    between atoms: O5_35  and  C27_36 
ROOT
HETATM    1  C7  UNL     1     -11.615  13.302  -7.478  1.00  0.00     0.175 C 
HETATM    2  C8  UNL     1     -10.224  13.601  -6.901  1.00  0.00     0.185 C 
HETATM    3  C14 UNL     1     -10.152  14.813  -6.086  1.00  0.00     0.010 C 
HETATM    4  C15 UNL     1     -10.781  15.940  -5.952  1.00  0.00    -0.084 C 
HETATM    5  C16 UNL     1     -10.200  16.798  -4.902  1.00  0.00     0.043 C 
HETATM    6  C17 UNL     1     -11.938  16.581  -6.611  1.00  0.00     0.042 C 
HETATM    7  C18 UNL     1     -11.594  16.683  -8.061  1.00  0.00     0.019 C 
HETATM    8  C19 UNL     1     -12.375  17.755  -8.743  1.00  0.00     0.010 C 
HETATM    9  C20 UNL     1     -11.813  18.069 -10.120  1.00  0.00     0.009 C 
HETATM   10  C21 UNL     1     -11.046  16.937 -10.718  1.00  0.00     0.004 C 
HETATM   11  C22 UNL     1      -9.557  17.242 -10.721  1.00  0.00     0.014 C 
HETATM   12  C23 UNL     1     -11.355  15.603 -10.128  1.00  0.00    -0.019 C 
HETATM   13  C24 UNL     1     -11.631  15.434  -8.812  1.00  0.00    -0.070 C 
HETATM   14  C25 UNL     1     -11.864  13.965  -8.762  1.00  0.00     0.071 C 
ENDROOT
BRANCH   1  15
HETATM   15  O2  UNL     1     -11.558  11.878  -7.683  1.00  0.00    -0.311 OA
BRANCH  15  16
HETATM   16  C6  UNL     1     -11.267  11.210  -8.811  1.00  0.00     0.290 C 
HETATM   17  O1  UNL     1     -12.119  10.430  -9.302  1.00  0.00    -0.263 OA
BRANCH  16  18
HETATM   18  C5  UNL     1      -9.938  11.360  -9.533  1.00  0.00     0.282 C 
BRANCH  18  19
HETATM   19  C4  UNL     1     -10.217  11.377 -10.979  1.00  0.00     0.043 C 
BRANCH  19  20
HETATM   20  C3  UNL     1      -9.988  12.604 -11.760  1.00  0.00     0.002 C 
BRANCH  20  21
HETATM   21  C2  UNL     1     -11.102  12.979 -12.681  1.00  0.00    -0.004 C 
HETATM   22  C1  UNL     1     -12.299  12.032 -12.484  1.00  0.00     0.005 C 
ENDBRANCH  20  21
ENDBRANCH  19  20
ENDBRANCH  18  19
BRANCH  18  23
HETATM   23  N1  UNL     1      -8.980  10.445  -9.042  1.00  0.00    -0.066 N 
ATOM     24  H13 UNL     1      -9.461   9.697  -8.544  1.00  0.00     0.275 HD
ATOM     25  H12 UNL     1      -8.578   9.933  -9.828  1.00  0.00     0.275 HD
ATOM     26  H11 UNL     1      -8.224  10.800  -8.456  1.00  0.00     0.275 HD
ENDBRANCH  18  23
ENDBRANCH  16  18
ENDBRANCH  15  16
ENDBRANCH   1  15
BRANCH   2  27
HETATM   27  O3  UNL     1     -10.002  12.519  -5.968  1.00  0.00    -0.309 OA
BRANCH  27  28
HETATM   28  C9  UNL     1      -8.780  12.019  -5.642  1.00  0.00     0.259 C 
HETATM   29  O4  UNL     1      -7.907  11.896  -6.529  1.00  0.00    -0.265 OA
BRANCH  28  30
HETATM   30  C10 UNL     1      -8.533  11.633  -4.212  1.00  0.00     0.115 C 
BRANCH  30  31
HETATM   31  C11 UNL     1      -9.318  12.653  -3.382  1.00  0.00    -0.013 C 
HETATM   32  C12 UNL     1      -8.410  13.788  -3.010  1.00  0.00     0.010 C 
HETATM   33  C13 UNL     1      -9.948  11.968  -2.187  1.00  0.00     0.010 C 
ENDBRANCH  30  31
ENDBRANCH  28  30
ENDBRANCH  27  28
ENDBRANCH   2  27
BRANCH  14  34
HETATM   34  C26 UNL     1     -13.272  13.744  -9.258  1.00  0.00     0.190 C 
BRANCH  34  35
HETATM   35  O5  UNL     1     -14.327  14.346  -8.768  1.00  0.00    -0.321 OA
BRANCH  35  36
HETATM   36  C27 UNL     1     -15.441  14.986  -8.736  1.00  0.00     0.254 C 
HETATM   37  C28 UNL     1     -15.701  16.237  -9.528  1.00  0.00     0.126 C 
HETATM   38  O6  UNL     1     -16.377  14.553  -8.005  1.00  0.00    -0.266 OA
ENDBRANCH  35  36
ENDBRANCH  34  35
ENDBRANCH  14  34
TORSDOF 14
ENDMDL
