MODEL 1
REMARK VINA RESULT: -7.739623341      0.000      0.000
REMARK  10 active torsions:
REMARK  status: ('A' for Active; 'I' for Inactive)
REMARK    1  A    between atoms: O1_2  and  C2_3 
REMARK    2  A    between atoms: C4_5  and  N1_6 
REMARK       I    between atoms: N1_6  and  C5_7 
REMARK    3  A    between atoms: N1_6  and  C10_16 
REMARK    4  A    between atoms: C5_7  and  C6_9 
REMARK    5  A    between atoms: C10_16  and  C11_17 
REMARK    6  A    between atoms: C10_16  and  C15_21 
REMARK    7  A    between atoms: C11_17  and  C12_18 
REMARK       I    between atoms: C15_21  and  N3_23 
REMARK    8  A    between atoms: N3_23  and  C16_25 
REMARK    9  A    between atoms: C23_32  and  O5_33 
REMARK   10  A    between atoms: C25_35  and  O6_36 
ROOT
HETATM    1  N1  UNL     1     -13.071  14.409  -9.728  1.00  0.00    -0.299 N 
HETATM    2  C5  UNL     1     -14.395  13.972  -9.769  1.00  0.00     0.277 C 
HETATM    3  O2  UNL     1     -14.678  13.207 -10.778  1.00  0.00    -0.265 OA
ENDROOT
BRANCH   1   4
HETATM    4  C4  UNL     1     -12.217  13.905 -10.814  1.00  0.00     0.044 A 
HETATM    5  C3  UNL     1     -11.391  12.816 -10.588  1.00  0.00     0.069 A 
HETATM    6  C2  UNL     1     -10.579  12.305 -11.571  1.00  0.00     0.106 A 
HETATM    7  C25 UNL     1     -10.598  12.902 -12.806  1.00  0.00     0.135 A 
HETATM    8  C23 UNL     1     -11.419  13.995 -13.052  1.00  0.00     0.106 A 
HETATM    9  C22 UNL     1     -12.236  14.502 -12.050  1.00  0.00     0.069 A 
BRANCH   6  10
HETATM   10  O1  UNL     1      -9.777  11.221 -11.290  1.00  0.00    -0.353 OA
HETATM   11  C1  UNL     1      -8.589  11.268 -10.566  1.00  0.00     0.210 C 
ENDBRANCH   6  10
BRANCH   7  12
HETATM   12  O6  UNL     1      -9.784  12.416 -13.844  1.00  0.00    -0.351 OA
HETATM   13  C26 UNL     1      -8.491  12.936 -14.019  1.00  0.00     0.210 C 
ENDBRANCH   7  12
BRANCH   8  14
HETATM   14  O5  UNL     1     -11.403  14.555 -14.298  1.00  0.00    -0.353 OA
HETATM   15  C24 UNL     1     -10.945  15.837 -14.595  1.00  0.00     0.210 C 
ENDBRANCH   8  14
ENDBRANCH   1   4
BRANCH   1  16
HETATM   16  C10 UNL     1     -12.410  15.281  -8.807  1.00  0.00     0.185 C 
BRANCH  16  17
HETATM   17  C11 UNL     1     -13.019  16.608  -8.554  1.00  0.00     0.039 C 
BRANCH  17  18
HETATM   18  C12 UNL     1     -12.863  17.563  -9.725  1.00  0.00    -0.020 C 
HETATM   19  C13 UNL     1     -13.663  18.813  -9.326  1.00  0.00     0.009 C 
HETATM   20  C14 UNL     1     -11.446  17.999  -9.943  1.00  0.00     0.009 C 
ENDBRANCH  17  18
ENDBRANCH  16  17
BRANCH  16  21
HETATM   21  C15 UNL     1     -12.000  14.540  -7.608  1.00  0.00     0.241 C 
HETATM   22  O4  UNL     1     -12.833  14.202  -6.698  1.00  0.00    -0.271 OA
HETATM   23  N3  UNL     1     -10.645  14.133  -7.359  1.00  0.00    -0.355 N 
ATOM     24  H3  UNL     1      -9.927  14.367  -8.044  1.00  0.00     0.162 HD
BRANCH  23  25
HETATM   25  C16 UNL     1     -10.264  13.399  -6.164  1.00  0.00     0.084 C 
HETATM   26  C17 UNL     1      -9.726  14.415  -5.176  1.00  0.00     0.025 C 
HETATM   27  C18 UNL     1      -9.135  13.746  -3.965  1.00  0.00     0.002 C 
HETATM   28  C19 UNL     1      -8.081  12.731  -4.289  1.00  0.00     0.000 C 
HETATM   29  C20 UNL     1      -8.634  11.733  -5.274  1.00  0.00     0.002 C 
HETATM   30  C21 UNL     1      -9.213  12.398  -6.509  1.00  0.00     0.025 C 
ENDBRANCH  23  25
ENDBRANCH  16  21
ENDBRANCH   1  16
BRANCH   2  31
HETATM   31  C6  UNL     1     -15.510  14.225  -8.877  1.00  0.00     0.125 A 
HETATM   32  C7  UNL     1     -16.600  15.061  -9.146  1.00  0.00     0.071 A 
HETATM   33  C8  UNL     1     -17.423  15.034  -8.072  1.00  0.00     0.075 A 
HETATM   34  C9  UNL     1     -18.716  15.797  -7.947  1.00  0.00     0.079 C 
HETATM   35  O3  UNL     1     -16.907  14.244  -7.183  1.00  0.00    -0.242 OA
HETATM   36  N2  UNL     1     -15.800  13.773  -7.643  1.00  0.00    -0.256 N 
ATOM     37  H2  UNL     1     -15.206  13.125  -7.127  1.00  0.00     0.195 HD
ENDBRANCH   2  31
TORSDOF 10
ENDMDL
MODEL 2
REMARK VINA RESULT: -7.719027257      2.087      2.786
REMARK  10 active torsions:
REMARK  status: ('A' for Active; 'I' for Inactive)
REMARK    1  A    between atoms: O1_2  and  C2_3 
REMARK    2  A    between atoms: C4_5  and  N1_6 
REMARK       I    between atoms: N1_6  and  C5_7 
REMARK    3  A    between atoms: N1_6  and  C10_16 
REMARK    4  A    between atoms: C5_7  and  C6_9 
REMARK    5  A    between atoms: C10_16  and  C11_17 
REMARK    6  A    between atoms: C10_16  and  C15_21 
REMARK    7  A    between atoms: C11_17  and  C12_18 
REMARK       I    between atoms: C15_21  and  N3_23 
REMARK    8  A    between atoms: N3_23  and  C16_25 
REMARK    9  A    between atoms: C23_32  and  O5_33 
REMARK   10  A    between atoms: C25_35  and  O6_36 
ROOT
HETATM    1  N1  UNL     1     -11.683  12.675 -10.163  1.00  0.00    -0.299 N 
HETATM    2  C5  UNL     1     -13.078  12.680 -10.185  1.00  0.00     0.277 C 
HETATM    3  O2  UNL     1     -13.605  11.797 -10.977  1.00  0.00    -0.265 OA
ENDROOT
BRANCH   1   4
HETATM    4  C4  UNL     1     -11.051  11.654 -11.012  1.00  0.00     0.044 A 
HETATM    5  C3  UNL     1     -10.922  10.357 -10.543  1.00  0.00     0.069 A 
HETATM    6  C2  UNL     1     -10.344   9.367 -11.300  1.00  0.00     0.106 A 
HETATM    7  C25 UNL     1      -9.888   9.688 -12.553  1.00  0.00     0.135 A 
HETATM    8  C23 UNL     1     -10.009  10.983 -13.040  1.00  0.00     0.106 A 
HETATM    9  C22 UNL     1     -10.595  11.975 -12.266  1.00  0.00     0.069 A 
BRANCH   6  10
HETATM   10  O1  UNL     1     -10.241   8.094 -10.783  1.00  0.00    -0.353 OA
HETATM   11  C1  UNL     1     -10.324   7.769  -9.432  1.00  0.00     0.210 C 
ENDBRANCH   6  10
BRANCH   7  12
HETATM   12  O6  UNL     1      -9.288   8.709 -13.365  1.00  0.00    -0.351 OA
HETATM   13  C26 UNL     1      -7.927   8.406 -13.202  1.00  0.00     0.210 C 
ENDBRANCH   7  12
BRANCH   8  14
HETATM   14  O5  UNL     1      -9.539  11.254 -14.294  1.00  0.00    -0.353 OA
HETATM   15  C24 UNL     1      -8.395  12.000 -14.579  1.00  0.00     0.210 C 
ENDBRANCH   8  14
ENDBRANCH   1   4
BRANCH   1  16
HETATM   16  C10 UNL     1     -10.765  13.513  -9.456  1.00  0.00     0.185 C 
BRANCH  16  17
HETATM   17  C11 UNL     1     -10.805  14.969  -9.732  1.00  0.00     0.039 C 
BRANCH  17  18
HETATM   18  C12 UNL     1      -9.432  15.557 -10.003  1.00  0.00    -0.020 C 
HETATM   19  C13 UNL     1      -9.493  16.054 -11.456  1.00  0.00     0.009 C 
HETATM   20  C14 UNL     1      -9.121  16.746  -9.144  1.00  0.00     0.009 C 
ENDBRANCH  17  18
ENDBRANCH  16  17
BRANCH  16  21
HETATM   21  C15 UNL     1     -10.727  13.144  -8.036  1.00  0.00     0.241 C 
HETATM   22  O4  UNL     1     -11.463  12.216  -7.554  1.00  0.00    -0.271 OA
HETATM   23  N3  UNL     1      -9.869  13.785  -7.078  1.00  0.00    -0.355 N 
ATOM     24  H3  UNL     1      -9.253  14.534  -7.393  1.00  0.00     0.162 HD
BRANCH  23  25
HETATM   25  C16 UNL     1      -9.849  13.401  -5.677  1.00  0.00     0.084 C 
HETATM   26  C17 UNL     1      -9.839  14.683  -4.869  1.00  0.00     0.025 C 
HETATM   27  C18 UNL     1      -9.639  14.409  -3.404  1.00  0.00     0.002 C 
HETATM   28  C19 UNL     1      -8.416  13.597  -3.102  1.00  0.00     0.000 C 
HETATM   29  C20 UNL     1      -8.444  12.329  -3.916  1.00  0.00     0.002 C 
HETATM   30  C21 UNL     1      -8.624  12.598  -5.399  1.00  0.00     0.025 C 
ENDBRANCH  23  25
ENDBRANCH  16  21
ENDBRANCH   1  16
BRANCH   2  31
HETATM   31  C6  UNL     1     -14.040  13.501  -9.476  1.00  0.00     0.125 A 
HETATM   32  C7  UNL     1     -15.084  14.228 -10.062  1.00  0.00     0.071 A 
HETATM   33  C8  UNL     1     -15.756  14.863  -9.073  1.00  0.00     0.075 A 
HETATM   34  C9  UNL     1     -16.954  15.755  -9.269  1.00  0.00     0.079 C 
HETATM   35  O3  UNL     1     -15.193  14.568  -7.943  1.00  0.00    -0.242 OA
HETATM   36  N2  UNL     1     -14.200  13.781  -8.170  1.00  0.00    -0.256 N 
ATOM     37  H2  UNL     1     -13.597  13.408  -7.437  1.00  0.00     0.195 HD
ENDBRANCH   2  31
TORSDOF 10
ENDMDL
MODEL 3
REMARK VINA RESULT: -7.706842976      1.609      2.256
REMARK  10 active torsions:
REMARK  status: ('A' for Active; 'I' for Inactive)
REMARK    1  A    between atoms: O1_2  and  C2_3 
REMARK    2  A    between atoms: C4_5  and  N1_6 
REMARK       I    between atoms: N1_6  and  C5_7 
REMARK    3  A    between atoms: N1_6  and  C10_16 
REMARK    4  A    between atoms: C5_7  and  C6_9 
REMARK    5  A    between atoms: C10_16  and  C11_17 
REMARK    6  A    between atoms: C10_16  and  C15_21 
REMARK    7  A    between atoms: C11_17  and  C12_18 
REMARK       I    between atoms: C15_21  and  N3_23 
REMARK    8  A    between atoms: N3_23  and  C16_25 
REMARK    9  A    between atoms: C23_32  and  O5_33 
REMARK   10  A    between atoms: C25_35  and  O6_36 
ROOT
HETATM    1  N1  UNL     1     -12.005  13.200  -9.830  1.00  0.00    -0.299 N 
HETATM    2  C5  UNL     1     -13.385  13.016  -9.931  1.00  0.00     0.277 C 
HETATM    3  O2  UNL     1     -13.740  12.020 -10.683  1.00  0.00    -0.265 OA
ENDROOT
BRANCH   1   4
HETATM    4  C4  UNL     1     -11.192  12.218 -10.565  1.00  0.00     0.044 A 
HETATM    5  C3  UNL     1     -10.787  11.054  -9.933  1.00  0.00     0.069 A 
HETATM    6  C2  UNL     1     -10.032  10.105 -10.578  1.00  0.00     0.106 A 
HETATM    7  C25 UNL     1      -9.677  10.332 -11.883  1.00  0.00     0.135 A 
HETATM    8  C23 UNL     1     -10.073  11.494 -12.533  1.00  0.00     0.106 A 
HETATM    9  C22 UNL     1     -10.837  12.445 -11.871  1.00  0.00     0.069 A 
BRANCH   6  10
HETATM   10  O1  UNL     1      -9.657   8.966  -9.901  1.00  0.00    -0.353 OA
HETATM   11  C1  UNL     1     -10.527   7.971  -9.462  1.00  0.00     0.210 C 
ENDBRANCH   6  10
BRANCH   7  12
HETATM   12  O6  UNL     1      -8.904   9.390 -12.584  1.00  0.00    -0.351 OA
HETATM   13  C26 UNL     1      -7.511   9.361 -12.408  1.00  0.00     0.210 C 
ENDBRANCH   7  12
BRANCH   8  14
HETATM   14  O5  UNL     1      -9.695  11.674 -13.834  1.00  0.00    -0.353 OA
HETATM   15  C24 UNL     1      -8.650  12.494 -14.258  1.00  0.00     0.210 C 
ENDBRANCH   8  14
ENDBRANCH   1   4
BRANCH   1  16
HETATM   16  C10 UNL     1     -11.252  14.199  -9.139  1.00  0.00     0.185 C 
BRANCH  16  17
HETATM   17  C11 UNL     1     -11.543  15.619  -9.443  1.00  0.00     0.039 C 
BRANCH  17  18
HETATM   18  C12 UNL     1     -11.332  16.535  -8.250  1.00  0.00    -0.020 C 
HETATM   19  C13 UNL     1     -10.236  17.517  -8.693  1.00  0.00     0.009 C 
HETATM   20  C14 UNL     1     -12.544  17.351  -7.913  1.00  0.00     0.009 C 
ENDBRANCH  17  18
ENDBRANCH  16  17
BRANCH  16  21
HETATM   21  C15 UNL     1     -11.159  13.869  -7.711  1.00  0.00     0.241 C 
HETATM   22  O4  UNL     1     -12.195  13.760  -6.969  1.00  0.00    -0.271 OA
HETATM   23  N3  UNL     1      -9.912  13.642  -7.034  1.00  0.00    -0.355 N 
ATOM     24  H3  UNL     1      -9.044  13.712  -7.565  1.00  0.00     0.162 HD
BRANCH  23  25
HETATM   25  C16 UNL     1      -9.847  13.317  -5.619  1.00  0.00     0.084 C 
HETATM   26  C17 UNL     1      -9.822  14.632  -4.865  1.00  0.00     0.025 C 
HETATM   27  C18 UNL     1      -9.576  14.419  -3.397  1.00  0.00     0.002 C 
HETATM   28  C19 UNL     1      -8.338  13.629  -3.099  1.00  0.00     0.000 C 
HETATM   29  C20 UNL     1      -8.380  12.328  -3.859  1.00  0.00     0.002 C 
HETATM   30  C21 UNL     1      -8.607  12.534  -5.346  1.00  0.00     0.025 C 
ENDBRANCH  23  25
ENDBRANCH  16  21
ENDBRANCH   1  16
BRANCH   2  31
HETATM   31  C6  UNL     1     -14.489  13.746  -9.340  1.00  0.00     0.125 A 
HETATM   32  C7  UNL     1     -15.328  14.645 -10.011  1.00  0.00     0.071 A 
HETATM   33  C8  UNL     1     -16.231  15.117  -9.120  1.00  0.00     0.075 A 
HETATM   34  C9  UNL     1     -17.320  16.111  -9.429  1.00  0.00     0.079 C 
HETATM   35  O3  UNL     1     -15.995  14.568  -7.970  1.00  0.00    -0.242 OA
HETATM   36  N2  UNL     1     -14.988  13.773  -8.091  1.00  0.00    -0.256 N 
ATOM     37  H2  UNL     1     -14.609  13.223  -7.321  1.00  0.00     0.195 HD
ENDBRANCH   2  31
TORSDOF 10
ENDMDL
MODEL 4
REMARK VINA RESULT: -7.694870588      1.583      2.966
REMARK  10 active torsions:
REMARK  status: ('A' for Active; 'I' for Inactive)
REMARK    1  A    between atoms: O1_2  and  C2_3 
REMARK    2  A    between atoms: C4_5  and  N1_6 
REMARK       I    between atoms: N1_6  and  C5_7 
REMARK    3  A    between atoms: N1_6  and  C10_16 
REMARK    4  A    between atoms: C5_7  and  C6_9 
REMARK    5  A    between atoms: C10_16  and  C11_17 
REMARK    6  A    between atoms: C10_16  and  C15_21 
REMARK    7  A    between atoms: C11_17  and  C12_18 
REMARK       I    between atoms: C15_21  and  N3_23 
REMARK    8  A    between atoms: N3_23  and  C16_25 
REMARK    9  A    between atoms: C23_32  and  O5_33 
REMARK   10  A    between atoms: C25_35  and  O6_36 
ROOT
HETATM    1  N1  UNL     1     -11.978  13.198  -9.868  1.00  0.00    -0.299 N 
HETATM    2  C5  UNL     1     -13.358  13.020  -9.977  1.00  0.00     0.277 C 
HETATM    3  O2  UNL     1     -13.713  12.024 -10.729  1.00  0.00    -0.265 OA
ENDROOT
BRANCH   1   4
HETATM    4  C4  UNL     1     -11.165  12.211 -10.595  1.00  0.00     0.044 A 
HETATM    5  C3  UNL     1     -10.776  12.471 -11.899  1.00  0.00     0.069 A 
HETATM    6  C2  UNL     1     -10.012  11.584 -12.618  1.00  0.00     0.106 A 
HETATM    7  C25 UNL     1      -9.634  10.412 -12.013  1.00  0.00     0.135 A 
HETATM    8  C23 UNL     1     -10.015  10.134 -10.707  1.00  0.00     0.106 A 
HETATM    9  C22 UNL     1     -10.786  11.039  -9.990  1.00  0.00     0.069 A 
BRANCH   6  10
HETATM   10  O1  UNL     1      -9.655  11.893 -13.912  1.00  0.00    -0.353 OA
HETATM   11  C1  UNL     1      -8.634  12.768 -14.273  1.00  0.00     0.210 C 
ENDBRANCH   6  10
BRANCH   7  12
HETATM   12  O6  UNL     1      -8.853   9.472 -12.709  1.00  0.00    -0.351 OA
HETATM   13  C26 UNL     1      -7.452   9.557 -12.661  1.00  0.00     0.210 C 
ENDBRANCH   7  12
BRANCH   8  14
HETATM   14  O5  UNL     1      -9.612   8.954 -10.148  1.00  0.00    -0.353 OA
HETATM   15  C24 UNL     1     -10.444   8.064  -9.470  1.00  0.00     0.210 C 
ENDBRANCH   8  14
ENDBRANCH   1   4
BRANCH   1  16
HETATM   16  C10 UNL     1     -11.224  14.195  -9.174  1.00  0.00     0.185 C 
BRANCH  16  17
HETATM   17  C11 UNL     1     -11.509  15.616  -9.483  1.00  0.00     0.039 C 
BRANCH  17  18
HETATM   18  C12 UNL     1     -11.365  16.524  -8.274  1.00  0.00    -0.020 C 
HETATM   19  C13 UNL     1     -10.252  17.515  -8.652  1.00  0.00     0.009 C 
HETATM   20  C14 UNL     1     -12.596  17.332  -7.993  1.00  0.00     0.009 C 
ENDBRANCH  17  18
ENDBRANCH  16  17
BRANCH  16  21
HETATM   21  C15 UNL     1     -11.141  13.868  -7.746  1.00  0.00     0.241 C 
HETATM   22  O4  UNL     1     -12.182  13.743  -7.013  1.00  0.00    -0.271 OA
HETATM   23  N3  UNL     1      -9.897  13.660  -7.057  1.00  0.00    -0.355 N 
ATOM     24  H3  UNL     1      -9.025  13.743  -7.579  1.00  0.00     0.162 HD
BRANCH  23  25
HETATM   25  C16 UNL     1      -9.840  13.336  -5.641  1.00  0.00     0.084 C 
HETATM   26  C17 UNL     1      -9.808  14.652  -4.889  1.00  0.00     0.025 C 
HETATM   27  C18 UNL     1      -9.570  14.440  -3.420  1.00  0.00     0.002 C 
HETATM   28  C19 UNL     1      -8.339  13.641  -3.116  1.00  0.00     0.000 C 
HETATM   29  C20 UNL     1      -8.389  12.339  -3.874  1.00  0.00     0.002 C 
HETATM   30  C21 UNL     1      -8.608  12.544  -5.362  1.00  0.00     0.025 C 
ENDBRANCH  23  25
ENDBRANCH  16  21
ENDBRANCH   1  16
BRANCH   2  31
HETATM   31  C6  UNL     1     -14.463  13.757  -9.395  1.00  0.00     0.125 A 
HETATM   32  C7  UNL     1     -15.251  14.707 -10.056  1.00  0.00     0.071 A 
HETATM   33  C8  UNL     1     -16.173  15.168  -9.178  1.00  0.00     0.075 A 
HETATM   34  C9  UNL     1     -17.221  16.205  -9.482  1.00  0.00     0.079 C 
HETATM   35  O3  UNL     1     -15.995  14.563  -8.045  1.00  0.00    -0.242 OA
HETATM   36  N2  UNL     1     -15.007  13.745  -8.165  1.00  0.00    -0.256 N 
ATOM     37  H2  UNL     1     -14.672  13.151  -7.407  1.00  0.00     0.195 HD
ENDBRANCH   2  31
TORSDOF 10
ENDMDL
MODEL 5
REMARK VINA RESULT: -7.694477116      0.992      2.383
REMARK  10 active torsions:
REMARK  status: ('A' for Active; 'I' for Inactive)
REMARK    1  A    between atoms: O1_2  and  C2_3 
REMARK    2  A    between atoms: C4_5  and  N1_6 
REMARK       I    between atoms: N1_6  and  C5_7 
REMARK    3  A    between atoms: N1_6  and  C10_16 
REMARK    4  A    between atoms: C5_7  and  C6_9 
REMARK    5  A    between atoms: C10_16  and  C11_17 
REMARK    6  A    between atoms: C10_16  and  C15_21 
REMARK    7  A    between atoms: C11_17  and  C12_18 
REMARK       I    between atoms: C15_21  and  N3_23 
REMARK    8  A    between atoms: N3_23  and  C16_25 
REMARK    9  A    between atoms: C23_32  and  O5_33 
REMARK   10  A    between atoms: C25_35  and  O6_36 
ROOT
HETATM    1  N1  UNL     1     -12.453  14.571  -9.432  1.00  0.00    -0.299 N 
HETATM    2  C5  UNL     1     -13.744  14.092  -9.659  1.00  0.00     0.277 C 
HETATM    3  O2  UNL     1     -13.848  13.288 -10.672  1.00  0.00    -0.265 OA
ENDROOT
BRANCH   1   4
HETATM    4  C4  UNL     1     -11.430  14.060 -10.357  1.00  0.00     0.044 A 
HETATM    5  C3  UNL     1     -11.080  14.805 -11.472  1.00  0.00     0.069 A 
HETATM    6  C2  UNL     1     -10.127  14.373 -12.362  1.00  0.00     0.106 A 
HETATM    7  C25 UNL     1      -9.514  13.169 -12.126  1.00  0.00     0.135 A 
HETATM    8  C23 UNL     1      -9.852  12.408 -11.014  1.00  0.00     0.106 A 
HETATM    9  C22 UNL     1     -10.816  12.855 -10.121  1.00  0.00     0.069 A 
BRANCH   6  10
HETATM   10  O1  UNL     1      -9.820  15.154 -13.454  1.00  0.00    -0.353 OA
HETATM   11  C1  UNL     1     -10.527  15.170 -14.653  1.00  0.00     0.210 C 
ENDBRANCH   6  10
BRANCH   7  12
HETATM   12  O6  UNL     1      -8.534  12.685 -13.010  1.00  0.00    -0.351 OA
HETATM   13  C26 UNL     1      -7.194  13.071 -12.845  1.00  0.00     0.210 C 
ENDBRANCH   7  12
BRANCH   8  14
HETATM   14  O5  UNL     1      -9.213  11.216 -10.822  1.00  0.00    -0.353 OA
HETATM   15  C24 UNL     1      -8.382  10.916  -9.743  1.00  0.00     0.210 C 
ENDBRANCH   8  14
ENDBRANCH   1   4
BRANCH   1  16
HETATM   16  C10 UNL     1     -11.964  15.491  -8.453  1.00  0.00     0.185 C 
BRANCH  16  17
HETATM   17  C11 UNL     1     -12.666  16.789  -8.313  1.00  0.00     0.039 C 
BRANCH  17  18
HETATM   18  C12 UNL     1     -11.935  17.932  -8.995  1.00  0.00    -0.020 C 
HETATM   19  C13 UNL     1     -10.453  17.525  -8.972  1.00  0.00     0.009 C 
HETATM   20  C14 UNL     1     -12.322  18.104 -10.433  1.00  0.00     0.009 C 
ENDBRANCH  17  18
ENDBRANCH  16  17
BRANCH  16  21
HETATM   21  C15 UNL     1     -11.681  14.792  -7.194  1.00  0.00     0.241 C 
HETATM   22  O4  UNL     1     -12.610  14.424  -6.395  1.00  0.00    -0.271 OA
HETATM   23  N3  UNL     1     -10.352  14.465  -6.756  1.00  0.00    -0.355 N 
ATOM     24  H3  UNL     1      -9.561  14.728  -7.344  1.00  0.00     0.162 HD
BRANCH  23  25
HETATM   25  C16 UNL     1     -10.097  13.771  -5.505  1.00  0.00     0.084 C 
HETATM   26  C17 UNL     1      -9.752  14.831  -4.477  1.00  0.00     0.025 C 
HETATM   27  C18 UNL     1      -9.295  14.214  -3.183  1.00  0.00     0.002 C 
HETATM   28  C19 UNL     1      -8.155  13.255  -3.341  1.00  0.00     0.000 C 
HETATM   29  C20 UNL     1      -8.516  12.212  -4.367  1.00  0.00     0.002 C 
HETATM   30  C21 UNL     1      -8.958  12.826  -5.684  1.00  0.00     0.025 C 
ENDBRANCH  23  25
ENDBRANCH  16  21
ENDBRANCH   1  16
BRANCH   2  31
HETATM   31  C6  UNL     1     -14.989  14.338  -8.957  1.00  0.00     0.125 A 
HETATM   32  C7  UNL     1     -16.025  15.170  -9.397  1.00  0.00     0.071 A 
HETATM   33  C8  UNL     1     -17.010  15.137  -8.468  1.00  0.00     0.075 A 
HETATM   34  C9  UNL     1     -18.309  15.893  -8.551  1.00  0.00     0.079 C 
HETATM   35  O3  UNL     1     -16.639  14.348  -7.509  1.00  0.00    -0.242 OA
HETATM   36  N2  UNL     1     -15.470  13.882  -7.786  1.00  0.00    -0.256 N 
ATOM     37  H2  UNL     1     -14.963  13.236  -7.182  1.00  0.00     0.195 HD
ENDBRANCH   2  31
TORSDOF 10
ENDMDL
