MODEL 1
REMARK VINA RESULT: -7.425816052      0.000      0.000
REMARK  8 active torsions:
REMARK  status: ('A' for Active; 'I' for Inactive)
REMARK    1  A    between atoms: N1_2  and  C2_4 
REMARK    2  A    between atoms: C4_6  and  S1_7 
REMARK    3  A    between atoms: C8_14  and  S2_15 
REMARK    4  A    between atoms: S2_15  and  C9_16 
REMARK    5  A    between atoms: N2_18  and  C11_20 
REMARK    6  A    between atoms: C11_20  and  C12_21 
REMARK    7  A    between atoms: C11_20  and  C16_25 
REMARK    8  A    between atoms: C12_21  and  C13_22 
ROOT
HETATM    1  C9  UNL     1      -9.807   0.985 -15.462  1.00  0.00     0.120 A 
HETATM    2  C10 UNL     1     -11.089   1.324 -16.060  1.00  0.00     0.143 A 
HETATM    3  N2  UNL     1     -11.682   2.468 -15.633  1.00  0.00    -0.338 N 
ATOM      4  H2  UNL     1     -11.246   3.113 -14.974  1.00  0.00     0.167 HD
HETATM    5  N3  UNL     1     -11.338   0.317 -16.885  1.00  0.00    -0.280 N 
ATOM      6  H3  UNL     1     -12.172   0.249 -17.469  1.00  0.00     0.189 HD
HETATM    7  N4  UNL     1     -10.362  -0.601 -16.859  1.00  0.00    -0.259 N 
HETATM    8  C17 UNL     1     -10.296  -1.859 -17.610  1.00  0.00     0.181 C 
HETATM    9  C18 UNL     1      -9.423  -0.187 -15.985  1.00  0.00     0.282 A 
HETATM   10  O3  UNL     1      -8.353  -0.891 -15.766  1.00  0.00    -0.265 OA
ENDROOT
BRANCH   1  11
HETATM   11  S2  UNL     1      -8.932   1.995 -14.265  1.00  0.00    -0.077 SA
BRANCH  11  12
HETATM   12  C8  UNL     1      -7.231   2.281 -14.737  1.00  0.00     0.054 A 
HETATM   13  C2  UNL     1      -6.246   1.495 -14.197  1.00  0.00     0.048 A 
HETATM   14  C3  UNL     1      -4.879   1.757 -14.435  1.00  0.00     0.054 A 
HETATM   15  C4  UNL     1      -4.544   2.812 -15.228  1.00  0.00     0.062 A 
HETATM   16  C6  UNL     1      -5.508   3.599 -15.792  1.00  0.00     0.048 A 
HETATM   17  C7  UNL     1      -6.857   3.344 -15.559  1.00  0.00     0.054 A 
HETATM   18 CL1  UNL     1      -8.089   4.241 -16.410  1.00  0.00    -0.083 Cl
BRANCH  13  19
HETATM   19  N1  UNL     1      -6.594   0.360 -13.426  1.00  0.00    -0.393 N 
HETATM   20  C1  UNL     1      -5.657  -0.427 -12.665  1.00  0.00     0.146 C 
ATOM     21  H1  UNL     1      -7.574   0.079 -13.409  1.00  0.00     0.159 HD
ENDBRANCH  13  19
BRANCH  15  22
HETATM   22  S1  UNL     1      -2.843   3.264 -15.450  1.00  0.00     0.172 S 
HETATM   23  C5  UNL     1      -1.843   1.876 -14.914  1.00  0.00     0.167 C 
HETATM   24  O1  UNL     1      -2.562   3.653 -16.825  1.00  0.00    -0.223 OA
HETATM   25  O2  UNL     1      -2.538   4.392 -14.518  1.00  0.00    -0.223 OA
ENDBRANCH  15  22
ENDBRANCH  11  12
ENDBRANCH   1  11
BRANCH   3  26
HETATM   26  C11 UNL     1     -13.257   2.724 -16.319  1.00  0.00     0.067 C 
BRANCH  26  27
HETATM   27  C12 UNL     1     -13.819   1.910 -15.368  1.00  0.00     0.034 C 
BRANCH  27  28
HETATM   28  C13 UNL     1     -14.830   1.050 -15.693  1.00  0.00    -0.085 C 
HETATM   29  C14 UNL     1     -15.776   0.756 -14.617  1.00  0.00     0.043 C 
HETATM   30  C15 UNL     1     -14.992   0.494 -17.032  1.00  0.00     0.043 C 
ENDBRANCH  27  28
ENDBRANCH  26  27
BRANCH  26  31
HETATM   31  C16 UNL     1     -12.716   3.493 -17.156  1.00  0.00     0.130 C 
HETATM   32 CL2  UNL     1     -11.927   4.996 -17.043  1.00  0.00    -0.068 Cl
HETATM   33 CL3  UNL     1     -12.801   2.833 -18.871  1.00  0.00    -0.068 Cl
ENDBRANCH  26  31
ENDBRANCH   3  26
TORSDOF 8
ENDMDL
MODEL 2
REMARK VINA RESULT: -7.328827970      3.101      4.623
REMARK  8 active torsions:
REMARK  status: ('A' for Active; 'I' for Inactive)
REMARK    1  A    between atoms: N1_2  and  C2_4 
REMARK    2  A    between atoms: C4_6  and  S1_7 
REMARK    3  A    between atoms: C8_14  and  S2_15 
REMARK    4  A    between atoms: S2_15  and  C9_16 
REMARK    5  A    between atoms: N2_18  and  C11_20 
REMARK    6  A    between atoms: C11_20  and  C12_21 
REMARK    7  A    between atoms: C11_20  and  C16_25 
REMARK    8  A    between atoms: C12_21  and  C13_22 
ROOT
HETATM    1  C9  UNL     1      -9.364   4.976 -16.673  1.00  0.00     0.120 A 
HETATM    2  C10 UNL     1     -10.769   5.142 -16.337  1.00  0.00     0.143 A 
HETATM    3  N2  UNL     1     -11.569   4.056 -16.493  1.00  0.00    -0.338 N 
ATOM      4  H2  UNL     1     -11.220   3.138 -16.768  1.00  0.00     0.167 HD
HETATM    5  N3  UNL     1     -10.871   6.416 -15.984  1.00  0.00    -0.280 N 
ATOM      6  H3  UNL     1     -11.739   6.859 -15.685  1.00  0.00     0.189 HD
HETATM    7  N4  UNL     1      -9.693   7.051 -16.070  1.00  0.00    -0.259 N 
HETATM    8  C17 UNL     1      -9.415   8.464 -15.789  1.00  0.00     0.181 C 
HETATM    9  C18 UNL     1      -8.770   6.163 -16.491  1.00  0.00     0.282 A 
HETATM   10  O3  UNL     1      -7.530   6.514 -16.657  1.00  0.00    -0.265 OA
ENDROOT
BRANCH   1  11
HETATM   11  S2  UNL     1      -8.608   3.439 -17.206  1.00  0.00    -0.077 SA
BRANCH  11  12
HETATM   12  C8  UNL     1      -7.683   2.651 -15.895  1.00  0.00     0.054 A 
HETATM   13  C2  UNL     1      -6.370   2.994 -15.703  1.00  0.00     0.048 A 
HETATM   14  C3  UNL     1      -5.557   2.315 -14.769  1.00  0.00     0.054 A 
HETATM   15  C4  UNL     1      -6.105   1.302 -14.041  1.00  0.00     0.062 A 
HETATM   16  C6  UNL     1      -7.417   0.953 -14.202  1.00  0.00     0.048 A 
HETATM   17  C7  UNL     1      -8.220   1.620 -15.122  1.00  0.00     0.054 A 
HETATM   18 CL1  UNL     1      -9.931   1.290 -15.208  1.00  0.00    -0.083 Cl
BRANCH  13  19
HETATM   19  N1  UNL     1      -5.817   4.088 -16.410  1.00  0.00    -0.393 N 
HETATM   20  C1  UNL     1      -4.520   4.658 -16.147  1.00  0.00     0.146 C 
ATOM     21  H1  UNL     1      -6.374   4.501 -17.158  1.00  0.00     0.159 HD
ENDBRANCH  13  19
BRANCH  15  22
HETATM   22  S1  UNL     1      -5.096   0.330 -12.952  1.00  0.00     0.172 S 
HETATM   23  C5  UNL     1      -4.256  -0.899 -13.951  1.00  0.00     0.167 C 
HETATM   24  O1  UNL     1      -4.169   1.157 -12.193  1.00  0.00    -0.223 OA
HETATM   25  O2  UNL     1      -6.000  -0.420 -12.028  1.00  0.00    -0.223 OA
ENDBRANCH  15  22
ENDBRANCH  11  12
ENDBRANCH   1  11
BRANCH   3  26
HETATM   26  C11 UNL     1     -13.244   4.386 -16.178  1.00  0.00     0.067 C 
BRANCH  26  27
HETATM   27  C12 UNL     1     -13.046   4.184 -14.834  1.00  0.00     0.034 C 
BRANCH  27  28
HETATM   28  C13 UNL     1     -13.950   3.476 -14.094  1.00  0.00    -0.085 C 
HETATM   29  C14 UNL     1     -14.492   2.280 -14.740  1.00  0.00     0.043 C 
HETATM   30  C15 UNL     1     -14.321   3.849 -12.733  1.00  0.00     0.043 C 
ENDBRANCH  27  28
ENDBRANCH  26  27
BRANCH  26  31
HETATM   31  C16 UNL     1     -13.386   4.600 -17.410  1.00  0.00     0.130 C 
HETATM   32 CL2  UNL     1     -13.249   3.631 -18.802  1.00  0.00    -0.068 Cl
HETATM   33 CL3  UNL     1     -13.847   6.345 -17.769  1.00  0.00    -0.068 Cl
ENDBRANCH  26  31
ENDBRANCH   3  26
TORSDOF 8
ENDMDL
MODEL 3
REMARK VINA RESULT: -7.197077684      3.591      5.562
REMARK  8 active torsions:
REMARK  status: ('A' for Active; 'I' for Inactive)
REMARK    1  A    between atoms: N1_2  and  C2_4 
REMARK    2  A    between atoms: C4_6  and  S1_7 
REMARK    3  A    between atoms: C8_14  and  S2_15 
REMARK    4  A    between atoms: S2_15  and  C9_16 
REMARK    5  A    between atoms: N2_18  and  C11_20 
REMARK    6  A    between atoms: C11_20  and  C12_21 
REMARK    7  A    between atoms: C11_20  and  C16_25 
REMARK    8  A    between atoms: C12_21  and  C13_22 
ROOT
HETATM    1  C9  UNL     1     -10.875   3.607 -16.338  1.00  0.00     0.120 A 
HETATM    2  C10 UNL     1     -11.076   5.033 -16.541  1.00  0.00     0.143 A 
HETATM    3  N2  UNL     1     -10.144   5.684 -17.283  1.00  0.00    -0.338 N 
ATOM      4  H2  UNL     1      -9.365   5.214 -17.744  1.00  0.00     0.167 HD
HETATM    5  N3  UNL     1     -12.178   5.306 -15.856  1.00  0.00    -0.280 N 
ATOM      6  H3  UNL     1     -12.598   6.233 -15.795  1.00  0.00     0.189 HD
HETATM    7  N4  UNL     1     -12.672   4.215 -15.254  1.00  0.00    -0.259 N 
HETATM    8  C17 UNL     1     -13.857   4.127 -14.394  1.00  0.00     0.181 C 
HETATM    9  C18 UNL     1     -11.870   3.174 -15.554  1.00  0.00     0.282 A 
HETATM   10  O3  UNL     1     -12.121   1.982 -15.101  1.00  0.00    -0.265 OA
ENDROOT
BRANCH   1  11
HETATM   11  S2  UNL     1      -9.536   2.646 -17.048  1.00  0.00    -0.077 SA
BRANCH  11  12
HETATM   12  C8  UNL     1      -8.442   1.986 -15.797  1.00  0.00     0.054 A 
HETATM   13  C2  UNL     1      -7.418   2.766 -15.325  1.00  0.00     0.048 A 
HETATM   14  C3  UNL     1      -6.450   2.255 -14.434  1.00  0.00     0.054 A 
HETATM   15  C4  UNL     1      -6.552   0.956 -14.034  1.00  0.00     0.062 A 
HETATM   16  C6  UNL     1      -7.572   0.163 -14.477  1.00  0.00     0.048 A 
HETATM   17  C7  UNL     1      -8.528   0.665 -15.356  1.00  0.00     0.054 A 
HETATM   18 CL1  UNL     1      -9.922  -0.291 -15.789  1.00  0.00    -0.083 Cl
BRANCH  13  19
HETATM   19  N1  UNL     1      -7.349   4.133 -15.687  1.00  0.00    -0.393 N 
HETATM   20  C1  UNL     1      -6.407   4.680 -16.631  1.00  0.00     0.146 C 
ATOM     21  H1  UNL     1      -8.010   4.774 -15.250  1.00  0.00     0.159 HD
ENDBRANCH  13  19
BRANCH  15  22
HETATM   22  S1  UNL     1      -5.289   0.227 -13.022  1.00  0.00     0.172 S 
HETATM   23  C5  UNL     1      -4.429  -0.985 -14.026  1.00  0.00     0.167 C 
HETATM   24  O1  UNL     1      -4.390   1.231 -12.472  1.00  0.00    -0.223 OA
HETATM   25  O2  UNL     1      -5.958  -0.531 -11.922  1.00  0.00    -0.223 OA
ENDBRANCH  15  22
ENDBRANCH  11  12
ENDBRANCH   1  11
BRANCH   3  26
HETATM   26  C11 UNL     1     -10.410   7.398 -17.370  1.00  0.00     0.067 C 
BRANCH  26  27
HETATM   27  C12 UNL     1      -9.719   7.580 -16.198  1.00  0.00     0.034 C 
BRANCH  27  28
HETATM   28  C13 UNL     1      -8.785   8.571 -16.085  1.00  0.00    -0.085 C 
HETATM   29  C14 UNL     1      -7.484   8.280 -16.686  1.00  0.00     0.043 C 
HETATM   30  C15 UNL     1      -9.070   9.854 -15.451  1.00  0.00     0.043 C 
ENDBRANCH  27  28
ENDBRANCH  26  27
BRANCH  26  31
HETATM   31  C16 UNL     1     -11.008   7.204 -18.461  1.00  0.00     0.130 C 
HETATM   32 CL2  UNL     1     -10.523   6.640 -19.991  1.00  0.00    -0.068 Cl
HETATM   33 CL3  UNL     1     -12.797   7.619 -18.362  1.00  0.00    -0.068 Cl
ENDBRANCH  26  31
ENDBRANCH   3  26
TORSDOF 8
ENDMDL
MODEL 4
REMARK VINA RESULT: -7.142827909      1.357      2.051
REMARK  8 active torsions:
REMARK  status: ('A' for Active; 'I' for Inactive)
REMARK    1  A    between atoms: N1_2  and  C2_4 
REMARK    2  A    between atoms: C4_6  and  S1_7 
REMARK    3  A    between atoms: C8_14  and  S2_15 
REMARK    4  A    between atoms: S2_15  and  C9_16 
REMARK    5  A    between atoms: N2_18  and  C11_20 
REMARK    6  A    between atoms: C11_20  and  C12_21 
REMARK    7  A    between atoms: C11_20  and  C16_25 
REMARK    8  A    between atoms: C12_21  and  C13_22 
ROOT
HETATM    1  C9  UNL     1      -9.684   0.977 -15.461  1.00  0.00     0.120 A 
HETATM    2  C10 UNL     1     -10.884   1.409 -16.159  1.00  0.00     0.143 A 
HETATM    3  N2  UNL     1     -11.393   2.619 -15.813  1.00  0.00    -0.338 N 
ATOM      4  H2  UNL     1     -10.943   3.247 -15.146  1.00  0.00     0.167 HD
HETATM    5  N3  UNL     1     -11.172   0.398 -16.966  1.00  0.00    -0.280 N 
ATOM      6  H3  UNL     1     -11.967   0.384 -17.605  1.00  0.00     0.189 HD
HETATM    7  N4  UNL     1     -10.292  -0.605 -16.840  1.00  0.00    -0.259 N 
HETATM    8  C17 UNL     1     -10.295  -1.893 -17.543  1.00  0.00     0.181 C 
HETATM    9  C18 UNL     1      -9.379  -0.246 -15.916  1.00  0.00     0.282 A 
HETATM   10  O3  UNL     1      -8.399  -1.037 -15.599  1.00  0.00    -0.265 OA
ENDROOT
BRANCH   1  11
HETATM   11  S2  UNL     1      -8.799   1.947 -14.238  1.00  0.00    -0.077 SA
BRANCH  11  12
HETATM   12  C8  UNL     1      -7.092   2.217 -14.697  1.00  0.00     0.054 A 
HETATM   13  C2  UNL     1      -6.117   1.434 -14.136  1.00  0.00     0.048 A 
HETATM   14  C3  UNL     1      -4.746   1.685 -14.363  1.00  0.00     0.054 A 
HETATM   15  C4  UNL     1      -4.398   2.727 -15.168  1.00  0.00     0.062 A 
HETATM   16  C6  UNL     1      -5.352   3.512 -15.753  1.00  0.00     0.048 A 
HETATM   17  C7  UNL     1      -6.704   3.267 -15.530  1.00  0.00     0.054 A 
HETATM   18 CL1  UNL     1      -7.922   4.157 -16.407  1.00  0.00    -0.083 Cl
BRANCH  13  19
HETATM   19  N1  UNL     1      -6.478   0.312 -13.353  1.00  0.00    -0.393 N 
HETATM   20  C1  UNL     1      -5.550  -0.480 -12.585  1.00  0.00     0.146 C 
ATOM     21  H1  UNL     1      -7.462   0.045 -13.330  1.00  0.00     0.159 HD
ENDBRANCH  13  19
BRANCH  15  22
HETATM   22  S1  UNL     1      -2.691   3.168 -15.379  1.00  0.00     0.172 S 
HETATM   23  C5  UNL     1      -1.704   1.787 -14.802  1.00  0.00     0.167 C 
HETATM   24  O1  UNL     1      -2.392   3.526 -16.758  1.00  0.00    -0.223 OA
HETATM   25  O2  UNL     1      -2.393   4.313 -14.467  1.00  0.00    -0.223 OA
ENDBRANCH  15  22
ENDBRANCH  11  12
ENDBRANCH   1  11
BRANCH   3  26
HETATM   26  C11 UNL     1     -12.886   2.993 -16.617  1.00  0.00     0.067 C 
BRANCH  26  27
HETATM   27  C12 UNL     1     -12.202   3.341 -17.755  1.00  0.00     0.034 C 
BRANCH  27  28
HETATM   28  C13 UNL     1     -12.717   3.067 -18.991  1.00  0.00    -0.085 C 
HETATM   29  C14 UNL     1     -12.191   3.882 -20.086  1.00  0.00     0.043 C 
HETATM   30  C15 UNL     1     -13.689   2.004 -19.222  1.00  0.00     0.043 C 
ENDBRANCH  27  28
ENDBRANCH  26  27
BRANCH  26  31
HETATM   31  C16 UNL     1     -13.486   2.632 -15.571  1.00  0.00     0.130 C 
HETATM   32 CL2  UNL     1     -13.581   3.250 -13.989  1.00  0.00    -0.068 Cl
HETATM   33 CL3  UNL     1     -14.476   1.102 -15.825  1.00  0.00    -0.068 Cl
ENDBRANCH  26  31
ENDBRANCH   3  26
TORSDOF 8
ENDMDL
MODEL 5
REMARK VINA RESULT: -6.983180643      1.495      2.354
REMARK  8 active torsions:
REMARK  status: ('A' for Active; 'I' for Inactive)
REMARK    1  A    between atoms: N1_2  and  C2_4 
REMARK    2  A    between atoms: C4_6  and  S1_7 
REMARK    3  A    between atoms: C8_14  and  S2_15 
REMARK    4  A    between atoms: S2_15  and  C9_16 
REMARK    5  A    between atoms: N2_18  and  C11_20 
REMARK    6  A    between atoms: C11_20  and  C12_21 
REMARK    7  A    between atoms: C11_20  and  C16_25 
REMARK    8  A    between atoms: C12_21  and  C13_22 
ROOT
HETATM    1  C9  UNL     1     -10.034   0.674 -15.496  1.00  0.00     0.120 A 
HETATM    2  C10 UNL     1     -11.279   1.023 -16.162  1.00  0.00     0.143 A 
HETATM    3  N2  UNL     1     -11.938   2.115 -15.696  1.00  0.00    -0.338 N 
ATOM      4  H2  UNL     1     -11.572   2.720 -14.961  1.00  0.00     0.167 HD
HETATM    5  N3  UNL     1     -11.435   0.075 -17.075  1.00  0.00    -0.280 N 
ATOM      6  H3  UNL     1     -12.221   0.029 -17.723  1.00  0.00     0.189 HD
HETATM    7  N4  UNL     1     -10.434  -0.816 -17.043  1.00  0.00    -0.259 N 
HETATM    8  C17 UNL     1     -10.272  -2.011 -17.879  1.00  0.00     0.181 C 
HETATM    9  C18 UNL     1      -9.575  -0.444 -16.074  1.00  0.00     0.282 A 
HETATM   10  O3  UNL     1      -8.501  -1.134 -15.828  1.00  0.00    -0.265 OA
ENDROOT
BRANCH   1  11
HETATM   11  S2  UNL     1      -9.280   1.613 -14.165  1.00  0.00    -0.077 SA
BRANCH  11  12
HETATM   12  C8  UNL     1      -7.602   2.098 -14.547  1.00  0.00     0.054 A 
HETATM   13  C2  UNL     1      -7.388   3.208 -15.322  1.00  0.00     0.048 A 
HETATM   14  C3  UNL     1      -6.093   3.564 -15.760  1.00  0.00     0.054 A 
HETATM   15  C4  UNL     1      -5.040   2.783 -15.389  1.00  0.00     0.062 A 
HETATM   16  C6  UNL     1      -5.227   1.681 -14.603  1.00  0.00     0.048 A 
HETATM   17  C7  UNL     1      -6.502   1.328 -14.170  1.00  0.00     0.054 A 
HETATM   18 CL1  UNL     1      -6.721   0.024 -13.031  1.00  0.00    -0.083 Cl
BRANCH  13  19
HETATM   19  N1  UNL     1      -8.471   4.057 -15.653  1.00  0.00    -0.393 N 
HETATM   20  C1  UNL     1      -9.057   4.158 -16.965  1.00  0.00     0.146 C 
ATOM     21  H1  UNL     1      -8.863   4.638 -14.912  1.00  0.00     0.159 HD
ENDBRANCH  13  19
BRANCH  15  22
HETATM   22  S1  UNL     1      -3.414   3.109 -16.021  1.00  0.00     0.172 S 
HETATM   23  C5  UNL     1      -2.266   2.079 -15.107  1.00  0.00     0.167 C 
HETATM   24  O1  UNL     1      -3.338   2.885 -17.458  1.00  0.00    -0.223 OA
HETATM   25  O2  UNL     1      -3.066   4.525 -15.695  1.00  0.00    -0.223 OA
ENDBRANCH  15  22
ENDBRANCH  11  12
ENDBRANCH   1  11
BRANCH   3  26
HETATM   26  C11 UNL     1     -13.466   2.379 -16.478  1.00  0.00     0.067 C 
BRANCH  26  27
HETATM   27  C12 UNL     1     -14.056   1.433 -15.676  1.00  0.00     0.034 C 
BRANCH  27  28
HETATM   28  C13 UNL     1     -15.072   1.772 -14.828  1.00  0.00    -0.085 C 
HETATM   29  C14 UNL     1     -15.889   0.657 -14.349  1.00  0.00     0.043 C 
HETATM   30  C15 UNL     1     -15.305   3.142 -14.384  1.00  0.00     0.043 C 
ENDBRANCH  27  28
ENDBRANCH  26  27
BRANCH  26  31
HETATM   31  C16 UNL     1     -12.905   3.267 -17.172  1.00  0.00     0.130 C 
HETATM   32 CL2  UNL     1     -12.191   3.285 -18.716  1.00  0.00    -0.068 Cl
HETATM   33 CL3  UNL     1     -12.858   4.896 -16.320  1.00  0.00    -0.068 Cl
ENDBRANCH  26  31
ENDBRANCH   3  26
TORSDOF 8
ENDMDL
