MODEL 1
REMARK VINA RESULT: -8.743396403      0.000      0.000
REMARK  6 active torsions:
REMARK  status: ('A' for Active; 'I' for Inactive)
REMARK    1  A    between atoms: C5_6  and  C6_7 
REMARK    2  A    between atoms: C9_14  and  C10_15 
REMARK    3  A    between atoms: C10_15  and  N3_16 
REMARK    4  A    between atoms: N3_16  and  C11_18 
REMARK    5  A    between atoms: C11_18  and  C13_20 
REMARK    6  A    between atoms: N7_26  and  C14_27 
ROOT
HETATM    1  N3  UNL     1      -4.959   4.858 -16.539  1.00  0.00    -0.407 N 
ATOM      2  H3  UNL     1      -4.441   5.728 -16.420  1.00  0.00     0.154 HD
ENDROOT
BRANCH   1   3
HETATM    3  C10 UNL     1      -6.190   4.793 -17.250  1.00  0.00     0.158 C 
BRANCH   3   4
HETATM    4  C9  UNL     1      -7.307   5.561 -16.728  1.00  0.00     0.012 A 
HETATM    5  C6  UNL     1      -8.471   4.947 -16.261  1.00  0.00     0.072 A 
HETATM    6  N1  UNL     1      -9.266   5.957 -15.868  1.00  0.00    -0.299 N 
HETATM    7  N2  UNL     1      -8.675   7.120 -16.062  1.00  0.00    -0.304 N 
ATOM      8  H1  UNL     1     -10.200   5.839 -15.473  1.00  0.00     0.187 HD
HETATM    9  C7  UNL     1      -7.439   6.914 -16.603  1.00  0.00     0.032 A 
ATOM     10  H2  UNL     1      -9.080   8.031 -15.842  1.00  0.00     0.186 HD
HETATM   11  C8  UNL     1      -6.503   8.013 -16.951  1.00  0.00     0.070 C 
BRANCH   5  12
HETATM   12  C5  UNL     1      -8.786   3.525 -16.199  1.00  0.00     0.053 A 
HETATM   13  C4  UNL     1      -8.670   2.770 -15.050  1.00  0.00     0.131 A 
HETATM   14  C3  UNL     1      -8.970   1.426 -14.994  1.00  0.00     0.050 A 
HETATM   15  F1  UNL     1      -8.241   3.393 -13.930  1.00  0.00    -0.205 F 
HETATM   16  C2  UNL     1      -9.410   0.782 -16.136  1.00  0.00    -0.057 A 
HETATM   17  C1  UNL     1      -9.727  -0.668 -16.051  1.00  0.00     0.048 C 
HETATM   18  C20 UNL     1      -9.539   1.502 -17.302  1.00  0.00     0.031 A 
HETATM   19  C19 UNL     1      -9.229   2.845 -17.322  1.00  0.00     0.050 A 
HETATM   20 CL1  UNL     1      -9.389   3.782 -18.806  1.00  0.00    -0.083 Cl
ENDBRANCH   5  12
ENDBRANCH   3   4
ENDBRANCH   1   3
BRANCH   1  21
HETATM   21  C11 UNL     1      -4.506   3.622 -16.007  1.00  0.00     0.144 C 
HETATM   22  C12 UNL     1      -3.514   2.920 -16.938  1.00  0.00     0.040 C 
BRANCH  21  23
HETATM   23  C13 UNL     1      -4.004   3.638 -14.632  1.00  0.00     0.140 A 
HETATM   24  N4  UNL     1      -3.444   4.765 -14.077  1.00  0.00    -0.273 N 
HETATM   25  N5  UNL     1      -3.076   4.477 -12.862  1.00  0.00    -0.224 N 
ATOM     26  H4  UNL     1      -3.336   5.669 -14.538  1.00  0.00     0.189 HD
HETATM   27  N6  UNL     1      -3.388   3.210 -12.645  1.00  0.00     0.002 NA
ATOM     28  H5  UNL     1      -2.631   5.111 -12.199  1.00  0.00     0.205 HD
HETATM   29  N7  UNL     1      -3.956   2.684 -13.721  1.00  0.00    -0.222 N 
BRANCH  29  30
HETATM   30  C14 UNL     1      -4.387   1.355 -13.822  1.00  0.00     0.076 A 
HETATM   31  C15 UNL     1      -5.702   0.995 -13.605  1.00  0.00     0.050 A 
HETATM   32  C16 UNL     1      -6.083  -0.321 -13.730  1.00  0.00     0.090 A 
HETATM   33  N8  UNL     1      -5.183  -1.253 -14.063  1.00  0.00    -0.374 N 
HETATM   34  C17 UNL     1      -3.904  -0.912 -14.275  1.00  0.00     0.109 A 
ATOM     35  H8  UNL     1      -5.470  -2.228 -14.156  1.00  0.00     0.164 HD
HETATM   36  C18 UNL     1      -3.482   0.382 -14.162  1.00  0.00     0.054 A 
HETATM   37 BR1  UNL     1      -1.626   0.780 -14.486  1.00  0.00    -0.047 Br
ENDBRANCH  29  30
ENDBRANCH  21  23
ENDBRANCH   1  21
TORSDOF 6
ENDMDL
MODEL 2
REMARK VINA RESULT: -8.377565950      0.966      1.036
REMARK  6 active torsions:
REMARK  status: ('A' for Active; 'I' for Inactive)
REMARK    1  A    between atoms: C5_6  and  C6_7 
REMARK    2  A    between atoms: C9_14  and  C10_15 
REMARK    3  A    between atoms: C10_15  and  N3_16 
REMARK    4  A    between atoms: N3_16  and  C11_18 
REMARK    5  A    between atoms: C11_18  and  C13_20 
REMARK    6  A    between atoms: N7_26  and  C14_27 
ROOT
HETATM    1  N3  UNL     1      -4.868   4.644 -16.889  1.00  0.00    -0.407 N 
ATOM      2  H3  UNL     1      -4.569   4.938 -17.819  1.00  0.00     0.154 HD
ENDROOT
BRANCH   1   3
HETATM    3  C10 UNL     1      -5.773   5.408 -16.101  1.00  0.00     0.158 C 
BRANCH   3   4
HETATM    4  C9  UNL     1      -6.797   6.164 -16.799  1.00  0.00     0.012 A 
HETATM    5  C6  UNL     1      -8.063   5.634 -17.053  1.00  0.00     0.072 A 
HETATM    6  N1  UNL     1      -8.725   6.603 -17.708  1.00  0.00    -0.299 N 
HETATM    7  N2  UNL     1      -7.960   7.666 -17.867  1.00  0.00    -0.304 N 
ATOM      8  H1  UNL     1      -9.687   6.527 -18.037  1.00  0.00     0.187 HD
HETATM    9  C7  UNL     1      -6.737   7.430 -17.308  1.00  0.00     0.032 A 
ATOM     10  H2  UNL     1      -8.239   8.529 -18.334  1.00  0.00     0.186 HD
HETATM   11  C8  UNL     1      -5.629   8.419 -17.311  1.00  0.00     0.070 C 
BRANCH   5  12
HETATM   12  C5  UNL     1      -8.586   4.319 -16.698  1.00  0.00     0.053 A 
HETATM   13  C4  UNL     1      -9.071   4.007 -15.445  1.00  0.00     0.131 A 
HETATM   14  C3  UNL     1      -9.565   2.764 -15.112  1.00  0.00     0.050 A 
HETATM   15  F1  UNL     1      -9.056   4.979 -14.505  1.00  0.00    -0.205 F 
HETATM   16  C2  UNL     1      -9.584   1.765 -16.068  1.00  0.00    -0.057 A 
HETATM   17  C1  UNL     1     -10.122   0.433 -15.687  1.00  0.00     0.048 C 
HETATM   18  C20 UNL     1      -9.108   2.038 -17.331  1.00  0.00     0.031 A 
HETATM   19  C19 UNL     1      -8.621   3.294 -17.628  1.00  0.00     0.050 A 
HETATM   20 CL1  UNL     1      -8.008   3.661 -19.240  1.00  0.00    -0.083 Cl
ENDBRANCH   5  12
ENDBRANCH   3   4
ENDBRANCH   1   3
BRANCH   1  21
HETATM   21  C11 UNL     1      -4.411   3.442 -16.285  1.00  0.00     0.144 C 
HETATM   22  C12 UNL     1      -3.326   2.753 -17.117  1.00  0.00     0.040 C 
BRANCH  21  23
HETATM   23  C13 UNL     1      -4.014   3.518 -14.878  1.00  0.00     0.140 A 
HETATM   24  N4  UNL     1      -3.304   4.586 -14.381  1.00  0.00    -0.273 N 
HETATM   25  N5  UNL     1      -3.083   4.369 -13.116  1.00  0.00    -0.224 N 
ATOM     26  H4  UNL     1      -3.004   5.404 -14.910  1.00  0.00     0.189 HD
HETATM   27  N6  UNL     1      -3.630   3.204 -12.813  1.00  0.00     0.002 NA
ATOM     28  H5  UNL     1      -2.580   4.985 -12.477  1.00  0.00     0.205 HD
HETATM   29  N7  UNL     1      -4.204   2.671 -13.883  1.00  0.00    -0.222 N 
BRANCH  29  30
HETATM   30  C14 UNL     1      -4.856   1.433 -13.900  1.00  0.00     0.076 A 
HETATM   31  C15 UNL     1      -6.224   1.324 -13.741  1.00  0.00     0.050 A 
HETATM   32  C16 UNL     1      -6.824   0.087 -13.780  1.00  0.00     0.090 A 
HETATM   33  N8  UNL     1      -6.086  -1.012 -13.973  1.00  0.00    -0.374 N 
HETATM   34  C17 UNL     1      -4.758  -0.916 -14.128  1.00  0.00     0.109 A 
ATOM     35  H8  UNL     1      -6.535  -1.927 -14.002  1.00  0.00     0.164 HD
HETATM   36  C18 UNL     1      -4.121   0.292 -14.096  1.00  0.00     0.054 A 
HETATM   37 BR1  UNL     1      -2.209   0.334 -14.329  1.00  0.00    -0.047 Br
ENDBRANCH  29  30
ENDBRANCH  21  23
ENDBRANCH   1  21
TORSDOF 6
ENDMDL
MODEL 3
REMARK VINA RESULT: -8.375150803      1.758      4.010
REMARK  6 active torsions:
REMARK  status: ('A' for Active; 'I' for Inactive)
REMARK    1  A    between atoms: C5_6  and  C6_7 
REMARK    2  A    between atoms: C9_14  and  C10_15 
REMARK    3  A    between atoms: C10_15  and  N3_16 
REMARK    4  A    between atoms: N3_16  and  C11_18 
REMARK    5  A    between atoms: C11_18  and  C13_20 
REMARK    6  A    between atoms: N7_26  and  C14_27 
ROOT
HETATM    1  N3  UNL     1      -5.353   4.465 -16.605  1.00  0.00    -0.407 N 
ATOM      2  H3  UNL     1      -5.021   5.430 -16.619  1.00  0.00     0.154 HD
ENDROOT
BRANCH   1   3
HETATM    3  C10 UNL     1      -6.647   4.095 -17.066  1.00  0.00     0.158 C 
BRANCH   3   4
HETATM    4  C9  UNL     1      -7.789   4.749 -16.452  1.00  0.00     0.012 A 
HETATM    5  C6  UNL     1      -8.242   5.999 -16.879  1.00  0.00     0.072 A 
HETATM    6  N1  UNL     1      -9.295   6.279 -16.092  1.00  0.00    -0.299 N 
HETATM    7  N2  UNL     1      -9.507   5.302 -15.230  1.00  0.00    -0.304 N 
ATOM      8  H1  UNL     1      -9.853   7.130 -16.151  1.00  0.00     0.187 HD
HETATM    9  C7  UNL     1      -8.579   4.319 -15.425  1.00  0.00     0.032 A 
ATOM     10  H2  UNL     1     -10.248   5.284 -14.529  1.00  0.00     0.186 HD
HETATM   11  C8  UNL     1      -8.526   3.071 -14.622  1.00  0.00     0.070 C 
BRANCH   5  12
HETATM   12  C5  UNL     1      -7.713   6.843 -17.945  1.00  0.00     0.053 A 
HETATM   13  C4  UNL     1      -6.788   7.844 -17.733  1.00  0.00     0.131 A 
HETATM   14  C3  UNL     1      -6.290   8.640 -18.742  1.00  0.00     0.050 A 
HETATM   15  F1  UNL     1      -6.358   8.045 -16.468  1.00  0.00    -0.205 F 
HETATM   16  C2  UNL     1      -6.725   8.441 -20.039  1.00  0.00    -0.057 A 
HETATM   17  C1  UNL     1      -6.173   9.310 -21.111  1.00  0.00     0.048 C 
HETATM   18  C20 UNL     1      -7.648   7.450 -20.291  1.00  0.00     0.031 A 
HETATM   19  C19 UNL     1      -8.126   6.673 -19.256  1.00  0.00     0.050 A 
HETATM   20 CL1  UNL     1      -9.307   5.400 -19.560  1.00  0.00    -0.083 Cl
ENDBRANCH   5  12
ENDBRANCH   3   4
ENDBRANCH   1   3
BRANCH   1  21
HETATM   21  C11 UNL     1      -4.556   3.393 -16.123  1.00  0.00     0.144 C 
HETATM   22  C12 UNL     1      -3.426   3.031 -17.089  1.00  0.00     0.040 C 
BRANCH  21  23
HETATM   23  C13 UNL     1      -4.050   3.508 -14.754  1.00  0.00     0.140 A 
HETATM   24  N4  UNL     1      -3.511   4.680 -14.276  1.00  0.00    -0.273 N 
HETATM   25  N5  UNL     1      -3.134   4.479 -13.046  1.00  0.00    -0.224 N 
ATOM     26  H4  UNL     1      -3.422   5.554 -14.795  1.00  0.00     0.189 HD
HETATM   27  N6  UNL     1      -3.420   3.223 -12.746  1.00  0.00     0.002 NA
ATOM     28  H5  UNL     1      -2.699   5.163 -12.428  1.00  0.00     0.205 HD
HETATM   29  N7  UNL     1      -3.981   2.617 -13.783  1.00  0.00    -0.222 N 
BRANCH  29  30
HETATM   30  C14 UNL     1      -4.385   1.276 -13.795  1.00  0.00     0.076 A 
HETATM   31  C15 UNL     1      -5.686   0.903 -13.522  1.00  0.00     0.050 A 
HETATM   32  C16 UNL     1      -6.042  -0.425 -13.561  1.00  0.00     0.090 A 
HETATM   33  N8  UNL     1      -5.131  -1.357 -13.864  1.00  0.00    -0.374 N 
HETATM   34  C17 UNL     1      -3.866  -1.003 -14.130  1.00  0.00     0.109 A 
ATOM     35  H8  UNL     1      -5.399  -2.341 -13.892  1.00  0.00     0.164 HD
HETATM   36  C18 UNL     1      -3.469   0.303 -14.103  1.00  0.00     0.054 A 
HETATM   37 BR1  UNL     1      -1.630   0.718 -14.500  1.00  0.00    -0.047 Br
ENDBRANCH  29  30
ENDBRANCH  21  23
ENDBRANCH   1  21
TORSDOF 6
ENDMDL
MODEL 4
REMARK VINA RESULT: -8.243327563      1.281      1.525
REMARK  6 active torsions:
REMARK  status: ('A' for Active; 'I' for Inactive)
REMARK    1  A    between atoms: C5_6  and  C6_7 
REMARK    2  A    between atoms: C9_14  and  C10_15 
REMARK    3  A    between atoms: C10_15  and  N3_16 
REMARK    4  A    between atoms: N3_16  and  C11_18 
REMARK    5  A    between atoms: C11_18  and  C13_20 
REMARK    6  A    between atoms: N7_26  and  C14_27 
ROOT
HETATM    1  N3  UNL     1      -5.109   4.950 -16.476  1.00  0.00    -0.407 N 
ATOM      2  H3  UNL     1      -4.650   5.838 -16.273  1.00  0.00     0.154 HD
ENDROOT
BRANCH   1   3
HETATM    3  C10 UNL     1      -6.303   4.866 -17.245  1.00  0.00     0.158 C 
BRANCH   3   4
HETATM    4  C9  UNL     1      -7.458   5.610 -16.773  1.00  0.00     0.012 A 
HETATM    5  C6  UNL     1      -8.628   4.972 -16.357  1.00  0.00     0.072 A 
HETATM    6  N1  UNL     1      -9.461   5.964 -16.000  1.00  0.00    -0.299 N 
HETATM    7  N2  UNL     1      -8.888   7.140 -16.170  1.00  0.00    -0.304 N 
ATOM      8  H1  UNL     1     -10.408   5.827 -15.647  1.00  0.00     0.187 HD
HETATM    9  C7  UNL     1      -7.624   6.960 -16.656  1.00  0.00     0.032 A 
ATOM     10  H2  UNL     1      -9.320   8.042 -15.970  1.00  0.00     0.186 HD
HETATM   11  C8  UNL     1      -6.697   8.078 -16.966  1.00  0.00     0.070 C 
BRANCH   5  12
HETATM   12  C5  UNL     1      -8.915   3.542 -16.305  1.00  0.00     0.053 A 
HETATM   13  C4  UNL     1      -9.008   2.745 -17.427  1.00  0.00     0.131 A 
HETATM   14  C3  UNL     1      -9.280   1.395 -17.375  1.00  0.00     0.050 A 
HETATM   15  F1  UNL     1      -8.821   3.330 -18.631  1.00  0.00    -0.205 F 
HETATM   16  C2  UNL     1      -9.473   0.789 -16.148  1.00  0.00    -0.057 A 
HETATM   17  C1  UNL     1      -9.764  -0.668 -16.117  1.00  0.00     0.048 C 
HETATM   18  C20 UNL     1      -9.388   1.552 -15.005  1.00  0.00     0.031 A 
HETATM   19  C19 UNL     1      -9.115   2.901 -15.094  1.00  0.00     0.050 A 
HETATM   20 CL1  UNL     1      -9.003   3.893 -13.641  1.00  0.00    -0.083 Cl
ENDBRANCH   5  12
ENDBRANCH   3   4
ENDBRANCH   1   3
BRANCH   1  21
HETATM   21  C11 UNL     1      -4.604   3.707 -16.012  1.00  0.00     0.144 C 
HETATM   22  C12 UNL     1      -3.617   3.078 -16.999  1.00  0.00     0.040 C 
BRANCH  21  23
HETATM   23  C13 UNL     1      -4.063   3.679 -14.651  1.00  0.00     0.140 A 
HETATM   24  N4  UNL     1      -3.418   4.763 -14.105  1.00  0.00    -0.273 N 
HETATM   25  N5  UNL     1      -3.036   4.442 -12.902  1.00  0.00    -0.224 N 
ATOM     26  H4  UNL     1      -3.265   5.663 -14.562  1.00  0.00     0.189 HD
HETATM   27  N6  UNL     1      -3.421   3.196 -12.686  1.00  0.00     0.002 NA
ATOM     28  H5  UNL     1      -2.533   5.041 -12.248  1.00  0.00     0.205 HD
HETATM   29  N7  UNL     1      -4.051   2.716 -13.749  1.00  0.00    -0.222 N 
BRANCH  29  30
HETATM   30  C14 UNL     1      -4.568   1.418 -13.846  1.00  0.00     0.076 A 
HETATM   31  C15 UNL     1      -5.912   1.152 -13.671  1.00  0.00     0.050 A 
HETATM   32  C16 UNL     1      -6.378  -0.137 -13.792  1.00  0.00     0.090 A 
HETATM   33  N8  UNL     1      -5.532  -1.134 -14.080  1.00  0.00    -0.374 N 
HETATM   34  C17 UNL     1      -4.227  -0.883 -14.252  1.00  0.00     0.109 A 
ATOM     35  H8  UNL     1      -5.882  -2.087 -14.169  1.00  0.00     0.164 HD
HETATM   36  C18 UNL     1      -3.721   0.381 -14.141  1.00  0.00     0.054 A 
HETATM   37 BR1  UNL     1      -1.832   0.646 -14.405  1.00  0.00    -0.047 Br
ENDBRANCH  29  30
ENDBRANCH  21  23
ENDBRANCH   1  21
TORSDOF 6
ENDMDL
MODEL 5
REMARK VINA RESULT: -8.227418849      2.083      3.988
REMARK  6 active torsions:
REMARK  status: ('A' for Active; 'I' for Inactive)
REMARK    1  A    between atoms: C5_6  and  C6_7 
REMARK    2  A    between atoms: C9_14  and  C10_15 
REMARK    3  A    between atoms: C10_15  and  N3_16 
REMARK    4  A    between atoms: N3_16  and  C11_18 
REMARK    5  A    between atoms: C11_18  and  C13_20 
REMARK    6  A    between atoms: N7_26  and  C14_27 
ROOT
HETATM    1  N3  UNL     1      -5.849   3.850 -16.511  1.00  0.00    -0.407 N 
ATOM      2  H3  UNL     1      -5.861   4.514 -17.285  1.00  0.00     0.154 HD
ENDROOT
BRANCH   1   3
HETATM    3  C10 UNL     1      -6.997   3.587 -15.713  1.00  0.00     0.158 C 
BRANCH   3   4
HETATM    4  C9  UNL     1      -8.172   3.056 -16.382  1.00  0.00     0.012 A 
HETATM    5  C6  UNL     1      -8.807   3.744 -17.417  1.00  0.00     0.072 A 
HETATM    6  N1  UNL     1      -9.837   2.960 -17.779  1.00  0.00    -0.299 N 
HETATM    7  N2  UNL     1      -9.870   1.864 -17.046  1.00  0.00    -0.304 N 
ATOM      8  H1  UNL     1     -10.502   3.183 -18.520  1.00  0.00     0.187 HD
HETATM    9  C7  UNL     1      -8.838   1.886 -16.153  1.00  0.00     0.032 A 
ATOM     10  H2  UNL     1     -10.560   1.116 -17.133  1.00  0.00     0.186 HD
HETATM   11  C8  UNL     1      -8.580   0.803 -15.170  1.00  0.00     0.070 C 
BRANCH   5  12
HETATM   12  C5  UNL     1      -8.455   5.033 -18.003  1.00  0.00     0.053 A 
HETATM   13  C4  UNL     1      -7.783   5.165 -19.200  1.00  0.00     0.131 A 
HETATM   14  C3  UNL     1      -7.452   6.384 -19.751  1.00  0.00     0.050 A 
HETATM   15  F1  UNL     1      -7.438   4.034 -19.856  1.00  0.00    -0.205 F 
HETATM   16  C2  UNL     1      -7.802   7.545 -19.087  1.00  0.00    -0.057 A 
HETATM   17  C1  UNL     1      -7.434   8.848 -19.701  1.00  0.00     0.048 C 
HETATM   18  C20 UNL     1      -8.473   7.454 -17.889  1.00  0.00     0.031 A 
HETATM   19  C19 UNL     1      -8.788   6.217 -17.366  1.00  0.00     0.050 A 
HETATM   20 CL1  UNL     1      -9.648   6.081 -15.834  1.00  0.00    -0.083 Cl
ENDBRANCH   5  12
ENDBRANCH   3   4
ENDBRANCH   1   3
BRANCH   1  21
HETATM   21  C11 UNL     1      -4.686   3.120 -16.150  1.00  0.00     0.144 C 
HETATM   22  C12 UNL     1      -3.605   3.181 -17.233  1.00  0.00     0.040 C 
BRANCH  21  23
HETATM   23  C13 UNL     1      -4.114   3.397 -14.831  1.00  0.00     0.140 A 
HETATM   24  N4  UNL     1      -3.627   4.639 -14.497  1.00  0.00    -0.273 N 
HETATM   25  N5  UNL     1      -3.171   4.580 -13.279  1.00  0.00    -0.224 N 
ATOM     26  H4  UNL     1      -3.625   5.463 -15.099  1.00  0.00     0.189 HD
HETATM   27  N6  UNL     1      -3.357   3.344 -12.848  1.00  0.00     0.002 NA
ATOM     28  H5  UNL     1      -2.748   5.346 -12.755  1.00  0.00     0.205 HD
HETATM   29  N7  UNL     1      -3.933   2.608 -13.788  1.00  0.00    -0.222 N 
BRANCH  29  30
HETATM   30  C14 UNL     1      -4.249   1.251 -13.651  1.00  0.00     0.076 A 
HETATM   31  C15 UNL     1      -5.479   0.830 -13.186  1.00  0.00     0.050 A 
HETATM   32  C16 UNL     1      -5.751  -0.515 -13.083  1.00  0.00     0.090 A 
HETATM   33  N8  UNL     1      -4.827  -1.416 -13.434  1.00  0.00    -0.374 N 
HETATM   34  C17 UNL     1      -3.630  -1.016 -13.886  1.00  0.00     0.109 A 
ATOM     35  H8  UNL     1      -5.033  -2.412 -13.356  1.00  0.00     0.164 HD
HETATM   36  C18 UNL     1      -3.318   0.308 -14.004  1.00  0.00     0.054 A 
HETATM   37 BR1  UNL     1      -1.573   0.790 -14.664  1.00  0.00    -0.047 Br
ENDBRANCH  29  30
ENDBRANCH  21  23
ENDBRANCH   1  21
TORSDOF 6
ENDMDL
