MODEL 1
REMARK VINA RESULT: -8.889012349      0.000      0.000
REMARK  7 active torsions:
REMARK  status: ('A' for Active; 'I' for Inactive)
REMARK    1  A    between atoms: C2_2  and  C3_3 
REMARK    2  A    between atoms: C2_2  and  N1_6 
REMARK    3  A    between atoms: C5_9  and  C6_10 
REMARK    4  A    between atoms: C6_10  and  C7_11 
REMARK    5  A    between atoms: C10_14  and  O4_15 
REMARK    6  A    between atoms: O4_15  and  C11_16 
REMARK    7  A    between atoms: C16_26  and  C17_27 
ROOT
HETATM    1  C7  UNL     1      -8.618   0.178 -14.372  1.00  0.00    -0.034 A 
HETATM    2  C8  UNL     1      -8.745  -0.671 -15.428  1.00  0.00     0.014 A 
HETATM    3  C9  UNL     1      -9.764  -0.465 -16.385  1.00  0.00     0.039 A 
HETATM    4  C10 UNL     1     -10.652   0.569 -16.304  1.00  0.00     0.095 A 
HETATM    5  C16 UNL     1     -10.521   1.430 -15.231  1.00  0.00     0.075 A 
HETATM    6  C18 UNL     1      -9.513   1.212 -14.299  1.00  0.00     0.032 A 
ENDROOT
BRANCH   1   7
HETATM    7  C6  UNL     1      -7.563  -0.025 -13.404  1.00  0.00     0.036 C 
BRANCH   7   8
HETATM    8  C5  UNL     1      -6.328   0.384 -13.545  1.00  0.00     0.076 C 
HETATM    9  C4  UNL     1      -5.818   1.590 -14.159  1.00  0.00     0.267 C 
HETATM   10  N1  UNL     1      -4.474   1.578 -14.503  1.00  0.00    -0.283 N 
HETATM   11  O3  UNL     1      -6.598   2.591 -14.357  1.00  0.00    -0.266 OA
HETATM   12  C19 UNL     1      -3.762   0.385 -14.210  1.00  0.00     0.149 C 
HETATM   13  S1  UNL     1      -4.843  -0.474 -13.028  1.00  0.00    -0.055 SA
HETATM   14  S2  UNL     1      -2.318  -0.139 -14.771  1.00  0.00    -0.052 SA
BRANCH  10  15
HETATM   15  C2  UNL     1      -3.771   2.719 -15.129  1.00  0.00     0.191 C 
HETATM   16  C1  UNL     1      -4.668   3.472 -16.057  1.00  0.00     0.044 C 
BRANCH  15  17
HETATM   17  C3  UNL     1      -3.350   3.606 -13.990  1.00  0.00     0.197 C 
HETATM   18  O1  UNL     1      -2.952   4.777 -14.184  1.00  0.00    -0.646 OA
HETATM   19  O2  UNL     1      -3.384   3.164 -12.666  1.00  0.00    -0.646 OA
ENDBRANCH  15  17
ENDBRANCH  10  15
ENDBRANCH   7   8
ENDBRANCH   1   7
BRANCH   5  20
HETATM   20  C17 UNL     1     -11.402   2.552 -15.055  1.00  0.00     0.212 C 
HETATM   21  O5  UNL     1     -10.975   3.732 -15.350  1.00  0.00    -0.644 OA
HETATM   22  O6  UNL     1     -12.674   2.495 -14.594  1.00  0.00    -0.644 OA
ENDBRANCH   5  20
BRANCH   4  23
HETATM   23  O4  UNL     1     -11.636   0.774 -17.223  1.00  0.00    -0.291 OA
BRANCH  23  24
HETATM   24  C11 UNL     1     -12.904   0.282 -17.321  1.00  0.00     0.173 A 
HETATM   25  N2  UNL     1     -13.989   0.931 -16.831  1.00  0.00    -0.343 N 
HETATM   26  C12 UNL     1     -15.248   0.529 -16.880  1.00  0.00     0.117 A 
ATOM     27  H2  UNL     1     -13.814   1.827 -16.374  1.00  0.00     0.167 HD
HETATM   28  C13 UNL     1     -15.566  -0.680 -17.484  1.00  0.00     0.089 A 
HETATM   29 CL1  UNL     1     -17.221  -1.213 -17.551  1.00  0.00    -0.080 Cl
HETATM   30  C14 UNL     1     -14.542  -1.396 -18.002  1.00  0.00     0.165 A 
HETATM   31  F1  UNL     1     -14.749  -2.592 -18.614  1.00  0.00    -0.202 F 
HETATM   32  C15 UNL     1     -13.226  -0.930 -17.926  1.00  0.00     0.125 A 
HETATM   33 CL2  UNL     1     -11.958  -1.904 -18.611  1.00  0.00    -0.076 Cl
ENDBRANCH  23  24
ENDBRANCH   4  23
TORSDOF 7
ENDMDL
MODEL 2
REMARK VINA RESULT: -8.886272294      2.501      3.300
REMARK  7 active torsions:
REMARK  status: ('A' for Active; 'I' for Inactive)
REMARK    1  A    between atoms: C2_2  and  C3_3 
REMARK    2  A    between atoms: C2_2  and  N1_6 
REMARK    3  A    between atoms: C5_9  and  C6_10 
REMARK    4  A    between atoms: C6_10  and  C7_11 
REMARK    5  A    between atoms: C10_14  and  O4_15 
REMARK    6  A    between atoms: O4_15  and  C11_16 
REMARK    7  A    between atoms: C16_26  and  C17_27 
ROOT
HETATM    1  C7  UNL     1     -10.034   1.008 -15.028  1.00  0.00    -0.034 A 
HETATM    2  C8  UNL     1      -9.806   0.013 -15.927  1.00  0.00     0.014 A 
HETATM    3  C9  UNL     1     -10.783  -0.304 -16.898  1.00  0.00     0.039 A 
HETATM    4  C10 UNL     1     -11.976   0.354 -16.984  1.00  0.00     0.095 A 
HETATM    5  C16 UNL     1     -12.205   1.365 -16.070  1.00  0.00     0.075 A 
HETATM    6  C18 UNL     1     -11.233   1.663 -15.122  1.00  0.00     0.032 A 
ENDROOT
BRANCH   1   7
HETATM    7  C6  UNL     1      -9.025   1.342 -14.048  1.00  0.00     0.036 C 
BRANCH   7   8
HETATM    8  C5  UNL     1      -7.739   1.153 -14.201  1.00  0.00     0.076 C 
HETATM    9  C4  UNL     1      -6.955  -0.050 -14.025  1.00  0.00     0.267 C 
HETATM   10  N1  UNL     1      -5.587   0.129 -13.883  1.00  0.00    -0.283 N 
HETATM   11  O3  UNL     1      -7.532  -1.198 -14.007  1.00  0.00    -0.266 OA
HETATM   12  C19 UNL     1      -5.121   1.469 -13.927  1.00  0.00     0.149 C 
HETATM   13  S1  UNL     1      -6.516   2.377 -14.660  1.00  0.00    -0.055 SA
HETATM   14  S2  UNL     1      -3.690   2.100 -13.450  1.00  0.00    -0.052 SA
BRANCH  10  15
HETATM   15  C2  UNL     1      -4.623  -0.979 -13.704  1.00  0.00     0.191 C 
HETATM   16  C1  UNL     1      -3.305  -0.663 -14.332  1.00  0.00     0.044 C 
BRANCH  15  17
HETATM   17  C3  UNL     1      -4.459  -1.133 -12.217  1.00  0.00     0.197 C 
HETATM   18  O1  UNL     1      -5.401  -0.899 -11.426  1.00  0.00    -0.646 OA
HETATM   19  O2  UNL     1      -3.250  -1.543 -11.651  1.00  0.00    -0.646 OA
ENDBRANCH  15  17
ENDBRANCH  10  15
ENDBRANCH   7   8
ENDBRANCH   1   7
BRANCH   5  20
HETATM   20  C17 UNL     1     -13.427   2.123 -16.076  1.00  0.00     0.212 C 
HETATM   21  O5  UNL     1     -13.462   3.243 -16.712  1.00  0.00    -0.644 OA
HETATM   22  O6  UNL     1     -14.580   1.770 -15.461  1.00  0.00    -0.644 OA
ENDBRANCH   5  20
BRANCH   4  23
HETATM   23  O4  UNL     1     -12.921   0.055 -17.916  1.00  0.00    -0.291 OA
BRANCH  23  24
HETATM   24  C11 UNL     1     -13.248  -1.114 -18.537  1.00  0.00     0.173 A 
HETATM   25  N2  UNL     1     -12.541  -1.621 -19.577  1.00  0.00    -0.343 N 
HETATM   26  C12 UNL     1     -12.786  -2.741 -20.237  1.00  0.00     0.117 A 
ATOM     27  H2  UNL     1     -11.733  -1.079 -19.885  1.00  0.00     0.167 HD
HETATM   28  C13 UNL     1     -13.868  -3.533 -19.879  1.00  0.00     0.089 A 
HETATM   29 CL1  UNL     1     -14.194  -5.007 -20.744  1.00  0.00    -0.080 Cl
HETATM   30  C14 UNL     1     -14.631  -3.102 -18.849  1.00  0.00     0.165 A 
HETATM   31  F1  UNL     1     -15.713  -3.806 -18.421  1.00  0.00    -0.202 F 
HETATM   32  C15 UNL     1     -14.333  -1.910 -18.181  1.00  0.00     0.125 A 
HETATM   33 CL2  UNL     1     -15.358  -1.415 -16.866  1.00  0.00    -0.076 Cl
ENDBRANCH  23  24
ENDBRANCH   4  23
TORSDOF 7
ENDMDL
MODEL 3
REMARK VINA RESULT: -8.804770417      1.303      1.599
REMARK  7 active torsions:
REMARK  status: ('A' for Active; 'I' for Inactive)
REMARK    1  A    between atoms: C2_2  and  C3_3 
REMARK    2  A    between atoms: C2_2  and  N1_6 
REMARK    3  A    between atoms: C5_9  and  C6_10 
REMARK    4  A    between atoms: C6_10  and  C7_11 
REMARK    5  A    between atoms: C10_14  and  O4_15 
REMARK    6  A    between atoms: O4_15  and  C11_16 
REMARK    7  A    between atoms: C16_26  and  C17_27 
ROOT
HETATM    1  C7  UNL     1      -8.408   0.197 -14.282  1.00  0.00    -0.034 A 
HETATM    2  C8  UNL     1      -8.695  -0.574 -15.366  1.00  0.00     0.014 A 
HETATM    3  C9  UNL     1      -9.768  -0.229 -16.218  1.00  0.00     0.039 A 
HETATM    4  C10 UNL     1     -10.552   0.868 -16.007  1.00  0.00     0.095 A 
HETATM    5  C16 UNL     1     -10.259   1.650 -14.906  1.00  0.00     0.075 A 
HETATM    6  C18 UNL     1      -9.199   1.295 -14.078  1.00  0.00     0.032 A 
ENDROOT
BRANCH   1   7
HETATM    7  C6  UNL     1      -7.298  -0.149 -13.423  1.00  0.00     0.036 C 
BRANCH   7   8
HETATM    8  C5  UNL     1      -6.085   0.328 -13.536  1.00  0.00     0.076 C 
HETATM    9  C4  UNL     1      -5.621   1.527 -14.199  1.00  0.00     0.267 C 
HETATM   10  N1  UNL     1      -4.265   1.580 -14.484  1.00  0.00    -0.283 N 
HETATM   11  O3  UNL     1      -6.450   2.464 -14.488  1.00  0.00    -0.266 OA
HETATM   12  C19 UNL     1      -3.495   0.453 -14.092  1.00  0.00     0.149 C 
HETATM   13  S1  UNL     1      -4.576  -0.404 -12.907  1.00  0.00    -0.055 SA
HETATM   14  S2  UNL     1      -1.999  -0.011 -14.560  1.00  0.00    -0.052 SA
BRANCH  10  15
HETATM   15  C2  UNL     1      -3.604   2.725 -15.148  1.00  0.00     0.191 C 
HETATM   16  C1  UNL     1      -4.487   3.342 -16.183  1.00  0.00     0.044 C 
BRANCH  15  17
HETATM   17  C3  UNL     1      -3.327   3.718 -14.053  1.00  0.00     0.197 C 
HETATM   18  O1  UNL     1      -3.038   4.910 -14.306  1.00  0.00    -0.646 OA
HETATM   19  O2  UNL     1      -3.381   3.358 -12.705  1.00  0.00    -0.646 OA
ENDBRANCH  15  17
ENDBRANCH  10  15
ENDBRANCH   7   8
ENDBRANCH   1   7
BRANCH   5  20
HETATM   20  C17 UNL     1     -11.021   2.829 -14.595  1.00  0.00     0.212 C 
HETATM   21  O5  UNL     1     -11.647   2.886 -13.470  1.00  0.00    -0.644 OA
HETATM   22  O6  UNL     1     -11.153   3.918 -15.388  1.00  0.00    -0.644 OA
ENDBRANCH   5  20
BRANCH   4  23
HETATM   23  O4  UNL     1     -11.587   1.207 -16.824  1.00  0.00    -0.291 OA
BRANCH  23  24
HETATM   24  C11 UNL     1     -12.692   0.516 -17.227  1.00  0.00     0.173 A 
HETATM   25  N2  UNL     1     -12.645  -0.481 -18.144  1.00  0.00    -0.343 N 
HETATM   26  C12 UNL     1     -13.661  -1.200 -18.592  1.00  0.00     0.117 A 
ATOM     27  H2  UNL     1     -11.726  -0.701 -18.530  1.00  0.00     0.167 HD
HETATM   28  C13 UNL     1     -14.943  -0.959 -18.116  1.00  0.00     0.089 A 
HETATM   29 CL1  UNL     1     -16.282  -1.902 -18.704  1.00  0.00    -0.080 Cl
HETATM   30  C14 UNL     1     -15.083   0.022 -17.196  1.00  0.00     0.165 A 
HETATM   31  F1  UNL     1     -16.296   0.334 -16.667  1.00  0.00    -0.202 F 
HETATM   32  C15 UNL     1     -13.978   0.756 -16.751  1.00  0.00     0.125 A 
HETATM   33 CL2  UNL     1     -14.231   2.005 -15.568  1.00  0.00    -0.076 Cl
ENDBRANCH  23  24
ENDBRANCH   4  23
TORSDOF 7
ENDMDL
MODEL 4
REMARK VINA RESULT: -8.646733807      5.025      9.489
REMARK  7 active torsions:
REMARK  status: ('A' for Active; 'I' for Inactive)
REMARK    1  A    between atoms: C2_2  and  C3_3 
REMARK    2  A    between atoms: C2_2  and  N1_6 
REMARK    3  A    between atoms: C5_9  and  C6_10 
REMARK    4  A    between atoms: C6_10  and  C7_11 
REMARK    5  A    between atoms: C10_14  and  O4_15 
REMARK    6  A    between atoms: O4_15  and  C11_16 
REMARK    7  A    between atoms: C16_26  and  C17_27 
ROOT
HETATM    1  C7  UNL     1     -10.419   1.886 -15.989  1.00  0.00    -0.034 A 
HETATM    2  C8  UNL     1      -9.827   3.110 -15.917  1.00  0.00     0.014 A 
HETATM    3  C9  UNL     1      -8.624   3.274 -15.195  1.00  0.00     0.039 A 
HETATM    4  C10 UNL     1      -8.006   2.242 -14.549  1.00  0.00     0.095 A 
HETATM    5  C16 UNL     1      -8.608   1.001 -14.624  1.00  0.00     0.075 A 
HETATM    6  C18 UNL     1      -9.792   0.857 -15.339  1.00  0.00     0.032 A 
ENDROOT
BRANCH   1   7
HETATM    7  C6  UNL     1     -11.640   1.718 -16.744  1.00  0.00     0.036 C 
BRANCH   7   8
HETATM    8  C5  UNL     1     -12.847   1.776 -16.241  1.00  0.00     0.076 C 
HETATM    9  C4  UNL     1     -13.404   2.702 -15.280  1.00  0.00     0.267 C 
HETATM   10  N1  UNL     1     -14.573   2.299 -14.652  1.00  0.00    -0.283 N 
HETATM   11  O3  UNL     1     -12.819   3.822 -15.052  1.00  0.00    -0.266 OA
HETATM   12  C19 UNL     1     -15.082   1.028 -15.027  1.00  0.00     0.149 C 
HETATM   13  S1  UNL     1     -14.212   0.667 -16.582  1.00  0.00    -0.055 SA
HETATM   14  S2  UNL     1     -16.182   0.076 -14.281  1.00  0.00    -0.052 SA
BRANCH  10  15
HETATM   15  C2  UNL     1     -15.295   3.113 -13.649  1.00  0.00     0.191 C 
HETATM   16  C1  UNL     1     -14.350   3.811 -12.727  1.00  0.00     0.044 C 
BRANCH  15  17
HETATM   17  C3  UNL     1     -16.080   4.122 -14.441  1.00  0.00     0.197 C 
HETATM   18  O1  UNL     1     -15.740   5.327 -14.487  1.00  0.00    -0.646 OA
HETATM   19  O2  UNL     1     -17.221   3.764 -15.160  1.00  0.00    -0.646 OA
ENDBRANCH  15  17
ENDBRANCH  10  15
ENDBRANCH   7   8
ENDBRANCH   1   7
BRANCH   5  20
HETATM   20  C17 UNL     1      -8.038  -0.153 -13.983  1.00  0.00     0.212 C 
HETATM   21  O5  UNL     1      -7.520  -1.080 -14.714  1.00  0.00    -0.644 OA
HETATM   22  O6  UNL     1      -7.988  -0.373 -12.648  1.00  0.00    -0.644 OA
ENDBRANCH   5  20
BRANCH   4  23
HETATM   23  O4  UNL     1      -6.846   2.393 -13.852  1.00  0.00    -0.291 OA
BRANCH  23  24
HETATM   24  C11 UNL     1      -5.593   1.891 -14.052  1.00  0.00     0.173 A 
HETATM   25  N2  UNL     1      -5.075   0.882 -13.311  1.00  0.00    -0.343 N 
HETATM   26  C12 UNL     1      -3.876   0.337 -13.433  1.00  0.00     0.117 A 
ATOM     27  H2  UNL     1      -5.675   0.501 -12.578  1.00  0.00     0.167 HD
HETATM   28  C13 UNL     1      -3.001   0.801 -14.405  1.00  0.00     0.089 A 
HETATM   29 CL1  UNL     1      -1.422   0.088 -14.570  1.00  0.00    -0.080 Cl
HETATM   30  C14 UNL     1      -3.436   1.811 -15.193  1.00  0.00     0.165 A 
HETATM   31  F1  UNL     1      -2.656   2.335 -16.175  1.00  0.00    -0.202 F 
HETATM   32  C15 UNL     1      -4.714   2.355 -15.026  1.00  0.00     0.125 A 
HETATM   33 CL2  UNL     1      -5.208   3.653 -16.073  1.00  0.00    -0.076 Cl
ENDBRANCH  23  24
ENDBRANCH   4  23
TORSDOF 7
ENDMDL
MODEL 5
REMARK VINA RESULT: -8.558967835      1.503      1.985
REMARK  7 active torsions:
REMARK  status: ('A' for Active; 'I' for Inactive)
REMARK    1  A    between atoms: C2_2  and  C3_3 
REMARK    2  A    between atoms: C2_2  and  N1_6 
REMARK    3  A    between atoms: C5_9  and  C6_10 
REMARK    4  A    between atoms: C6_10  and  C7_11 
REMARK    5  A    between atoms: C10_14  and  O4_15 
REMARK    6  A    between atoms: O4_15  and  C11_16 
REMARK    7  A    between atoms: C16_26  and  C17_27 
ROOT
HETATM    1  C7  UNL     1      -8.363   0.298 -14.310  1.00  0.00    -0.034 A 
HETATM    2  C8  UNL     1      -8.360  -0.705 -15.230  1.00  0.00     0.014 A 
HETATM    3  C9  UNL     1      -9.380  -0.777 -16.205  1.00  0.00     0.039 A 
HETATM    4  C10 UNL     1     -10.396   0.133 -16.276  1.00  0.00     0.095 A 
HETATM    5  C16 UNL     1     -10.397   1.151 -15.342  1.00  0.00     0.075 A 
HETATM    6  C18 UNL     1      -9.385   1.206 -14.389  1.00  0.00     0.032 A 
ENDROOT
BRANCH   1   7
HETATM    7  C6  UNL     1      -7.308   0.379 -13.326  1.00  0.00     0.036 C 
BRANCH   7   8
HETATM    8  C5  UNL     1      -6.068   0.714 -13.580  1.00  0.00     0.076 C 
HETATM    9  C4  UNL     1      -5.551   1.747 -14.450  1.00  0.00     0.267 C 
HETATM   10  N1  UNL     1      -4.218   1.625 -14.815  1.00  0.00    -0.283 N 
HETATM   11  O3  UNL     1      -6.315   2.703 -14.839  1.00  0.00    -0.266 OA
HETATM   12  C19 UNL     1      -3.523   0.504 -14.292  1.00  0.00     0.149 C 
HETATM   13  S1  UNL     1      -4.588  -0.053 -12.927  1.00  0.00    -0.055 SA
HETATM   14  S2  UNL     1      -2.108  -0.168 -14.761  1.00  0.00    -0.052 SA
BRANCH  10  15
HETATM   15  C2  UNL     1      -3.509   2.587 -15.688  1.00  0.00     0.191 C 
HETATM   16  C1  UNL     1      -4.453   3.571 -16.298  1.00  0.00     0.044 C 
BRANCH  15  17
HETATM   17  C3  UNL     1      -2.533   3.299 -14.792  1.00  0.00     0.197 C 
HETATM   18  O1  UNL     1      -1.323   3.405 -15.095  1.00  0.00    -0.646 OA
HETATM   19  O2  UNL     1      -2.932   3.872 -13.583  1.00  0.00    -0.646 OA
ENDBRANCH  15  17
ENDBRANCH  10  15
ENDBRANCH   7   8
ENDBRANCH   1   7
BRANCH   5  20
HETATM   20  C17 UNL     1     -11.419   2.162 -15.330  1.00  0.00     0.212 C 
HETATM   21  O5  UNL     1     -11.084   3.389 -15.541  1.00  0.00    -0.644 OA
HETATM   22  O6  UNL     1     -12.738   1.952 -15.113  1.00  0.00    -0.644 OA
ENDBRANCH   5  20
BRANCH   4  23
HETATM   23  O4  UNL     1     -11.382   0.071 -17.213  1.00  0.00    -0.291 OA
BRANCH  23  24
HETATM   24  C11 UNL     1     -11.931  -0.980 -17.887  1.00  0.00     0.173 A 
HETATM   25  N2  UNL     1     -11.191  -1.976 -18.432  1.00  0.00    -0.343 N 
HETATM   26  C12 UNL     1     -11.636  -3.027 -19.100  1.00  0.00     0.117 A 
ATOM     27  H2  UNL     1     -10.179  -1.907 -18.313  1.00  0.00     0.167 HD
HETATM   28  C13 UNL     1     -13.000  -3.190 -19.304  1.00  0.00     0.089 A 
HETATM   29 CL1  UNL     1     -13.590  -4.571 -20.183  1.00  0.00    -0.080 Cl
HETATM   30  C14 UNL     1     -13.816  -2.240 -18.793  1.00  0.00     0.165 A 
HETATM   31  F1  UNL     1     -15.166  -2.309 -18.938  1.00  0.00    -0.202 F 
HETATM   32  C15 UNL     1     -13.298  -1.146 -18.093  1.00  0.00     0.125 A 
HETATM   33 CL2  UNL     1     -14.405   0.039 -17.465  1.00  0.00    -0.076 Cl
ENDBRANCH  23  24
ENDBRANCH   4  23
TORSDOF 7
ENDMDL
