MODEL 1
REMARK VINA RESULT: -8.488146074      0.000      0.000
REMARK  8 active torsions:
REMARK  status: ('A' for Active; 'I' for Inactive)
REMARK    1  A    between atoms: C2_2  and  O1_4 
REMARK    2  A    between atoms: O1_4  and  C4_5 
REMARK    3  A    between atoms: C8_12  and  N2_13 
REMARK    4  A    between atoms: N2_13  and  C9_15 
REMARK    5  A    between atoms: C12_22  and  N5_23 
REMARK    6  A    between atoms: N5_23  and  C13_25 
REMARK    7  A    between atoms: C18_32  and  O2_33 
REMARK    8  A    between atoms: O2_33  and  C19_34 
ROOT
HETATM    1  C9  UNL     1     -11.527   1.609 -16.982  1.00  0.00     0.122 A 
HETATM    2  C10 UNL     1     -11.220   2.859 -16.525  1.00  0.00     0.138 A 
HETATM    3  N3  UNL     1     -10.138   2.992 -15.703  1.00  0.00    -0.346 N 
ATOM      4  H3  UNL     1      -9.892   3.917 -15.350  1.00  0.00     0.167 HD
HETATM    5  C11 UNL     1      -9.388   1.934 -15.348  1.00  0.00     0.149 A 
HETATM    6  N4  UNL     1      -8.314   2.035 -14.540  1.00  0.00    -0.174 N 
ATOM      7  H4  UNL     1      -8.058   2.954 -14.180  1.00  0.00     0.186 HD
HETATM    8  C12 UNL     1      -7.573   0.982 -14.190  1.00  0.00     0.684 A 
HETATM    9  N6  UNL     1      -7.851  -0.255 -14.623  1.00  0.00    -0.199 N 
ATOM     10  H6  UNL     1      -7.276  -1.050 -14.346  1.00  0.00     0.183 HD
HETATM   11  C22 UNL     1      -8.914  -0.417 -15.436  1.00  0.00     0.139 A 
HETATM   12  C23 UNL     1      -9.695   0.666 -15.809  1.00  0.00     0.095 A 
HETATM   13  N7  UNL     1     -10.759   0.532 -16.616  1.00  0.00    -0.337 N 
ATOM     14  H7  UNL     1     -11.003  -0.394 -16.967  1.00  0.00     0.167 HD
ENDROOT
BRANCH   1  15
HETATM   15  N2  UNL     1     -12.543   1.399 -17.757  1.00  0.00    -0.338 N 
ATOM     16  H2  UNL     1     -12.564   1.818 -18.687  1.00  0.00     0.167 HD
BRANCH  15  17
HETATM   17  C8  UNL     1     -13.618   0.596 -17.328  1.00  0.00     0.083 A 
HETATM   18  C4  UNL     1     -13.866  -0.620 -17.909  1.00  0.00     0.100 A 
HETATM   19  C5  UNL     1     -15.004  -1.329 -17.394  1.00  0.00     0.081 A 
HETATM   20  C6  UNL     1     -15.765  -0.805 -16.397  1.00  0.00     0.106 A 
HETATM   21 CL1  UNL     1     -17.154  -1.665 -15.763  1.00  0.00    -0.064 Cl
HETATM   22  N1  UNL     1     -15.483   0.394 -15.853  1.00  0.00    -0.354 N 
HETATM   23  C7  UNL     1     -14.435   1.099 -16.294  1.00  0.00     0.121 A 
ATOM     24  H1  UNL     1     -16.068   0.765 -15.106  1.00  0.00     0.166 HD
BRANCH  18  25
HETATM   25  O1  UNL     1     -13.160  -1.188 -18.889  1.00  0.00    -0.344 OA
BRANCH  25  26
HETATM   26  C2  UNL     1     -12.814  -2.388 -19.340  1.00  0.00     0.120 C 
HETATM   27  C1  UNL     1     -12.887  -2.494 -20.893  1.00  0.00     0.040 C 
HETATM   28  C3  UNL     1     -11.396  -2.830 -18.932  1.00  0.00     0.040 C 
ENDBRANCH  25  26
ENDBRANCH  18  25
ENDBRANCH  15  17
ENDBRANCH   1  15
BRANCH   8  29
HETATM   29  N5  UNL     1      -6.545   1.122 -13.408  1.00  0.00    -0.186 N 
ATOM     30  H5  UNL     1      -6.721   1.408 -12.444  1.00  0.00     0.184 HD
BRANCH  29  31
HETATM   31  C13 UNL     1      -5.214   0.913 -13.786  1.00  0.00     0.121 A 
HETATM   32  C14 UNL     1      -4.542  -0.195 -13.294  1.00  0.00     0.148 A 
HETATM   33  F1  UNL     1      -5.168  -1.051 -12.443  1.00  0.00    -0.204 F 
HETATM   34  C15 UNL     1      -3.235  -0.445 -13.651  1.00  0.00     0.068 A 
HETATM   35  C16 UNL     1      -2.563   0.397 -14.504  1.00  0.00     0.039 A 
HETATM   36 CL2  UNL     1      -0.890   0.041 -14.936  1.00  0.00    -0.084 Cl
HETATM   37  C17 UNL     1      -3.224   1.483 -14.984  1.00  0.00     0.063 A 
HETATM   38  C18 UNL     1      -4.560   1.775 -14.644  1.00  0.00     0.101 A 
BRANCH  38  39
HETATM   39  O2  UNL     1      -5.081   2.890 -15.200  1.00  0.00    -0.344 OA
BRANCH  39  40
HETATM   40  C19 UNL     1      -4.971   3.677 -16.281  1.00  0.00     0.120 C 
HETATM   41  C20 UNL     1      -4.154   4.964 -15.995  1.00  0.00     0.040 C 
HETATM   42  C21 UNL     1      -6.320   4.142 -16.843  1.00  0.00     0.040 C 
ENDBRANCH  39  40
ENDBRANCH  38  39
ENDBRANCH  29  31
ENDBRANCH   8  29
TORSDOF 8
ENDMDL
MODEL 2
REMARK VINA RESULT: -8.288678008      1.920      9.756
REMARK  8 active torsions:
REMARK  status: ('A' for Active; 'I' for Inactive)
REMARK    1  A    between atoms: C2_2  and  O1_4 
REMARK    2  A    between atoms: O1_4  and  C4_5 
REMARK    3  A    between atoms: C8_12  and  N2_13 
REMARK    4  A    between atoms: N2_13  and  C9_15 
REMARK    5  A    between atoms: C12_22  and  N5_23 
REMARK    6  A    between atoms: N5_23  and  C13_25 
REMARK    7  A    between atoms: C18_32  and  O2_33 
REMARK    8  A    between atoms: O2_33  and  C19_34 
ROOT
HETATM    1  C9  UNL     1      -7.248   0.543 -13.899  1.00  0.00     0.122 A 
HETATM    2  C10 UNL     1      -7.556  -0.667 -14.456  1.00  0.00     0.138 A 
HETATM    3  N3  UNL     1      -8.639  -0.732 -15.285  1.00  0.00    -0.346 N 
ATOM      4  H3  UNL     1      -8.886  -1.625 -15.710  1.00  0.00     0.167 HD
HETATM    5  C11 UNL     1      -9.386   0.352 -15.555  1.00  0.00     0.149 A 
HETATM    6  N4  UNL     1     -10.460   0.318 -16.370  1.00  0.00    -0.174 N 
ATOM      7  H4  UNL     1     -10.717  -0.569 -16.802  1.00  0.00     0.186 HD
HETATM    8  C12 UNL     1     -11.199   1.397 -16.636  1.00  0.00     0.684 A 
HETATM    9  N6  UNL     1     -10.920   2.594 -16.105  1.00  0.00    -0.199 N 
ATOM     10  H6  UNL     1     -11.494   3.410 -16.316  1.00  0.00     0.183 HD
HETATM   11  C22 UNL     1      -9.856   2.689 -15.282  1.00  0.00     0.139 A 
HETATM   12  C23 UNL     1      -9.078   1.579 -14.995  1.00  0.00     0.095 A 
HETATM   13  N7  UNL     1      -8.015   1.647 -14.178  1.00  0.00    -0.337 N 
ATOM     14  H7  UNL     1      -7.771   2.541 -13.754  1.00  0.00     0.167 HD
ENDROOT
BRANCH   1  15
HETATM   15  N2  UNL     1      -6.243   0.685 -13.095  1.00  0.00    -0.338 N 
ATOM     16  H2  UNL     1      -6.408   0.871 -12.106  1.00  0.00     0.167 HD
BRANCH  15  17
HETATM   17  C8  UNL     1      -4.923   0.584 -13.576  1.00  0.00     0.083 A 
HETATM   18  C4  UNL     1      -4.429   1.493 -14.477  1.00  0.00     0.100 A 
HETATM   19  C5  UNL     1      -3.077   1.265 -14.904  1.00  0.00     0.081 A 
HETATM   20  C6  UNL     1      -2.359   0.214 -14.430  1.00  0.00     0.106 A 
HETATM   21 CL1  UNL     1      -0.708  -0.070 -14.946  1.00  0.00    -0.064 Cl
HETATM   22  N1  UNL     1      -2.884  -0.654 -13.544  1.00  0.00    -0.354 N 
HETATM   23  C7  UNL     1      -4.139  -0.492 -13.112  1.00  0.00     0.121 A 
ATOM     24  H1  UNL     1      -2.324  -1.435 -13.203  1.00  0.00     0.166 HD
BRANCH  18  25
HETATM   25  O1  UNL     1      -5.081   2.543 -14.979  1.00  0.00    -0.344 OA
BRANCH  25  26
HETATM   26  C2  UNL     1      -5.026   3.392 -15.999  1.00  0.00     0.120 C 
HETATM   27  C1  UNL     1      -6.426   3.945 -16.402  1.00  0.00     0.040 C 
HETATM   28  C3  UNL     1      -4.121   4.614 -15.753  1.00  0.00     0.040 C 
ENDBRANCH  25  26
ENDBRANCH  18  25
ENDBRANCH  15  17
ENDBRANCH   1  15
BRANCH   8  29
HETATM   29  N5  UNL     1     -12.226   1.321 -17.428  1.00  0.00    -0.186 N 
ATOM     30  H5  UNL     1     -12.188   1.846 -18.301  1.00  0.00     0.184 HD
BRANCH  29  31
HETATM   31  C13 UNL     1     -13.381   0.573 -17.173  1.00  0.00     0.121 A 
HETATM   32  C14 UNL     1     -14.306   1.055 -16.260  1.00  0.00     0.148 A 
HETATM   33  F1  UNL     1     -14.077   2.229 -15.612  1.00  0.00    -0.204 F 
HETATM   34  C15 UNL     1     -15.463   0.357 -15.989  1.00  0.00     0.068 A 
HETATM   35  C16 UNL     1     -15.730  -0.836 -16.617  1.00  0.00     0.039 A 
HETATM   36 CL2  UNL     1     -17.222  -1.699 -16.242  1.00  0.00    -0.084 Cl
HETATM   37  C17 UNL     1     -14.821  -1.307 -17.511  1.00  0.00     0.063 A 
HETATM   38  C18 UNL     1     -13.627  -0.624 -17.817  1.00  0.00     0.101 A 
BRANCH  38  39
HETATM   39  O2  UNL     1     -12.823  -1.217 -18.725  1.00  0.00    -0.344 OA
BRANCH  39  40
HETATM   40  C19 UNL     1     -12.618  -2.392 -19.340  1.00  0.00     0.120 C 
HETATM   41  C20 UNL     1     -11.242  -3.014 -18.982  1.00  0.00     0.040 C 
HETATM   42  C21 UNL     1     -12.662  -2.301 -20.870  1.00  0.00     0.040 C 
ENDBRANCH  39  40
ENDBRANCH  38  39
ENDBRANCH  29  31
ENDBRANCH   8  29
TORSDOF 8
ENDMDL
MODEL 3
REMARK VINA RESULT: -8.238446537      2.289      9.703
REMARK  8 active torsions:
REMARK  status: ('A' for Active; 'I' for Inactive)
REMARK    1  A    between atoms: C2_2  and  O1_4 
REMARK    2  A    between atoms: O1_4  and  C4_5 
REMARK    3  A    between atoms: C8_12  and  N2_13 
REMARK    4  A    between atoms: N2_13  and  C9_15 
REMARK    5  A    between atoms: C12_22  and  N5_23 
REMARK    6  A    between atoms: N5_23  and  C13_25 
REMARK    7  A    between atoms: C18_32  and  O2_33 
REMARK    8  A    between atoms: O2_33  and  C19_34 
ROOT
HETATM    1  C9  UNL     1      -7.264   0.554 -13.918  1.00  0.00     0.122 A 
HETATM    2  C10 UNL     1      -7.547  -0.653 -14.494  1.00  0.00     0.138 A 
HETATM    3  N3  UNL     1      -8.628  -0.727 -15.324  1.00  0.00    -0.346 N 
ATOM      4  H3  UNL     1      -8.857  -1.618 -15.764  1.00  0.00     0.167 HD
HETATM    5  C11 UNL     1      -9.397   0.346 -15.578  1.00  0.00     0.149 A 
HETATM    6  N4  UNL     1     -10.469   0.303 -16.394  1.00  0.00    -0.174 N 
ATOM      7  H4  UNL     1     -10.709  -0.583 -16.840  1.00  0.00     0.186 HD
HETATM    8  C12 UNL     1     -11.231   1.370 -16.644  1.00  0.00     0.684 A 
HETATM    9  N6  UNL     1     -10.976   2.564 -16.093  1.00  0.00    -0.199 N 
ATOM     10  H6  UNL     1     -11.567   3.371 -16.292  1.00  0.00     0.183 HD
HETATM   11  C22 UNL     1      -9.915   2.668 -15.268  1.00  0.00     0.139 A 
HETATM   12  C23 UNL     1      -9.114   1.569 -14.998  1.00  0.00     0.095 A 
HETATM   13  N7  UNL     1      -8.053   1.646 -14.180  1.00  0.00    -0.337 N 
ATOM     14  H7  UNL     1      -7.827   2.539 -13.742  1.00  0.00     0.167 HD
ENDROOT
BRANCH   1  15
HETATM   15  N2  UNL     1      -6.262   0.704 -13.112  1.00  0.00    -0.338 N 
ATOM     16  H2  UNL     1      -6.431   0.904 -12.126  1.00  0.00     0.167 HD
BRANCH  15  17
HETATM   17  C8  UNL     1      -4.940   0.593 -13.585  1.00  0.00     0.083 A 
HETATM   18  C4  UNL     1      -4.432   1.501 -14.478  1.00  0.00     0.100 A 
HETATM   19  C5  UNL     1      -3.080   1.263 -14.898  1.00  0.00     0.081 A 
HETATM   20  C6  UNL     1      -2.374   0.202 -14.425  1.00  0.00     0.106 A 
HETATM   21 CL1  UNL     1      -0.723  -0.094 -14.932  1.00  0.00    -0.064 Cl
HETATM   22  N1  UNL     1      -2.913  -0.664 -13.547  1.00  0.00    -0.354 N 
HETATM   23  C7  UNL     1      -4.169  -0.492 -13.121  1.00  0.00     0.121 A 
ATOM     24  H1  UNL     1      -2.363  -1.453 -13.206  1.00  0.00     0.166 HD
BRANCH  18  25
HETATM   25  O1  UNL     1      -5.071   2.560 -14.979  1.00  0.00    -0.344 OA
BRANCH  25  26
HETATM   26  C2  UNL     1      -4.998   3.417 -15.991  1.00  0.00     0.120 C 
HETATM   27  C1  UNL     1      -6.395   3.944 -16.439  1.00  0.00     0.040 C 
HETATM   28  C3  UNL     1      -4.127   4.656 -15.707  1.00  0.00     0.040 C 
ENDBRANCH  25  26
ENDBRANCH  18  25
ENDBRANCH  15  17
ENDBRANCH   1  15
BRANCH   8  29
HETATM   29  N5  UNL     1     -12.256   1.285 -17.437  1.00  0.00    -0.186 N 
ATOM     30  H5  UNL     1     -12.194   1.757 -18.339  1.00  0.00     0.184 HD
BRANCH  29  31
HETATM   31  C13 UNL     1     -13.439   0.598 -17.147  1.00  0.00     0.121 A 
HETATM   32  C14 UNL     1     -13.706  -0.589 -17.811  1.00  0.00     0.148 A 
HETATM   33  F1  UNL     1     -12.835  -1.062 -18.742  1.00  0.00    -0.204 F 
HETATM   34  C15 UNL     1     -14.855  -1.305 -17.547  1.00  0.00     0.068 A 
HETATM   35  C16 UNL     1     -15.765  -0.860 -16.619  1.00  0.00     0.039 A 
HETATM   36 CL2  UNL     1     -17.222  -1.805 -16.310  1.00  0.00    -0.084 Cl
HETATM   37  C17 UNL     1     -15.501   0.304 -15.970  1.00  0.00     0.063 A 
HETATM   38  C18 UNL     1     -14.339   1.066 -16.210  1.00  0.00     0.101 A 
BRANCH  38  39
HETATM   39  O2  UNL     1     -14.217   2.200 -15.489  1.00  0.00    -0.344 OA
BRANCH  39  40
HETATM   40  C19 UNL     1     -14.625   2.768 -14.343  1.00  0.00     0.120 C 
HETATM   41  C20 UNL     1     -15.655   3.903 -14.581  1.00  0.00     0.040 C 
HETATM   42  C21 UNL     1     -13.486   3.387 -13.524  1.00  0.00     0.040 C 
ENDBRANCH  39  40
ENDBRANCH  38  39
ENDBRANCH  29  31
ENDBRANCH   8  29
TORSDOF 8
ENDMDL
MODEL 4
REMARK VINA RESULT: -8.217961335      1.324      2.687
REMARK  8 active torsions:
REMARK  status: ('A' for Active; 'I' for Inactive)
REMARK    1  A    between atoms: C2_2  and  O1_4 
REMARK    2  A    between atoms: O1_4  and  C4_5 
REMARK    3  A    between atoms: C8_12  and  N2_13 
REMARK    4  A    between atoms: N2_13  and  C9_15 
REMARK    5  A    between atoms: C12_22  and  N5_23 
REMARK    6  A    between atoms: N5_23  and  C13_25 
REMARK    7  A    between atoms: C18_32  and  O2_33 
REMARK    8  A    between atoms: O2_33  and  C19_34 
ROOT
HETATM    1  C9  UNL     1     -11.466   1.802 -17.079  1.00  0.00     0.122 A 
HETATM    2  C10 UNL     1     -11.095   3.041 -16.638  1.00  0.00     0.138 A 
HETATM    3  N3  UNL     1     -10.020   3.127 -15.802  1.00  0.00    -0.346 N 
ATOM      4  H3  UNL     1      -9.728   4.043 -15.460  1.00  0.00     0.167 HD
HETATM    5  C11 UNL     1      -9.336   2.035 -15.417  1.00  0.00     0.149 A 
HETATM    6  N4  UNL     1      -8.271   2.090 -14.593  1.00  0.00    -0.174 N 
ATOM      7  H4  UNL     1      -7.969   3.000 -14.245  1.00  0.00     0.186 HD
HETATM    8  C12 UNL     1      -7.595   1.004 -14.214  1.00  0.00     0.684 A 
HETATM    9  N6  UNL     1      -7.935  -0.223 -14.631  1.00  0.00    -0.199 N 
ATOM     10  H6  UNL     1      -7.410  -1.044 -14.332  1.00  0.00     0.183 HD
HETATM   11  C22 UNL     1      -8.993  -0.339 -15.458  1.00  0.00     0.139 A 
HETATM   12  C23 UNL     1      -9.707   0.779 -15.862  1.00  0.00     0.095 A 
HETATM   13  N7  UNL     1     -10.764   0.690 -16.683  1.00  0.00    -0.337 N 
ATOM     14  H7  UNL     1     -11.054  -0.227 -17.023  1.00  0.00     0.167 HD
ENDROOT
BRANCH   1  15
HETATM   15  N2  UNL     1     -12.479   1.636 -17.867  1.00  0.00    -0.338 N 
ATOM     16  H2  UNL     1     -12.543   2.175 -18.731  1.00  0.00     0.167 HD
BRANCH  15  17
HETATM   17  C8  UNL     1     -13.495   0.715 -17.543  1.00  0.00     0.083 A 
HETATM   18  C4  UNL     1     -14.428   1.005 -16.582  1.00  0.00     0.100 A 
HETATM   19  C5  UNL     1     -15.396  -0.026 -16.331  1.00  0.00     0.081 A 
HETATM   20  C6  UNL     1     -15.365  -1.200 -17.016  1.00  0.00     0.106 A 
HETATM   21 CL1  UNL     1     -16.543  -2.462 -16.716  1.00  0.00    -0.064 Cl
HETATM   22  N1  UNL     1     -14.430  -1.441 -17.954  1.00  0.00    -0.354 N 
HETATM   23  C7  UNL     1     -13.503  -0.517 -18.229  1.00  0.00     0.121 A 
ATOM     24  H1  UNL     1     -14.428  -2.330 -18.454  1.00  0.00     0.166 HD
BRANCH  18  25
HETATM   25  O1  UNL     1     -14.513   2.134 -15.876  1.00  0.00    -0.344 OA
BRANCH  25  26
HETATM   26  C2  UNL     1     -14.258   2.605 -14.660  1.00  0.00     0.120 C 
HETATM   27  C1  UNL     1     -13.935   4.129 -14.658  1.00  0.00     0.040 C 
HETATM   28  C3  UNL     1     -15.402   2.393 -13.650  1.00  0.00     0.040 C 
ENDBRANCH  25  26
ENDBRANCH  18  25
ENDBRANCH  15  17
ENDBRANCH   1  15
BRANCH   8  29
HETATM   29  N5  UNL     1      -6.573   1.100 -13.418  1.00  0.00    -0.186 N 
ATOM     30  H5  UNL     1      -6.755   1.343 -12.444  1.00  0.00     0.184 HD
BRANCH  29  31
HETATM   31  C13 UNL     1      -5.241   0.897 -13.794  1.00  0.00     0.121 A 
HETATM   32  C14 UNL     1      -4.569  -0.215 -13.312  1.00  0.00     0.148 A 
HETATM   33  F1  UNL     1      -5.196  -1.081 -12.472  1.00  0.00    -0.204 F 
HETATM   34  C15 UNL     1      -3.260  -0.460 -13.668  1.00  0.00     0.068 A 
HETATM   35  C16 UNL     1      -2.586   0.392 -14.510  1.00  0.00     0.039 A 
HETATM   36 CL2  UNL     1      -0.911   0.043 -14.940  1.00  0.00    -0.084 Cl
HETATM   37  C17 UNL     1      -3.247   1.483 -14.980  1.00  0.00     0.063 A 
HETATM   38  C18 UNL     1      -4.585   1.769 -14.642  1.00  0.00     0.101 A 
BRANCH  38  39
HETATM   39  O2  UNL     1      -5.106   2.889 -15.187  1.00  0.00    -0.344 OA
BRANCH  39  40
HETATM   40  C19 UNL     1      -5.003   3.680 -16.266  1.00  0.00     0.120 C 
HETATM   41  C20 UNL     1      -4.144   4.943 -15.992  1.00  0.00     0.040 C 
HETATM   42  C21 UNL     1      -6.353   4.184 -16.790  1.00  0.00     0.040 C 
ENDBRANCH  39  40
ENDBRANCH  38  39
ENDBRANCH  29  31
ENDBRANCH   8  29
TORSDOF 8
ENDMDL
MODEL 5
REMARK VINA RESULT: -8.032149852      5.293      6.598
REMARK  8 active torsions:
REMARK  status: ('A' for Active; 'I' for Inactive)
REMARK    1  A    between atoms: C2_2  and  O1_4 
REMARK    2  A    between atoms: O1_4  and  C4_5 
REMARK    3  A    between atoms: C8_12  and  N2_13 
REMARK    4  A    between atoms: N2_13  and  C9_15 
REMARK    5  A    between atoms: C12_22  and  N5_23 
REMARK    6  A    between atoms: N5_23  and  C13_25 
REMARK    7  A    between atoms: C18_32  and  O2_33 
REMARK    8  A    between atoms: O2_33  and  C19_34 
ROOT
HETATM    1  C9  UNL     1      -9.335   4.501 -20.098  1.00  0.00     0.122 A 
HETATM    2  C10 UNL     1      -8.109   5.047 -19.836  1.00  0.00     0.138 A 
HETATM    3  N3  UNL     1      -7.537   4.781 -18.625  1.00  0.00    -0.346 N 
ATOM      4  H3  UNL     1      -6.623   5.179 -18.409  1.00  0.00     0.167 HD
HETATM    5  C11 UNL     1      -8.148   4.008 -17.711  1.00  0.00     0.149 A 
HETATM    6  N4  UNL     1      -7.607   3.728 -16.508  1.00  0.00    -0.174 N 
ATOM      7  H4  UNL     1      -6.694   4.121 -16.280  1.00  0.00     0.186 HD
HETATM    8  C12 UNL     1      -8.217   2.960 -15.603  1.00  0.00     0.684 A 
HETATM    9  N6  UNL     1      -9.418   2.413 -15.834  1.00  0.00    -0.199 N 
ATOM     10  H6  UNL     1      -9.872   1.829 -15.132  1.00  0.00     0.183 HD
HETATM   11  C22 UNL     1     -10.008   2.657 -17.021  1.00  0.00     0.139 A 
HETATM   12  C23 UNL     1      -9.388   3.453 -17.972  1.00  0.00     0.095 A 
HETATM   13  N7  UNL     1      -9.954   3.713 -19.161  1.00  0.00    -0.337 N 
ATOM     14  H7  UNL     1     -10.869   3.314 -19.374  1.00  0.00     0.167 HD
ENDROOT
BRANCH   1  15
HETATM   15  N2  UNL     1      -9.947   4.713 -21.220  1.00  0.00    -0.338 N 
ATOM     16  H2  UNL     1     -10.755   4.143 -21.470  1.00  0.00     0.167 HD
BRANCH  15  17
HETATM   17  C8  UNL     1      -9.507   5.724 -22.096  1.00  0.00     0.083 A 
HETATM   18  C4  UNL     1      -8.874   5.412 -23.271  1.00  0.00     0.100 A 
HETATM   19  C5  UNL     1      -8.456   6.534 -24.064  1.00  0.00     0.081 A 
HETATM   20  C6  UNL     1      -8.687   7.809 -23.652  1.00  0.00     0.106 A 
HETATM   21 CL1  UNL     1      -8.181   9.184 -24.613  1.00  0.00    -0.064 Cl
HETATM   22  N1  UNL     1      -9.314   8.069 -22.489  1.00  0.00    -0.354 N 
HETATM   23  C7  UNL     1      -9.725   7.063 -21.710  1.00  0.00     0.121 A 
ATOM     24  H1  UNL     1      -9.476   9.034 -22.202  1.00  0.00     0.166 HD
BRANCH  18  25
HETATM   25  O1  UNL     1      -8.618   4.186 -23.731  1.00  0.00    -0.344 OA
BRANCH  25  26
HETATM   26  C2  UNL     1      -9.142   3.258 -24.524  1.00  0.00     0.120 C 
HETATM   27  C1  UNL     1     -10.698   3.325 -24.587  1.00  0.00     0.040 C 
HETATM   28  C3  UNL     1      -8.638   3.315 -25.979  1.00  0.00     0.040 C 
ENDBRANCH  25  26
ENDBRANCH  18  25
ENDBRANCH  15  17
ENDBRANCH   1  15
BRANCH   8  29
HETATM   29  N5  UNL     1      -7.661   2.716 -14.455  1.00  0.00    -0.186 N 
ATOM     30  H5  UNL     1      -7.967   3.271 -13.655  1.00  0.00     0.184 HD
BRANCH  29  31
HETATM   31  C13 UNL     1      -6.674   1.749 -14.232  1.00  0.00     0.121 A 
HETATM   32  C14 UNL     1      -7.054   0.489 -13.796  1.00  0.00     0.148 A 
HETATM   33  F1  UNL     1      -8.367   0.210 -13.575  1.00  0.00    -0.204 F 
HETATM   34  C15 UNL     1      -6.116  -0.496 -13.576  1.00  0.00     0.068 A 
HETATM   35  C16 UNL     1      -4.778  -0.255 -13.781  1.00  0.00     0.039 A 
HETATM   36 CL2  UNL     1      -3.609  -1.542 -13.487  1.00  0.00    -0.084 Cl
HETATM   37  C17 UNL     1      -4.408   0.982 -14.207  1.00  0.00     0.063 A 
HETATM   38  C18 UNL     1      -5.336   2.017 -14.445  1.00  0.00     0.101 A 
BRANCH  38  39
HETATM   39  O2  UNL     1      -4.817   3.190 -14.864  1.00  0.00    -0.344 OA
BRANCH  39  40
HETATM   40  C19 UNL     1      -3.804   3.695 -15.585  1.00  0.00     0.120 C 
HETATM   41  C20 UNL     1      -4.088   5.142 -16.069  1.00  0.00     0.040 C 
HETATM   42  C21 UNL     1      -3.476   2.879 -16.840  1.00  0.00     0.040 C 
ENDBRANCH  39  40
ENDBRANCH  38  39
ENDBRANCH  29  31
ENDBRANCH   8  29
TORSDOF 8
ENDMDL
