MODEL 1
REMARK VINA RESULT: -9.085291666      0.000      0.000
REMARK  6 active torsions:
REMARK  status: ('A' for Active; 'I' for Inactive)
REMARK    1  A    between atoms: C2_2  and  O1_4 
REMARK    2  A    between atoms: C2_2  and  S1_31 
REMARK    3  A    between atoms: O1_4  and  C4_5 
REMARK    4  A    between atoms: C7_8  and  O2_9 
REMARK    5  A    between atoms: O2_9  and  C8_10 
REMARK    6  A    between atoms: C11_15  and  C12_16 
ROOT
HETATM    1  C12 UNL     1     -12.752   4.126 -15.828  1.00  0.00     0.003 A 
HETATM    2  C13 UNL     1     -13.967   4.745 -16.057  1.00  0.00     0.038 A 
HETATM    3  C14 UNL     1     -14.917   4.812 -15.093  1.00  0.00     0.036 A 
HETATM    4 CL1  UNL     1     -16.476   5.585 -15.329  1.00  0.00    -0.084 Cl
HETATM    5  C15 UNL     1     -14.666   4.251 -13.853  1.00  0.00     0.052 A 
HETATM    6  C16 UNL     1     -13.468   3.631 -13.602  1.00  0.00     0.069 A 
HETATM    7  N2  UNL     1     -13.203   3.053 -12.334  1.00  0.00    -0.101 NA
HETATM    8  C17 UNL     1     -12.504   3.570 -14.599  1.00  0.00     0.080 A 
HETATM    9  C18 UNL     1     -11.260   2.939 -14.317  1.00  0.00     0.102 C 
HETATM   10  N3  UNL     1     -10.244   2.439 -14.068  1.00  0.00    -0.191 NA
ENDROOT
BRANCH   1  11
HETATM   11  C11 UNL     1     -11.780   4.072 -16.931  1.00  0.00     0.033 A 
HETATM   12  C10 UNL     1     -11.967   3.243 -18.007  1.00  0.00     0.103 A 
HETATM   13  N1  UNL     1     -11.037   3.259 -18.999  1.00  0.00    -0.372 N 
HETATM   14  C9  UNL     1      -9.951   4.033 -18.986  1.00  0.00     0.128 A 
ATOM     15  H1  UNL     1     -11.178   2.644 -19.799  1.00  0.00     0.164 HD
HETATM   16  C8  UNL     1      -9.723   4.876 -17.934  1.00  0.00     0.131 A 
HETATM   17  C19 UNL     1     -10.663   4.877 -16.907  1.00  0.00     0.164 A 
HETATM   18  F1  UNL     1     -10.474   5.696 -15.833  1.00  0.00    -0.202 F 
BRANCH  16  19
HETATM   19  O2  UNL     1      -8.646   5.717 -17.815  1.00  0.00    -0.304 OA
BRANCH  19  20
HETATM   20  C7  UNL     1      -7.439   5.404 -17.218  1.00  0.00     0.098 A 
HETATM   21  C6  UNL     1      -7.251   4.136 -16.667  1.00  0.00     0.042 A 
HETATM   22  C5  UNL     1      -6.068   3.754 -16.052  1.00  0.00     0.039 A 
HETATM   23  C4  UNL     1      -5.003   4.616 -15.952  1.00  0.00     0.072 A 
HETATM   24  C21 UNL     1      -5.203   5.890 -16.509  1.00  0.00     0.063 A 
HETATM   25  C20 UNL     1      -6.372   6.270 -17.117  1.00  0.00     0.070 A 
HETATM   26 CL2  UNL     1      -6.560   7.913 -17.758  1.00  0.00    -0.081 Cl
BRANCH  23  27
HETATM   27  O1  UNL     1      -3.800   4.322 -15.365  1.00  0.00    -0.325 OA
BRANCH  27  28
HETATM   28  C2  UNL     1      -2.780   3.483 -15.729  1.00  0.00     0.162 C 
HETATM   29  C1  UNL     1      -3.203   2.628 -16.908  1.00  0.00     0.063 C 
HETATM   30  C3  UNL     1      -1.453   4.104 -16.007  1.00  0.00     0.063 C 
BRANCH  28  31
HETATM   31  S1  UNL     1      -2.589   2.348 -14.311  1.00  0.00     0.173 S 
HETATM   32  C22 UNL     1      -3.490   0.868 -14.579  1.00  0.00     0.164 C 
HETATM   33  O3  UNL     1      -3.126   3.108 -13.128  1.00  0.00    -0.225 OA
HETATM   34  O4  UNL     1      -1.129   2.154 -14.133  1.00  0.00    -0.225 OA
ENDBRANCH  28  31
ENDBRANCH  27  28
ENDBRANCH  23  27
ENDBRANCH  19  20
ENDBRANCH  16  19
ENDBRANCH   1  11
TORSDOF 6
ENDMDL
MODEL 2
REMARK VINA RESULT: -8.871296628      2.803      3.878
REMARK  6 active torsions:
REMARK  status: ('A' for Active; 'I' for Inactive)
REMARK    1  A    between atoms: C2_2  and  O1_4 
REMARK    2  A    between atoms: C2_2  and  S1_31 
REMARK    3  A    between atoms: O1_4  and  C4_5 
REMARK    4  A    between atoms: C7_8  and  O2_9 
REMARK    5  A    between atoms: O2_9  and  C8_10 
REMARK    6  A    between atoms: C11_15  and  C12_16 
ROOT
HETATM    1  C12 UNL     1     -12.904   2.345 -16.109  1.00  0.00     0.003 A 
HETATM    2  C13 UNL     1     -14.098   1.984 -15.512  1.00  0.00     0.038 A 
HETATM    3  C14 UNL     1     -15.161   2.823 -15.497  1.00  0.00     0.036 A 
HETATM    4 CL1  UNL     1     -16.700   2.417 -14.755  1.00  0.00    -0.084 Cl
HETATM    5  C15 UNL     1     -15.051   4.069 -16.091  1.00  0.00     0.052 A 
HETATM    6  C16 UNL     1     -13.876   4.450 -16.688  1.00  0.00     0.069 A 
HETATM    7  N2  UNL     1     -13.754   5.724 -17.299  1.00  0.00    -0.101 NA
HETATM    8  C17 UNL     1     -12.795   3.579 -16.697  1.00  0.00     0.080 A 
HETATM    9  C18 UNL     1     -11.590   3.982 -17.336  1.00  0.00     0.102 C 
HETATM   10  N3  UNL     1     -10.620   4.317 -17.877  1.00  0.00    -0.191 NA
ENDROOT
BRANCH   1  11
HETATM   11  C11 UNL     1     -11.787   1.388 -16.065  1.00  0.00     0.033 A 
HETATM   12  C10 UNL     1     -11.605   0.457 -17.055  1.00  0.00     0.103 A 
HETATM   13  N1  UNL     1     -10.540  -0.383 -16.957  1.00  0.00    -0.372 N 
HETATM   14  C9  UNL     1      -9.661  -0.354 -15.955  1.00  0.00     0.128 A 
ATOM     15  H1  UNL     1     -10.405  -1.074 -17.695  1.00  0.00     0.164 HD
HETATM   16  C8  UNL     1      -9.802   0.558 -14.946  1.00  0.00     0.131 A 
HETATM   17  C19 UNL     1     -10.885   1.428 -15.025  1.00  0.00     0.164 A 
HETATM   18  F1  UNL     1     -11.070   2.351 -14.038  1.00  0.00    -0.202 F 
BRANCH  16  19
HETATM   19  O2  UNL     1      -8.959   0.681 -13.870  1.00  0.00    -0.304 OA
BRANCH  19  20
HETATM   20  C7  UNL     1      -7.616   1.002 -13.930  1.00  0.00     0.098 A 
HETATM   21  C6  UNL     1      -6.666   0.077 -13.498  1.00  0.00     0.042 A 
HETATM   22  C5  UNL     1      -5.303   0.333 -13.528  1.00  0.00     0.039 A 
HETATM   23  C4  UNL     1      -4.810   1.528 -13.991  1.00  0.00     0.072 A 
HETATM   24  C21 UNL     1      -5.774   2.453 -14.422  1.00  0.00     0.063 A 
HETATM   25  C20 UNL     1      -7.123   2.203 -14.393  1.00  0.00     0.070 A 
HETATM   26 CL2  UNL     1      -8.279   3.441 -14.916  1.00  0.00    -0.081 Cl
BRANCH  23  27
HETATM   27  O1  UNL     1      -3.483   1.864 -14.058  1.00  0.00    -0.325 OA
BRANCH  27  28
HETATM   28  C2  UNL     1      -2.651   2.117 -15.116  1.00  0.00     0.162 C 
HETATM   29  C1  UNL     1      -1.285   1.509 -14.863  1.00  0.00     0.063 C 
HETATM   30  C3  UNL     1      -3.133   1.724 -16.471  1.00  0.00     0.063 C 
BRANCH  28  31
HETATM   31  S1  UNL     1      -2.420   3.928 -15.100  1.00  0.00     0.173 S 
HETATM   32  C22 UNL     1      -3.593   4.710 -16.144  1.00  0.00     0.164 C 
HETATM   33  O3  UNL     1      -1.016   4.147 -15.596  1.00  0.00    -0.225 OA
HETATM   34  O4  UNL     1      -2.495   4.340 -13.677  1.00  0.00    -0.225 OA
ENDBRANCH  28  31
ENDBRANCH  27  28
ENDBRANCH  23  27
ENDBRANCH  19  20
ENDBRANCH  16  19
ENDBRANCH   1  11
TORSDOF 6
ENDMDL
MODEL 3
REMARK VINA RESULT: -8.608417461      2.916      3.587
REMARK  6 active torsions:
REMARK  status: ('A' for Active; 'I' for Inactive)
REMARK    1  A    between atoms: C2_2  and  O1_4 
REMARK    2  A    between atoms: C2_2  and  S1_31 
REMARK    3  A    between atoms: O1_4  and  C4_5 
REMARK    4  A    between atoms: C7_8  and  O2_9 
REMARK    5  A    between atoms: O2_9  and  C8_10 
REMARK    6  A    between atoms: C11_15  and  C12_16 
ROOT
HETATM    1  C12 UNL     1     -13.962   3.039 -15.346  1.00  0.00     0.003 A 
HETATM    2  C13 UNL     1     -14.809   2.686 -14.312  1.00  0.00     0.038 A 
HETATM    3  C14 UNL     1     -15.915   3.415 -14.027  1.00  0.00     0.036 A 
HETATM    4 CL1  UNL     1     -17.025   3.012 -12.726  1.00  0.00    -0.084 Cl
HETATM    5  C15 UNL     1     -16.203   4.536 -14.784  1.00  0.00     0.052 A 
HETATM    6  C16 UNL     1     -15.376   4.907 -15.815  1.00  0.00     0.069 A 
HETATM    7  N2  UNL     1     -15.665   6.056 -16.597  1.00  0.00    -0.101 NA
HETATM    8  C17 UNL     1     -14.247   4.151 -16.097  1.00  0.00     0.080 A 
HETATM    9  C18 UNL     1     -13.411   4.539 -17.180  1.00  0.00     0.102 C 
HETATM   10  N3  UNL     1     -12.747   4.856 -18.077  1.00  0.00    -0.191 NA
ENDROOT
BRANCH   1  11
HETATM   11  C11 UNL     1     -12.768   2.212 -15.581  1.00  0.00     0.033 A 
HETATM   12  C10 UNL     1     -12.729   1.285 -16.591  1.00  0.00     0.103 A 
HETATM   13  N1  UNL     1     -11.586   0.570 -16.761  1.00  0.00    -0.372 N 
HETATM   14  C9  UNL     1     -10.498   0.715 -16.003  1.00  0.00     0.128 A 
ATOM     15  H1  UNL     1     -11.558  -0.118 -17.514  1.00  0.00     0.164 HD
HETATM   16  C8  UNL     1     -10.491   1.627 -14.985  1.00  0.00     0.131 A 
HETATM   17  C19 UNL     1     -11.651   2.372 -14.792  1.00  0.00     0.164 A 
HETATM   18  F1  UNL     1     -11.693   3.290 -13.784  1.00  0.00    -0.202 F 
BRANCH  16  19
HETATM   19  O2  UNL     1      -9.432   1.865 -14.146  1.00  0.00    -0.304 OA
BRANCH  19  20
HETATM   20  C7  UNL     1      -8.134   2.131 -14.539  1.00  0.00     0.098 A 
HETATM   21  C6  UNL     1      -7.872   3.239 -15.345  1.00  0.00     0.042 A 
HETATM   22  C5  UNL     1      -6.594   3.565 -15.778  1.00  0.00     0.039 A 
HETATM   23  C4  UNL     1      -5.506   2.803 -15.432  1.00  0.00     0.072 A 
HETATM   24  C21 UNL     1      -5.780   1.690 -14.622  1.00  0.00     0.063 A 
HETATM   25  C20 UNL     1      -7.042   1.364 -14.193  1.00  0.00     0.070 A 
HETATM   26 CL2  UNL     1      -7.312  -0.084 -13.207  1.00  0.00    -0.081 Cl
BRANCH  23  27
HETATM   27  O1  UNL     1      -4.212   3.053 -15.812  1.00  0.00    -0.325 OA
BRANCH  27  28
HETATM   28  C2  UNL     1      -3.126   3.522 -15.122  1.00  0.00     0.162 C 
HETATM   29  C1  UNL     1      -2.103   4.093 -16.085  1.00  0.00     0.063 C 
HETATM   30  C3  UNL     1      -3.384   4.497 -14.025  1.00  0.00     0.063 C 
BRANCH  28  31
HETATM   31  S1  UNL     1      -2.366   2.032 -14.388  1.00  0.00     0.173 S 
HETATM   32  C22 UNL     1      -2.682   0.623 -15.385  1.00  0.00     0.164 C 
HETATM   33  O3  UNL     1      -3.006   1.896 -13.033  1.00  0.00    -0.225 OA
HETATM   34  O4  UNL     1      -0.929   2.348 -14.210  1.00  0.00    -0.225 OA
ENDBRANCH  28  31
ENDBRANCH  27  28
ENDBRANCH  23  27
ENDBRANCH  19  20
ENDBRANCH  16  19
ENDBRANCH   1  11
TORSDOF 6
ENDMDL
MODEL 4
REMARK VINA RESULT: -8.556761146      2.631      3.078
REMARK  6 active torsions:
REMARK  status: ('A' for Active; 'I' for Inactive)
REMARK    1  A    between atoms: C2_2  and  O1_4 
REMARK    2  A    between atoms: C2_2  and  S1_31 
REMARK    3  A    between atoms: O1_4  and  C4_5 
REMARK    4  A    between atoms: C7_8  and  O2_9 
REMARK    5  A    between atoms: O2_9  and  C8_10 
REMARK    6  A    between atoms: C11_15  and  C12_16 
ROOT
HETATM    1  C12 UNL     1     -14.078   3.276 -14.751  1.00  0.00     0.003 A 
HETATM    2  C13 UNL     1     -14.322   4.175 -13.730  1.00  0.00     0.038 A 
HETATM    3  C14 UNL     1     -15.361   4.009 -12.876  1.00  0.00     0.036 A 
HETATM    4 CL1  UNL     1     -15.716   5.119 -11.563  1.00  0.00    -0.084 Cl
HETATM    5  C15 UNL     1     -16.197   2.916 -13.029  1.00  0.00     0.052 A 
HETATM    6  C16 UNL     1     -15.975   2.010 -14.036  1.00  0.00     0.069 A 
HETATM    7  N2  UNL     1     -16.827   0.887 -14.200  1.00  0.00    -0.101 NA
HETATM    8  C17 UNL     1     -14.906   2.193 -14.903  1.00  0.00     0.080 A 
HETATM    9  C18 UNL     1     -14.680   1.235 -15.930  1.00  0.00     0.102 C 
HETATM   10  N3  UNL     1     -14.497   0.437 -16.751  1.00  0.00    -0.191 NA
ENDROOT
BRANCH   1  11
HETATM   11  C11 UNL     1     -12.945   3.536 -15.652  1.00  0.00     0.033 A 
HETATM   12  C10 UNL     1     -12.974   4.566 -16.557  1.00  0.00     0.103 A 
HETATM   13  N1  UNL     1     -11.883   4.759 -17.344  1.00  0.00    -0.372 N 
HETATM   14  C9  UNL     1     -10.785   4.005 -17.290  1.00  0.00     0.128 A 
ATOM     15  H1  UNL     1     -11.905   5.527 -18.016  1.00  0.00     0.164 HD
HETATM   16  C8  UNL     1     -10.710   2.967 -16.404  1.00  0.00     0.131 A 
HETATM   17  C19 UNL     1     -11.815   2.751 -15.586  1.00  0.00     0.164 A 
HETATM   18  F1  UNL     1     -11.790   1.723 -14.690  1.00  0.00    -0.202 F 
BRANCH  16  19
HETATM   19  O2  UNL     1      -9.633   2.129 -16.258  1.00  0.00    -0.304 OA
BRANCH  19  20
HETATM   20  C7  UNL     1      -8.338   2.521 -15.974  1.00  0.00     0.098 A 
HETATM   21  C6  UNL     1      -7.743   3.531 -16.731  1.00  0.00     0.042 A 
HETATM   22  C5  UNL     1      -6.448   3.973 -16.502  1.00  0.00     0.039 A 
HETATM   23  C4  UNL     1      -5.673   3.432 -15.506  1.00  0.00     0.072 A 
HETATM   24  C21 UNL     1      -6.281   2.417 -14.751  1.00  0.00     0.063 A 
HETATM   25  C20 UNL     1      -7.561   1.977 -14.975  1.00  0.00     0.070 A 
HETATM   26 CL2  UNL     1      -8.242   0.658 -14.005  1.00  0.00    -0.081 Cl
BRANCH  23  27
HETATM   27  O1  UNL     1      -4.389   3.809 -15.210  1.00  0.00    -0.325 OA
BRANCH  27  28
HETATM   28  C2  UNL     1      -3.173   3.360 -15.653  1.00  0.00     0.162 C 
HETATM   29  C1  UNL     1      -3.355   2.480 -16.874  1.00  0.00     0.063 C 
HETATM   30  C3  UNL     1      -2.125   4.386 -15.925  1.00  0.00     0.063 C 
BRANCH  28  31
HETATM   31  S1  UNL     1      -2.567   2.272 -14.318  1.00  0.00     0.173 S 
HETATM   32  C22 UNL     1      -3.053   0.612 -14.606  1.00  0.00     0.164 C 
HETATM   33  O3  UNL     1      -3.192   2.813 -13.061  1.00  0.00    -0.225 OA
HETATM   34  O4  UNL     1      -1.100   2.479 -14.252  1.00  0.00    -0.225 OA
ENDBRANCH  28  31
ENDBRANCH  27  28
ENDBRANCH  23  27
ENDBRANCH  19  20
ENDBRANCH  16  19
ENDBRANCH   1  11
TORSDOF 6
ENDMDL
MODEL 5
REMARK VINA RESULT: -8.541104435      3.622      4.621
REMARK  6 active torsions:
REMARK  status: ('A' for Active; 'I' for Inactive)
REMARK    1  A    between atoms: C2_2  and  O1_4 
REMARK    2  A    between atoms: C2_2  and  S1_31 
REMARK    3  A    between atoms: O1_4  and  C4_5 
REMARK    4  A    between atoms: C7_8  and  O2_9 
REMARK    5  A    between atoms: O2_9  and  C8_10 
REMARK    6  A    between atoms: C11_15  and  C12_16 
ROOT
HETATM    1  C12 UNL     1     -13.892   1.861 -17.123  1.00  0.00     0.003 A 
HETATM    2  C13 UNL     1     -13.595   2.157 -18.441  1.00  0.00     0.038 A 
HETATM    3  C14 UNL     1     -14.411   1.772 -19.451  1.00  0.00     0.036 A 
HETATM    4 CL1  UNL     1     -14.083   2.121 -21.141  1.00  0.00    -0.084 Cl
HETATM    5  C15 UNL     1     -15.567   1.069 -19.160  1.00  0.00     0.052 A 
HETATM    6  C16 UNL     1     -15.883   0.763 -17.860  1.00  0.00     0.069 A 
HETATM    7  N2  UNL     1     -17.066   0.043 -17.552  1.00  0.00    -0.101 NA
HETATM    8  C17 UNL     1     -15.038   1.164 -16.835  1.00  0.00     0.080 A 
HETATM    9  C18 UNL     1     -15.389   0.855 -15.491  1.00  0.00     0.102 C 
HETATM   10  N3  UNL     1     -15.697   0.612 -14.400  1.00  0.00    -0.191 NA
ENDROOT
BRANCH   1  11
HETATM   11  C11 UNL     1     -12.945   2.292 -16.082  1.00  0.00     0.033 A 
HETATM   12  C10 UNL     1     -13.168   3.422 -15.339  1.00  0.00     0.103 A 
HETATM   13  N1  UNL     1     -12.259   3.749 -14.381  1.00  0.00    -0.372 N 
HETATM   14  C9  UNL     1     -11.163   3.035 -14.123  1.00  0.00     0.128 A 
ATOM     15  H1  UNL     1     -12.426   4.589 -13.828  1.00  0.00     0.164 HD
HETATM   16  C8  UNL     1     -10.901   1.900 -14.839  1.00  0.00     0.131 A 
HETATM   17  C19 UNL     1     -11.817   1.546 -15.824  1.00  0.00     0.164 A 
HETATM   18  F1  UNL     1     -11.595   0.424 -16.568  1.00  0.00    -0.202 F 
BRANCH  16  19
HETATM   19  O2  UNL     1      -9.810   1.087 -14.658  1.00  0.00    -0.304 OA
BRANCH  19  20
HETATM   20  C7  UNL     1      -8.490   1.497 -14.659  1.00  0.00     0.098 A 
HETATM   21  C6  UNL     1      -8.121   2.633 -15.379  1.00  0.00     0.042 A 
HETATM   22  C5  UNL     1      -6.815   3.101 -15.425  1.00  0.00     0.039 A 
HETATM   23  C4  UNL     1      -5.803   2.460 -14.755  1.00  0.00     0.072 A 
HETATM   24  C21 UNL     1      -6.184   1.317 -14.034  1.00  0.00     0.063 A 
HETATM   25  C20 UNL     1      -7.474   0.852 -13.987  1.00  0.00     0.070 A 
HETATM   26 CL2  UNL     1      -7.866  -0.625 -13.088  1.00  0.00    -0.081 Cl
BRANCH  23  27
HETATM   27  O1  UNL     1      -4.490   2.852 -14.743  1.00  0.00    -0.325 OA
BRANCH  27  28
HETATM   28  C2  UNL     1      -3.424   2.523 -15.539  1.00  0.00     0.162 C 
HETATM   29  C1  UNL     1      -3.123   1.042 -15.421  1.00  0.00     0.063 C 
HETATM   30  C3  UNL     1      -3.503   2.908 -16.977  1.00  0.00     0.063 C 
BRANCH  28  31
HETATM   31  S1  UNL     1      -2.004   3.399 -14.795  1.00  0.00     0.173 S 
HETATM   32  C22 UNL     1      -1.138   4.316 -16.014  1.00  0.00     0.164 C 
HETATM   33  O3  UNL     1      -1.140   2.314 -14.212  1.00  0.00    -0.225 OA
HETATM   34  O4  UNL     1      -2.559   4.217 -13.690  1.00  0.00    -0.225 OA
ENDBRANCH  28  31
ENDBRANCH  27  28
ENDBRANCH  23  27
ENDBRANCH  19  20
ENDBRANCH  16  19
ENDBRANCH   1  11
TORSDOF 6
ENDMDL
