MODEL 1
REMARK VINA RESULT: -8.782493892      0.000      0.000
REMARK  7 active torsions:
REMARK  status: ('A' for Active; 'I' for Inactive)
REMARK    1  A    between atoms: O1_2  and  C2_3 
REMARK    2  A    between atoms: C2_3  and  C3_5 
REMARK    3  A    between atoms: C3_5  and  O3_6 
REMARK    4  A    between atoms: O3_6  and  C4_7 
REMARK    5  A    between atoms: C11_17  and  N2_18 
REMARK    6  A    between atoms: C12_20  and  S1_21 
REMARK    7  A    between atoms: S1_21  and  C13_24 
ROOT
HETATM    1  C4  UNL     1      -5.189   2.949 -15.125  1.00  0.00     0.146 A 
HETATM    2  C5  UNL     1      -4.389   3.983 -15.526  1.00  0.00     0.086 A 
HETATM    3  C6  UNL     1      -4.952   5.131 -16.058  1.00  0.00     0.051 A 
HETATM    4  N1  UNL     1      -4.427   6.268 -16.520  1.00  0.00    -0.349 N 
ATOM      5  H1  UNL     1      -3.434   6.500 -16.562  1.00  0.00     0.166 HD
HETATM    6  C7  UNL     1      -5.440   7.053 -16.921  1.00  0.00     0.087 A 
HETATM    7 BR1  UNL     1      -5.238   8.804 -17.668  1.00  0.00    -0.031 Br
HETATM    8  C8  UNL     1      -6.652   6.385 -16.703  1.00  0.00    -0.012 A 
HETATM    9  C9  UNL     1      -7.943   6.960 -17.027  1.00  0.00     0.052 C 
HETATM   10  C10 UNL     1      -6.306   5.164 -16.153  1.00  0.00     0.043 A 
HETATM   11  C11 UNL     1      -7.177   4.124 -15.753  1.00  0.00     0.120 A 
HETATM   12  N3  UNL     1      -6.533   3.043 -15.246  1.00  0.00    -0.322 N 
ATOM     13  H3  UNL     1      -7.097   2.251 -14.936  1.00  0.00     0.169 HD
ENDROOT
BRANCH  11  14
HETATM   14  N2  UNL     1      -8.372   4.279 -15.890  1.00  0.00    -0.342 N 
HETATM   15  C12 UNL     1      -9.637   3.960 -15.677  1.00  0.00     0.205 C 
ATOM     16  H2  UNL     1      -8.435   5.096 -16.497  1.00  0.00     0.167 HD
BRANCH  15  17
HETATM   17  S1  UNL     1     -10.106   2.646 -14.574  1.00  0.00     0.211 S 
HETATM   18  O4  UNL     1      -8.972   2.324 -13.640  1.00  0.00    -0.217 OA
HETATM   19  O5  UNL     1     -11.314   2.934 -13.774  1.00  0.00    -0.217 OA
BRANCH  17  20
HETATM   20  C13 UNL     1     -10.342   1.222 -15.571  1.00  0.00     0.066 A 
HETATM   21  C14 UNL     1      -9.347   0.300 -15.690  1.00  0.00     0.025 A 
HETATM   22  C15 UNL     1      -9.537  -0.838 -16.487  1.00  0.00     0.027 A 
HETATM   23  C16 UNL     1     -10.754  -0.983 -17.136  1.00  0.00     0.055 A 
HETATM   24 CL1  UNL     1     -11.018  -2.401 -18.141  1.00  0.00    -0.083 Cl
HETATM   25  C17 UNL     1     -11.751  -0.050 -17.010  1.00  0.00     0.057 A 
HETATM   26 CL2  UNL     1     -13.289  -0.224 -17.824  1.00  0.00    -0.083 Cl
HETATM   27  C18 UNL     1     -11.536   1.064 -16.216  1.00  0.00     0.049 A 
ENDBRANCH  17  20
ENDBRANCH  15  17
ENDBRANCH  11  14
BRANCH   1  28
HETATM   28  O3  UNL     1      -4.678   1.771 -14.584  1.00  0.00    -0.326 OA
BRANCH  28  29
HETATM   29  C3  UNL     1      -4.835   1.577 -13.191  1.00  0.00     0.288 C 
BRANCH  29  30
HETATM   30  C2  UNL     1      -5.622   0.340 -12.935  1.00  0.00     0.282 C 
HETATM   31  O2  UNL     1      -6.538   0.021 -13.712  1.00  0.00    -0.263 OA
BRANCH  30  32
HETATM   32  O1  UNL     1      -5.336  -0.446 -11.844  1.00  0.00    -0.325 OA
HETATM   33  C1  UNL     1      -4.098  -1.124 -11.765  1.00  0.00     0.213 C 
ENDBRANCH  30  32
ENDBRANCH  29  30
ENDBRANCH  28  29
ENDBRANCH   1  28
TORSDOF 7
ENDMDL
MODEL 2
REMARK VINA RESULT: -8.585562132      3.989      6.291
REMARK  7 active torsions:
REMARK  status: ('A' for Active; 'I' for Inactive)
REMARK    1  A    between atoms: O1_2  and  C2_3 
REMARK    2  A    between atoms: C2_3  and  C3_5 
REMARK    3  A    between atoms: C3_5  and  O3_6 
REMARK    4  A    between atoms: O3_6  and  C4_7 
REMARK    5  A    between atoms: C11_17  and  N2_18 
REMARK    6  A    between atoms: C12_20  and  S1_21 
REMARK    7  A    between atoms: S1_21  and  C13_24 
ROOT
HETATM    1  C4  UNL     1      -7.365  -0.037 -14.169  1.00  0.00     0.146 A 
HETATM    2  C5  UNL     1      -8.325  -0.725 -14.857  1.00  0.00     0.086 A 
HETATM    3  C6  UNL     1      -9.402  -0.050 -15.409  1.00  0.00     0.051 A 
HETATM    4  N1  UNL     1     -10.462  -0.456 -16.113  1.00  0.00    -0.349 N 
ATOM      5  H1  UNL     1     -10.672  -1.417 -16.386  1.00  0.00     0.166 HD
HETATM    6  C7  UNL     1     -11.201   0.627 -16.399  1.00  0.00     0.087 A 
HETATM    7 BR1  UNL     1     -12.835   0.603 -17.396  1.00  0.00    -0.031 Br
HETATM    8  C8  UNL     1     -10.585   1.760 -15.854  1.00  0.00    -0.012 A 
HETATM    9  C9  UNL     1     -11.129   3.098 -15.984  1.00  0.00     0.052 C 
HETATM   10  C10 UNL     1      -9.442   1.295 -15.230  1.00  0.00     0.043 A 
HETATM   11  C11 UNL     1      -8.476   2.053 -14.529  1.00  0.00     0.120 A 
HETATM   12  N3  UNL     1      -7.461   1.305 -14.026  1.00  0.00    -0.322 N 
ATOM     13  H3  UNL     1      -6.725   1.784 -13.506  1.00  0.00     0.169 HD
ENDROOT
BRANCH  11  14
HETATM   14  N2  UNL     1      -8.627   3.253 -14.441  1.00  0.00    -0.342 N 
HETATM   15  C12 UNL     1      -8.501   4.494 -14.876  1.00  0.00     0.205 C 
ATOM     16  H2  UNL     1      -9.115   3.363 -13.553  1.00  0.00     0.167 HD
BRANCH  15  17
HETATM   17  S1  UNL     1      -7.803   4.871 -16.468  1.00  0.00     0.211 S 
HETATM   18  O4  UNL     1      -8.195   3.819 -17.468  1.00  0.00    -0.217 OA
HETATM   19  O5  UNL     1      -8.187   6.196 -16.995  1.00  0.00    -0.217 OA
BRANCH  17  20
HETATM   20  C13 UNL     1      -6.062   4.753 -16.286  1.00  0.00     0.066 A 
HETATM   21  C14 UNL     1      -5.286   5.865 -16.409  1.00  0.00     0.025 A 
HETATM   22  C15 UNL     1      -3.894   5.768 -16.263  1.00  0.00     0.027 A 
HETATM   23  C16 UNL     1      -3.352   4.521 -15.994  1.00  0.00     0.055 A 
HETATM   24 CL1  UNL     1      -1.611   4.373 -15.806  1.00  0.00    -0.083 Cl
HETATM   25  C17 UNL     1      -4.142   3.405 -15.872  1.00  0.00     0.057 A 
HETATM   26 CL2  UNL     1      -3.468   1.828 -15.534  1.00  0.00    -0.083 Cl
HETATM   27  C18 UNL     1      -5.513   3.530 -16.021  1.00  0.00     0.049 A 
ENDBRANCH  17  20
ENDBRANCH  15  17
ENDBRANCH  11  14
BRANCH   1  28
HETATM   28  O3  UNL     1      -6.261  -0.662 -13.593  1.00  0.00    -0.326 OA
BRANCH  28  29
HETATM   29  C3  UNL     1      -5.409   0.136 -12.793  1.00  0.00     0.288 C 
BRANCH  29  30
HETATM   30  C2  UNL     1      -4.659  -0.722 -11.836  1.00  0.00     0.282 C 
HETATM   31  O2  UNL     1      -5.214  -1.110 -10.793  1.00  0.00    -0.263 OA
BRANCH  30  32
HETATM   32  O1  UNL     1      -3.360  -1.082 -12.104  1.00  0.00    -0.325 OA
HETATM   33  C1  UNL     1      -2.748  -0.675 -13.312  1.00  0.00     0.213 C 
ENDBRANCH  30  32
ENDBRANCH  29  30
ENDBRANCH  28  29
ENDBRANCH   1  28
TORSDOF 7
ENDMDL
MODEL 3
REMARK VINA RESULT: -8.578451727      1.618      1.981
REMARK  7 active torsions:
REMARK  status: ('A' for Active; 'I' for Inactive)
REMARK    1  A    between atoms: O1_2  and  C2_3 
REMARK    2  A    between atoms: C2_3  and  C3_5 
REMARK    3  A    between atoms: C3_5  and  O3_6 
REMARK    4  A    between atoms: O3_6  and  C4_7 
REMARK    5  A    between atoms: C11_17  and  N2_18 
REMARK    6  A    between atoms: C12_20  and  S1_21 
REMARK    7  A    between atoms: S1_21  and  C13_24 
ROOT
HETATM    1  C4  UNL     1      -5.078   3.942 -15.911  1.00  0.00     0.146 A 
HETATM    2  C5  UNL     1      -4.566   5.141 -16.324  1.00  0.00     0.086 A 
HETATM    3  C6  UNL     1      -5.411   6.215 -16.550  1.00  0.00     0.051 A 
HETATM    4  N1  UNL     1      -5.194   7.471 -16.949  1.00  0.00    -0.349 N 
ATOM      5  H1  UNL     1      -4.288   7.883 -17.173  1.00  0.00     0.166 HD
HETATM    6  C7  UNL     1      -6.381   8.094 -17.002  1.00  0.00     0.087 A 
HETATM    7 BR1  UNL     1      -6.636   9.920 -17.516  1.00  0.00    -0.031 Br
HETATM    8  C8  UNL     1      -7.388   7.197 -16.622  1.00  0.00    -0.012 A 
HETATM    9  C9  UNL     1      -8.792   7.556 -16.571  1.00  0.00     0.052 C 
HETATM   10  C10 UNL     1      -6.737   6.009 -16.341  1.00  0.00     0.043 A 
HETATM   11  C11 UNL     1      -7.315   4.792 -15.913  1.00  0.00     0.120 A 
HETATM   12  N3  UNL     1      -6.409   3.800 -15.719  1.00  0.00    -0.322 N 
ATOM     13  H3  UNL     1      -6.754   2.891 -15.410  1.00  0.00     0.169 HD
ENDROOT
BRANCH  11  14
HETATM   14  N2  UNL     1      -8.517   4.739 -15.762  1.00  0.00    -0.342 N 
HETATM   15  C12 UNL     1      -9.626   4.191 -15.297  1.00  0.00     0.205 C 
ATOM     16  H2  UNL     1      -8.854   5.559 -16.266  1.00  0.00     0.167 HD
BRANCH  15  17
HETATM   17  S1  UNL     1      -9.601   2.765 -14.234  1.00  0.00     0.211 S 
HETATM   18  O4  UNL     1      -8.216   2.548 -13.692  1.00  0.00    -0.217 OA
HETATM   19  O5  UNL     1     -10.548   2.842 -13.102  1.00  0.00    -0.217 OA
BRANCH  17  20
HETATM   20  C13 UNL     1      -9.955   1.381 -15.252  1.00  0.00     0.066 A 
HETATM   21  C14 UNL     1      -9.045   0.377 -15.377  1.00  0.00     0.025 A 
HETATM   22  C15 UNL     1      -9.329  -0.729 -16.192  1.00  0.00     0.027 A 
HETATM   23  C16 UNL     1     -10.549  -0.758 -16.849  1.00  0.00     0.055 A 
HETATM   24 CL1  UNL     1     -10.931  -2.133 -17.876  1.00  0.00    -0.083 Cl
HETATM   25  C17 UNL     1     -11.461   0.259 -16.717  1.00  0.00     0.057 A 
HETATM   26 CL2  UNL     1     -13.002   0.233 -17.543  1.00  0.00    -0.083 Cl
HETATM   27  C18 UNL     1     -11.153   1.339 -15.906  1.00  0.00     0.049 A 
ENDBRANCH  17  20
ENDBRANCH  15  17
ENDBRANCH  11  14
BRANCH   1  28
HETATM   28  O3  UNL     1      -4.277   2.828 -15.668  1.00  0.00    -0.326 OA
BRANCH  28  29
HETATM   29  C3  UNL     1      -4.130   2.416 -14.322  1.00  0.00     0.288 C 
BRANCH  29  30
HETATM   30  C2  UNL     1      -2.908   3.029 -13.733  1.00  0.00     0.282 C 
HETATM   31  O2  UNL     1      -3.018   3.970 -12.927  1.00  0.00    -0.263 OA
BRANCH  30  32
HETATM   32  O1  UNL     1      -1.664   2.557 -14.079  1.00  0.00    -0.325 OA
HETATM   33  C1  UNL     1      -1.509   1.217 -14.504  1.00  0.00     0.213 C 
ENDBRANCH  30  32
ENDBRANCH  29  30
ENDBRANCH  28  29
ENDBRANCH   1  28
TORSDOF 7
ENDMDL
MODEL 4
REMARK VINA RESULT: -8.453663906      4.143      6.231
REMARK  7 active torsions:
REMARK  status: ('A' for Active; 'I' for Inactive)
REMARK    1  A    between atoms: O1_2  and  C2_3 
REMARK    2  A    between atoms: C2_3  and  C3_5 
REMARK    3  A    between atoms: C3_5  and  O3_6 
REMARK    4  A    between atoms: O3_6  and  C4_7 
REMARK    5  A    between atoms: C11_17  and  N2_18 
REMARK    6  A    between atoms: C12_20  and  S1_21 
REMARK    7  A    between atoms: S1_21  and  C13_24 
ROOT
HETATM    1  C4  UNL     1      -7.592   0.166 -14.132  1.00  0.00     0.146 A 
HETATM    2  C5  UNL     1      -8.636  -0.445 -14.767  1.00  0.00     0.086 A 
HETATM    3  C6  UNL     1      -9.602   0.315 -15.406  1.00  0.00     0.051 A 
HETATM    4  N1  UNL     1     -10.704  -0.005 -16.089  1.00  0.00    -0.349 N 
ATOM      5  H1  UNL     1     -11.048  -0.950 -16.268  1.00  0.00     0.166 HD
HETATM    6  C7  UNL     1     -11.278   1.136 -16.497  1.00  0.00     0.087 A 
HETATM    7 BR1  UNL     1     -12.892   1.244 -17.520  1.00  0.00    -0.031 Br
HETATM    8  C8  UNL     1     -10.510   2.221 -16.055  1.00  0.00    -0.012 A 
HETATM    9  C9  UNL     1     -10.855   3.602 -16.330  1.00  0.00     0.052 C 
HETATM   10  C10 UNL     1      -9.449   1.664 -15.364  1.00  0.00     0.043 A 
HETATM   11  C11 UNL     1      -8.389   2.344 -14.723  1.00  0.00     0.120 A 
HETATM   12  N3  UNL     1      -7.495   1.515 -14.126  1.00  0.00    -0.322 N 
ATOM     13  H3  UNL     1      -6.702   1.936 -13.641  1.00  0.00     0.169 HD
ENDROOT
BRANCH  11  14
HETATM   14  N2  UNL     1      -8.367   3.556 -14.759  1.00  0.00    -0.342 N 
HETATM   15  C12 UNL     1      -7.973   4.717 -15.254  1.00  0.00     0.205 C 
ATOM     16  H2  UNL     1      -8.988   3.825 -13.995  1.00  0.00     0.167 HD
BRANCH  15  17
HETATM   17  S1  UNL     1      -6.944   4.826 -16.700  1.00  0.00     0.211 S 
HETATM   18  O4  UNL     1      -7.504   3.966 -17.799  1.00  0.00    -0.217 OA
HETATM   19  O5  UNL     1      -6.771   6.200 -17.213  1.00  0.00    -0.217 OA
BRANCH  17  20
HETATM   20  C13 UNL     1      -5.398   4.122 -16.263  1.00  0.00     0.066 A 
HETATM   21  C14 UNL     1      -4.505   3.782 -17.233  1.00  0.00     0.025 A 
HETATM   22  C15 UNL     1      -3.269   3.220 -16.881  1.00  0.00     0.027 A 
HETATM   23  C16 UNL     1      -2.999   3.030 -15.535  1.00  0.00     0.055 A 
HETATM   24 CL1  UNL     1      -1.457   2.327 -15.068  1.00  0.00    -0.083 Cl
HETATM   25  C17 UNL     1      -3.905   3.376 -14.564  1.00  0.00     0.057 A 
HETATM   26 CL2  UNL     1      -3.573   3.139 -12.864  1.00  0.00    -0.083 Cl
HETATM   27  C18 UNL     1      -5.117   3.929 -14.940  1.00  0.00     0.049 A 
ENDBRANCH  17  20
ENDBRANCH  15  17
ENDBRANCH  11  14
BRANCH   1  28
HETATM   28  O3  UNL     1      -6.592  -0.547 -13.473  1.00  0.00    -0.326 OA
BRANCH  28  29
HETATM   29  C3  UNL     1      -5.584   0.202 -12.821  1.00  0.00     0.288 C 
BRANCH  29  30
HETATM   30  C2  UNL     1      -4.683  -0.709 -12.064  1.00  0.00     0.282 C 
HETATM   31  O2  UNL     1      -5.007  -1.088 -10.924  1.00  0.00    -0.263 OA
BRANCH  30  32
HETATM   32  O1  UNL     1      -3.499  -1.129 -12.621  1.00  0.00    -0.325 OA
HETATM   33  C1  UNL     1      -3.063  -0.583 -13.851  1.00  0.00     0.213 C 
ENDBRANCH  30  32
ENDBRANCH  29  30
ENDBRANCH  28  29
ENDBRANCH   1  28
TORSDOF 7
ENDMDL
MODEL 5
REMARK VINA RESULT: -8.399630805      3.377      4.277
REMARK  7 active torsions:
REMARK  status: ('A' for Active; 'I' for Inactive)
REMARK    1  A    between atoms: O1_2  and  C2_3 
REMARK    2  A    between atoms: C2_3  and  C3_5 
REMARK    3  A    between atoms: C3_5  and  O3_6 
REMARK    4  A    between atoms: O3_6  and  C4_7 
REMARK    5  A    between atoms: C11_17  and  N2_18 
REMARK    6  A    between atoms: C12_20  and  S1_21 
REMARK    7  A    between atoms: S1_21  and  C13_24 
ROOT
HETATM    1  C4  UNL     1      -4.823   4.858 -16.402  1.00  0.00     0.146 A 
HETATM    2  C5  UNL     1      -5.013   6.212 -16.379  1.00  0.00     0.086 A 
HETATM    3  C6  UNL     1      -6.288   6.736 -16.513  1.00  0.00     0.051 A 
HETATM    4  N1  UNL     1      -6.758   7.986 -16.527  1.00  0.00    -0.349 N 
ATOM      5  H1  UNL     1      -6.204   8.838 -16.432  1.00  0.00     0.166 HD
HETATM    6  C7  UNL     1      -8.089   7.921 -16.687  1.00  0.00     0.087 A 
HETATM    7 BR1  UNL     1      -9.255   9.436 -16.774  1.00  0.00    -0.031 Br
HETATM    8  C8  UNL     1      -8.475   6.577 -16.778  1.00  0.00    -0.012 A 
HETATM    9  C9  UNL     1      -9.852   6.159 -16.955  1.00  0.00     0.052 C 
HETATM   10  C10 UNL     1      -7.305   5.849 -16.664  1.00  0.00     0.043 A 
HETATM   11  C11 UNL     1      -7.161   4.443 -16.694  1.00  0.00     0.120 A 
HETATM   12  N3  UNL     1      -5.877   4.025 -16.555  1.00  0.00    -0.322 N 
ATOM     13  H3  UNL     1      -5.696   3.021 -16.568  1.00  0.00     0.169 HD
ENDROOT
BRANCH  11  14
HETATM   14  N2  UNL     1      -8.153   3.758 -16.834  1.00  0.00    -0.342 N 
HETATM   15  C12 UNL     1      -9.117   2.970 -16.390  1.00  0.00     0.205 C 
ATOM     16  H2  UNL     1      -8.347   3.828 -17.832  1.00  0.00     0.167 HD
BRANCH  15  17
HETATM   17  S1  UNL     1      -9.315   2.601 -14.662  1.00  0.00     0.211 S 
HETATM   18  O4  UNL     1      -9.096   3.841 -13.839  1.00  0.00    -0.217 OA
HETATM   19  O5  UNL     1     -10.631   2.028 -14.316  1.00  0.00    -0.217 OA
BRANCH  17  20
HETATM   20  C13 UNL     1      -8.020   1.496 -14.239  1.00  0.00     0.066 A 
HETATM   21  C14 UNL     1      -8.204   0.152 -14.361  1.00  0.00     0.025 A 
HETATM   22  C15 UNL     1      -7.168  -0.731 -14.023  1.00  0.00     0.027 A 
HETATM   23  C16 UNL     1      -5.974  -0.191 -13.570  1.00  0.00     0.055 A 
HETATM   24 CL1  UNL     1      -4.659  -1.276 -13.141  1.00  0.00    -0.083 Cl
HETATM   25  C17 UNL     1      -5.797   1.164 -13.451  1.00  0.00     0.057 A 
HETATM   26 CL2  UNL     1      -4.295   1.854 -12.880  1.00  0.00    -0.083 Cl
HETATM   27  C18 UNL     1      -6.837   2.012 -13.792  1.00  0.00     0.049 A 
ENDBRANCH  17  20
ENDBRANCH  15  17
ENDBRANCH  11  14
BRANCH   1  28
HETATM   28  O3  UNL     1      -3.564   4.275 -16.272  1.00  0.00    -0.326 OA
BRANCH  28  29
HETATM   29  C3  UNL     1      -3.026   4.179 -14.967  1.00  0.00     0.288 C 
BRANCH  29  30
HETATM   30  C2  UNL     1      -1.608   3.733 -15.032  1.00  0.00     0.282 C 
HETATM   31  O2  UNL     1      -0.816   4.308 -15.799  1.00  0.00    -0.263 OA
BRANCH  30  32
HETATM   32  O1  UNL     1      -1.176   2.689 -14.248  1.00  0.00    -0.325 OA
HETATM   33  C1  UNL     1      -1.462   1.356 -14.625  1.00  0.00     0.213 C 
ENDBRANCH  30  32
ENDBRANCH  29  30
ENDBRANCH  28  29
ENDBRANCH   1  28
TORSDOF 7
ENDMDL
