MODEL 1
REMARK VINA RESULT: -10.766329977      0.000      0.000
REMARK  6 active torsions:
REMARK  status: ('A' for Active; 'I' for Inactive)
REMARK    1  A    between atoms: S1_2  and  C2_5 
REMARK    2  A    between atoms: C2_5  and  C3_6 
REMARK    3  A    between atoms: C3_6  and  C4_7 
REMARK    4  A    between atoms: C4_7  and  N1_8 
REMARK    5  A    between atoms: C7_16  and  S2_17 
REMARK    6  A    between atoms: S2_17  and  C8_20 
ROOT
HETATM    1  S2  UNL     1      -9.424   3.164 -14.796  1.00  0.00     0.226 S 
HETATM    2  O3  UNL     1      -8.633   3.144 -13.456  1.00  0.00    -0.216 OA
HETATM    3  O4  UNL     1     -10.683   3.455 -14.029  1.00  0.00    -0.216 OA
ENDROOT
BRANCH   1   4
HETATM    4  C7  UNL     1      -9.322   1.489 -15.296  1.00  0.00     0.154 A 
HETATM    5  N1  UNL     1      -8.769   0.413 -14.756  1.00  0.00    -0.280 N 
HETATM    6  N2  UNL     1      -8.983  -0.700 -15.497  1.00  0.00    -0.283 N 
HETATM    7  C5  UNL     1      -9.701  -0.351 -16.559  1.00  0.00     0.116 A 
ATOM      8  H2  UNL     1      -8.653  -1.640 -15.277  1.00  0.00     0.189 HD
HETATM    9  N3  UNL     1     -10.075  -1.189 -17.468  1.00  0.00    -0.384 N 
HETATM   10  C6  UNL     1      -9.928   0.967 -16.475  1.00  0.00     0.093 A 
ATOM     11  H32 UNL     1      -9.902  -2.193 -17.532  1.00  0.00     0.157 HD
ATOM     12  H31 UNL     1     -10.625  -0.922 -18.283  1.00  0.00     0.157 HD
BRANCH   5  13
HETATM   13  C4  UNL     1      -8.009   0.302 -13.486  1.00  0.00     0.151 C 
BRANCH  13  14
HETATM   14  C3  UNL     1      -7.028  -0.812 -13.644  1.00  0.00     0.037 C 
BRANCH  14  15
HETATM   15  C2  UNL     1      -5.611  -0.410 -13.767  1.00  0.00     0.141 C 
BRANCH  15  16
HETATM   16  S1  UNL     1      -4.671  -0.517 -12.313  1.00  0.00     0.140 S 
HETATM   17  C1  UNL     1      -3.317  -1.640 -12.360  1.00  0.00     0.161 C 
HETATM   18  O1  UNL     1      -5.558  -0.827 -11.109  1.00  0.00    -0.228 OA
HETATM   19  O2  UNL     1      -4.082   0.851 -11.987  1.00  0.00    -0.228 OA
ENDBRANCH  15  16
ENDBRANCH  14  15
ENDBRANCH  13  14
ENDBRANCH   5  13
ENDBRANCH   1   4
BRANCH   1  20
HETATM   20  C8  UNL     1      -8.670   4.374 -15.680  1.00  0.00     0.101 A 
HETATM   21  C9  UNL     1      -9.381   5.451 -16.282  1.00  0.00     0.058 A 
HETATM   22 CL1  UNL     1     -11.134   5.407 -16.161  1.00  0.00    -0.083 Cl
HETATM   23  C10 UNL     1      -8.829   6.471 -16.969  1.00  0.00     0.050 A 
HETATM   24  C11 UNL     1      -7.494   6.527 -17.134  1.00  0.00     0.046 A 
HETATM   25 CL2  UNL     1      -6.758   7.825 -18.010  1.00  0.00    -0.083 Cl
HETATM   26  C12 UNL     1      -6.711   5.537 -16.598  1.00  0.00     0.001 A 
HETATM   27  C13 UNL     1      -5.320   5.584 -16.783  1.00  0.00     0.022 A 
HETATM   28  C17 UNL     1      -7.311   4.507 -15.899  1.00  0.00     0.039 A 
HETATM   29  C14 UNL     1      -4.500   4.601 -16.276  1.00  0.00    -0.048 A 
HETATM   30  C15 UNL     1      -5.077   3.564 -15.579  1.00  0.00    -0.012 A 
HETATM   31  C21 UNL     1      -3.045   4.716 -16.509  1.00  0.00     0.039 C 
HETATM   32  C16 UNL     1      -6.471   3.551 -15.414  1.00  0.00     0.136 A 
HETATM   33  C18 UNL     1      -4.241   2.481 -15.013  1.00  0.00     0.042 C 
HETATM   34  F1  UNL     1      -6.943   2.519 -14.769  1.00  0.00    -0.205 F 
HETATM   35  C19 UNL     1      -3.059   2.296 -15.973  1.00  0.00     0.005 C 
HETATM   36  C20 UNL     1      -2.266   3.572 -15.938  1.00  0.00     0.005 C 
ENDBRANCH   1  20
TORSDOF 6
ENDMDL
MODEL 2
REMARK VINA RESULT: -10.674532798      3.027      5.711
REMARK  6 active torsions:
REMARK  status: ('A' for Active; 'I' for Inactive)
REMARK    1  A    between atoms: S1_2  and  C2_5 
REMARK    2  A    between atoms: C2_5  and  C3_6 
REMARK    3  A    between atoms: C3_6  and  C4_7 
REMARK    4  A    between atoms: C4_7  and  N1_8 
REMARK    5  A    between atoms: C7_16  and  S2_17 
REMARK    6  A    between atoms: S2_17  and  C8_20 
ROOT
HETATM    1  S2  UNL     1      -8.980   1.694 -14.235  1.00  0.00     0.226 S 
HETATM    2  O3  UNL     1      -8.907   0.598 -13.133  1.00  0.00    -0.216 OA
HETATM    3  O4  UNL     1      -9.873   2.509 -13.342  1.00  0.00    -0.216 OA
ENDROOT
BRANCH   1   4
HETATM    4  C7  UNL     1      -9.872   0.872 -15.497  1.00  0.00     0.154 A 
HETATM    5  N1  UNL     1     -10.940   1.193 -16.210  1.00  0.00    -0.280 N 
HETATM    6  N2  UNL     1     -11.254   0.242 -17.122  1.00  0.00    -0.283 N 
HETATM    7  C5  UNL     1     -10.366  -0.739 -17.010  1.00  0.00     0.116 A 
ATOM      8  H2  UNL     1     -12.034   0.274 -17.779  1.00  0.00     0.189 HD
HETATM    9  N3  UNL     1     -10.387  -1.802 -17.744  1.00  0.00    -0.384 N 
HETATM   10  C6  UNL     1      -9.510  -0.396 -16.037  1.00  0.00     0.093 A 
ATOM     11  H32 UNL     1     -11.039  -2.062 -18.485  1.00  0.00     0.157 HD
ATOM     12  H31 UNL     1      -9.705  -2.555 -17.658  1.00  0.00     0.157 HD
BRANCH   5  13
HETATM   13  C4  UNL     1     -11.764   2.426 -16.138  1.00  0.00     0.151 C 
BRANCH  13  14
HETATM   14  C3  UNL     1     -12.863   2.178 -15.160  1.00  0.00     0.037 C 
BRANCH  14  15
HETATM   15  C2  UNL     1     -13.721   3.339 -14.845  1.00  0.00     0.141 C 
BRANCH  15  16
HETATM   16  S1  UNL     1     -14.336   3.401 -13.224  1.00  0.00     0.140 S 
HETATM   17  C1  UNL     1     -15.378   4.771 -12.855  1.00  0.00     0.161 C 
HETATM   18  O1  UNL     1     -13.200   3.328 -12.206  1.00  0.00    -0.228 OA
HETATM   19  O2  UNL     1     -15.158   2.149 -12.944  1.00  0.00    -0.228 OA
ENDBRANCH  15  16
ENDBRANCH  14  15
ENDBRANCH  13  14
ENDBRANCH   5  13
ENDBRANCH   1   4
BRANCH   1  20
HETATM   20  C8  UNL     1      -7.377   2.135 -14.459  1.00  0.00     0.101 A 
HETATM   21  C9  UNL     1      -6.285   1.336 -14.017  1.00  0.00     0.058 A 
HETATM   22 CL1  UNL     1      -6.683  -0.110 -13.101  1.00  0.00    -0.083 Cl
HETATM   23  C10 UNL     1      -4.980   1.617 -14.203  1.00  0.00     0.050 A 
HETATM   24  C11 UNL     1      -4.618   2.738 -14.855  1.00  0.00     0.046 A 
HETATM   25 CL2  UNL     1      -2.950   3.123 -15.108  1.00  0.00    -0.083 Cl
HETATM   26  C12 UNL     1      -5.591   3.584 -15.321  1.00  0.00     0.001 A 
HETATM   27  C13 UNL     1      -5.217   4.763 -15.987  1.00  0.00     0.022 A 
HETATM   28  C17 UNL     1      -6.919   3.264 -15.113  1.00  0.00     0.039 A 
HETATM   29  C14 UNL     1      -6.162   5.646 -16.456  1.00  0.00    -0.048 A 
HETATM   30  C15 UNL     1      -7.491   5.349 -16.258  1.00  0.00    -0.012 A 
HETATM   31  C21 UNL     1      -5.694   6.867 -17.148  1.00  0.00     0.039 C 
HETATM   32  C16 UNL     1      -7.826   4.162 -15.589  1.00  0.00     0.136 A 
HETATM   33  C18 UNL     1      -8.547   6.266 -16.742  1.00  0.00     0.042 C 
HETATM   34  F1  UNL     1      -9.106   3.968 -15.412  1.00  0.00    -0.205 F 
HETATM   35  C19 UNL     1      -7.976   7.685 -16.632  1.00  0.00     0.005 C 
HETATM   36  C20 UNL     1      -6.814   7.762 -17.581  1.00  0.00     0.005 C 
ENDBRANCH   1  20
TORSDOF 6
ENDMDL
MODEL 3
REMARK VINA RESULT: -10.399327316      4.203      6.600
REMARK  6 active torsions:
REMARK  status: ('A' for Active; 'I' for Inactive)
REMARK    1  A    between atoms: S1_2  and  C2_5 
REMARK    2  A    between atoms: C2_5  and  C3_6 
REMARK    3  A    between atoms: C3_6  and  C4_7 
REMARK    4  A    between atoms: C4_7  and  N1_8 
REMARK    5  A    between atoms: C7_16  and  S2_17 
REMARK    6  A    between atoms: S2_17  and  C8_20 
ROOT
HETATM    1  S2  UNL     1      -7.924   5.410 -16.536  1.00  0.00     0.226 S 
HETATM    2  O3  UNL     1      -9.409   5.781 -16.256  1.00  0.00    -0.216 OA
HETATM    3  O4  UNL     1      -7.506   6.751 -16.003  1.00  0.00    -0.216 OA
ENDROOT
BRANCH   1   4
HETATM    4  C7  UNL     1      -7.895   5.350 -18.285  1.00  0.00     0.154 A 
HETATM    5  N1  UNL     1      -8.051   6.268 -19.227  1.00  0.00    -0.280 N 
HETATM    6  N2  UNL     1      -7.901   5.757 -20.472  1.00  0.00    -0.283 N 
HETATM    7  C5  UNL     1      -7.637   4.460 -20.351  1.00  0.00     0.116 A 
ATOM      8  H2  UNL     1      -7.977   6.275 -21.347  1.00  0.00     0.189 HD
HETATM    9  N3  UNL     1      -7.439   3.680 -21.361  1.00  0.00    -0.384 N 
HETATM   10  C6  UNL     1      -7.623   4.174 -19.042  1.00  0.00     0.093 A 
ATOM     11  H32 UNL     1      -7.449   3.899 -22.358  1.00  0.00     0.157 HD
ATOM     12  H31 UNL     1      -7.236   2.685 -21.269  1.00  0.00     0.157 HD
BRANCH   5  13
HETATM   13  C4  UNL     1      -8.329   7.718 -19.070  1.00  0.00     0.151 C 
BRANCH  13  14
HETATM   14  C3  UNL     1      -7.065   8.454 -19.366  1.00  0.00     0.037 C 
BRANCH  14  15
HETATM   15  C2  UNL     1      -6.806   9.649 -18.537  1.00  0.00     0.141 C 
BRANCH  15  16
HETATM   16  S1  UNL     1      -5.307   9.646 -17.663  1.00  0.00     0.140 S 
HETATM   17  C1  UNL     1      -5.327  10.473 -16.110  1.00  0.00     0.161 C 
HETATM   18  O1  UNL     1      -4.171  10.193 -18.525  1.00  0.00    -0.228 OA
HETATM   19  O2  UNL     1      -4.888   8.208 -17.379  1.00  0.00    -0.228 OA
ENDBRANCH  15  16
ENDBRANCH  14  15
ENDBRANCH  13  14
ENDBRANCH   5  13
ENDBRANCH   1   4
BRANCH   1  20
HETATM   20  C8  UNL     1      -7.686   4.023 -15.622  1.00  0.00     0.101 A 
HETATM   21  C9  UNL     1      -8.755   3.296 -15.025  1.00  0.00     0.058 A 
HETATM   22 CL1  UNL     1     -10.364   3.983 -15.183  1.00  0.00    -0.083 Cl
HETATM   23  C10 UNL     1      -8.630   2.157 -14.315  1.00  0.00     0.050 A 
HETATM   24  C11 UNL     1      -7.413   1.614 -14.121  1.00  0.00     0.046 A 
HETATM   25 CL2  UNL     1      -7.224   0.152 -13.216  1.00  0.00    -0.083 Cl
HETATM   26  C12 UNL     1      -6.311   2.234 -14.650  1.00  0.00     0.001 A 
HETATM   27  C13 UNL     1      -5.039   1.680 -14.435  1.00  0.00     0.022 A 
HETATM   28  C17 UNL     1      -6.476   3.401 -15.373  1.00  0.00     0.039 A 
HETATM   29  C14 UNL     1      -3.906   2.281 -14.936  1.00  0.00    -0.048 A 
HETATM   30  C15 UNL     1      -4.047   3.445 -15.656  1.00  0.00    -0.012 A 
HETATM   31  C21 UNL     1      -2.601   1.640 -14.670  1.00  0.00     0.039 C 
HETATM   32  C16 UNL     1      -5.334   3.969 -15.850  1.00  0.00     0.136 A 
HETATM   33  C18 UNL     1      -2.861   4.132 -16.215  1.00  0.00     0.042 C 
HETATM   34  F1  UNL     1      -5.381   5.092 -16.516  1.00  0.00    -0.205 F 
HETATM   35  C19 UNL     1      -1.710   3.884 -15.232  1.00  0.00     0.005 C 
HETATM   36  C20 UNL     1      -1.444   2.404 -15.237  1.00  0.00     0.005 C 
ENDBRANCH   1  20
TORSDOF 6
ENDMDL
MODEL 4
REMARK VINA RESULT: -10.361404470      1.876      2.424
REMARK  6 active torsions:
REMARK  status: ('A' for Active; 'I' for Inactive)
REMARK    1  A    between atoms: S1_2  and  C2_5 
REMARK    2  A    between atoms: C2_5  and  C3_6 
REMARK    3  A    between atoms: C3_6  and  C4_7 
REMARK    4  A    between atoms: C4_7  and  N1_8 
REMARK    5  A    between atoms: C7_16  and  S2_17 
REMARK    6  A    between atoms: S2_17  and  C8_20 
ROOT
HETATM    1  S2  UNL     1      -8.962   3.755 -16.770  1.00  0.00     0.226 S 
HETATM    2  O3  UNL     1     -10.231   4.290 -17.495  1.00  0.00    -0.216 OA
HETATM    3  O4  UNL     1      -8.868   2.652 -17.785  1.00  0.00    -0.216 OA
ENDROOT
BRANCH   1   4
HETATM    4  C7  UNL     1      -9.627   3.204 -15.247  1.00  0.00     0.154 A 
HETATM    5  N1  UNL     1      -9.431   2.121 -14.511  1.00  0.00    -0.280 N 
HETATM    6  N2  UNL     1     -10.150   2.143 -13.363  1.00  0.00    -0.283 N 
HETATM    7  C5  UNL     1     -10.843   3.276 -13.339  1.00  0.00     0.116 A 
ATOM      8  H2  UNL     1     -10.157   1.419 -12.646  1.00  0.00     0.189 HD
HETATM    9  N3  UNL     1     -11.633   3.603 -12.370  1.00  0.00    -0.384 N 
HETATM   10  C6  UNL     1     -10.553   3.948 -14.462  1.00  0.00     0.093 A 
ATOM     11  H32 UNL     1     -11.853   3.091 -11.516  1.00  0.00     0.157 HD
ATOM     12  H31 UNL     1     -12.165   4.472 -12.351  1.00  0.00     0.157 HD
BRANCH   5  13
HETATM   13  C4  UNL     1      -8.537   0.967 -14.782  1.00  0.00     0.151 C 
BRANCH  13  14
HETATM   14  C3  UNL     1      -7.571   0.868 -13.649  1.00  0.00     0.037 C 
BRANCH  14  15
HETATM   15  C2  UNL     1      -6.741  -0.354 -13.614  1.00  0.00     0.141 C 
BRANCH  15  16
HETATM   16  S1  UNL     1      -5.277  -0.241 -12.689  1.00  0.00     0.140 S 
HETATM   17  C1  UNL     1      -3.830  -0.865 -13.472  1.00  0.00     0.161 C 
HETATM   18  O1  UNL     1      -5.445  -0.894 -11.319  1.00  0.00    -0.228 OA
HETATM   19  O2  UNL     1      -4.993   1.221 -12.364  1.00  0.00    -0.228 OA
ENDBRANCH  15  16
ENDBRANCH  14  15
ENDBRANCH  13  14
ENDBRANCH   5  13
ENDBRANCH   1   4
BRANCH   1  20
HETATM   20  C8  UNL     1      -7.900   5.053 -16.827  1.00  0.00     0.101 A 
HETATM   21  C9  UNL     1      -8.303   6.368 -17.194  1.00  0.00     0.058 A 
HETATM   22 CL1  UNL     1      -9.971   6.569 -17.710  1.00  0.00    -0.083 Cl
HETATM   23  C10 UNL     1      -7.506   7.455 -17.220  1.00  0.00     0.050 A 
HETATM   24  C11 UNL     1      -6.207   7.347 -16.882  1.00  0.00     0.046 A 
HETATM   25 CL2  UNL     1      -5.163   8.726 -16.906  1.00  0.00    -0.083 Cl
HETATM   26  C12 UNL     1      -5.711   6.123 -16.516  1.00  0.00     0.001 A 
HETATM   27  C13 UNL     1      -4.353   6.003 -16.179  1.00  0.00     0.022 A 
HETATM   28  C17 UNL     1      -6.557   5.030 -16.500  1.00  0.00     0.039 A 
HETATM   29  C14 UNL     1      -3.812   4.789 -15.821  1.00  0.00    -0.048 A 
HETATM   30  C15 UNL     1      -4.635   3.687 -15.801  1.00  0.00    -0.012 A 
HETATM   31  C21 UNL     1      -2.374   4.739 -15.479  1.00  0.00     0.039 C 
HETATM   32  C16 UNL     1      -5.987   3.845 -16.144  1.00  0.00     0.136 A 
HETATM   33  C18 UNL     1      -4.103   2.357 -15.424  1.00  0.00     0.042 C 
HETATM   34  F1  UNL     1      -6.694   2.747 -16.131  1.00  0.00    -0.205 F 
HETATM   35  C19 UNL     1      -2.650   2.315 -15.914  1.00  0.00     0.005 C 
HETATM   36  C20 UNL     1      -1.899   3.360 -15.139  1.00  0.00     0.005 C 
ENDBRANCH   1  20
TORSDOF 6
ENDMDL
MODEL 5
REMARK VINA RESULT: -10.086585477      3.300      5.996
REMARK  6 active torsions:
REMARK  status: ('A' for Active; 'I' for Inactive)
REMARK    1  A    between atoms: S1_2  and  C2_5 
REMARK    2  A    between atoms: C2_5  and  C3_6 
REMARK    3  A    between atoms: C3_6  and  C4_7 
REMARK    4  A    between atoms: C4_7  and  N1_8 
REMARK    5  A    between atoms: C7_16  and  S2_17 
REMARK    6  A    between atoms: S2_17  and  C8_20 
ROOT
HETATM    1  S2  UNL     1      -9.027   1.625 -14.240  1.00  0.00     0.226 S 
HETATM    2  O3  UNL     1      -8.925   0.541 -13.129  1.00  0.00    -0.216 OA
HETATM    3  O4  UNL     1      -9.938   2.425 -13.352  1.00  0.00    -0.216 OA
ENDROOT
BRANCH   1   4
HETATM    4  C7  UNL     1      -9.901   0.771 -15.493  1.00  0.00     0.154 A 
HETATM    5  N1  UNL     1     -11.030   1.016 -16.141  1.00  0.00    -0.280 N 
HETATM    6  N2  UNL     1     -11.299   0.075 -17.077  1.00  0.00    -0.283 N 
HETATM    7  C5  UNL     1     -10.319  -0.820 -17.049  1.00  0.00     0.116 A 
ATOM      8  H2  UNL     1     -12.111   0.058 -17.694  1.00  0.00     0.189 HD
HETATM    9  N3  UNL     1     -10.278  -1.851 -17.827  1.00  0.00    -0.384 N 
HETATM   10  C6  UNL     1      -9.450  -0.435 -16.104  1.00  0.00     0.093 A 
ATOM     11  H32 UNL     1     -10.939  -2.144 -18.546  1.00  0.00     0.157 HD
ATOM     12  H31 UNL     1      -9.525  -2.539 -17.805  1.00  0.00     0.157 HD
BRANCH   5  13
HETATM   13  C4  UNL     1     -11.961   2.161 -15.977  1.00  0.00     0.151 C 
BRANCH  13  14
HETATM   14  C3  UNL     1     -13.278   1.613 -15.540  1.00  0.00     0.037 C 
BRANCH  14  15
HETATM   15  C2  UNL     1     -14.417   1.874 -16.444  1.00  0.00     0.141 C 
BRANCH  15  16
HETATM   16  S1  UNL     1     -14.671   0.697 -17.693  1.00  0.00     0.140 S 
HETATM   17  C1  UNL     1     -16.285   0.663 -18.394  1.00  0.00     0.161 C 
HETATM   18  O1  UNL     1     -14.287  -0.701 -17.212  1.00  0.00    -0.228 OA
HETATM   19  O2  UNL     1     -13.708   0.962 -18.845  1.00  0.00    -0.228 OA
ENDBRANCH  15  16
ENDBRANCH  14  15
ENDBRANCH  13  14
ENDBRANCH   5  13
ENDBRANCH   1   4
BRANCH   1  20
HETATM   20  C8  UNL     1      -7.436   2.103 -14.472  1.00  0.00     0.101 A 
HETATM   21  C9  UNL     1      -6.324   1.337 -14.021  1.00  0.00     0.058 A 
HETATM   22 CL1  UNL     1      -6.684  -0.107 -13.087  1.00  0.00    -0.083 Cl
HETATM   23  C10 UNL     1      -5.026   1.649 -14.212  1.00  0.00     0.050 A 
HETATM   24  C11 UNL     1      -4.693   2.771 -14.878  1.00  0.00     0.046 A 
HETATM   25 CL2  UNL     1      -3.036   3.195 -15.139  1.00  0.00    -0.083 Cl
HETATM   26  C12 UNL     1      -5.687   3.587 -15.354  1.00  0.00     0.001 A 
HETATM   27  C13 UNL     1      -5.344   4.766 -16.034  1.00  0.00     0.022 A 
HETATM   28  C17 UNL     1      -7.007   3.236 -15.140  1.00  0.00     0.039 A 
HETATM   29  C14 UNL     1      -6.312   5.620 -16.513  1.00  0.00    -0.048 A 
HETATM   30  C15 UNL     1      -7.632   5.292 -16.309  1.00  0.00    -0.012 A 
HETATM   31  C21 UNL     1      -5.876   6.843 -17.219  1.00  0.00     0.039 C 
HETATM   32  C16 UNL     1      -7.937   4.104 -15.625  1.00  0.00     0.136 A 
HETATM   33  C18 UNL     1      -8.712   6.176 -16.803  1.00  0.00     0.042 C 
HETATM   34  F1  UNL     1      -9.211   3.880 -15.444  1.00  0.00    -0.205 F 
HETATM   35  C19 UNL     1      -8.177   7.610 -16.711  1.00  0.00     0.005 C 
HETATM   36  C20 UNL     1      -7.018   7.704 -17.663  1.00  0.00     0.005 C 
ENDBRANCH   1  20
TORSDOF 6
ENDMDL
