MODEL 1
REMARK VINA RESULT: -8.608723442      0.000      0.000
REMARK  7 active torsions:
REMARK  status: ('A' for Active; 'I' for Inactive)
REMARK    1  A    between atoms: C7_8  and  C8_9 
REMARK    2  A    between atoms: C8_9  and  O1_10 
REMARK    3  A    between atoms: O1_10  and  C9_11 
REMARK    4  A    between atoms: C14_18  and  C15_19 
REMARK    5  A    between atoms: C15_19  and  N3_23 
REMARK    6  A    between atoms: N4_26  and  C18_27 
REMARK    7  A    between atoms: C22_34  and  C23_35 
ROOT
HETATM    1  N1  UNL     1      -2.736   4.457 -13.266  1.00  0.00    -0.197 NA
HETATM    2  C1  UNL     1      -3.493   3.741 -13.790  1.00  0.00     0.064 C 
HETATM    3  C2  UNL     1      -4.486   2.839 -14.469  1.00  0.00     0.099 C 
HETATM    4  C3  UNL     1      -3.733   2.124 -15.563  1.00  0.00     0.020 C 
HETATM    5  C4  UNL     1      -3.061   0.876 -15.121  1.00  0.00     0.001 C 
HETATM    6  C5  UNL     1      -2.891   0.864 -13.641  1.00  0.00     0.001 C 
HETATM    7  C6  UNL     1      -4.133   1.050 -12.852  1.00  0.00     0.008 C 
HETATM    8  C7  UNL     1      -5.159   1.983 -13.483  1.00  0.00     0.028 C 
ENDROOT
BRANCH   8   9
HETATM    9  C8  UNL     1      -6.323   1.139 -13.895  1.00  0.00     0.181 C 
BRANCH   9  10
HETATM   10  O1  UNL     1      -7.442   1.600 -14.400  1.00  0.00    -0.350 OA
BRANCH  10  11
HETATM   11  C9  UNL     1      -8.566   1.425 -15.085  1.00  0.00     0.084 A 
HETATM   12  C10 UNL     1      -9.010   0.222 -15.612  1.00  0.00     0.064 A 
HETATM   13  C11 UNL     1     -10.182   0.151 -16.297  1.00  0.00     0.075 A 
HETATM   14 CL1  UNL     1     -10.755  -1.373 -16.968  1.00  0.00    -0.081 Cl
HETATM   15  C12 UNL     1     -10.983   1.279 -16.497  1.00  0.00     0.139 A 
HETATM   16  F1  UNL     1     -12.146   1.196 -17.180  1.00  0.00    -0.204 F 
HETATM   17  C13 UNL     1     -10.552   2.471 -15.981  1.00  0.00     0.062 A 
HETATM   18  C14 UNL     1      -9.364   2.571 -15.282  1.00  0.00     0.044 A 
BRANCH  18  19
HETATM   19  C15 UNL     1      -8.948   3.864 -14.754  1.00  0.00     0.110 C 
HETATM   20  N2  UNL     1      -9.117   4.105 -13.517  1.00  0.00    -0.385 N 
ATOM     21  H22 UNL     1      -9.539   3.392 -12.922  1.00  0.00     0.157 HD
ATOM     22  H21 UNL     1      -8.826   5.010 -13.148  1.00  0.00     0.157 HD
BRANCH  19  23
HETATM   23  N3  UNL     1      -8.359   4.860 -15.585  1.00  0.00    -0.364 N 
HETATM   24  C16 UNL     1      -9.023   6.131 -15.659  1.00  0.00     0.144 C 
HETATM   25  C17 UNL     1      -8.072   7.257 -15.990  1.00  0.00     0.143 C 
HETATM   26  N4  UNL     1      -7.034   6.862 -16.936  1.00  0.00    -0.376 N 
HETATM   27  C24 UNL     1      -6.244   5.705 -16.568  1.00  0.00     0.143 C 
HETATM   28  C25 UNL     1      -7.141   4.547 -16.292  1.00  0.00     0.144 C 
BRANCH  26  29
HETATM   29  C18 UNL     1      -6.849   7.589 -18.159  1.00  0.00     0.070 A 
HETATM   30  C19 UNL     1      -6.023   8.712 -18.165  1.00  0.00     0.076 A 
HETATM   31 CL2  UNL     1      -5.207   9.214 -16.724  1.00  0.00    -0.080 Cl
HETATM   32  C20 UNL     1      -5.807   9.466 -19.307  1.00  0.00     0.113 A 
HETATM   33  N5  UNL     1      -6.394   9.127 -20.439  1.00  0.00    -0.372 N 
HETATM   34  C21 UNL     1      -7.189   8.064 -20.471  1.00  0.00     0.106 A 
ATOM     35  H5  UNL     1      -6.239   9.679 -21.283  1.00  0.00     0.164 HD
HETATM   36  C22 UNL     1      -7.451   7.256 -19.352  1.00  0.00     0.072 A 
BRANCH  36  37
HETATM   37  C23 UNL     1      -8.325   6.143 -19.538  1.00  0.00     0.268 C 
HETATM   38  N6  UNL     1      -8.003   4.862 -19.978  1.00  0.00    -0.057 NA
HETATM   39  O2  UNL     1      -9.578   6.307 -19.274  1.00  0.00    -0.271 OA
ENDBRANCH  36  37
ENDBRANCH  26  29
ENDBRANCH  19  23
ENDBRANCH  18  19
ENDBRANCH  10  11
ENDBRANCH   9  10
ENDBRANCH   8   9
TORSDOF 7
ENDMDL
MODEL 2
REMARK VINA RESULT: -8.268013970      1.603      2.143
REMARK  7 active torsions:
REMARK  status: ('A' for Active; 'I' for Inactive)
REMARK    1  A    between atoms: C7_8  and  C8_9 
REMARK    2  A    between atoms: C8_9  and  O1_10 
REMARK    3  A    between atoms: O1_10  and  C9_11 
REMARK    4  A    between atoms: C14_18  and  C15_19 
REMARK    5  A    between atoms: C15_19  and  N3_23 
REMARK    6  A    between atoms: N4_26  and  C18_27 
REMARK    7  A    between atoms: C22_34  and  C23_35 
ROOT
HETATM    1  N1  UNL     1      -2.988   4.164 -12.905  1.00  0.00    -0.197 NA
HETATM    2  C1  UNL     1      -3.686   3.421 -13.473  1.00  0.00     0.064 C 
HETATM    3  C2  UNL     1      -4.603   2.484 -14.209  1.00  0.00     0.099 C 
HETATM    4  C3  UNL     1      -3.772   1.835 -15.288  1.00  0.00     0.020 C 
HETATM    5  C4  UNL     1      -3.051   0.614 -14.847  1.00  0.00     0.001 C 
HETATM    6  C5  UNL     1      -2.937   0.577 -13.362  1.00  0.00     0.001 C 
HETATM    7  C6  UNL     1      -4.215   0.680 -12.617  1.00  0.00     0.008 C 
HETATM    8  C7  UNL     1      -5.265   1.571 -13.267  1.00  0.00     0.028 C 
ENDROOT
BRANCH   8   9
HETATM    9  C8  UNL     1      -6.367   0.677 -13.741  1.00  0.00     0.181 C 
BRANCH   9  10
HETATM   10  O1  UNL     1      -7.508   1.091 -14.237  1.00  0.00    -0.350 OA
BRANCH  10  11
HETATM   11  C9  UNL     1      -8.576   0.906 -15.003  1.00  0.00     0.084 A 
HETATM   12  C10 UNL     1      -8.979  -0.304 -15.548  1.00  0.00     0.064 A 
HETATM   13  C11 UNL     1     -10.095  -0.385 -16.318  1.00  0.00     0.075 A 
HETATM   14 CL1  UNL     1     -10.615  -1.917 -17.014  1.00  0.00    -0.081 Cl
HETATM   15  C12 UNL     1     -10.880   0.739 -16.592  1.00  0.00     0.139 A 
HETATM   16  F1  UNL     1     -11.988   0.646 -17.359  1.00  0.00    -0.204 F 
HETATM   17  C13 UNL     1     -10.491   1.938 -16.058  1.00  0.00     0.062 A 
HETATM   18  C14 UNL     1      -9.360   2.048 -15.272  1.00  0.00     0.044 A 
BRANCH  18  19
HETATM   19  C15 UNL     1      -8.986   3.348 -14.729  1.00  0.00     0.110 C 
HETATM   20  N2  UNL     1      -9.123   3.554 -13.482  1.00  0.00    -0.385 N 
ATOM     21  H22 UNL     1      -9.490   2.809 -12.890  1.00  0.00     0.157 HD
ATOM     22  H21 UNL     1      -8.861   4.463 -13.103  1.00  0.00     0.157 HD
BRANCH  19  23
HETATM   23  N3  UNL     1      -8.473   4.388 -15.556  1.00  0.00    -0.364 N 
HETATM   24  C16 UNL     1      -9.197   5.627 -15.578  1.00  0.00     0.144 C 
HETATM   25  C17 UNL     1      -8.311   6.803 -15.916  1.00  0.00     0.143 C 
HETATM   26  N4  UNL     1      -7.289   6.478 -16.905  1.00  0.00    -0.376 N 
HETATM   27  C24 UNL     1      -6.435   5.352 -16.591  1.00  0.00     0.143 C 
HETATM   28  C25 UNL     1      -7.267   4.147 -16.311  1.00  0.00     0.144 C 
BRANCH  26  29
HETATM   29  C18 UNL     1      -7.181   7.240 -18.116  1.00  0.00     0.070 A 
HETATM   30  C19 UNL     1      -7.891   6.829 -19.244  1.00  0.00     0.076 A 
HETATM   31 CL2  UNL     1      -8.911   5.433 -19.183  1.00  0.00    -0.080 Cl
HETATM   32  C20 UNL     1      -7.827   7.511 -20.447  1.00  0.00     0.113 A 
HETATM   33  N5  UNL     1      -7.073   8.589 -20.553  1.00  0.00    -0.372 N 
HETATM   34  C21 UNL     1      -6.382   9.010 -19.500  1.00  0.00     0.106 A 
ATOM     35  H5  UNL     1      -7.021   9.096 -21.437  1.00  0.00     0.164 HD
HETATM   36  C22 UNL     1      -6.402   8.367 -18.251  1.00  0.00     0.072 A 
BRANCH  36  37
HETATM   37  C23 UNL     1      -5.609   8.936 -17.209  1.00  0.00     0.268 C 
HETATM   38  N6  UNL     1      -5.887  10.058 -16.433  1.00  0.00    -0.057 NA
HETATM   39  O2  UNL     1      -4.487   8.365 -16.921  1.00  0.00    -0.271 OA
ENDBRANCH  36  37
ENDBRANCH  26  29
ENDBRANCH  19  23
ENDBRANCH  18  19
ENDBRANCH  10  11
ENDBRANCH   9  10
ENDBRANCH   8   9
TORSDOF 7
ENDMDL
MODEL 3
REMARK VINA RESULT: -8.137592816      2.047      2.582
REMARK  7 active torsions:
REMARK  status: ('A' for Active; 'I' for Inactive)
REMARK    1  A    between atoms: C7_8  and  C8_9 
REMARK    2  A    between atoms: C8_9  and  O1_10 
REMARK    3  A    between atoms: O1_10  and  C9_11 
REMARK    4  A    between atoms: C14_18  and  C15_19 
REMARK    5  A    between atoms: C15_19  and  N3_23 
REMARK    6  A    between atoms: N4_26  and  C18_27 
REMARK    7  A    between atoms: C22_34  and  C23_35 
ROOT
HETATM    1  N1  UNL     1      -3.738   2.961 -12.443  1.00  0.00    -0.197 NA
HETATM    2  C1  UNL     1      -4.294   2.198 -13.129  1.00  0.00     0.064 C 
HETATM    3  C2  UNL     1      -5.023   1.236 -14.024  1.00  0.00     0.099 C 
HETATM    4  C3  UNL     1      -3.972   0.336 -14.628  1.00  0.00     0.020 C 
HETATM    5  C4  UNL     1      -3.640  -0.851 -13.799  1.00  0.00     0.001 C 
HETATM    6  C5  UNL     1      -4.060  -0.640 -12.385  1.00  0.00     0.001 C 
HETATM    7  C6  UNL     1      -5.488  -0.294 -12.185  1.00  0.00     0.008 C 
HETATM    8  C7  UNL     1      -6.100   0.563 -13.285  1.00  0.00     0.028 C 
ENDROOT
BRANCH   8   9
HETATM    9  C8  UNL     1      -7.085  -0.295 -14.013  1.00  0.00     0.181 C 
BRANCH   9  10
HETATM   10  O1  UNL     1      -8.016   0.151 -14.822  1.00  0.00    -0.350 OA
BRANCH  10  11
HETATM   11  C9  UNL     1      -9.084  -0.047 -15.585  1.00  0.00     0.084 A 
HETATM   12  C10 UNL     1      -9.318  -1.166 -16.369  1.00  0.00     0.064 A 
HETATM   13  C11 UNL     1     -10.450  -1.271 -17.114  1.00  0.00     0.075 A 
HETATM   14 CL1  UNL     1     -10.757  -2.689 -18.112  1.00  0.00    -0.081 Cl
HETATM   15  C12 UNL     1     -11.420  -0.263 -17.120  1.00  0.00     0.139 A 
HETATM   16  F1  UNL     1     -12.541  -0.379 -17.864  1.00  0.00    -0.204 F 
HETATM   17  C13 UNL     1     -11.196   0.845 -16.349  1.00  0.00     0.062 A 
HETATM   18  C14 UNL     1     -10.054   0.977 -15.584  1.00  0.00     0.044 A 
BRANCH  18  19
HETATM   19  C15 UNL     1      -9.862   2.180 -14.781  1.00  0.00     0.110 C 
HETATM   20  N2  UNL     1     -10.292   2.193 -13.585  1.00  0.00    -0.385 N 
ATOM     21  H22 UNL     1     -10.761   1.367 -13.213  1.00  0.00     0.157 HD
ATOM     22  H21 UNL     1     -10.158   3.034 -13.024  1.00  0.00     0.157 HD
BRANCH  19  23
HETATM   23  N3  UNL     1      -9.207   3.333 -15.301  1.00  0.00    -0.364 N 
HETATM   24  C16 UNL     1      -8.676   3.243 -16.632  1.00  0.00     0.144 C 
HETATM   25  C17 UNL     1      -8.599   4.589 -17.311  1.00  0.00     0.143 C 
HETATM   26  N4  UNL     1      -8.235   5.666 -16.396  1.00  0.00    -0.376 N 
HETATM   27  C24 UNL     1      -9.065   5.808 -15.218  1.00  0.00     0.143 C 
HETATM   28  C25 UNL     1      -9.120   4.515 -14.478  1.00  0.00     0.144 C 
BRANCH  26  29
HETATM   29  C18 UNL     1      -7.102   6.503 -16.671  1.00  0.00     0.070 A 
HETATM   30  C19 UNL     1      -5.818   5.994 -16.478  1.00  0.00     0.076 A 
HETATM   31 CL2  UNL     1      -5.587   4.367 -15.937  1.00  0.00    -0.080 Cl
HETATM   32  C20 UNL     1      -4.681   6.748 -16.715  1.00  0.00     0.113 A 
HETATM   33  N5  UNL     1      -4.793   7.993 -17.137  1.00  0.00    -0.372 N 
HETATM   34  C21 UNL     1      -6.000   8.512 -17.332  1.00  0.00     0.106 A 
ATOM     35  H5  UNL     1      -3.959   8.553 -17.313  1.00  0.00     0.164 HD
HETATM   36  C22 UNL     1      -7.194   7.804 -17.112  1.00  0.00     0.072 A 
BRANCH  36  37
HETATM   37  C23 UNL     1      -8.419   8.491 -17.366  1.00  0.00     0.268 C 
HETATM   38  N6  UNL     1      -9.344   8.252 -18.379  1.00  0.00    -0.057 NA
HETATM   39  O2  UNL     1      -8.744   9.461 -16.578  1.00  0.00    -0.271 OA
ENDBRANCH  36  37
ENDBRANCH  26  29
ENDBRANCH  19  23
ENDBRANCH  18  19
ENDBRANCH  10  11
ENDBRANCH   9  10
ENDBRANCH   8   9
TORSDOF 7
ENDMDL
MODEL 4
REMARK VINA RESULT: -8.136192055      2.834      3.965
REMARK  7 active torsions:
REMARK  status: ('A' for Active; 'I' for Inactive)
REMARK    1  A    between atoms: C7_8  and  C8_9 
REMARK    2  A    between atoms: C8_9  and  O1_10 
REMARK    3  A    between atoms: O1_10  and  C9_11 
REMARK    4  A    between atoms: C14_18  and  C15_19 
REMARK    5  A    between atoms: C15_19  and  N3_23 
REMARK    6  A    between atoms: N4_26  and  C18_27 
REMARK    7  A    between atoms: C22_34  and  C23_35 
ROOT
HETATM    1  N1  UNL     1      -2.440   0.180 -14.793  1.00  0.00    -0.197 NA
HETATM    2  C1  UNL     1      -3.139   1.114 -14.832  1.00  0.00     0.064 C 
HETATM    3  C2  UNL     1      -4.062   2.299 -14.886  1.00  0.00     0.099 C 
HETATM    4  C3  UNL     1      -3.790   3.108 -13.642  1.00  0.00     0.020 C 
HETATM    5  C4  UNL     1      -2.687   4.092 -13.786  1.00  0.00     0.001 C 
HETATM    6  C5  UNL     1      -1.813   3.738 -14.940  1.00  0.00     0.001 C 
HETATM    7  C6  UNL     1      -2.502   3.589 -16.244  1.00  0.00     0.008 C 
HETATM    8  C7  UNL     1      -3.909   3.010 -16.163  1.00  0.00     0.028 C 
ENDROOT
BRANCH   8   9
HETATM    9  C8  UNL     1      -4.857   4.108 -16.527  1.00  0.00     0.181 C 
BRANCH   9  10
HETATM   10  O1  UNL     1      -6.055   4.265 -16.017  1.00  0.00    -0.350 OA
BRANCH  10  11
HETATM   11  C9  UNL     1      -7.260   3.797 -15.717  1.00  0.00     0.084 A 
HETATM   12  C10 UNL     1      -7.520   2.633 -15.011  1.00  0.00     0.064 A 
HETATM   13  C11 UNL     1      -8.796   2.243 -14.754  1.00  0.00     0.075 A 
HETATM   14 CL1  UNL     1      -9.137   0.767 -13.856  1.00  0.00    -0.081 Cl
HETATM   15  C12 UNL     1      -9.893   2.996 -15.186  1.00  0.00     0.139 A 
HETATM   16  F1  UNL     1     -11.157   2.599 -14.924  1.00  0.00    -0.204 F 
HETATM   17  C13 UNL     1      -9.646   4.146 -15.884  1.00  0.00     0.062 A 
HETATM   18  C14 UNL     1      -8.358   4.564 -16.160  1.00  0.00     0.044 A 
BRANCH  18  19
HETATM   19  C15 UNL     1      -8.147   5.796 -16.910  1.00  0.00     0.110 C 
HETATM   20  N2  UNL     1      -7.766   6.836 -16.285  1.00  0.00    -0.385 N 
ATOM     21  H22 UNL     1      -7.616   6.787 -15.277  1.00  0.00     0.157 HD
ATOM     22  H21 UNL     1      -7.618   7.698 -16.810  1.00  0.00     0.157 HD
BRANCH  19  23
HETATM   23  N3  UNL     1      -8.357   5.864 -18.317  1.00  0.00    -0.364 N 
HETATM   24  C16 UNL     1      -7.508   5.056 -19.147  1.00  0.00     0.144 C 
HETATM   25  C17 UNL     1      -8.166   4.693 -20.457  1.00  0.00     0.143 C 
HETATM   26  N4  UNL     1      -8.990   5.769 -20.996  1.00  0.00    -0.376 N 
HETATM   27  C24 UNL     1     -10.013   6.291 -20.114  1.00  0.00     0.143 C 
HETATM   28  C25 UNL     1      -9.398   6.723 -18.826  1.00  0.00     0.144 C 
BRANCH  26  29
HETATM   29  C18 UNL     1      -8.757   6.270 -22.321  1.00  0.00     0.070 A 
HETATM   30  C19 UNL     1      -7.877   7.336 -22.500  1.00  0.00     0.076 A 
HETATM   31 CL2  UNL     1      -7.053   8.036 -21.149  1.00  0.00    -0.080 Cl
HETATM   32  C20 UNL     1      -7.612   7.875 -23.748  1.00  0.00     0.113 A 
HETATM   33  N5  UNL     1      -8.203   7.377 -24.818  1.00  0.00    -0.372 N 
HETATM   34  C21 UNL     1      -9.049   6.362 -24.686  1.00  0.00     0.106 A 
ATOM     35  H5  UNL     1      -8.013   7.770 -25.740  1.00  0.00     0.164 HD
HETATM   36  C22 UNL     1      -9.362   5.768 -23.451  1.00  0.00     0.072 A 
BRANCH  36  37
HETATM   37  C23 UNL     1     -10.287   4.681 -23.464  1.00  0.00     0.268 C 
HETATM   38  N6  UNL     1     -11.541   4.614 -22.861  1.00  0.00    -0.057 NA
HETATM   39  O2  UNL     1      -9.956   3.610 -24.104  1.00  0.00    -0.271 OA
ENDBRANCH  36  37
ENDBRANCH  26  29
ENDBRANCH  19  23
ENDBRANCH  18  19
ENDBRANCH  10  11
ENDBRANCH   9  10
ENDBRANCH   8   9
TORSDOF 7
ENDMDL
MODEL 5
REMARK VINA RESULT: -8.113568678      2.722      3.883
REMARK  7 active torsions:
REMARK  status: ('A' for Active; 'I' for Inactive)
REMARK    1  A    between atoms: C7_8  and  C8_9 
REMARK    2  A    between atoms: C8_9  and  O1_10 
REMARK    3  A    between atoms: O1_10  and  C9_11 
REMARK    4  A    between atoms: C14_18  and  C15_19 
REMARK    5  A    between atoms: C15_19  and  N3_23 
REMARK    6  A    between atoms: N4_26  and  C18_27 
REMARK    7  A    between atoms: C22_34  and  C23_35 
ROOT
HETATM    1  N1  UNL     1      -2.385   0.164 -14.814  1.00  0.00    -0.197 NA
HETATM    2  C1  UNL     1      -3.087   1.094 -14.875  1.00  0.00     0.064 C 
HETATM    3  C2  UNL     1      -4.014   2.275 -14.959  1.00  0.00     0.099 C 
HETATM    4  C3  UNL     1      -3.822   3.058 -13.683  1.00  0.00     0.020 C 
HETATM    5  C4  UNL     1      -2.720   4.052 -13.741  1.00  0.00     0.001 C 
HETATM    6  C5  UNL     1      -1.776   3.729 -14.847  1.00  0.00     0.001 C 
HETATM    7  C6  UNL     1      -2.386   3.604 -16.193  1.00  0.00     0.008 C 
HETATM    8  C7  UNL     1      -3.790   3.014 -16.209  1.00  0.00     0.028 C 
ENDROOT
BRANCH   8   9
HETATM    9  C8  UNL     1      -4.723   4.114 -16.605  1.00  0.00     0.181 C 
BRANCH   9  10
HETATM   10  O1  UNL     1      -5.972   4.214 -16.220  1.00  0.00    -0.350 OA
BRANCH  10  11
HETATM   11  C9  UNL     1      -7.191   3.704 -16.088  1.00  0.00     0.084 A 
HETATM   12  C10 UNL     1      -7.581   2.787 -15.124  1.00  0.00     0.064 A 
HETATM   13  C11 UNL     1      -8.860   2.330 -15.073  1.00  0.00     0.075 A 
HETATM   14 CL1  UNL     1      -9.365   1.166 -13.852  1.00  0.00    -0.081 Cl
HETATM   15  C12 UNL     1      -9.829   2.763 -15.983  1.00  0.00     0.139 A 
HETATM   16  F1  UNL     1     -11.097   2.302 -15.922  1.00  0.00    -0.204 F 
HETATM   17  C13 UNL     1      -9.453   3.668 -16.938  1.00  0.00     0.062 A 
HETATM   18  C14 UNL     1      -8.160   4.148 -17.012  1.00  0.00     0.044 A 
BRANCH  18  19
HETATM   19  C15 UNL     1      -7.808   5.110 -18.050  1.00  0.00     0.110 C 
HETATM   20  N2  UNL     1      -7.461   4.677 -19.194  1.00  0.00    -0.385 N 
ATOM     21  H22 UNL     1      -7.434   3.671 -19.362  1.00  0.00     0.157 HD
ATOM     22  H21 UNL     1      -7.216   5.350 -19.920  1.00  0.00     0.157 HD
BRANCH  19  23
HETATM   23  N3  UNL     1      -7.845   6.514 -17.816  1.00  0.00    -0.364 N 
HETATM   24  C16 UNL     1      -7.795   7.373 -18.965  1.00  0.00     0.144 C 
HETATM   25  C17 UNL     1      -8.458   8.706 -18.714  1.00  0.00     0.143 C 
HETATM   26  N4  UNL     1      -8.241   9.202 -17.359  1.00  0.00    -0.376 N 
HETATM   27  C24 UNL     1      -8.620   8.306 -16.286  1.00  0.00     0.143 C 
HETATM   28  C25 UNL     1      -7.938   6.992 -16.458  1.00  0.00     0.144 C 
BRANCH  26  29
HETATM   29  C18 UNL     1      -7.664  10.497 -17.142  1.00  0.00     0.070 A 
HETATM   30  C19 UNL     1      -8.501  11.576 -16.859  1.00  0.00     0.076 A 
HETATM   31 CL2  UNL     1     -10.213  11.358 -16.745  1.00  0.00    -0.080 Cl
HETATM   32  C20 UNL     1      -8.012  12.855 -16.647  1.00  0.00     0.113 A 
HETATM   33  N5  UNL     1      -6.715  13.082 -16.711  1.00  0.00    -0.372 N 
HETATM   34  C21 UNL     1      -5.887  12.079 -16.979  1.00  0.00     0.106 A 
ATOM     35  H5  UNL     1      -6.349  14.022 -16.557  1.00  0.00     0.164 HD
HETATM   36  C22 UNL     1      -6.314  10.759 -17.204  1.00  0.00     0.072 A 
BRANCH  36  37
HETATM   37  C23 UNL     1      -5.308   9.784 -17.479  1.00  0.00     0.268 C 
HETATM   38  N6  UNL     1      -4.521   9.660 -18.621  1.00  0.00    -0.057 NA
HETATM   39  O2  UNL     1      -5.071   8.888 -16.580  1.00  0.00    -0.271 OA
ENDBRANCH  36  37
ENDBRANCH  26  29
ENDBRANCH  19  23
ENDBRANCH  18  19
ENDBRANCH  10  11
ENDBRANCH   9  10
ENDBRANCH   8   9
TORSDOF 7
ENDMDL
