MODEL 1
REMARK VINA RESULT: -7.977339878      0.000      0.000
REMARK  10 active torsions:
REMARK  status: ('A' for Active; 'I' for Inactive)
REMARK    1  A    between atoms: C2_2  and  O1_4 
REMARK    2  A    between atoms: O1_4  and  C4_5 
REMARK    3  A    between atoms: C4_5  and  C5_6 
REMARK    4  A    between atoms: C4_5  and  C26_36 
REMARK    5  A    between atoms: C5_6  and  C6_7 
REMARK    6  A    between atoms: C5_6  and  N1_29 
REMARK    7  A    between atoms: C6_7  and  C7_8 
REMARK    8  A    between atoms: C13_14  and  O2_15 
REMARK    9  A    between atoms: C18_21  and  O3_22 
REMARK   10  A    between atoms: O3_22  and  C19_23 
REMARK       I    between atoms: N1_29  and  C23_31 
REMARK       I    between atoms: C23_31  and  N2_33 
ROOT
HETATM    1  C7  UNL     1      -8.547   3.067 -15.289  1.00  0.00     0.017 C 
HETATM    2  C8  UNL     1      -8.200   4.059 -16.369  1.00  0.00     0.010 C 
HETATM    3  C9  UNL     1      -9.464   4.034 -17.203  1.00  0.00     0.011 C 
HETATM    4  C10 UNL     1     -10.609   3.909 -16.202  1.00  0.00    -0.026 C 
HETATM    5  C11 UNL     1     -11.315   5.227 -16.187  1.00  0.00     0.016 C 
HETATM    6  C12 UNL     1      -9.888   3.675 -14.903  1.00  0.00     0.031 C 
HETATM    7  C13 UNL     1     -10.645   2.969 -13.869  1.00  0.00     0.124 C 
HETATM    8  C14 UNL     1     -11.475   1.805 -14.334  1.00  0.00     0.042 C 
HETATM    9  C15 UNL     1     -12.299   2.148 -15.511  1.00  0.00    -0.028 C 
HETATM   10  C16 UNL     1     -13.538   2.925 -15.266  1.00  0.00     0.016 C 
HETATM   11  C17 UNL     1     -12.742   0.902 -16.304  1.00  0.00     0.050 C 
HETATM   12  C18 UNL     1     -13.172   1.587 -17.605  1.00  0.00     0.202 C 
HETATM   13  C21 UNL     1     -12.313   2.830 -17.705  1.00  0.00     0.161 C 
HETATM   14  O5  UNL     1     -12.470   3.632 -18.584  1.00  0.00    -0.295 OA
HETATM   15  C22 UNL     1     -11.392   2.736 -16.569  1.00  0.00     0.075 C 
ENDROOT
BRANCH   1  16
HETATM   16  C6  UNL     1      -7.667   2.979 -14.147  1.00  0.00     0.006 C 
BRANCH  16  17
HETATM   17  C5  UNL     1      -6.470   2.113 -14.078  1.00  0.00     0.048 C 
BRANCH  17  18
HETATM   18  C4  UNL     1      -6.633   0.654 -13.924  1.00  0.00     0.285 C 
BRANCH  18  19
HETATM   19  O1  UNL     1      -5.914   0.231 -12.795  1.00  0.00    -0.336 OA
BRANCH  19  20
HETATM   20  C2  UNL     1      -4.747  -0.452 -12.723  1.00  0.00     0.034 C 
HETATM   21  C1  UNL     1      -4.334  -0.973 -11.577  1.00  0.00     0.045 C 
HETATM   22  C3  UNL     1      -3.842  -0.672 -13.908  1.00  0.00     0.075 C 
ENDBRANCH  19  20
ENDBRANCH  18  19
BRANCH  18  23
HETATM   23  C26 UNL     1      -7.910  -0.036 -14.023  1.00  0.00     0.419 C 
HETATM   24  F1  UNL     1      -8.799   0.091 -12.981  1.00  0.00    -0.168 F 
HETATM   25  F2  UNL     1      -8.560   0.150 -15.248  1.00  0.00    -0.168 F 
HETATM   26  F3  UNL     1      -7.638  -1.412 -14.063  1.00  0.00    -0.168 F 
ENDBRANCH  18  23
ENDBRANCH  17  18
BRANCH  17  27
HETATM   27  N1  UNL     1      -5.403   2.509 -14.968  1.00  0.00    -0.310 N 
HETATM   28  C23 UNL     1      -4.121   2.936 -14.551  1.00  0.00     0.322 C 
HETATM   29  O6  UNL     1      -3.925   2.963 -13.288  1.00  0.00    -0.247 OA
HETATM   30  N2  UNL     1      -3.092   3.319 -15.420  1.00  0.00    -0.343 N 
HETATM   31  C24 UNL     1      -3.312   3.286 -16.850  1.00  0.00     0.154 C 
HETATM   32  C25 UNL     1      -1.818   3.740 -14.920  1.00  0.00     0.154 C 
ATOM     33  H1  UNL     1      -5.587   2.479 -15.970  1.00  0.00     0.170 HD
ENDBRANCH  17  27
ENDBRANCH  16  17
ENDBRANCH   1  16
BRANCH   7  34
HETATM   34  O2  UNL     1     -11.452   3.923 -13.192  1.00  0.00    -0.395 OA
ATOM     35  H2  UNL     1     -11.553   3.633 -12.293  1.00  0.00     0.210 HD
ENDBRANCH   7  34
BRANCH  12  36
HETATM   36  O3  UNL     1     -12.847   0.805 -18.735  1.00  0.00    -0.309 OA
BRANCH  36  37
HETATM   37  C19 UNL     1     -13.299  -0.507 -18.857  1.00  0.00     0.255 C 
HETATM   38  C20 UNL     1     -12.289  -1.612 -18.867  1.00  0.00     0.126 C 
HETATM   39  O4  UNL     1     -14.524  -0.693 -18.950  1.00  0.00    -0.266 OA
ENDBRANCH  36  37
ENDBRANCH  12  36
TORSDOF 10
ENDMDL
MODEL 2
REMARK VINA RESULT: -7.628207824      3.607      6.280
REMARK  10 active torsions:
REMARK  status: ('A' for Active; 'I' for Inactive)
REMARK    1  A    between atoms: C2_2  and  O1_4 
REMARK    2  A    between atoms: O1_4  and  C4_5 
REMARK    3  A    between atoms: C4_5  and  C5_6 
REMARK    4  A    between atoms: C4_5  and  C26_36 
REMARK    5  A    between atoms: C5_6  and  C6_7 
REMARK    6  A    between atoms: C5_6  and  N1_29 
REMARK    7  A    between atoms: C6_7  and  C7_8 
REMARK    8  A    between atoms: C13_14  and  O2_15 
REMARK    9  A    between atoms: C18_21  and  O3_22 
REMARK   10  A    between atoms: O3_22  and  C19_23 
REMARK       I    between atoms: N1_29  and  C23_31 
REMARK       I    between atoms: C23_31  and  N2_33 
ROOT
HETATM    1  C7  UNL     1      -7.886   4.142 -15.237  1.00  0.00     0.017 C 
HETATM    2  C8  UNL     1      -9.290   4.424 -14.768  1.00  0.00     0.010 C 
HETATM    3  C9  UNL     1      -9.476   5.848 -15.250  1.00  0.00     0.011 C 
HETATM    4  C10 UNL     1      -8.774   5.913 -16.603  1.00  0.00    -0.026 C 
HETATM    5  C11 UNL     1      -9.844   6.017 -17.642  1.00  0.00     0.016 C 
HETATM    6  C12 UNL     1      -8.081   4.581 -16.681  1.00  0.00     0.031 C 
HETATM    7  C13 UNL     1      -6.899   4.522 -17.541  1.00  0.00     0.124 C 
HETATM    8  C14 UNL     1      -5.966   5.700 -17.464  1.00  0.00     0.042 C 
HETATM    9  C15 UNL     1      -6.688   6.984 -17.571  1.00  0.00    -0.028 C 
HETATM   10  C16 UNL     1      -7.108   7.413 -18.928  1.00  0.00     0.016 C 
HETATM   11  C17 UNL     1      -5.879   8.164 -16.997  1.00  0.00     0.050 C 
HETATM   12  C18 UNL     1      -7.008   9.191 -16.872  1.00  0.00     0.202 C 
HETATM   13  C21 UNL     1      -8.266   8.376 -16.648  1.00  0.00     0.161 C 
HETATM   14  O5  UNL     1      -9.347   8.894 -16.594  1.00  0.00    -0.295 OA
HETATM   15  C22 UNL     1      -7.796   6.993 -16.542  1.00  0.00     0.075 C 
ENDROOT
BRANCH   1  16
HETATM   16  C6  UNL     1      -7.414   2.777 -15.166  1.00  0.00     0.006 C 
BRANCH  16  17
HETATM   17  C5  UNL     1      -6.657   2.213 -14.028  1.00  0.00     0.048 C 
BRANCH  17  18
HETATM   18  C4  UNL     1      -6.584   0.748 -13.855  1.00  0.00     0.285 C 
BRANCH  18  19
HETATM   19  O1  UNL     1      -5.695   0.455 -12.810  1.00  0.00    -0.336 OA
BRANCH  19  20
HETATM   20  C2  UNL     1      -4.609  -0.353 -12.803  1.00  0.00     0.034 C 
HETATM   21  C1  UNL     1      -4.269  -1.026 -11.713  1.00  0.00     0.045 C 
HETATM   22  C3  UNL     1      -3.718  -0.552 -14.002  1.00  0.00     0.075 C 
ENDBRANCH  19  20
ENDBRANCH  18  19
BRANCH  18  23
HETATM   23  C26 UNL     1      -7.748  -0.124 -13.818  1.00  0.00     0.419 C 
HETATM   24  F1  UNL     1      -8.964   0.400 -14.191  1.00  0.00    -0.168 F 
HETATM   25  F2  UNL     1      -7.543  -1.369 -14.423  1.00  0.00    -0.168 F 
HETATM   26  F3  UNL     1      -7.943  -0.499 -12.479  1.00  0.00    -0.168 F 
ENDBRANCH  18  23
ENDBRANCH  17  18
BRANCH  17  27
HETATM   27  N1  UNL     1      -5.432   2.917 -13.726  1.00  0.00    -0.310 N 
HETATM   28  C23 UNL     1      -4.346   3.067 -14.618  1.00  0.00     0.322 C 
HETATM   29  O6  UNL     1      -4.489   2.526 -15.768  1.00  0.00    -0.247 OA
HETATM   30  N2  UNL     1      -3.162   3.750 -14.317  1.00  0.00    -0.343 N 
HETATM   31  C24 UNL     1      -3.000   4.363 -13.016  1.00  0.00     0.154 C 
HETATM   32  C25 UNL     1      -2.104   3.859 -15.276  1.00  0.00     0.154 C 
ATOM     33  H1  UNL     1      -5.345   3.336 -12.801  1.00  0.00     0.170 HD
ENDBRANCH  17  27
ENDBRANCH  16  17
ENDBRANCH   1  16
BRANCH   7  34
HETATM   34  O2  UNL     1      -7.339   4.316 -18.875  1.00  0.00    -0.395 OA
ATOM     35  H2  UNL     1      -6.584   4.393 -19.447  1.00  0.00     0.210 HD
ENDBRANCH   7  34
BRANCH  12  36
HETATM   36  O3  UNL     1      -6.859   9.989 -15.716  1.00  0.00    -0.309 OA
BRANCH  36  37
HETATM   37  C19 UNL     1      -5.959  11.052 -15.687  1.00  0.00     0.255 C 
HETATM   38  C20 UNL     1      -6.318  12.310 -16.414  1.00  0.00     0.126 C 
HETATM   39  O4  UNL     1      -4.900  10.899 -15.055  1.00  0.00    -0.266 OA
ENDBRANCH  36  37
ENDBRANCH  12  36
TORSDOF 10
ENDMDL
MODEL 3
REMARK VINA RESULT: -7.616852292      2.907      4.608
REMARK  10 active torsions:
REMARK  status: ('A' for Active; 'I' for Inactive)
REMARK    1  A    between atoms: C2_2  and  O1_4 
REMARK    2  A    between atoms: O1_4  and  C4_5 
REMARK    3  A    between atoms: C4_5  and  C5_6 
REMARK    4  A    between atoms: C4_5  and  C26_36 
REMARK    5  A    between atoms: C5_6  and  C6_7 
REMARK    6  A    between atoms: C5_6  and  N1_29 
REMARK    7  A    between atoms: C6_7  and  C7_8 
REMARK    8  A    between atoms: C13_14  and  O2_15 
REMARK    9  A    between atoms: C18_21  and  O3_22 
REMARK   10  A    between atoms: O3_22  and  C19_23 
REMARK       I    between atoms: N1_29  and  C23_31 
REMARK       I    between atoms: C23_31  and  N2_33 
ROOT
HETATM    1  C7  UNL     1     -10.017   2.142 -14.781  1.00  0.00     0.017 C 
HETATM    2  C8  UNL     1      -9.852   1.038 -15.791  1.00  0.00     0.010 C 
HETATM    3  C9  UNL     1     -11.298   0.705 -16.097  1.00  0.00     0.011 C 
HETATM    4  C10 UNL     1     -12.030   2.044 -16.095  1.00  0.00    -0.026 C 
HETATM    5  C11 UNL     1     -12.385   2.345 -17.516  1.00  0.00     0.016 C 
HETATM    6  C12 UNL     1     -10.979   2.996 -15.594  1.00  0.00     0.031 C 
HETATM    7  C13 UNL     1     -11.472   4.212 -14.947  1.00  0.00     0.124 C 
HETATM    8  C14 UNL     1     -12.642   4.040 -14.019  1.00  0.00     0.042 C 
HETATM    9  C15 UNL     1     -13.723   3.242 -14.634  1.00  0.00    -0.028 C 
HETATM   10  C16 UNL     1     -14.604   3.933 -15.607  1.00  0.00     0.016 C 
HETATM   11  C17 UNL     1     -14.669   2.625 -13.584  1.00  0.00     0.050 C 
HETATM   12  C18 UNL     1     -15.357   1.581 -14.468  1.00  0.00     0.202 C 
HETATM   13  C21 UNL     1     -14.336   1.215 -15.525  1.00  0.00     0.161 C 
HETATM   14  O5  UNL     1     -14.606   0.471 -16.427  1.00  0.00    -0.295 OA
HETATM   15  C22 UNL     1     -13.127   1.948 -15.139  1.00  0.00     0.075 C 
ENDROOT
BRANCH   1  16
HETATM   16  C6  UNL     1      -8.840   2.895 -14.408  1.00  0.00     0.006 C 
BRANCH  16  17
HETATM   17  C5  UNL     1      -7.576   2.904 -15.175  1.00  0.00     0.048 C 
BRANCH  17  18
HETATM   18  C4  UNL     1      -7.352   3.942 -16.201  1.00  0.00     0.285 C 
BRANCH  18  19
HETATM   19  O1  UNL     1      -5.975   4.048 -16.451  1.00  0.00    -0.336 OA
BRANCH  19  20
HETATM   20  C2  UNL     1      -5.158   5.121 -16.333  1.00  0.00     0.034 C 
HETATM   21  C1  UNL     1      -3.917   4.984 -15.889  1.00  0.00     0.045 C 
HETATM   22  C3  UNL     1      -5.577   6.524 -16.687  1.00  0.00     0.075 C 
ENDBRANCH  19  20
ENDBRANCH  18  19
BRANCH  18  23
HETATM   23  C26 UNL     1      -8.121   4.047 -17.432  1.00  0.00     0.419 C 
HETATM   24  F1  UNL     1      -8.725   2.911 -17.918  1.00  0.00    -0.168 F 
HETATM   25  F2  UNL     1      -9.013   5.124 -17.453  1.00  0.00    -0.168 F 
HETATM   26  F3  UNL     1      -7.227   4.411 -18.451  1.00  0.00    -0.168 F 
ENDBRANCH  18  23
ENDBRANCH  17  18
BRANCH  17  27
HETATM   27  N1  UNL     1      -6.408   2.568 -14.393  1.00  0.00    -0.310 N 
HETATM   28  C23 UNL     1      -6.167   1.306 -13.805  1.00  0.00     0.322 C 
HETATM   29  O6  UNL     1      -7.068   0.419 -13.996  1.00  0.00    -0.247 OA
HETATM   30  N2  UNL     1      -5.033   0.988 -13.048  1.00  0.00    -0.343 N 
HETATM   31  C24 UNL     1      -4.012   1.990 -12.832  1.00  0.00     0.154 C 
HETATM   32  C25 UNL     1      -4.860  -0.316 -12.483  1.00  0.00     0.154 C 
ATOM     33  H1  UNL     1      -5.707   3.295 -14.255  1.00  0.00     0.170 HD
ENDBRANCH  17  27
ENDBRANCH  16  17
ENDBRANCH   1  16
BRANCH   7  34
HETATM   34  O2  UNL     1     -11.771   5.157 -15.965  1.00  0.00    -0.395 OA
ATOM     35  H2  UNL     1     -11.393   5.990 -15.710  1.00  0.00     0.210 HD
ENDBRANCH   7  34
BRANCH  12  36
HETATM   36  O3  UNL     1     -15.616   0.388 -13.757  1.00  0.00    -0.309 OA
BRANCH  36  37
HETATM   37  C19 UNL     1     -16.615   0.329 -12.788  1.00  0.00     0.255 C 
HETATM   38  C20 UNL     1     -16.881  -0.981 -12.115  1.00  0.00     0.126 C 
HETATM   39  O4  UNL     1     -17.238   1.374 -12.533  1.00  0.00    -0.266 OA
ENDBRANCH  36  37
ENDBRANCH  12  36
TORSDOF 10
ENDMDL
MODEL 4
REMARK VINA RESULT: -7.457506549      3.049      4.669
REMARK  10 active torsions:
REMARK  status: ('A' for Active; 'I' for Inactive)
REMARK    1  A    between atoms: C2_2  and  O1_4 
REMARK    2  A    between atoms: O1_4  and  C4_5 
REMARK    3  A    between atoms: C4_5  and  C5_6 
REMARK    4  A    between atoms: C4_5  and  C26_36 
REMARK    5  A    between atoms: C5_6  and  C6_7 
REMARK    6  A    between atoms: C5_6  and  N1_29 
REMARK    7  A    between atoms: C6_7  and  C7_8 
REMARK    8  A    between atoms: C13_14  and  O2_15 
REMARK    9  A    between atoms: C18_21  and  O3_22 
REMARK   10  A    between atoms: O3_22  and  C19_23 
REMARK       I    between atoms: N1_29  and  C23_31 
REMARK       I    between atoms: C23_31  and  N2_33 
ROOT
HETATM    1  C7  UNL     1      -7.415   4.318 -15.942  1.00  0.00     0.017 C 
HETATM    2  C8  UNL     1      -6.182   5.171 -16.081  1.00  0.00     0.010 C 
HETATM    3  C9  UNL     1      -6.469   5.885 -17.386  1.00  0.00     0.011 C 
HETATM    4  C10 UNL     1      -7.967   6.177 -17.367  1.00  0.00    -0.026 C 
HETATM    5  C11 UNL     1      -8.118   7.652 -17.176  1.00  0.00     0.016 C 
HETATM    6  C12 UNL     1      -8.435   5.429 -16.149  1.00  0.00     0.031 C 
HETATM    7  C13 UNL     1      -9.841   5.027 -16.144  1.00  0.00     0.124 C 
HETATM    8  C14 UNL     1     -10.381   4.492 -17.442  1.00  0.00     0.042 C 
HETATM    9  C15 UNL     1     -10.040   5.365 -18.584  1.00  0.00    -0.028 C 
HETATM   10  C16 UNL     1     -10.850   6.595 -18.761  1.00  0.00     0.016 C 
HETATM   11  C17 UNL     1     -10.113   4.624 -19.934  1.00  0.00     0.050 C 
HETATM   12  C18 UNL     1      -9.332   5.620 -20.796  1.00  0.00     0.202 C 
HETATM   13  C21 UNL     1      -8.362   6.295 -19.849  1.00  0.00     0.161 C 
HETATM   14  O5  UNL     1      -7.657   7.196 -20.210  1.00  0.00    -0.295 OA
HETATM   15  C22 UNL     1      -8.546   5.597 -18.573  1.00  0.00     0.075 C 
ENDROOT
BRANCH   1  16
HETATM   16  C6  UNL     1      -7.629   3.644 -14.681  1.00  0.00     0.006 C 
BRANCH  16  17
HETATM   17  C5  UNL     1      -6.929   2.410 -14.264  1.00  0.00     0.048 C 
BRANCH  17  18
HETATM   18  C4  UNL     1      -7.693   1.156 -14.104  1.00  0.00     0.285 C 
BRANCH  18  19
HETATM   19  O1  UNL     1      -8.319   0.845 -15.321  1.00  0.00    -0.336 OA
BRANCH  19  20
HETATM   20  C2  UNL     1      -9.628   0.612 -15.581  1.00  0.00     0.034 C 
HETATM   21  C1  UNL     1     -10.002  -0.442 -16.292  1.00  0.00     0.045 C 
HETATM   22  C3  UNL     1     -10.740   1.507 -15.098  1.00  0.00     0.075 C 
ENDBRANCH  19  20
ENDBRANCH  18  19
BRANCH  18  23
HETATM   23  C26 UNL     1      -7.167  -0.039 -13.462  1.00  0.00     0.419 C 
HETATM   24  F1  UNL     1      -6.871  -1.124 -14.254  1.00  0.00    -0.168 F 
HETATM   25  F2  UNL     1      -6.124   0.212 -12.564  1.00  0.00    -0.168 F 
HETATM   26  F3  UNL     1      -8.163  -0.519 -12.597  1.00  0.00    -0.168 F 
ENDBRANCH  18  23
ENDBRANCH  17  18
BRANCH  17  27
HETATM   27  N1  UNL     1      -5.619   2.247 -14.850  1.00  0.00    -0.310 N 
HETATM   28  C23 UNL     1      -4.399   2.476 -14.175  1.00  0.00     0.322 C 
HETATM   29  O6  UNL     1      -4.496   2.858 -12.959  1.00  0.00    -0.247 OA
HETATM   30  N2  UNL     1      -3.132   2.316 -14.751  1.00  0.00    -0.343 N 
HETATM   31  C24 UNL     1      -3.021   1.884 -16.128  1.00  0.00     0.154 C 
HETATM   32  C25 UNL     1      -1.939   2.570 -14.001  1.00  0.00     0.154 C 
ATOM     33  H1  UNL     1      -5.571   1.943 -15.822  1.00  0.00     0.170 HD
ENDBRANCH  17  27
ENDBRANCH  16  17
ENDBRANCH   1  16
BRANCH   7  34
HETATM   34  O2  UNL     1     -10.610   6.135 -15.698  1.00  0.00    -0.395 OA
ATOM     35  H2  UNL     1     -11.438   5.803 -15.370  1.00  0.00     0.210 HD
ENDBRANCH   7  34
BRANCH  12  36
HETATM   36  O3  UNL     1      -8.533   4.960 -21.757  1.00  0.00    -0.309 OA
BRANCH  36  37
HETATM   37  C19 UNL     1      -8.745   5.149 -23.121  1.00  0.00     0.255 C 
HETATM   38  C20 UNL     1      -8.719   6.545 -23.660  1.00  0.00     0.126 C 
HETATM   39  O4  UNL     1      -8.945   4.142 -23.822  1.00  0.00    -0.266 OA
ENDBRANCH  36  37
ENDBRANCH  12  36
TORSDOF 10
ENDMDL
MODEL 5
REMARK VINA RESULT: -7.329621420      3.944      6.305
REMARK  10 active torsions:
REMARK  status: ('A' for Active; 'I' for Inactive)
REMARK    1  A    between atoms: C2_2  and  O1_4 
REMARK    2  A    between atoms: O1_4  and  C4_5 
REMARK    3  A    between atoms: C4_5  and  C5_6 
REMARK    4  A    between atoms: C4_5  and  C26_36 
REMARK    5  A    between atoms: C5_6  and  C6_7 
REMARK    6  A    between atoms: C5_6  and  N1_29 
REMARK    7  A    between atoms: C6_7  and  C7_8 
REMARK    8  A    between atoms: C13_14  and  O2_15 
REMARK    9  A    between atoms: C18_21  and  O3_22 
REMARK   10  A    between atoms: O3_22  and  C19_23 
REMARK       I    between atoms: N1_29  and  C23_31 
REMARK       I    between atoms: C23_31  and  N2_33 
ROOT
HETATM    1  C7  UNL     1      -7.392   4.809 -16.191  1.00  0.00     0.017 C 
HETATM    2  C8  UNL     1      -5.953   5.246 -16.102  1.00  0.00     0.010 C 
HETATM    3  C9  UNL     1      -5.901   6.299 -17.190  1.00  0.00     0.011 C 
HETATM    4  C10 UNL     1      -7.240   7.027 -17.115  1.00  0.00    -0.026 C 
HETATM    5  C11 UNL     1      -6.962   8.388 -16.564  1.00  0.00     0.016 C 
HETATM    6  C12 UNL     1      -8.012   6.197 -16.125  1.00  0.00     0.031 C 
HETATM    7  C13 UNL     1      -9.470   6.262 -16.235  1.00  0.00     0.124 C 
HETATM    8  C14 UNL     1     -10.030   6.239 -17.630  1.00  0.00     0.042 C 
HETATM    9  C15 UNL     1      -9.347   7.205 -18.516  1.00  0.00    -0.028 C 
HETATM   10  C16 UNL     1      -9.736   8.631 -18.389  1.00  0.00     0.016 C 
HETATM   11  C17 UNL     1      -9.521   6.859 -20.008  1.00  0.00     0.050 C 
HETATM   12  C18 UNL     1      -8.408   7.737 -20.588  1.00  0.00     0.202 C 
HETATM   13  C21 UNL     1      -7.367   7.838 -19.492  1.00  0.00     0.161 C 
HETATM   14  O5  UNL     1      -6.397   8.535 -19.611  1.00  0.00    -0.295 OA
HETATM   15  C22 UNL     1      -7.859   6.953 -18.433  1.00  0.00     0.075 C 
ENDROOT
BRANCH   1  16
HETATM   16  C6  UNL     1      -7.904   3.960 -15.140  1.00  0.00     0.006 C 
BRANCH  16  17
HETATM   17  C5  UNL     1      -8.596   2.673 -15.368  1.00  0.00     0.048 C 
BRANCH  17  18
HETATM   18  C4  UNL     1      -7.989   1.421 -14.875  1.00  0.00     0.285 C 
BRANCH  18  19
HETATM   19  O1  UNL     1      -7.100   1.724 -13.831  1.00  0.00    -0.336 OA
BRANCH  19  20
HETATM   20  C2  UNL     1      -5.787   1.419 -13.702  1.00  0.00     0.034 C 
HETATM   21  C1  UNL     1      -5.395   0.417 -12.928  1.00  0.00     0.045 C 
HETATM   22  C3  UNL     1      -4.689   2.172 -14.409  1.00  0.00     0.075 C 
ENDBRANCH  19  20
ENDBRANCH  18  19
BRANCH  18  23
HETATM   23  C26 UNL     1      -8.743   0.210 -14.589  1.00  0.00     0.419 C 
HETATM   24  F1  UNL     1      -9.899  -0.017 -15.300  1.00  0.00    -0.168 F 
HETATM   25  F2  UNL     1      -7.960  -0.949 -14.544  1.00  0.00    -0.168 F 
HETATM   26  F3  UNL     1      -9.181   0.296 -13.259  1.00  0.00    -0.168 F 
ENDBRANCH  18  23
ENDBRANCH  17  18
BRANCH  17  27
HETATM   27  N1  UNL     1     -10.032   2.741 -15.228  1.00  0.00    -0.310 N 
HETATM   28  C23 UNL     1     -10.711   3.116 -14.046  1.00  0.00     0.322 C 
HETATM   29  O6  UNL     1      -9.971   3.408 -13.045  1.00  0.00    -0.247 OA
HETATM   30  N2  UNL     1     -12.104   3.180 -13.919  1.00  0.00    -0.343 N 
HETATM   31  C24 UNL     1     -12.943   2.851 -15.051  1.00  0.00     0.154 C 
HETATM   32  C25 UNL     1     -12.718   3.568 -12.686  1.00  0.00     0.154 C 
ATOM     33  H1  UNL     1     -10.598   2.502 -16.042  1.00  0.00     0.170 HD
ENDBRANCH  17  27
ENDBRANCH  16  17
ENDBRANCH   1  16
BRANCH   7  34
HETATM   34  O2  UNL     1      -9.910   7.417 -15.535  1.00  0.00    -0.395 OA
ATOM     35  H2  UNL     1     -10.857   7.453 -15.597  1.00  0.00     0.210 HD
ENDBRANCH   7  34
BRANCH  12  36
HETATM   36  O3  UNL     1      -7.761   7.107 -21.674  1.00  0.00    -0.309 OA
BRANCH  36  37
HETATM   37  C19 UNL     1      -7.627   7.749 -22.903  1.00  0.00     0.255 C 
HETATM   38  C20 UNL     1      -8.217   7.100 -24.116  1.00  0.00     0.126 C 
HETATM   39  O4  UNL     1      -7.021   8.834 -22.927  1.00  0.00    -0.266 OA
ENDBRANCH  36  37
ENDBRANCH  12  36
TORSDOF 10
ENDMDL
