MODEL 1
REMARK VINA RESULT: -8.825074432      0.000      0.000
REMARK  5 active torsions:
REMARK  status: ('A' for Active; 'I' for Inactive)
REMARK    1  A    between atoms: C1_2  and  C2_3 
REMARK       I    between atoms: C1_2  and  N5_19 
REMARK    2  A    between atoms: C2_3  and  N1_4 
REMARK    3  A    between atoms: N5_19  and  N6_21 
REMARK    4  A    between atoms: N6_21  and  C8_22 
REMARK    5  A    between atoms: C10_28  and  O6_29 
ROOT
HETATM    1  N1  UNL     1      19.217  27.476  11.240  1.00  0.00    -0.246 N 
HETATM    2  N2  UNL     1      19.677  28.127  12.291  1.00  0.00    -0.279 N 
ATOM      3  H2  UNL     1      19.844  27.697  13.201  1.00  0.00     0.189 HD
HETATM    4  C3  UNL     1      19.897  29.416  12.023  1.00  0.00     0.145 A 
HETATM    5  N3  UNL     1      20.351  30.471  12.733  1.00  0.00    -0.292 N 
ATOM      6  H3  UNL     1      20.608  30.340  13.711  1.00  0.00     0.172 HD
HETATM    7  C4  UNL     1      20.473  31.708  12.172  1.00  0.00     0.328 A 
HETATM    8  O2  UNL     1      20.908  32.648  12.903  1.00  0.00    -0.247 OA
HETATM    9  N4  UNL     1      20.143  31.918  10.887  1.00  0.00    -0.275 N 
ATOM     10  H4  UNL     1      20.232  32.841  10.460  1.00  0.00     0.173 HD
HETATM   11  C5  UNL     1      19.692  30.863  10.185  1.00  0.00     0.269 A 
HETATM   12  O3  UNL     1      19.371  31.009   8.979  1.00  0.00    -0.267 OA
HETATM   13  C6  UNL     1      19.552  29.593  10.712  1.00  0.00     0.147 A 
HETATM   14  C7  UNL     1      19.133  28.375  10.246  1.00  0.00     0.282 A 
HETATM   15  O4  UNL     1      18.738  28.128   9.101  1.00  0.00    -0.265 OA
ENDROOT
BRANCH   1  16
HETATM   16  C2  UNL     1      18.894  26.076  11.246  1.00  0.00     0.256 C 
BRANCH  16  17
HETATM   17  C1  UNL     1      18.020  25.791  12.421  1.00  0.00     0.253 C 
HETATM   18  O1  UNL     1      18.192  26.445  13.479  1.00  0.00    -0.270 OA
HETATM   19  N5  UNL     1      17.004  24.810  12.380  1.00  0.00    -0.272 N 
ATOM     20  H5  UNL     1      16.846  24.271  11.529  1.00  0.00     0.185 HD
BRANCH  19  21
HETATM   21  N6  UNL     1      16.221  24.585  13.508  1.00  0.00    -0.120 NA
BRANCH  21  22
HETATM   22  C8  UNL     1      15.001  25.338  13.364  1.00  0.00     0.238 C 
HETATM   23  C9  UNL     1      14.352  25.608  14.671  1.00  0.00     0.258 C 
HETATM   24  O5  UNL     1      14.813  25.688  15.832  1.00  0.00    -0.270 OA
HETATM   25  N7  UNL     1      12.969  25.777  14.347  1.00  0.00    -0.270 N 
HETATM   26  N8  UNL     1      12.739  25.363  13.013  1.00  0.00    -0.104 NA
ATOM     27  H7  UNL     1      12.257  26.139  14.982  1.00  0.00     0.185 HD
HETATM   28  C10 UNL     1      13.903  24.564  12.662  1.00  0.00     0.261 C 
BRANCH  28  29
HETATM   29  O6  UNL     1      14.112  24.531  11.288  1.00  0.00    -0.376 OA
ATOM     30  H6  UNL     1      13.343  24.211  10.831  1.00  0.00     0.211 HD
ENDBRANCH  28  29
ENDBRANCH  21  22
ENDBRANCH  19  21
ENDBRANCH  16  17
ENDBRANCH   1  16
TORSDOF 5
ENDMDL
MODEL 2
REMARK VINA RESULT: -8.617152104      1.749      2.697
REMARK  5 active torsions:
REMARK  status: ('A' for Active; 'I' for Inactive)
REMARK    1  A    between atoms: C1_2  and  C2_3 
REMARK       I    between atoms: C1_2  and  N5_19 
REMARK    2  A    between atoms: C2_3  and  N1_4 
REMARK    3  A    between atoms: N5_19  and  N6_21 
REMARK    4  A    between atoms: N6_21  and  C8_22 
REMARK    5  A    between atoms: C10_28  and  O6_29 
ROOT
HETATM    1  N1  UNL     1      18.763  26.797  10.833  1.00  0.00    -0.246 N 
HETATM    2  N2  UNL     1      18.911  27.781   9.966  1.00  0.00    -0.279 N 
ATOM      3  H2  UNL     1      18.691  27.705   8.973  1.00  0.00     0.189 HD
HETATM    4  C3  UNL     1      19.382  28.888  10.544  1.00  0.00     0.145 A 
HETATM    5  N3  UNL     1      19.696  30.127  10.109  1.00  0.00    -0.292 N 
ATOM      6  H3  UNL     1      19.576  30.355   9.123  1.00  0.00     0.172 HD
HETATM    7  C4  UNL     1      20.171  31.081  10.960  1.00  0.00     0.328 A 
HETATM    8  O2  UNL     1      20.442  32.222  10.477  1.00  0.00    -0.247 OA
HETATM    9  N4  UNL     1      20.343  30.818  12.266  1.00  0.00    -0.275 N 
ATOM     10  H4  UNL     1      20.698  31.526  12.909  1.00  0.00     0.173 HD
HETATM   11  C5  UNL     1      20.028  29.581  12.692  1.00  0.00     0.269 A 
HETATM   12  O3  UNL     1      20.171  29.285  13.905  1.00  0.00    -0.267 OA
HETATM   13  C6  UNL     1      19.544  28.584  11.867  1.00  0.00     0.147 A 
HETATM   14  C7  UNL     1      19.154  27.280  12.023  1.00  0.00     0.282 A 
HETATM   15  O4  UNL     1      19.156  26.639  13.080  1.00  0.00    -0.265 OA
ENDROOT
BRANCH   1  16
HETATM   16  C2  UNL     1      18.273  25.492  10.484  1.00  0.00     0.256 C 
BRANCH  16  17
HETATM   17  C1  UNL     1      16.845  25.387  10.905  1.00  0.00     0.253 C 
HETATM   18  O1  UNL     1      15.945  25.568  10.049  1.00  0.00    -0.270 OA
HETATM   19  N5  UNL     1      16.476  25.089  12.235  1.00  0.00    -0.272 N 
ATOM     20  H5  UNL     1      17.193  24.935  12.944  1.00  0.00     0.185 HD
BRANCH  19  21
HETATM   21  N6  UNL     1      15.128  25.007  12.571  1.00  0.00    -0.120 NA
BRANCH  21  22
HETATM   22  C8  UNL     1      15.026  24.980  14.008  1.00  0.00     0.238 C 
HETATM   23  C9  UNL     1      13.633  24.747  14.466  1.00  0.00     0.258 C 
HETATM   24  O5  UNL     1      12.657  24.186  13.919  1.00  0.00    -0.270 OA
HETATM   25  N7  UNL     1      13.590  25.335  15.769  1.00  0.00    -0.270 N 
HETATM   26  N8  UNL     1      14.755  26.113  15.979  1.00  0.00    -0.104 NA
ATOM     27  H7  UNL     1      12.834  25.214  16.443  1.00  0.00     0.185 HD
HETATM   28  C10 UNL     1      15.310  26.322  14.650  1.00  0.00     0.261 C 
BRANCH  28  29
HETATM   29  O6  UNL     1      16.676  26.578  14.696  1.00  0.00    -0.376 OA
ATOM     30  H6  UNL     1      16.967  27.029  13.912  1.00  0.00     0.211 HD
ENDBRANCH  28  29
ENDBRANCH  21  22
ENDBRANCH  19  21
ENDBRANCH  16  17
ENDBRANCH   1  16
TORSDOF 5
ENDMDL
MODEL 3
REMARK VINA RESULT: -8.529410224      1.900      2.879
REMARK  5 active torsions:
REMARK  status: ('A' for Active; 'I' for Inactive)
REMARK    1  A    between atoms: C1_2  and  C2_3 
REMARK       I    between atoms: C1_2  and  N5_19 
REMARK    2  A    between atoms: C2_3  and  N1_4 
REMARK    3  A    between atoms: N5_19  and  N6_21 
REMARK    4  A    between atoms: N6_21  and  C8_22 
REMARK    5  A    between atoms: C10_28  and  O6_29 
ROOT
HETATM    1  N1  UNL     1      18.224  26.681   9.749  1.00  0.00    -0.246 N 
HETATM    2  N2  UNL     1      18.527  27.770   9.069  1.00  0.00    -0.279 N 
ATOM      3  H2  UNL     1      18.322  27.900   8.078  1.00  0.00     0.189 HD
HETATM    4  C3  UNL     1      19.133  28.682   9.832  1.00  0.00     0.145 A 
HETATM    5  N3  UNL     1      19.627  29.922   9.621  1.00  0.00    -0.292 N 
ATOM      6  H3  UNL     1      19.562  30.332   8.690  1.00  0.00     0.172 HD
HETATM    7  C4  UNL     1      20.209  30.636  10.626  1.00  0.00     0.328 A 
HETATM    8  O2  UNL     1      20.647  31.794  10.351  1.00  0.00    -0.247 OA
HETATM    9  N4  UNL     1      20.312  30.127  11.865  1.00  0.00    -0.275 N 
ATOM     10  H4  UNL     1      20.747  30.656  12.622  1.00  0.00     0.173 HD
HETATM   11  C5  UNL     1      19.819  28.892  12.067  1.00  0.00     0.269 A 
HETATM   12  O3  UNL     1      19.892  28.373  13.209  1.00  0.00    -0.267 OA
HETATM   13  C6  UNL     1      19.221  28.133  11.080  1.00  0.00     0.147 A 
HETATM   14  C7  UNL     1      18.650  26.890  11.005  1.00  0.00     0.282 A 
HETATM   15  O4  UNL     1      18.538  26.080  11.933  1.00  0.00    -0.265 OA
ENDROOT
BRANCH   1  16
HETATM   16  C2  UNL     1      17.566  25.538   9.177  1.00  0.00     0.256 C 
BRANCH  16  17
HETATM   17  C1  UNL     1      16.170  25.478   9.699  1.00  0.00     0.253 C 
HETATM   18  O1  UNL     1      15.263  26.087   9.081  1.00  0.00    -0.270 OA
HETATM   19  N5  UNL     1      15.837  24.754  10.866  1.00  0.00    -0.272 N 
ATOM     20  H5  UNL     1      16.559  24.249  11.380  1.00  0.00     0.185 HD
BRANCH  19  21
HETATM   21  N6  UNL     1      14.517  24.735  11.308  1.00  0.00    -0.120 NA
BRANCH  21  22
HETATM   22  C8  UNL     1      14.526  24.506  12.731  1.00  0.00     0.238 C 
HETATM   23  C9  UNL     1      13.395  25.184  13.413  1.00  0.00     0.258 C 
HETATM   24  O5  UNL     1      12.267  25.541  13.006  1.00  0.00    -0.270 OA
HETATM   25  N7  UNL     1      13.861  25.383  14.750  1.00  0.00    -0.270 N 
HETATM   26  N8  UNL     1      15.251  25.119  14.814  1.00  0.00    -0.104 NA
ATOM     27  H7  UNL     1      13.281  25.671  15.538  1.00  0.00     0.185 HD
HETATM   28  C10 UNL     1      15.703  25.154  13.431  1.00  0.00     0.261 C 
BRANCH  28  29
HETATM   29  O6  UNL     1      16.865  24.414  13.248  1.00  0.00    -0.376 OA
ATOM     30  H6  UNL     1      17.064  23.892  14.016  1.00  0.00     0.211 HD
ENDBRANCH  28  29
ENDBRANCH  21  22
ENDBRANCH  19  21
ENDBRANCH  16  17
ENDBRANCH   1  16
TORSDOF 5
ENDMDL
MODEL 4
REMARK VINA RESULT: -8.473469557      1.139      1.150
REMARK  5 active torsions:
REMARK  status: ('A' for Active; 'I' for Inactive)
REMARK    1  A    between atoms: C1_2  and  C2_3 
REMARK       I    between atoms: C1_2  and  N5_19 
REMARK    2  A    between atoms: C2_3  and  N1_4 
REMARK    3  A    between atoms: N5_19  and  N6_21 
REMARK    4  A    between atoms: N6_21  and  C8_22 
REMARK    5  A    between atoms: C10_28  and  O6_29 
ROOT
HETATM    1  N1  UNL     1      19.601  28.266  11.050  1.00  0.00    -0.246 N 
HETATM    2  N2  UNL     1      19.775  29.119  12.042  1.00  0.00    -0.279 N 
ATOM      3  H2  UNL     1      20.051  28.848  12.986  1.00  0.00     0.189 HD
HETATM    4  C3  UNL     1      19.548  30.378  11.663  1.00  0.00     0.145 A 
HETATM    5  N3  UNL     1      19.589  31.579  12.281  1.00  0.00    -0.292 N 
ATOM      6  H3  UNL     1      19.844  31.624  13.267  1.00  0.00     0.172 HD
HETATM    7  C4  UNL     1      19.297  32.732  11.615  1.00  0.00     0.328 A 
HETATM    8  O2  UNL     1      19.359  33.821  12.262  1.00  0.00    -0.247 OA
HETATM    9  N4  UNL     1      18.956  32.712  10.315  1.00  0.00    -0.275 N 
ATOM     10  H4  UNL     1      18.736  33.570   9.810  1.00  0.00     0.173 HD
HETATM   11  C5  UNL     1      18.917  31.512   9.707  1.00  0.00     0.269 A 
HETATM   12  O3  UNL     1      18.604  31.441   8.492  1.00  0.00    -0.267 OA
HETATM   13  C6  UNL     1      19.205  30.319  10.341  1.00  0.00     0.147 A 
HETATM   14  C7  UNL     1      19.245  28.998   9.982  1.00  0.00     0.282 A 
HETATM   15  O4  UNL     1      18.995  28.538   8.862  1.00  0.00    -0.265 OA
ENDROOT
BRANCH   1  16
HETATM   16  C2  UNL     1      19.778  26.846  11.177  1.00  0.00     0.256 C 
BRANCH  16  17
HETATM   17  C1  UNL     1      18.930  26.356  12.303  1.00  0.00     0.253 C 
HETATM   18  O1  UNL     1      19.149  26.788  13.461  1.00  0.00    -0.270 OA
HETATM   19  N5  UNL     1      17.889  25.422  12.106  1.00  0.00    -0.272 N 
ATOM     20  H5  UNL     1      17.693  25.062  11.172  1.00  0.00     0.185 HD
BRANCH  19  21
HETATM   21  N6  UNL     1      17.132  24.998  13.194  1.00  0.00    -0.120 NA
BRANCH  21  22
HETATM   22  C8  UNL     1      15.821  25.587  13.085  1.00  0.00     0.238 C 
HETATM   23  C9  UNL     1      15.360  26.168  14.370  1.00  0.00     0.258 C 
HETATM   24  O5  UNL     1      15.985  26.607  15.361  1.00  0.00    -0.270 OA
HETATM   25  N7  UNL     1      13.933  26.135  14.277  1.00  0.00    -0.270 N 
HETATM   26  N8  UNL     1      13.547  25.343  13.168  1.00  0.00    -0.104 NA
ATOM     27  H7  UNL     1      13.291  26.608  14.913  1.00  0.00     0.185 HD
HETATM   28  C10 UNL     1      14.730  24.566  12.832  1.00  0.00     0.261 C 
BRANCH  28  29
HETATM   29  O6  UNL     1      14.721  24.160  11.502  1.00  0.00    -0.376 OA
ATOM     30  H6  UNL     1      13.964  23.617  11.315  1.00  0.00     0.211 HD
ENDBRANCH  28  29
ENDBRANCH  21  22
ENDBRANCH  19  21
ENDBRANCH  16  17
ENDBRANCH   1  16
TORSDOF 5
ENDMDL
MODEL 5
REMARK VINA RESULT: -8.345537080      1.857      2.905
REMARK  5 active torsions:
REMARK  status: ('A' for Active; 'I' for Inactive)
REMARK    1  A    between atoms: C1_2  and  C2_3 
REMARK       I    between atoms: C1_2  and  N5_19 
REMARK    2  A    between atoms: C2_3  and  N1_4 
REMARK    3  A    between atoms: N5_19  and  N6_21 
REMARK    4  A    between atoms: N6_21  and  C8_22 
REMARK    5  A    between atoms: C10_28  and  O6_29 
ROOT
HETATM    1  N1  UNL     1      18.170  26.041  10.973  1.00  0.00    -0.246 N 
HETATM    2  N2  UNL     1      18.461  26.832   9.957  1.00  0.00    -0.279 N 
ATOM      3  H2  UNL     1      18.245  26.613   8.984  1.00  0.00     0.189 HD
HETATM    4  C3  UNL     1      19.070  27.951  10.354  1.00  0.00     0.145 A 
HETATM    5  N3  UNL     1      19.554  29.044   9.725  1.00  0.00    -0.292 N 
ATOM      6  H3  UNL     1      19.477  29.111   8.711  1.00  0.00     0.172 HD
HETATM    7  C4  UNL     1      20.142  30.061  10.417  1.00  0.00     0.328 A 
HETATM    8  O2  UNL     1      20.570  31.055   9.757  1.00  0.00    -0.247 OA
HETATM    9  N4  UNL     1      20.261  30.008  11.754  1.00  0.00    -0.275 N 
ATOM     10  H4  UNL     1      20.700  30.765  12.279  1.00  0.00     0.173 HD
HETATM   11  C5  UNL     1      19.776  28.916  12.373  1.00  0.00     0.269 A 
HETATM   12  O3  UNL     1      19.863  28.820  13.623  1.00  0.00    -0.267 OA
HETATM   13  C6  UNL     1      19.173  27.863  11.714  1.00  0.00     0.147 A 
HETATM   14  C7  UNL     1      18.608  26.669  12.076  1.00  0.00     0.282 A 
HETATM   15  O4  UNL     1      18.510  26.226  13.227  1.00  0.00    -0.265 OA
ENDROOT
BRANCH   1  16
HETATM   16  C2  UNL     1      17.514  24.770  10.834  1.00  0.00     0.256 C 
BRANCH  16  17
HETATM   17  C1  UNL     1      16.066  24.942  11.151  1.00  0.00     0.253 C 
HETATM   18  O1  UNL     1      15.253  25.109  10.209  1.00  0.00    -0.270 OA
HETATM   19  N5  UNL     1      15.582  24.921  12.478  1.00  0.00    -0.272 N 
ATOM     20  H5  UNL     1      16.225  24.783  13.257  1.00  0.00     0.185 HD
BRANCH  19  21
HETATM   21  N6  UNL     1      14.220  25.090  12.714  1.00  0.00    -0.120 NA
BRANCH  21  22
HETATM   22  C8  UNL     1      13.982  24.885  14.120  1.00  0.00     0.238 C 
HETATM   23  C9  UNL     1      14.805  25.787  14.964  1.00  0.00     0.258 C 
HETATM   24  O5  UNL     1      15.319  26.906  14.737  1.00  0.00    -0.270 OA
HETATM   25  N7  UNL     1      14.927  25.090  16.207  1.00  0.00    -0.270 N 
HETATM   26  N8  UNL     1      14.471  23.758  16.052  1.00  0.00    -0.104 NA
ATOM     27  H7  UNL     1      15.288  25.490  17.073  1.00  0.00     0.185 HD
HETATM   28  C10 UNL     1      14.454  23.533  14.614  1.00  0.00     0.261 C 
BRANCH  28  29
HETATM   29  O6  UNL     1      13.560  22.529  14.259  1.00  0.00    -0.376 OA
ATOM     30  H6  UNL     1      13.168  22.703  13.411  1.00  0.00     0.211 HD
ENDBRANCH  28  29
ENDBRANCH  21  22
ENDBRANCH  19  21
ENDBRANCH  16  17
ENDBRANCH   1  16
TORSDOF 5
ENDMDL
