MODEL 1
REMARK VINA RESULT: -6.987437561      0.000      0.000
REMARK  7 active torsions:
REMARK  status: ('A' for Active; 'I' for Inactive)
REMARK       I    between atoms: C1_4  and  N2_5 
REMARK       I    between atoms: C1_4  and  N4_10 
REMARK    1  A    between atoms: N2_5  and  N3_7 
REMARK    2  A    between atoms: N4_10  and  N5_12 
REMARK       I    between atoms: N5_12  and  C2_14 
REMARK       I    between atoms: C2_14  and  N6_16 
REMARK    3  A    between atoms: N6_16  and  C3_18 
REMARK    4  A    between atoms: N9_28  and  C7_29 
REMARK    5  A    between atoms: C7_29  and  O4_30 
REMARK    6  A    between atoms: O4_30  and  C8_31 
REMARK    7  A    between atoms: C8_31  and  O5_32 
ROOT
HETATM    1  C3  UNL     1      10.768  22.228  17.047  1.00  0.00     0.691 A 
HETATM    2  N7  UNL     1       9.559  22.117  17.604  1.00  0.00    -0.154 N 
ATOM      3  H7  UNL     1       9.452  22.176  18.617  1.00  0.00     0.187 HD
HETATM    4  C4  UNL     1       8.478  21.924  16.813  1.00  0.00     0.290 A 
HETATM    5  O2  UNL     1       7.355  21.822  17.360  1.00  0.00    -0.265 OA
HETATM    6  C5  UNL     1       8.602  21.841  15.445  1.00  0.00     0.151 A 
HETATM    7  N8  UNL     1       7.757  21.670  14.416  1.00  0.00    -0.300 N 
ATOM      8  H8  UNL     1       6.749  21.551  14.505  1.00  0.00     0.171 HD
HETATM    9  C6  UNL     1       8.432  21.677  13.241  1.00  0.00     0.330 A 
HETATM   10  O3  UNL     1       7.955  21.545  12.091  1.00  0.00    -0.246 OA
HETATM   11  N9  UNL     1       9.730  21.856  13.535  1.00  0.00    -0.260 N 
HETATM   12  C9  UNL     1       9.851  21.958  14.881  1.00  0.00     0.161 A 
HETATM   13  N10 UNL     1      10.917  22.149  15.687  1.00  0.00    -0.173 N 
ATOM     14  H10 UNL     1      11.847  22.237  15.278  1.00  0.00     0.186 HD
ENDROOT
BRANCH   1  15
HETATM   15  N6  UNL     1      11.818  22.405  17.769  1.00  0.00    -0.140 N 
HETATM   16  C2  UNL     1      13.059  22.688  17.147  1.00  0.00     0.353 C 
HETATM   17  N5  UNL     1      13.282  23.985  16.634  1.00  0.00    -0.237 N 
HETATM   18  O1  UNL     1      13.915  21.766  17.079  1.00  0.00    -0.245 OA
ATOM     19  H5  UNL     1      12.545  24.683  16.719  1.00  0.00     0.192 HD
ATOM     20  H6  UNL     1      11.756  22.342  18.785  1.00  0.00     0.189 HD
BRANCH  17  21
HETATM   21  N4  UNL     1      14.470  24.335  16.020  1.00  0.00    -0.127 N 
HETATM   22  C1  UNL     1      14.778  25.724  15.881  1.00  0.00     0.704 C 
HETATM   23  N1  UNL     1      15.145  26.482  16.839  1.00  0.00    -0.232 N 
HETATM   24  N2  UNL     1      14.661  26.267  14.579  1.00  0.00    -0.138 N 
ATOM     25  H12 UNL     1      15.364  27.473  16.740  1.00  0.00     0.174 HD
ATOM     26  H11 UNL     1      15.229  26.091  17.777  1.00  0.00     0.174 HD
ATOM     27  H2  UNL     1      14.043  27.055  14.383  1.00  0.00     0.205 HD
ATOM     28  H4  UNL     1      15.111  23.621  15.674  1.00  0.00     0.206 HD
BRANCH  24  29
HETATM   29  N3  UNL     1      15.435  25.672  13.575  1.00  0.00    -0.331 N 
ATOM     30  H32 UNL     1      16.383  25.996  13.387  1.00  0.00     0.177 HD
ATOM     31  H31 UNL     1      15.003  24.911  13.052  1.00  0.00     0.177 HD
ENDBRANCH  24  29
ENDBRANCH  17  21
ENDBRANCH   1  15
BRANCH  11  32
HETATM   32  C7  UNL     1      10.842  21.948  12.631  1.00  0.00     0.307 C 
BRANCH  32  33
HETATM   33  O4  UNL     1      12.056  22.185  13.275  1.00  0.00    -0.348 OA
BRANCH  33  34
HETATM   34  C8  UNL     1      12.619  23.381  12.874  1.00  0.00     0.336 C 
BRANCH  34  35
HETATM   35  O5  UNL     1      12.405  24.416  13.784  1.00  0.00    -0.377 OA
ATOM     36  H5  UNL     1      11.496  24.687  13.829  1.00  0.00     0.212 HD
ENDBRANCH  34  35
ENDBRANCH  33  34
ENDBRANCH  32  33
ENDBRANCH  11  32
TORSDOF 7
ENDMDL
MODEL 2
REMARK VINA RESULT: -6.949868582     11.024     13.287
REMARK  7 active torsions:
REMARK  status: ('A' for Active; 'I' for Inactive)
REMARK       I    between atoms: C1_4  and  N2_5 
REMARK       I    between atoms: C1_4  and  N4_10 
REMARK    1  A    between atoms: N2_5  and  N3_7 
REMARK    2  A    between atoms: N4_10  and  N5_12 
REMARK       I    between atoms: N5_12  and  C2_14 
REMARK       I    between atoms: C2_14  and  N6_16 
REMARK    3  A    between atoms: N6_16  and  C3_18 
REMARK    4  A    between atoms: N9_28  and  C7_29 
REMARK    5  A    between atoms: C7_29  and  O4_30 
REMARK    6  A    between atoms: O4_30  and  C8_31 
REMARK    7  A    between atoms: C8_31  and  O5_32 
ROOT
HETATM    1  C3  UNL     1      17.948  28.097   8.697  1.00  0.00     0.691 A 
HETATM    2  N7  UNL     1      18.800  27.234   9.258  1.00  0.00    -0.154 N 
ATOM      3  H7  UNL     1      18.782  26.249   8.996  1.00  0.00     0.187 HD
HETATM    4  C4  UNL     1      19.687  27.680  10.178  1.00  0.00     0.290 A 
HETATM    5  O2  UNL     1      20.475  26.851  10.692  1.00  0.00    -0.265 OA
HETATM    6  C5  UNL     1      19.726  29.006  10.546  1.00  0.00     0.151 A 
HETATM    7  N8  UNL     1      20.463  29.743  11.392  1.00  0.00    -0.300 N 
ATOM      8  H8  UNL     1      21.211  29.378  11.981  1.00  0.00     0.171 HD
HETATM    9  C6  UNL     1      20.076  31.040  11.352  1.00  0.00     0.330 A 
HETATM   10  O3  UNL     1      20.550  31.995  12.010  1.00  0.00    -0.246 OA
HETATM   11  N9  UNL     1      19.072  31.124  10.464  1.00  0.00    -0.260 N 
HETATM   12  C9  UNL     1      18.845  29.886   9.961  1.00  0.00     0.161 A 
HETATM   13  N10 UNL     1      17.968  29.422   9.046  1.00  0.00    -0.173 N 
ATOM     14  H10 UNL     1      17.311  30.067   8.607  1.00  0.00     0.186 HD
ENDROOT
BRANCH   1  15
HETATM   15  N6  UNL     1      17.088  27.707   7.824  1.00  0.00    -0.140 N 
HETATM   16  C2  UNL     1      17.142  28.221   6.505  1.00  0.00     0.353 C 
HETATM   17  N5  UNL     1      18.141  27.742   5.629  1.00  0.00    -0.237 N 
HETATM   18  O1  UNL     1      16.293  29.088   6.169  1.00  0.00    -0.245 OA
ATOM     19  H5  UNL     1      18.801  27.042   5.967  1.00  0.00     0.192 HD
ATOM     20  H6  UNL     1      16.370  27.029   8.080  1.00  0.00     0.189 HD
BRANCH  17  21
HETATM   21  N4  UNL     1      18.252  28.194   4.327  1.00  0.00    -0.127 N 
HETATM   22  C1  UNL     1      18.888  29.453   4.097  1.00  0.00     0.704 C 
HETATM   23  N1  UNL     1      20.145  29.655   4.187  1.00  0.00    -0.232 N 
HETATM   24  N2  UNL     1      18.041  30.531   3.745  1.00  0.00    -0.138 N 
ATOM     25  H12 UNL     1      20.599  30.554   4.024  1.00  0.00     0.174 HD
ATOM     26  H11 UNL     1      20.755  28.878   4.441  1.00  0.00     0.174 HD
ATOM     27  H2  UNL     1      18.009  31.388   4.299  1.00  0.00     0.205 HD
ATOM     28  H4  UNL     1      17.889  27.642   3.550  1.00  0.00     0.206 HD
BRANCH  24  29
HETATM   29  N3  UNL     1      17.251  30.366   2.601  1.00  0.00    -0.331 N 
ATOM     30  H32 UNL     1      17.180  29.457   2.144  1.00  0.00     0.177 HD
ATOM     31  H31 UNL     1      16.759  31.191   2.259  1.00  0.00     0.177 HD
ENDBRANCH  24  29
ENDBRANCH  17  21
ENDBRANCH   1  15
BRANCH  11  32
HETATM   32  C7  UNL     1      18.336  32.289  10.060  1.00  0.00     0.307 C 
BRANCH  32  33
HETATM   33  O4  UNL     1      17.283  32.600  10.920  1.00  0.00    -0.348 OA
BRANCH  33  34
HETATM   34  C8  UNL     1      17.541  33.747  11.645  1.00  0.00     0.336 C 
BRANCH  34  35
HETATM   35  O5  UNL     1      17.152  33.646  12.981  1.00  0.00    -0.377 OA
ATOM     36  H5  UNL     1      17.109  34.488  13.419  1.00  0.00     0.212 HD
ENDBRANCH  34  35
ENDBRANCH  33  34
ENDBRANCH  32  33
ENDBRANCH  11  32
TORSDOF 7
ENDMDL
MODEL 3
REMARK VINA RESULT: -6.877846998      5.966      8.926
REMARK  7 active torsions:
REMARK  status: ('A' for Active; 'I' for Inactive)
REMARK       I    between atoms: C1_4  and  N2_5 
REMARK       I    between atoms: C1_4  and  N4_10 
REMARK    1  A    between atoms: N2_5  and  N3_7 
REMARK    2  A    between atoms: N4_10  and  N5_12 
REMARK       I    between atoms: N5_12  and  C2_14 
REMARK       I    between atoms: C2_14  and  N6_16 
REMARK    3  A    between atoms: N6_16  and  C3_18 
REMARK    4  A    between atoms: N9_28  and  C7_29 
REMARK    5  A    between atoms: C7_29  and  O4_30 
REMARK    6  A    between atoms: O4_30  and  C8_31 
REMARK    7  A    between atoms: C8_31  and  O5_32 
ROOT
HETATM    1  C3  UNL     1      16.412  24.669  10.322  1.00  0.00     0.691 A 
HETATM    2  N7  UNL     1      15.345  24.182   9.682  1.00  0.00    -0.154 N 
ATOM      3  H7  UNL     1      14.886  23.335  10.018  1.00  0.00     0.187 HD
HETATM    4  C4  UNL     1      14.879  24.822   8.585  1.00  0.00     0.290 A 
HETATM    5  O2  UNL     1      13.877  24.344   8.001  1.00  0.00    -0.265 OA
HETATM    6  C5  UNL     1      15.484  25.965   8.116  1.00  0.00     0.151 A 
HETATM    7  N8  UNL     1      15.271  26.812   7.096  1.00  0.00    -0.300 N 
ATOM      8  H8  UNL     1      14.522  26.719   6.410  1.00  0.00     0.171 HD
HETATM    9  C6  UNL     1      16.188  27.808   7.105  1.00  0.00     0.330 A 
HETATM   10  O3  UNL     1      16.281  28.764   6.301  1.00  0.00    -0.246 OA
HETATM   11  N9  UNL     1      16.999  27.585   8.152  1.00  0.00    -0.260 N 
HETATM   12  C9  UNL     1      16.581  26.459   8.782  1.00  0.00     0.161 A 
HETATM   13  N10 UNL     1      17.031  25.807   9.874  1.00  0.00    -0.173 N 
ATOM     14  H10 UNL     1      17.844  26.166  10.375  1.00  0.00     0.186 HD
ENDROOT
BRANCH   1  15
HETATM   15  N6  UNL     1      16.885  24.084  11.364  1.00  0.00    -0.140 N 
HETATM   16  C2  UNL     1      16.438  24.470  12.652  1.00  0.00     0.353 C 
HETATM   17  N5  UNL     1      15.161  24.048  13.083  1.00  0.00    -0.237 N 
HETATM   18  O1  UNL     1      17.202  25.177  13.360  1.00  0.00    -0.245 OA
ATOM     19  H5  UNL     1      14.591  23.479  12.457  1.00  0.00     0.192 HD
ATOM     20  H6  UNL     1      17.580  23.343  11.264  1.00  0.00     0.189 HD
BRANCH  17  21
HETATM   21  N4  UNL     1      14.660  24.381  14.328  1.00  0.00    -0.127 N 
HETATM   22  C1  UNL     1      14.093  25.681  14.505  1.00  0.00     0.704 C 
HETATM   23  N1  UNL     1      12.961  26.045  14.043  1.00  0.00    -0.232 N 
HETATM   24  N2  UNL     1      14.862  26.607  15.249  1.00  0.00    -0.138 N 
ATOM     25  H12 UNL     1      12.556  26.972  14.169  1.00  0.00     0.174 HD
ATOM     26  H11 UNL     1      12.407  25.377  13.506  1.00  0.00     0.174 HD
ATOM     27  H2  UNL     1      15.150  27.503  14.854  1.00  0.00     0.205 HD
ATOM     28  H4  UNL     1      14.695  23.716  15.100  1.00  0.00     0.206 HD
BRANCH  24  29
HETATM   29  N3  UNL     1      15.208  26.235  16.555  1.00  0.00    -0.331 N 
ATOM     30  H32 UNL     1      14.956  26.825  17.348  1.00  0.00     0.177 HD
ATOM     31  H31 UNL     1      15.716  25.358  16.663  1.00  0.00     0.177 HD
ENDBRANCH  24  29
ENDBRANCH  17  21
ENDBRANCH   1  15
BRANCH  11  32
HETATM   32  C7  UNL     1      18.119  28.368   8.593  1.00  0.00     0.307 C 
BRANCH  32  33
HETATM   33  O4  UNL     1      17.757  29.632   9.057  1.00  0.00    -0.348 OA
BRANCH  33  34
HETATM   34  C8  UNL     1      18.553  30.621   8.510  1.00  0.00     0.336 C 
BRANCH  34  35
HETATM   35  O5  UNL     1      18.642  30.542   7.121  1.00  0.00    -0.377 OA
ATOM     36  H5  UNL     1      19.502  30.775   6.791  1.00  0.00     0.212 HD
ENDBRANCH  34  35
ENDBRANCH  33  34
ENDBRANCH  32  33
ENDBRANCH  11  32
TORSDOF 7
ENDMDL
MODEL 4
REMARK VINA RESULT: -6.813848657      8.991     12.104
REMARK  7 active torsions:
REMARK  status: ('A' for Active; 'I' for Inactive)
REMARK       I    between atoms: C1_4  and  N2_5 
REMARK       I    between atoms: C1_4  and  N4_10 
REMARK    1  A    between atoms: N2_5  and  N3_7 
REMARK    2  A    between atoms: N4_10  and  N5_12 
REMARK       I    between atoms: N5_12  and  C2_14 
REMARK       I    between atoms: C2_14  and  N6_16 
REMARK    3  A    between atoms: N6_16  and  C3_18 
REMARK    4  A    between atoms: N9_28  and  C7_29 
REMARK    5  A    between atoms: C7_29  and  O4_30 
REMARK    6  A    between atoms: O4_30  and  C8_31 
REMARK    7  A    between atoms: C8_31  and  O5_32 
ROOT
HETATM    1  C3  UNL     1      18.402  29.576   8.067  1.00  0.00     0.691 A 
HETATM    2  N7  UNL     1      18.488  30.892   8.286  1.00  0.00    -0.154 N 
ATOM      3  H7  UNL     1      18.266  31.553   7.542  1.00  0.00     0.187 HD
HETATM    4  C4  UNL     1      18.873  31.338   9.504  1.00  0.00     0.290 A 
HETATM    5  O2  UNL     1      18.948  32.577   9.684  1.00  0.00    -0.265 OA
HETATM    6  C5  UNL     1      19.176  30.462  10.521  1.00  0.00     0.151 A 
HETATM    7  N8  UNL     1      19.567  30.578  11.800  1.00  0.00    -0.300 N 
ATOM      8  H8  UNL     1      19.728  31.463  12.280  1.00  0.00     0.171 HD
HETATM    9  C6  UNL     1      19.717  29.356  12.364  1.00  0.00     0.330 A 
HETATM   10  O3  UNL     1      20.068  29.099  13.539  1.00  0.00    -0.246 OA
HETATM   11  N9  UNL     1      19.417  28.449  11.421  1.00  0.00    -0.260 N 
HETATM   12  C9  UNL     1      19.083  29.110  10.286  1.00  0.00     0.161 A 
HETATM   13  N10 UNL     1      18.698  28.684   9.064  1.00  0.00    -0.173 N 
ATOM     14  H10 UNL     1      18.626  27.684   8.880  1.00  0.00     0.186 HD
ENDROOT
BRANCH   1  15
HETATM   15  N6  UNL     1      18.045  29.117   6.920  1.00  0.00    -0.140 N 
HETATM   16  C2  UNL     1      17.848  27.724   6.751  1.00  0.00     0.353 C 
HETATM   17  N5  UNL     1      16.674  27.135   7.270  1.00  0.00    -0.237 N 
HETATM   18  O1  UNL     1      18.733  27.067   6.141  1.00  0.00    -0.245 OA
ATOM     19  H5  UNL     1      15.999  27.725   7.757  1.00  0.00     0.192 HD
ATOM     20  H6  UNL     1      17.905  29.753   6.135  1.00  0.00     0.189 HD
BRANCH  17  21
HETATM   21  N4  UNL     1      16.411  25.785   7.138  1.00  0.00    -0.127 N 
HETATM   22  C1  UNL     1      15.126  25.302   7.535  1.00  0.00     0.704 C 
HETATM   23  N1  UNL     1      14.048  25.492   6.879  1.00  0.00    -0.232 N 
HETATM   24  N2  UNL     1      15.076  24.564   8.742  1.00  0.00    -0.138 N 
ATOM     25  H12 UNL     1      13.131  25.147   7.163  1.00  0.00     0.174 HD
ATOM     26  H11 UNL     1      14.084  26.023   6.010  1.00  0.00     0.174 HD
ATOM     27  H2  UNL     1      14.483  24.853   9.521  1.00  0.00     0.205 HD
ATOM     28  H4  UNL     1      17.117  25.149   6.767  1.00  0.00     0.206 HD
BRANCH  24  29
HETATM   29  N3  UNL     1      15.878  23.418   8.815  1.00  0.00    -0.331 N 
ATOM     30  H32 UNL     1      15.476  22.491   8.678  1.00  0.00     0.177 HD
ATOM     31  H31 UNL     1      16.868  23.562   9.011  1.00  0.00     0.177 HD
ENDBRANCH  24  29
ENDBRANCH  17  21
ENDBRANCH   1  15
BRANCH  11  32
HETATM   32  C7  UNL     1      19.413  27.017  11.533  1.00  0.00     0.307 C 
BRANCH  32  33
HETATM   33  O4  UNL     1      19.871  26.375  10.383  1.00  0.00    -0.348 OA
BRANCH  33  34
HETATM   34  C8  UNL     1      19.025  25.350  10.002  1.00  0.00     0.336 C 
BRANCH  34  35
HETATM   35  O5  UNL     1      17.710  25.772   9.816  1.00  0.00    -0.377 OA
ATOM     36  H5  UNL     1      17.102  25.371  10.426  1.00  0.00     0.212 HD
ENDBRANCH  34  35
ENDBRANCH  33  34
ENDBRANCH  32  33
ENDBRANCH  11  32
TORSDOF 7
ENDMDL
MODEL 5
REMARK VINA RESULT: -6.802804891      4.982      8.254
REMARK  7 active torsions:
REMARK  status: ('A' for Active; 'I' for Inactive)
REMARK       I    between atoms: C1_4  and  N2_5 
REMARK       I    between atoms: C1_4  and  N4_10 
REMARK    1  A    between atoms: N2_5  and  N3_7 
REMARK    2  A    between atoms: N4_10  and  N5_12 
REMARK       I    between atoms: N5_12  and  C2_14 
REMARK       I    between atoms: C2_14  and  N6_16 
REMARK    3  A    between atoms: N6_16  and  C3_18 
REMARK    4  A    between atoms: N9_28  and  C7_29 
REMARK    5  A    between atoms: C7_29  and  O4_30 
REMARK    6  A    between atoms: O4_30  and  C8_31 
REMARK    7  A    between atoms: C8_31  and  O5_32 
ROOT
HETATM    1  C3  UNL     1      14.607  24.330  10.280  1.00  0.00     0.691 A 
HETATM    2  N7  UNL     1      13.970  24.413   9.108  1.00  0.00    -0.154 N 
ATOM      3  H7  UNL     1      12.996  24.123   9.030  1.00  0.00     0.187 HD
HETATM    4  C4  UNL     1      14.632  24.886   8.026  1.00  0.00     0.290 A 
HETATM    5  O2  UNL     1      14.014  24.953   6.937  1.00  0.00    -0.265 OA
HETATM    6  C5  UNL     1      15.947  25.281   8.111  1.00  0.00     0.151 A 
HETATM    7  N8  UNL     1      16.853  25.785   7.258  1.00  0.00    -0.300 N 
ATOM      8  H8  UNL     1      16.680  25.971   6.270  1.00  0.00     0.171 HD
HETATM    9  C6  UNL     1      18.028  26.011   7.891  1.00  0.00     0.330 A 
HETATM   10  O3  UNL     1      19.081  26.476   7.396  1.00  0.00    -0.246 OA
HETATM   11  N9  UNL     1      17.862  25.642   9.172  1.00  0.00    -0.260 N 
HETATM   12  C9  UNL     1      16.592  25.193   9.323  1.00  0.00     0.161 A 
HETATM   13  N10 UNL     1      15.915  24.719  10.391  1.00  0.00    -0.173 N 
ATOM     14  H10 UNL     1      16.386  24.649  11.293  1.00  0.00     0.186 HD
ENDROOT
BRANCH   1  15
HETATM   15  N6  UNL     1      14.011  23.880  11.327  1.00  0.00    -0.140 N 
HETATM   16  C2  UNL     1      14.680  23.889  12.576  1.00  0.00     0.353 C 
HETATM   17  N5  UNL     1      14.813  25.114  13.267  1.00  0.00    -0.237 N 
HETATM   18  O1  UNL     1      15.130  22.800  13.018  1.00  0.00    -0.245 OA
ATOM     19  H5  UNL     1      14.428  25.961  12.850  1.00  0.00     0.192 HD
ATOM     20  H6  UNL     1      13.059  23.518  11.259  1.00  0.00     0.189 HD
BRANCH  17  21
HETATM   21  N4  UNL     1      15.449  25.199  14.491  1.00  0.00    -0.127 N 
HETATM   22  C1  UNL     1      14.672  24.996  15.674  1.00  0.00     0.704 C 
HETATM   23  N1  UNL     1      14.241  23.862  16.070  1.00  0.00    -0.232 N 
HETATM   24  N2  UNL     1      14.380  26.149  16.441  1.00  0.00    -0.138 N 
ATOM     25  H12 UNL     1      13.687  23.717  16.913  1.00  0.00     0.174 HD
ATOM     26  H11 UNL     1      14.452  23.031  15.517  1.00  0.00     0.174 HD
ATOM     27  H2  UNL     1      13.419  26.425  16.645  1.00  0.00     0.205 HD
ATOM     28  H4  UNL     1      16.447  25.402  14.550  1.00  0.00     0.206 HD
BRANCH  24  29
HETATM   29  N3  UNL     1      15.472  26.892  16.906  1.00  0.00    -0.331 N 
ATOM     30  H32 UNL     1      15.698  26.919  17.900  1.00  0.00     0.177 HD
ATOM     31  H31 UNL     1      16.017  27.396  16.207  1.00  0.00     0.177 HD
ENDBRANCH  24  29
ENDBRANCH  17  21
ENDBRANCH   1  15
BRANCH  11  32
HETATM   32  C7  UNL     1      18.813  25.702  10.246  1.00  0.00     0.307 C 
BRANCH  32  33
HETATM   33  O4  UNL     1      18.472  26.627  11.232  1.00  0.00    -0.348 OA
BRANCH  33  34
HETATM   34  C8  UNL     1      18.690  26.123  12.499  1.00  0.00     0.336 C 
BRANCH  34  35
HETATM   35  O5  UNL     1      17.852  25.052  12.810  1.00  0.00    -0.377 OA
ATOM     36  H5  UNL     1      17.863  24.370  12.148  1.00  0.00     0.212 HD
ENDBRANCH  34  35
ENDBRANCH  33  34
ENDBRANCH  32  33
ENDBRANCH  11  32
TORSDOF 7
ENDMDL
