MODEL 1
REMARK VINA RESULT: -7.627967090      0.000      0.000
REMARK  9 active torsions:
REMARK  status: ('A' for Active; 'I' for Inactive)
REMARK    1  A    between atoms: N1_1  and  N2_4 
REMARK    2  A    between atoms: C1_6  and  C2_8 
REMARK    3  A    between atoms: C3_9  and  C4_10 
REMARK    4  A    between atoms: C4_10  and  N4_11 
REMARK    5  A    between atoms: C4_10  and  N5_15 
REMARK    6  A    between atoms: N7_21  and  O1_22 
REMARK    7  A    between atoms: C5_24  and  C6_25 
REMARK    8  A    between atoms: N8_26  and  N9_28 
REMARK    9  A    between atoms: N9_28  and  C7_30 
ROOT
HETATM    1  C2  UNL     1      19.019  30.200  10.348  1.00  0.00     0.067 A 
HETATM    2  C3  UNL     1      18.985  31.453  10.905  1.00  0.00     0.101 A 
HETATM    3  N6  UNL     1      19.507  31.398  12.179  1.00  0.00    -0.274 N 
ATOM      4  H6  UNL     1      19.603  32.187  12.819  1.00  0.00     0.189 HD
HETATM    5  N7  UNL     1      19.859  30.165  12.428  1.00  0.00    -0.161 N 
HETATM    6  C5  UNL     1      19.579  29.388  11.332  1.00  0.00     0.113 A 
ENDROOT
BRANCH   6   7
HETATM    7  C6  UNL     1      19.836  27.976  11.254  1.00  0.00     0.142 C 
HETATM    8  N8  UNL     1      19.448  27.216  12.238  1.00  0.00    -0.295 N 
ATOM      9  H8  UNL     1      18.974  27.646  13.032  1.00  0.00     0.186 HD
BRANCH   8  10
HETATM   10  N9  UNL     1      19.649  25.862  12.250  1.00  0.00    -0.132 N 
ATOM     11  H9  UNL     1      19.419  25.388  13.122  1.00  0.00     0.205 HD
BRANCH  10  12
HETATM   12  C7  UNL     1      20.083  25.120  11.320  1.00  0.00     0.704 A 
HETATM   13  N10 UNL     1      21.363  24.917  10.986  1.00  0.00    -0.139 N 
HETATM   14  C8  UNL     1      21.738  24.105   9.981  1.00  0.00     0.342 A 
ATOM     15  H10 UNL     1      22.087  25.399  11.518  1.00  0.00     0.189 HD
HETATM   16  O2  UNL     1      22.966  23.929   9.683  1.00  0.00    -0.246 OA
HETATM   17  N11 UNL     1      20.790  23.457   9.267  1.00  0.00    -0.260 N 
HETATM   18  C9  UNL     1      19.482  23.633   9.571  1.00  0.00     0.342 A 
ATOM     19  H11 UNL     1      21.058  22.838   8.502  1.00  0.00     0.175 HD
HETATM   20  O3  UNL     1      18.613  23.028   8.903  1.00  0.00    -0.246 OA
HETATM   21  N12 UNL     1      19.145  24.451  10.582  1.00  0.00    -0.139 N 
ATOM     22  H12 UNL     1      18.158  24.579  10.806  1.00  0.00     0.189 HD
ENDBRANCH  10  12
ENDBRANCH   8  10
ENDBRANCH   6   7
BRANCH   1  23
HETATM   23  C1  UNL     1      18.570  29.857   9.024  1.00  0.00     0.145 C 
HETATM   24  N2  UNL     1      19.056  30.360   7.951  1.00  0.00    -0.294 N 
ATOM     25  H2  UNL     1      19.806  31.046   8.041  1.00  0.00     0.187 HD
HETATM   26  N3  UNL     1      17.516  28.900   8.793  1.00  0.00    -0.080 NA
BRANCH  24  27
HETATM   27  N1  UNL     1      18.624  30.031   6.677  1.00  0.00    -0.344 N 
ATOM     28  H12 UNL     1      17.879  30.603   6.279  1.00  0.00     0.176 HD
ATOM     29  H11 UNL     1      19.005  29.261   6.127  1.00  0.00     0.176 HD
ENDBRANCH  24  27
ENDBRANCH   1  23
BRANCH   5  30
HETATM   30  O1  UNL     1      20.431  29.661  13.596  1.00  0.00    -0.267 OA
ATOM     31  H1  UNL     1      20.009  29.521  14.436  1.00  0.00     0.247 HD
ENDBRANCH   5  30
BRANCH   2  32
HETATM   32  C4  UNL     1      18.495  32.724  10.365  1.00  0.00     0.429 C 
BRANCH  32  33
HETATM   33  N4  UNL     1      17.102  32.975  10.808  1.00  0.00    -0.045 N 
ATOM     34  H43 UNL     1      17.071  33.438  11.716  1.00  0.00     0.277 HD
ATOM     35  H42 UNL     1      16.652  33.701  10.251  1.00  0.00     0.277 HD
ATOM     36  H41 UNL     1      16.565  32.108  10.806  1.00  0.00     0.277 HD
ENDBRANCH  32  33
BRANCH  32  37
HETATM   37  N5  UNL     1      19.284  33.783  10.979  1.00  0.00    -0.045 N 
ATOM     38  H53 UNL     1      18.816  34.224  11.771  1.00  0.00     0.277 HD
ATOM     39  H52 UNL     1      20.097  33.434  11.488  1.00  0.00     0.277 HD
ATOM     40  H51 UNL     1      19.528  34.444  10.241  1.00  0.00     0.277 HD
ENDBRANCH  32  37
ENDBRANCH   2  32
TORSDOF 9
ENDMDL
MODEL 2
REMARK VINA RESULT: -7.609446111      0.082      1.613
REMARK  9 active torsions:
REMARK  status: ('A' for Active; 'I' for Inactive)
REMARK    1  A    between atoms: N1_1  and  N2_4 
REMARK    2  A    between atoms: C1_6  and  C2_8 
REMARK    3  A    between atoms: C3_9  and  C4_10 
REMARK    4  A    between atoms: C4_10  and  N4_11 
REMARK    5  A    between atoms: C4_10  and  N5_15 
REMARK    6  A    between atoms: N7_21  and  O1_22 
REMARK    7  A    between atoms: C5_24  and  C6_25 
REMARK    8  A    between atoms: N8_26  and  N9_28 
REMARK    9  A    between atoms: N9_28  and  C7_30 
ROOT
HETATM    1  C2  UNL     1      18.984  30.170  10.282  1.00  0.00     0.067 A 
HETATM    2  C3  UNL     1      18.964  31.423  10.841  1.00  0.00     0.101 A 
HETATM    3  N6  UNL     1      19.481  31.359  12.117  1.00  0.00    -0.274 N 
ATOM      4  H6  UNL     1      19.584  32.145  12.759  1.00  0.00     0.189 HD
HETATM    5  N7  UNL     1      19.816  30.121  12.365  1.00  0.00    -0.161 N 
HETATM    6  C5  UNL     1      19.531  29.350  11.267  1.00  0.00     0.113 A 
ENDROOT
BRANCH   6   7
HETATM    7  C6  UNL     1      19.769  27.935  11.187  1.00  0.00     0.142 C 
HETATM    8  N8  UNL     1      19.547  27.203  12.242  1.00  0.00    -0.295 N 
ATOM      9  H8  UNL     1      19.211  27.658  13.091  1.00  0.00     0.186 HD
BRANCH   8  10
HETATM   10  N9  UNL     1      19.747  25.850  12.258  1.00  0.00    -0.132 N 
ATOM     11  H9  UNL     1      19.671  25.402  13.171  1.00  0.00     0.205 HD
BRANCH  10  12
HETATM   12  C7  UNL     1      20.012  25.078  11.289  1.00  0.00     0.704 A 
HETATM   13  N10 UNL     1      19.135  24.423  10.521  1.00  0.00    -0.139 N 
HETATM   14  C8  UNL     1      19.506  23.621   9.506  1.00  0.00     0.342 A 
ATOM     15  H10 UNL     1      18.140  24.537  10.713  1.00  0.00     0.189 HD
HETATM   16  O2  UNL     1      18.647  23.008   8.788  1.00  0.00    -0.246 OA
HETATM   17  N11 UNL     1      20.821  23.461   9.238  1.00  0.00    -0.260 N 
HETATM   18  C9  UNL     1      21.743  24.106   9.990  1.00  0.00     0.342 A 
ATOM     19  H11 UNL     1      21.117  22.857   8.471  1.00  0.00     0.175 HD
HETATM   20  O3  UNL     1      22.959  23.951   9.732  1.00  0.00    -0.246 OA
HETATM   21  N12 UNL     1      21.336  24.899  10.995  1.00  0.00    -0.139 N 
ATOM     22  H12 UNL     1      22.037  25.382  11.558  1.00  0.00     0.189 HD
ENDBRANCH  10  12
ENDBRANCH   8  10
ENDBRANCH   6   7
BRANCH   1  23
HETATM   23  C1  UNL     1      18.536  29.835   8.956  1.00  0.00     0.145 C 
HETATM   24  N2  UNL     1      19.022  30.345   7.886  1.00  0.00    -0.294 N 
ATOM     25  H2  UNL     1      19.772  31.029   7.980  1.00  0.00     0.187 HD
HETATM   26  N3  UNL     1      17.481  28.879   8.719  1.00  0.00    -0.080 NA
BRANCH  24  27
HETATM   27  N1  UNL     1      18.591  30.023   6.610  1.00  0.00    -0.344 N 
ATOM     28  H12 UNL     1      18.306  29.057   6.448  1.00  0.00     0.176 HD
ATOM     29  H11 UNL     1      18.544  30.690   5.839  1.00  0.00     0.176 HD
ENDBRANCH  24  27
ENDBRANCH   1  23
BRANCH   5  30
HETATM   30  O1  UNL     1      20.378  29.608  13.534  1.00  0.00    -0.267 OA
ATOM     31  H1  UNL     1      19.998  29.600  14.405  1.00  0.00     0.247 HD
ENDBRANCH   5  30
BRANCH   2  32
HETATM   32  C4  UNL     1      18.492  32.700  10.301  1.00  0.00     0.429 C 
BRANCH  32  33
HETATM   33  N4  UNL     1      17.128  33.003  10.799  1.00  0.00    -0.045 N 
ATOM     34  H43 UNL     1      16.935  32.535  11.684  1.00  0.00     0.277 HD
ATOM     35  H42 UNL     1      17.047  33.969  11.118  1.00  0.00     0.277 HD
ATOM     36  H41 UNL     1      16.431  32.778  10.090  1.00  0.00     0.277 HD
ENDBRANCH  32  33
BRANCH  32  37
HETATM   37  N5  UNL     1      19.341  33.743  10.865  1.00  0.00    -0.045 N 
ATOM     38  H53 UNL     1      20.320  33.467  10.936  1.00  0.00     0.277 HD
ATOM     39  H52 UNL     1      19.473  34.534  10.235  1.00  0.00     0.277 HD
ATOM     40  H51 UNL     1      18.934  34.009  11.761  1.00  0.00     0.277 HD
ENDBRANCH  32  37
ENDBRANCH   2  32
TORSDOF 9
ENDMDL
MODEL 3
REMARK VINA RESULT: -7.358891239      5.407      8.125
REMARK  9 active torsions:
REMARK  status: ('A' for Active; 'I' for Inactive)
REMARK    1  A    between atoms: N1_1  and  N2_4 
REMARK    2  A    between atoms: C1_6  and  C2_8 
REMARK    3  A    between atoms: C3_9  and  C4_10 
REMARK    4  A    between atoms: C4_10  and  N4_11 
REMARK    5  A    between atoms: C4_10  and  N5_15 
REMARK    6  A    between atoms: N7_21  and  O1_22 
REMARK    7  A    between atoms: C5_24  and  C6_25 
REMARK    8  A    between atoms: N8_26  and  N9_28 
REMARK    9  A    between atoms: N9_28  and  C7_30 
ROOT
HETATM    1  C2  UNL     1      14.398  24.650  14.373  1.00  0.00     0.067 A 
HETATM    2  C3  UNL     1      13.350  23.864  14.780  1.00  0.00     0.101 A 
HETATM    3  N6  UNL     1      12.982  23.028  13.748  1.00  0.00    -0.274 N 
ATOM      4  H6  UNL     1      12.231  22.338  13.777  1.00  0.00     0.189 HD
HETATM    5  N7  UNL     1      13.759  23.268  12.725  1.00  0.00    -0.161 N 
HETATM    6  C5  UNL     1      14.648  24.258  13.059  1.00  0.00     0.113 A 
ENDROOT
BRANCH   6   7
HETATM    7  C6  UNL     1      15.652  24.778  12.172  1.00  0.00     0.142 C 
HETATM    8  N8  UNL     1      16.896  24.447  12.375  1.00  0.00    -0.295 N 
ATOM      9  H8  UNL     1      17.117  23.830  13.157  1.00  0.00     0.186 HD
BRANCH   8  10
HETATM   10  N9  UNL     1      17.918  24.894  11.582  1.00  0.00    -0.132 N 
ATOM     11  H9  UNL     1      18.313  24.207  10.941  1.00  0.00     0.205 HD
BRANCH  10  12
HETATM   12  C7  UNL     1      18.438  26.048  11.538  1.00  0.00     0.704 A 
HETATM   13  N10 UNL     1      18.865  26.776  12.576  1.00  0.00    -0.139 N 
HETATM   14  C8  UNL     1      19.411  27.999  12.439  1.00  0.00     0.342 A 
ATOM     15  H10 UNL     1      18.773  26.386  13.514  1.00  0.00     0.189 HD
HETATM   16  O2  UNL     1      19.810  28.672  13.447  1.00  0.00    -0.246 OA
HETATM   17  N11 UNL     1      19.540  28.528  11.202  1.00  0.00    -0.260 N 
HETATM   18  C9  UNL     1      19.122  27.826  10.123  1.00  0.00     0.342 A 
ATOM     19  H11 UNL     1      19.951  29.454  11.082  1.00  0.00     0.175 HD
HETATM   20  O3  UNL     1      19.247  28.326   8.982  1.00  0.00    -0.246 OA
HETATM   21  N12 UNL     1      18.582  26.608  10.298  1.00  0.00    -0.139 N 
ATOM     22  H12 UNL     1      18.270  26.083   9.481  1.00  0.00     0.189 HD
ENDBRANCH  10  12
ENDBRANCH   8  10
ENDBRANCH   6   7
BRANCH   1  23
HETATM   23  C1  UNL     1      15.065  25.641  15.176  1.00  0.00     0.145 C 
HETATM   24  N2  UNL     1      14.785  25.875  16.403  1.00  0.00    -0.294 N 
ATOM     25  H2  UNL     1      14.044  25.326  16.838  1.00  0.00     0.187 HD
HETATM   26  N3  UNL     1      16.126  26.468  14.652  1.00  0.00    -0.080 NA
BRANCH  24  27
HETATM   27  N1  UNL     1      15.427  26.829  17.176  1.00  0.00    -0.344 N 
ATOM     28  H12 UNL     1      15.997  26.489  17.950  1.00  0.00     0.176 HD
ATOM     29  H11 UNL     1      15.359  27.833  17.013  1.00  0.00     0.176 HD
ENDBRANCH  24  27
ENDBRANCH   1  23
BRANCH   5  30
HETATM   30  O1  UNL     1      13.737  22.651  11.474  1.00  0.00    -0.267 OA
ATOM     31  H1  UNL     1      13.380  22.994  10.664  1.00  0.00     0.247 HD
ENDBRANCH   5  30
BRANCH   2  32
HETATM   32  C4  UNL     1      12.633  23.817  16.056  1.00  0.00     0.429 C 
BRANCH  32  33
HETATM   33  N4  UNL     1      11.282  23.232  15.872  1.00  0.00    -0.045 N 
ATOM     34  H43 UNL     1      11.261  22.561  15.104  1.00  0.00     0.277 HD
ATOM     35  H42 UNL     1      11.036  22.599  16.633  1.00  0.00     0.277 HD
ATOM     36  H41 UNL     1      10.587  23.969  15.752  1.00  0.00     0.277 HD
ENDBRANCH  32  33
BRANCH  32  37
HETATM   37  N5  UNL     1      13.341  22.873  16.911  1.00  0.00    -0.045 N 
ATOM     38  H53 UNL     1      13.472  21.960  16.476  1.00  0.00     0.277 HD
ATOM     39  H52 UNL     1      14.327  23.103  17.031  1.00  0.00     0.277 HD
ATOM     40  H51 UNL     1      12.830  22.825  17.793  1.00  0.00     0.277 HD
ENDBRANCH  32  37
ENDBRANCH   2  32
TORSDOF 9
ENDMDL
MODEL 4
REMARK VINA RESULT: -7.352997943      5.327      8.060
REMARK  9 active torsions:
REMARK  status: ('A' for Active; 'I' for Inactive)
REMARK    1  A    between atoms: N1_1  and  N2_4 
REMARK    2  A    between atoms: C1_6  and  C2_8 
REMARK    3  A    between atoms: C3_9  and  C4_10 
REMARK    4  A    between atoms: C4_10  and  N4_11 
REMARK    5  A    between atoms: C4_10  and  N5_15 
REMARK    6  A    between atoms: N7_21  and  O1_22 
REMARK    7  A    between atoms: C5_24  and  C6_25 
REMARK    8  A    between atoms: N8_26  and  N9_28 
REMARK    9  A    between atoms: N9_28  and  C7_30 
ROOT
HETATM    1  C2  UNL     1      14.439  24.788  14.257  1.00  0.00     0.067 A 
HETATM    2  C3  UNL     1      13.342  24.041  14.604  1.00  0.00     0.101 A 
HETATM    3  N6  UNL     1      13.001  23.220  13.552  1.00  0.00    -0.274 N 
ATOM      4  H6  UNL     1      12.224  22.558  13.538  1.00  0.00     0.189 HD
HETATM    5  N7  UNL     1      13.841  23.432  12.574  1.00  0.00    -0.161 N 
HETATM    6  C5  UNL     1      14.746  24.388  12.958  1.00  0.00     0.113 A 
ENDROOT
BRANCH   6   7
HETATM    7  C6  UNL     1      15.815  24.871  12.128  1.00  0.00     0.142 C 
HETATM    8  N8  UNL     1      17.026  24.448  12.361  1.00  0.00    -0.295 N 
ATOM      9  H8  UNL     1      17.176  23.789  13.125  1.00  0.00     0.186 HD
BRANCH   8  10
HETATM   10  N9  UNL     1      18.105  24.854  11.623  1.00  0.00    -0.132 N 
ATOM     11  H9  UNL     1      18.632  24.111  11.166  1.00  0.00     0.205 HD
BRANCH  10  12
HETATM   12  C7  UNL     1      18.536  26.030  11.433  1.00  0.00     0.704 A 
HETATM   13  N10 UNL     1      18.645  26.664  10.261  1.00  0.00    -0.139 N 
HETATM   14  C8  UNL     1      19.113  27.921  10.149  1.00  0.00     0.342 A 
ATOM     15  H10 UNL     1      18.360  26.173   9.413  1.00  0.00     0.189 HD
HETATM   16  O2  UNL     1      19.207  28.503   9.017  1.00  0.00    -0.246 OA
HETATM   17  N11 UNL     1      19.494  28.585  11.263  1.00  0.00    -0.260 N 
HETATM   18  C9  UNL     1      19.399  27.981  12.471  1.00  0.00     0.342 A 
ATOM     19  H11 UNL     1      19.851  29.538  11.194  1.00  0.00     0.175 HD
HETATM   20  O3  UNL     1      19.755  28.605  13.496  1.00  0.00    -0.246 OA
HETATM   21  N12 UNL     1      18.927  26.725  12.544  1.00  0.00    -0.139 N 
ATOM     22  H12 UNL     1      18.858  26.276  13.457  1.00  0.00     0.189 HD
ENDBRANCH  10  12
ENDBRANCH   8  10
ENDBRANCH   6   7
BRANCH   1  23
HETATM   23  C1  UNL     1      15.098  25.753  15.098  1.00  0.00     0.145 C 
HETATM   24  N2  UNL     1      14.736  26.025  16.295  1.00  0.00    -0.294 N 
ATOM     25  H2  UNL     1      13.931  25.528  16.676  1.00  0.00     0.187 HD
HETATM   26  N3  UNL     1      16.244  26.508  14.651  1.00  0.00    -0.080 NA
BRANCH  24  27
HETATM   27  N1  UNL     1      15.369  26.954  17.104  1.00  0.00    -0.344 N 
ATOM     28  H12 UNL     1      15.102  27.931  16.984  1.00  0.00     0.176 HD
ATOM     29  H11 UNL     1      16.076  26.716  17.800  1.00  0.00     0.176 HD
ENDBRANCH  24  27
ENDBRANCH   1  23
BRANCH   5  30
HETATM   30  O1  UNL     1      13.864  22.817  11.322  1.00  0.00    -0.267 OA
ATOM     31  H1  UNL     1      13.922  23.234  10.471  1.00  0.00     0.247 HD
ENDBRANCH   5  30
BRANCH   2  32
HETATM   32  C4  UNL     1      12.555  24.020  15.840  1.00  0.00     0.429 C 
BRANCH  32  33
HETATM   33  N4  UNL     1      11.221  23.419  15.596  1.00  0.00    -0.045 N 
ATOM     34  H43 UNL     1      10.484  23.921  16.089  1.00  0.00     0.277 HD
ATOM     35  H42 UNL     1      10.902  23.580  14.640  1.00  0.00     0.277 HD
ATOM     36  H41 UNL     1      11.228  22.427  15.831  1.00  0.00     0.277 HD
ENDBRANCH  32  33
BRANCH  32  37
HETATM   37  N5  UNL     1      13.221  23.104  16.756  1.00  0.00    -0.045 N 
ATOM     38  H53 UNL     1      14.136  23.435  17.060  1.00  0.00     0.277 HD
ATOM     39  H52 UNL     1      12.783  23.070  17.677  1.00  0.00     0.277 HD
ATOM     40  H51 UNL     1      13.258  22.194  16.297  1.00  0.00     0.277 HD
ENDBRANCH  32  37
ENDBRANCH   2  32
TORSDOF 9
ENDMDL
MODEL 5
REMARK VINA RESULT: -7.337004710      1.496      2.344
REMARK  9 active torsions:
REMARK  status: ('A' for Active; 'I' for Inactive)
REMARK    1  A    between atoms: N1_1  and  N2_4 
REMARK    2  A    between atoms: C1_6  and  C2_8 
REMARK    3  A    between atoms: C3_9  and  C4_10 
REMARK    4  A    between atoms: C4_10  and  N4_11 
REMARK    5  A    between atoms: C4_10  and  N5_15 
REMARK    6  A    between atoms: N7_21  and  O1_22 
REMARK    7  A    between atoms: C5_24  and  C6_25 
REMARK    8  A    between atoms: N8_26  and  N9_28 
REMARK    9  A    between atoms: N9_28  and  C7_30 
ROOT
HETATM    1  C2  UNL     1      19.314  30.097  10.605  1.00  0.00     0.067 A 
HETATM    2  C3  UNL     1      19.699  30.856  11.681  1.00  0.00     0.101 A 
HETATM    3  N6  UNL     1      19.926  30.030  12.761  1.00  0.00    -0.274 N 
ATOM      4  H6  UNL     1      20.223  30.329  13.689  1.00  0.00     0.189 HD
HETATM    5  N7  UNL     1      19.695  28.798  12.393  1.00  0.00    -0.161 N 
HETATM    6  C5  UNL     1      19.316  28.786  11.074  1.00  0.00     0.113 A 
ENDROOT
BRANCH   6   7
HETATM    7  C6  UNL     1      18.983  27.597  10.338  1.00  0.00     0.142 C 
HETATM    8  N8  UNL     1      19.618  26.494  10.613  1.00  0.00    -0.295 N 
ATOM      9  H8  UNL     1      20.332  26.508  11.342  1.00  0.00     0.186 HD
BRANCH   8  10
HETATM   10  N9  UNL     1      19.368  25.315   9.964  1.00  0.00    -0.132 N 
ATOM     11  H9  UNL     1      18.390  25.029   9.928  1.00  0.00     0.205 HD
BRANCH  10  12
HETATM   12  C7  UNL     1      20.189  24.533   9.400  1.00  0.00     0.704 A 
HETATM   13  N10 UNL     1      19.941  23.299   8.949  1.00  0.00    -0.139 N 
HETATM   14  C8  UNL     1      20.877  22.533   8.358  1.00  0.00     0.342 A 
ATOM     15  H10 UNL     1      19.000  22.921   9.057  1.00  0.00     0.189 HD
HETATM   16  O2  UNL     1      20.613  21.358   7.935  1.00  0.00    -0.246 OA
HETATM   17  N11 UNL     1      22.128  23.020   8.206  1.00  0.00    -0.260 N 
HETATM   18  C9  UNL     1      22.424  24.265   8.648  1.00  0.00     0.342 A 
ATOM     19  H11 UNL     1      22.848  22.451   7.760  1.00  0.00     0.175 HD
HETATM   20  O3  UNL     1      23.586  24.706   8.502  1.00  0.00    -0.246 OA
HETATM   21  N12 UNL     1      21.464  25.001   9.233  1.00  0.00    -0.139 N 
ATOM     22  H12 UNL     1      21.692  25.938   9.563  1.00  0.00     0.189 HD
ENDBRANCH  10  12
ENDBRANCH   8  10
ENDBRANCH   6   7
BRANCH   1  23
HETATM   23  C1  UNL     1      19.000  30.600   9.293  1.00  0.00     0.145 C 
HETATM   24  N2  UNL     1      18.901  29.865   8.249  1.00  0.00    -0.294 N 
ATOM     25  H2  UNL     1      19.054  28.862   8.354  1.00  0.00     0.187 HD
HETATM   26  N3  UNL     1      18.766  32.002   9.042  1.00  0.00    -0.080 NA
BRANCH  24  27
HETATM   27  N1  UNL     1      18.599  30.349   6.987  1.00  0.00    -0.344 N 
ATOM     28  H12 UNL     1      18.050  31.206   6.939  1.00  0.00     0.176 HD
ATOM     29  H11 UNL     1      18.893  29.900   6.119  1.00  0.00     0.176 HD
ENDBRANCH  24  27
ENDBRANCH   1  23
BRANCH   5  30
HETATM   30  O1  UNL     1      19.801  27.643  13.168  1.00  0.00    -0.267 OA
ATOM     31  H1  UNL     1      20.595  27.222  13.478  1.00  0.00     0.247 HD
ENDBRANCH   5  30
BRANCH   2  32
HETATM   32  C4  UNL     1      19.872  32.304  11.814  1.00  0.00     0.429 C 
BRANCH  32  33
HETATM   33  N4  UNL     1      18.571  32.959  12.096  1.00  0.00    -0.045 N 
ATOM     34  H43 UNL     1      18.694  33.883  12.510  1.00  0.00     0.277 HD
ATOM     35  H42 UNL     1      18.093  33.238  11.239  1.00  0.00     0.277 HD
ATOM     36  H41 UNL     1      17.987  32.358  12.677  1.00  0.00     0.277 HD
ENDBRANCH  32  33
BRANCH  32  37
HETATM   37  N5  UNL     1      20.677  32.532  13.007  1.00  0.00    -0.045 N 
ATOM     38  H53 UNL     1      21.666  32.670  12.803  1.00  0.00     0.277 HD
ATOM     39  H52 UNL     1      20.505  33.441  13.438  1.00  0.00     0.277 HD
ATOM     40  H51 UNL     1      20.504  31.751  13.640  1.00  0.00     0.277 HD
ENDBRANCH  32  37
ENDBRANCH   2  32
TORSDOF 9
ENDMDL
