MODEL 1
REMARK VINA RESULT: -8.146057358      0.000      0.000
REMARK  6 active torsions:
REMARK  status: ('A' for Active; 'I' for Inactive)
REMARK    1  A    between atoms: C4_4  and  C5_5 
REMARK    2  A    between atoms: C5_5  and  N1_6 
REMARK    3  A    between atoms: N1_6  and  C6_8 
REMARK    4  A    between atoms: C9_17  and  N5_18 
REMARK    5  A    between atoms: N5_18  and  C10_20 
REMARK    6  A    between atoms: C13_23  and  C14_24 
ROOT
HETATM    1  C6  UNL     1       4.082  18.122  11.941  1.00  0.00     0.680 A 
HETATM    2  N2  UNL     1       3.614  17.016  11.339  1.00  0.00    -0.174 N 
ATOM      3  H2  UNL     1       3.172  16.234  11.823  1.00  0.00     0.186 HD
HETATM    4  C7  UNL     1       3.808  17.080  10.005  1.00  0.00     0.153 A 
HETATM    5  N3  UNL     1       3.555  16.298   8.946  1.00  0.00    -0.336 N 
ATOM      6  H3  UNL     1       3.097  15.400   9.100  1.00  0.00     0.168 HD
HETATM    7  C8  UNL     1       3.881  16.649   7.685  1.00  0.00     0.183 A 
HETATM    8  N4  UNL     1       4.492  17.834   7.419  1.00  0.00    -0.337 N 
ATOM      9  H4  UNL     1       4.738  18.100   6.466  1.00  0.00     0.168 HD
HETATM   10  C9  UNL     1       4.761  18.643   8.462  1.00  0.00     0.138 A 
HETATM   11  C22 UNL     1       4.427  18.285   9.762  1.00  0.00     0.137 A 
HETATM   12  N6  UNL     1       4.579  18.892  10.950  1.00  0.00    -0.184 N 
ATOM     13  H6  UNL     1       5.009  19.807  11.084  1.00  0.00     0.184 HD
ENDROOT
BRANCH  10  14
HETATM   14  N5  UNL     1       5.340  19.792   8.329  1.00  0.00    -0.340 N 
ATOM     15  H5  UNL     1       4.841  20.648   8.576  1.00  0.00     0.167 HD
BRANCH  14  16
HETATM   16  C10 UNL     1       6.690  19.861   7.832  1.00  0.00     0.033 A 
HETATM   17  C11 UNL     1       7.000  20.610   6.714  1.00  0.00     0.030 A 
HETATM   18  C12 UNL     1       8.269  20.701   6.206  1.00  0.00     0.014 A 
HETATM   19  C13 UNL     1       9.290  20.013   6.842  1.00  0.00    -0.026 A 
HETATM   20  C20 UNL     1       9.009  19.255   7.963  1.00  0.00     0.014 A 
HETATM   21  C21 UNL     1       7.720  19.185   8.447  1.00  0.00     0.030 A 
BRANCH  19  22
HETATM   22  C14 UNL     1      10.645  20.111   6.302  1.00  0.00    -0.026 A 
HETATM   23  C15 UNL     1      11.586  19.110   6.422  1.00  0.00     0.012 A 
HETATM   24  C16 UNL     1      12.855  19.238   5.899  1.00  0.00     0.001 A 
HETATM   25  C17 UNL     1      13.230  20.369   5.240  1.00  0.00     0.000 A 
HETATM   26  C18 UNL     1      12.308  21.387   5.104  1.00  0.00     0.001 A 
HETATM   27  C19 UNL     1      11.038  21.247   5.632  1.00  0.00     0.012 A 
ENDBRANCH  19  22
ENDBRANCH  14  16
ENDBRANCH  10  14
BRANCH   1  28
HETATM   28  N1  UNL     1       4.075  18.426  13.215  1.00  0.00    -0.222 N 
ATOM     29  H1  UNL     1       4.960  18.484  13.717  1.00  0.00     0.178 HD
BRANCH  28  30
HETATM   30  C5  UNL     1       2.841  18.681  13.926  1.00  0.00     0.176 C 
BRANCH  30  31
HETATM   31  C4  UNL     1       2.809  20.008  14.558  1.00  0.00    -0.040 A 
HETATM   32  C3  UNL     1       2.754  20.112  15.932  1.00  0.00     0.009 A 
HETATM   33  C2  UNL     1       2.723  21.356  16.541  1.00  0.00     0.001 A 
HETATM   34  C1  UNL     1       2.747  22.490  15.766  1.00  0.00     0.000 A 
HETATM   35  C24 UNL     1       2.801  22.409  14.402  1.00  0.00     0.001 A 
HETATM   36  C23 UNL     1       2.831  21.171  13.788  1.00  0.00     0.009 A 
ENDBRANCH  30  31
ENDBRANCH  28  30
ENDBRANCH   1  28
TORSDOF 6
ENDMDL
MODEL 2
REMARK VINA RESULT: -8.126213285      0.078      1.232
REMARK  6 active torsions:
REMARK  status: ('A' for Active; 'I' for Inactive)
REMARK    1  A    between atoms: C4_4  and  C5_5 
REMARK    2  A    between atoms: C5_5  and  N1_6 
REMARK    3  A    between atoms: N1_6  and  C6_8 
REMARK    4  A    between atoms: C9_17  and  N5_18 
REMARK    5  A    between atoms: N5_18  and  C10_20 
REMARK    6  A    between atoms: C13_23  and  C14_24 
ROOT
HETATM    1  C6  UNL     1       4.063  18.107  11.987  1.00  0.00     0.680 A 
HETATM    2  N2  UNL     1       3.596  17.006  11.374  1.00  0.00    -0.174 N 
ATOM      3  H2  UNL     1       3.146  16.224  11.849  1.00  0.00     0.186 HD
HETATM    4  C7  UNL     1       3.803  17.078  10.042  1.00  0.00     0.153 A 
HETATM    5  N3  UNL     1       3.557  16.303   8.976  1.00  0.00    -0.336 N 
ATOM      6  H3  UNL     1       3.095  15.406   9.120  1.00  0.00     0.168 HD
HETATM    7  C8  UNL     1       3.897  16.661   7.720  1.00  0.00     0.183 A 
HETATM    8  N4  UNL     1       4.515  17.845   7.467  1.00  0.00    -0.337 N 
ATOM      9  H4  UNL     1       4.771  18.116   6.518  1.00  0.00     0.168 HD
HETATM   10  C9  UNL     1       4.777  18.646   8.518  1.00  0.00     0.138 A 
HETATM   11  C22 UNL     1       4.429  18.282   9.812  1.00  0.00     0.137 A 
HETATM   12  N6  UNL     1       4.572  18.881  11.005  1.00  0.00    -0.184 N 
ATOM     13  H6  UNL     1       5.004  19.793  11.149  1.00  0.00     0.184 HD
ENDROOT
BRANCH  10  14
HETATM   14  N5  UNL     1       5.361  19.795   8.398  1.00  0.00    -0.340 N 
ATOM     15  H5  UNL     1       4.880  20.647   8.686  1.00  0.00     0.167 HD
BRANCH  14  16
HETATM   16  C10 UNL     1       6.694  19.866   7.855  1.00  0.00     0.033 A 
HETATM   17  C11 UNL     1       7.746  19.209   8.462  1.00  0.00     0.030 A 
HETATM   18  C12 UNL     1       9.028  19.250   7.981  1.00  0.00     0.014 A 
HETATM   19  C13 UNL     1       9.283  19.984   6.834  1.00  0.00    -0.026 A 
HETATM   20  C20 UNL     1       8.250  20.652   6.204  1.00  0.00     0.014 A 
HETATM   21  C21 UNL     1       6.971  20.589   6.717  1.00  0.00     0.030 A 
BRANCH  19  22
HETATM   22  C14 UNL     1      10.651  20.029   6.319  1.00  0.00    -0.026 A 
HETATM   23  C15 UNL     1      11.553  18.996   6.461  1.00  0.00     0.012 A 
HETATM   24  C16 UNL     1      12.835  19.075   5.961  1.00  0.00     0.001 A 
HETATM   25  C17 UNL     1      13.263  20.188   5.303  1.00  0.00     0.000 A 
HETATM   26  C18 UNL     1      12.381  21.237   5.145  1.00  0.00     0.001 A 
HETATM   27  C19 UNL     1      11.097  21.147   5.650  1.00  0.00     0.012 A 
ENDBRANCH  19  22
ENDBRANCH  14  16
ENDBRANCH  10  14
BRANCH   1  28
HETATM   28  N1  UNL     1       4.044  18.403  13.262  1.00  0.00    -0.222 N 
ATOM     29  H1  UNL     1       4.924  18.443  13.777  1.00  0.00     0.178 HD
BRANCH  28  30
HETATM   30  C5  UNL     1       2.806  18.675  13.960  1.00  0.00     0.176 C 
BRANCH  30  31
HETATM   31  C4  UNL     1       2.787  19.998  14.598  1.00  0.00    -0.040 A 
HETATM   32  C3  UNL     1       2.811  21.136  13.820  1.00  0.00     0.009 A 
HETATM   33  C2  UNL     1       2.792  22.390  14.409  1.00  0.00     0.001 A 
HETATM   34  C1  UNL     1       2.750  22.495  15.777  1.00  0.00     0.000 A 
HETATM   35  C24 UNL     1       2.727  21.379  16.569  1.00  0.00     0.001 A 
HETATM   36  C23 UNL     1       2.745  20.125  15.988  1.00  0.00     0.009 A 
ENDBRANCH  30  31
ENDBRANCH  28  30
ENDBRANCH   1  28
TORSDOF 6
ENDMDL
MODEL 3
REMARK VINA RESULT: -7.967187303      5.696      7.900
REMARK  6 active torsions:
REMARK  status: ('A' for Active; 'I' for Inactive)
REMARK    1  A    between atoms: C4_4  and  C5_5 
REMARK    2  A    between atoms: C5_5  and  N1_6 
REMARK    3  A    between atoms: N1_6  and  C6_8 
REMARK    4  A    between atoms: C9_17  and  N5_18 
REMARK    5  A    between atoms: N5_18  and  C10_20 
REMARK    6  A    between atoms: C13_23  and  C14_24 
ROOT
HETATM    1  C6  UNL     1       2.508  22.401  14.629  1.00  0.00     0.680 A 
HETATM    2  N2  UNL     1       1.351  22.746  15.220  1.00  0.00    -0.174 N 
ATOM      3  H2  UNL     1       1.025  23.705  15.340  1.00  0.00     0.186 HD
HETATM    4  C7  UNL     1       0.681  21.651  15.633  1.00  0.00     0.153 A 
HETATM    5  N3  UNL     1      -0.478  21.398  16.259  1.00  0.00    -0.336 N 
ATOM      6  H3  UNL     1      -1.069  22.183  16.529  1.00  0.00     0.168 HD
HETATM    7  C8  UNL     1      -0.893  20.147  16.546  1.00  0.00     0.183 A 
HETATM    8  N4  UNL     1      -0.147  19.061  16.211  1.00  0.00    -0.337 N 
ATOM      9  H4  UNL     1      -0.461  18.115  16.427  1.00  0.00     0.168 HD
HETATM   10  C9  UNL     1       1.024  19.282  15.582  1.00  0.00     0.138 A 
HETATM   11  C22 UNL     1       1.455  20.568  15.284  1.00  0.00     0.137 A 
HETATM   12  N6  UNL     1       2.551  21.052  14.679  1.00  0.00    -0.184 N 
ATOM     13  H6  UNL     1       3.311  20.481  14.308  1.00  0.00     0.184 HD
ENDROOT
BRANCH  10  14
HETATM   14  N5  UNL     1       1.816  18.327  15.215  1.00  0.00    -0.340 N 
ATOM     15  H5  UNL     1       2.296  17.763  15.917  1.00  0.00     0.167 HD
BRANCH  14  16
HETATM   16  C10 UNL     1       2.018  18.064  13.813  1.00  0.00     0.033 A 
HETATM   17  C11 UNL     1       0.948  17.949  12.948  1.00  0.00     0.030 A 
HETATM   18  C12 UNL     1       1.095  17.698  11.610  1.00  0.00     0.014 A 
HETATM   19  C13 UNL     1       2.374  17.554  11.098  1.00  0.00    -0.026 A 
HETATM   20  C20 UNL     1       3.465  17.664  11.939  1.00  0.00     0.014 A 
HETATM   21  C21 UNL     1       3.280  17.916  13.282  1.00  0.00     0.030 A 
BRANCH  19  22
HETATM   22  C14 UNL     1       2.533  17.287   9.669  1.00  0.00    -0.026 A 
HETATM   23  C15 UNL     1       3.590  16.579   9.139  1.00  0.00     0.012 A 
HETATM   24  C16 UNL     1       3.706  16.347   7.785  1.00  0.00     0.001 A 
HETATM   25  C17 UNL     1       2.772  16.814   6.912  1.00  0.00     0.000 A 
HETATM   26  C18 UNL     1       1.701  17.526   7.414  1.00  0.00     0.001 A 
HETATM   27  C19 UNL     1       1.595  17.752   8.775  1.00  0.00     0.012 A 
ENDBRANCH  19  22
ENDBRANCH  14  16
ENDBRANCH  10  14
BRANCH   1  28
HETATM   28  N1  UNL     1       3.422  23.177  14.104  1.00  0.00    -0.222 N 
ATOM     29  H1  UNL     1       3.583  24.099  14.508  1.00  0.00     0.178 HD
BRANCH  28  30
HETATM   30  C5  UNL     1       4.209  22.758  12.965  1.00  0.00     0.176 C 
BRANCH  30  31
HETATM   31  C4  UNL     1       3.402  22.554  11.754  1.00  0.00    -0.040 A 
HETATM   32  C3  UNL     1       3.339  21.305  11.173  1.00  0.00     0.009 A 
HETATM   33  C2  UNL     1       2.580  21.099  10.032  1.00  0.00     0.001 A 
HETATM   34  C1  UNL     1       1.889  22.149   9.479  1.00  0.00     0.000 A 
HETATM   35  C24 UNL     1       1.939  23.396  10.038  1.00  0.00     0.001 A 
HETATM   36  C23 UNL     1       2.693  23.609  11.177  1.00  0.00     0.009 A 
ENDBRANCH  30  31
ENDBRANCH  28  30
ENDBRANCH   1  28
TORSDOF 6
ENDMDL
MODEL 4
REMARK VINA RESULT: -7.865900501      1.950      9.267
REMARK  6 active torsions:
REMARK  status: ('A' for Active; 'I' for Inactive)
REMARK    1  A    between atoms: C4_4  and  C5_5 
REMARK    2  A    between atoms: C5_5  and  N1_6 
REMARK    3  A    between atoms: N1_6  and  C6_8 
REMARK    4  A    between atoms: C9_17  and  N5_18 
REMARK    5  A    between atoms: N5_18  and  C10_20 
REMARK    6  A    between atoms: C13_23  and  C14_24 
ROOT
HETATM    1  C6  UNL     1       8.821  18.090   7.778  1.00  0.00     0.680 A 
HETATM    2  N2  UNL     1       8.917  16.763   7.586  1.00  0.00    -0.174 N 
ATOM      3  H2  UNL     1       9.793  16.258   7.454  1.00  0.00     0.186 HD
HETATM    4  C7  UNL     1       7.695  16.192   7.591  1.00  0.00     0.153 A 
HETATM    5  N3  UNL     1       7.199  14.954   7.452  1.00  0.00    -0.336 N 
ATOM      6  H3  UNL     1       7.847  14.182   7.298  1.00  0.00     0.168 HD
HETATM    7  C8  UNL     1       5.877  14.687   7.506  1.00  0.00     0.183 A 
HETATM    8  N4  UNL     1       4.966  15.675   7.709  1.00  0.00    -0.337 N 
ATOM      9  H4  UNL     1       3.967  15.473   7.752  1.00  0.00     0.168 HD
HETATM   10  C9  UNL     1       5.432  16.931   7.853  1.00  0.00     0.138 A 
HETATM   11  C22 UNL     1       6.792  17.210   7.797  1.00  0.00     0.137 A 
HETATM   12  N6  UNL     1       7.502  18.344   7.907  1.00  0.00    -0.184 N 
ATOM     13  H6  UNL     1       7.100  19.268   8.066  1.00  0.00     0.184 HD
ENDROOT
BRANCH  10  14
HETATM   14  N5  UNL     1       4.659  17.949   8.050  1.00  0.00    -0.340 N 
ATOM     15  H5  UNL     1       4.301  18.482   7.256  1.00  0.00     0.167 HD
BRANCH  14  16
HETATM   16  C10 UNL     1       4.306  18.330   9.394  1.00  0.00     0.033 A 
HETATM   17  C11 UNL     1       3.706  17.432  10.254  1.00  0.00     0.030 A 
HETATM   18  C12 UNL     1       3.353  17.751  11.538  1.00  0.00     0.014 A 
HETATM   19  C13 UNL     1       3.609  19.032  11.998  1.00  0.00    -0.026 A 
HETATM   20  C20 UNL     1       4.209  19.953  11.160  1.00  0.00     0.014 A 
HETATM   21  C21 UNL     1       4.551  19.597   9.872  1.00  0.00     0.030 A 
BRANCH  19  22
HETATM   22  C14 UNL     1       3.233  19.375  13.369  1.00  0.00    -0.026 A 
HETATM   23  C15 UNL     1       2.771  18.454  14.284  1.00  0.00     0.012 A 
HETATM   24  C16 UNL     1       2.426  18.816  15.570  1.00  0.00     0.001 A 
HETATM   25  C17 UNL     1       2.530  20.107  15.985  1.00  0.00     0.000 A 
HETATM   26  C18 UNL     1       2.991  21.051  15.090  1.00  0.00     0.001 A 
HETATM   27  C19 UNL     1       3.335  20.678  13.804  1.00  0.00     0.012 A 
ENDBRANCH  19  22
ENDBRANCH  14  16
ENDBRANCH  10  14
BRANCH   1  28
HETATM   28  N1  UNL     1       9.781  18.979   7.837  1.00  0.00    -0.222 N 
ATOM     29  H1  UNL     1       9.696  19.761   8.486  1.00  0.00     0.178 HD
BRANCH  28  30
HETATM   30  C5  UNL     1      10.959  18.879   7.003  1.00  0.00     0.176 C 
BRANCH  30  31
HETATM   31  C4  UNL     1      11.273  20.132   6.302  1.00  0.00    -0.040 A 
HETATM   32  C3  UNL     1      12.385  20.204   5.490  1.00  0.00     0.009 A 
HETATM   33  C2  UNL     1      12.692  21.379   4.822  1.00  0.00     0.001 A 
HETATM   34  C1  UNL     1      11.880  22.476   4.975  1.00  0.00     0.000 A 
HETATM   35  C24 UNL     1      10.773  22.427   5.776  1.00  0.00     0.001 A 
HETATM   36  C23 UNL     1      10.461  21.258   6.445  1.00  0.00     0.009 A 
ENDBRANCH  30  31
ENDBRANCH  28  30
ENDBRANCH   1  28
TORSDOF 6
ENDMDL
MODEL 5
REMARK VINA RESULT: -7.842455372      4.408      5.245
REMARK  6 active torsions:
REMARK  status: ('A' for Active; 'I' for Inactive)
REMARK    1  A    between atoms: C4_4  and  C5_5 
REMARK    2  A    between atoms: C5_5  and  N1_6 
REMARK    3  A    between atoms: N1_6  and  C6_8 
REMARK    4  A    between atoms: C9_17  and  N5_18 
REMARK    5  A    between atoms: N5_18  and  C10_20 
REMARK    6  A    between atoms: C13_23  and  C14_24 
ROOT
HETATM    1  C6  UNL     1       1.842  18.011  12.983  1.00  0.00     0.680 A 
HETATM    2  N2  UNL     1       0.564  17.595  13.033  1.00  0.00    -0.174 N 
ATOM      3  H2  UNL     1       0.088  17.283  13.879  1.00  0.00     0.186 HD
HETATM    4  C7  UNL     1      -0.002  17.647  11.809  1.00  0.00     0.153 A 
HETATM    5  N3  UNL     1      -1.201  17.365  11.279  1.00  0.00    -0.336 N 
ATOM      6  H3  UNL     1      -1.936  17.014  11.892  1.00  0.00     0.168 HD
HETATM    7  C8  UNL     1      -1.475  17.526   9.968  1.00  0.00     0.183 A 
HETATM    8  N4  UNL     1      -0.534  17.990   9.103  1.00  0.00    -0.337 N 
ATOM      9  H4  UNL     1      -0.741  18.113   8.112  1.00  0.00     0.168 HD
HETATM   10  C9  UNL     1       0.682  18.282   9.604  1.00  0.00     0.138 A 
HETATM   11  C22 UNL     1       0.967  18.117  10.954  1.00  0.00     0.137 A 
HETATM   12  N6  UNL     1       2.069  18.329  11.692  1.00  0.00    -0.184 N 
ATOM     13  H6  UNL     1       2.954  18.680  11.327  1.00  0.00     0.184 HD
ENDROOT
BRANCH  10  14
HETATM   14  N5  UNL     1       1.653  18.729   8.877  1.00  0.00    -0.340 N 
ATOM     15  H5  UNL     1       1.762  19.733   8.729  1.00  0.00     0.167 HD
BRANCH  14  16
HETATM   16  C10 UNL     1       2.582  17.805   8.276  1.00  0.00     0.033 A 
HETATM   17  C11 UNL     1       3.893  17.732   8.704  1.00  0.00     0.030 A 
HETATM   18  C12 UNL     1       4.808  16.871   8.161  1.00  0.00     0.014 A 
HETATM   19  C13 UNL     1       4.402  16.031   7.136  1.00  0.00    -0.026 A 
HETATM   20  C20 UNL     1       3.096  16.081   6.687  1.00  0.00     0.014 A 
HETATM   21  C21 UNL     1       2.201  16.962   7.256  1.00  0.00     0.030 A 
BRANCH  19  22
HETATM   22  C14 UNL     1       5.377  15.110   6.556  1.00  0.00    -0.026 A 
HETATM   23  C15 UNL     1       6.447  14.593   7.254  1.00  0.00     0.012 A 
HETATM   24  C16 UNL     1       7.347  13.726   6.672  1.00  0.00     0.001 A 
HETATM   25  C17 UNL     1       7.211  13.344   5.373  1.00  0.00     0.000 A 
HETATM   26  C18 UNL     1       6.149  13.845   4.649  1.00  0.00     0.001 A 
HETATM   27  C19 UNL     1       5.252  14.714   5.242  1.00  0.00     0.012 A 
ENDBRANCH  19  22
ENDBRANCH  14  16
ENDBRANCH  10  14
BRANCH   1  28
HETATM   28  N1  UNL     1       2.710  18.103  13.959  1.00  0.00    -0.222 N 
ATOM     29  H1  UNL     1       2.660  17.441  14.733  1.00  0.00     0.178 HD
BRANCH  28  30
HETATM   30  C5  UNL     1       3.738  19.121  13.965  1.00  0.00     0.176 C 
BRANCH  30  31
HETATM   31  C4  UNL     1       3.334  20.339  14.682  1.00  0.00    -0.040 A 
HETATM   32  C3  UNL     1       3.176  21.521  13.990  1.00  0.00     0.009 A 
HETATM   33  C2  UNL     1       2.794  22.676  14.653  1.00  0.00     0.001 A 
HETATM   34  C1  UNL     1       2.575  22.638  16.008  1.00  0.00     0.000 A 
HETATM   35  C24 UNL     1       2.728  21.477  16.714  1.00  0.00     0.001 A 
HETATM   36  C23 UNL     1       3.108  20.320  16.059  1.00  0.00     0.009 A 
ENDBRANCH  30  31
ENDBRANCH  28  30
ENDBRANCH   1  28
TORSDOF 6
ENDMDL
