MODEL 1
REMARK VINA RESULT: -7.982979790      0.000      0.000
REMARK  4 active torsions:
REMARK  status: ('A' for Active; 'I' for Inactive)
REMARK    1  A    between atoms: S1_2  and  N1_4 
REMARK    2  A    between atoms: S1_2  and  C15_22 
REMARK    3  A    between atoms: N1_4  and  C1_6 
REMARK    4  A    between atoms: C5_10  and  C6_11 
ROOT
HETATM    1  C1  UNL     1       4.620  18.459   9.282  1.00  0.00     0.043 A 
HETATM    2  C2  UNL     1       3.975  17.264   9.400  1.00  0.00     0.030 A 
HETATM    3  C3  UNL     1       3.141  17.058  10.500  1.00  0.00     0.003 A 
HETATM    4  C4  UNL     1       2.967  18.037  11.456  1.00  0.00     0.012 A 
HETATM    5  C5  UNL     1       3.621  19.246  11.333  1.00  0.00    -0.024 A 
HETATM    6  C14 UNL     1       4.427  19.453  10.277  1.00  0.00     0.042 A 
ENDROOT
BRANCH   1   7
HETATM    7  N1  UNL     1       5.449  18.785   8.183  1.00  0.00    -0.281 N 
ATOM      8  H1  UNL     1       5.079  19.481   7.536  1.00  0.00     0.179 HD
BRANCH   7   9
HETATM    9  S1  UNL     1       6.962  18.170   7.811  1.00  0.00     0.265 S 
HETATM   10  O1  UNL     1       7.645  18.950   6.684  1.00  0.00    -0.200 OA
HETATM   11  O2  UNL     1       7.857  18.407   9.024  1.00  0.00    -0.200 OA
BRANCH   9  12
HETATM   12  C15 UNL     1       7.055  16.498   7.341  1.00  0.00     0.108 A 
HETATM   13  C16 UNL     1       6.034  15.973   6.514  1.00  0.00     0.028 A 
HETATM   14  C17 UNL     1       6.006  14.671   6.096  1.00  0.00     0.004 A 
HETATM   15  C18 UNL     1       6.995  13.789   6.470  1.00  0.00     0.032 A 
HETATM   16  C19 UNL     1       7.990  14.273   7.266  1.00  0.00     0.061 A 
HETATM   17  N3  UNL     1       9.076  13.697   7.792  1.00  0.00    -0.350 N 
HETATM   18  C21 UNL     1       8.013  15.599   7.688  1.00  0.00     0.083 A 
HETATM   19  C20 UNL     1       9.766  14.605   8.517  1.00  0.00     0.181 A 
ATOM     20  H3  UNL     1       9.344  12.720   7.665  1.00  0.00     0.166 HD
HETATM   21  N4  UNL     1       9.118  15.777   8.458  1.00  0.00    -0.349 N 
ATOM     22  H4  UNL     1       9.404  16.645   8.909  1.00  0.00     0.166 HD
ENDBRANCH   9  12
ENDBRANCH   7   9
ENDBRANCH   1   7
BRANCH   5  23
HETATM   23  C6  UNL     1       3.454  20.310  12.342  1.00  0.00    -0.025 A 
HETATM   24  C7  UNL     1       3.592  21.645  12.026  1.00  0.00     0.014 A 
HETATM   25  C8  UNL     1       3.432  22.643  12.984  1.00  0.00     0.031 A 
HETATM   26  C9  UNL     1       3.126  22.324  14.291  1.00  0.00     0.042 A 
HETATM   27  N2  UNL     1       2.921  23.074  15.396  1.00  0.00    -0.365 N 
HETATM   28  C12 UNL     1       2.985  20.991  14.615  1.00  0.00    -0.007 A 
HETATM   29  C10 UNL     1       2.644  22.272  16.456  1.00  0.00     0.089 A 
ATOM     30  H2  UNL     1       2.966  24.092  15.429  1.00  0.00     0.165 HD
HETATM   31  C11 UNL     1       2.687  20.983  15.963  1.00  0.00     0.030 A 
HETATM   32  C13 UNL     1       3.147  20.012  13.653  1.00  0.00     0.026 A 
ENDBRANCH   5  23
TORSDOF 4
ENDMDL
MODEL 2
REMARK VINA RESULT: -7.965322220      2.618      9.099
REMARK  4 active torsions:
REMARK  status: ('A' for Active; 'I' for Inactive)
REMARK    1  A    between atoms: S1_2  and  N1_4 
REMARK    2  A    between atoms: S1_2  and  C15_22 
REMARK    3  A    between atoms: N1_4  and  C1_6 
REMARK    4  A    between atoms: C5_10  and  C6_11 
ROOT
HETATM    1  C1  UNL     1       2.207  17.449  10.202  1.00  0.00     0.043 A 
HETATM    2  C2  UNL     1       1.166  18.137   9.651  1.00  0.00     0.030 A 
HETATM    3  C3  UNL     1       1.016  18.125   8.264  1.00  0.00     0.003 A 
HETATM    4  C4  UNL     1       1.896  17.435   7.457  1.00  0.00     0.012 A 
HETATM    5  C5  UNL     1       2.947  16.739   8.018  1.00  0.00    -0.024 A 
HETATM    6  C14 UNL     1       3.101  16.745   9.355  1.00  0.00     0.042 A 
ENDROOT
BRANCH   1   7
HETATM    7  N1  UNL     1       2.420  17.360  11.598  1.00  0.00    -0.281 N 
ATOM      8  H1  UNL     1       1.743  16.803  12.118  1.00  0.00     0.179 HD
BRANCH   7   9
HETATM    9  S1  UNL     1       3.648  18.053  12.503  1.00  0.00     0.265 S 
HETATM   10  O1  UNL     1       4.457  17.011  13.281  1.00  0.00    -0.200 OA
HETATM   11  O2  UNL     1       4.653  18.648  11.521  1.00  0.00    -0.200 OA
BRANCH   9  12
HETATM   12  C15 UNL     1       3.198  19.260  13.671  1.00  0.00     0.108 A 
HETATM   13  C16 UNL     1       2.581  18.839  14.873  1.00  0.00     0.028 A 
HETATM   14  C17 UNL     1       2.180  19.705  15.851  1.00  0.00     0.004 A 
HETATM   15  C18 UNL     1       2.363  21.063  15.710  1.00  0.00     0.032 A 
HETATM   16  C19 UNL     1       2.957  21.493  14.560  1.00  0.00     0.061 A 
HETATM   17  N3  UNL     1       3.277  22.714  14.121  1.00  0.00    -0.350 N 
HETATM   18  C21 UNL     1       3.363  20.605  13.568  1.00  0.00     0.083 A 
HETATM   19  C20 UNL     1       3.861  22.621  12.906  1.00  0.00     0.181 A 
ATOM     20  H3  UNL     1       3.108  23.585  14.626  1.00  0.00     0.166 HD
HETATM   21  N4  UNL     1       3.917  21.327  12.559  1.00  0.00    -0.349 N 
ATOM     22  H4  UNL     1       4.306  20.953  11.694  1.00  0.00     0.166 HD
ENDBRANCH   9  12
ENDBRANCH   7   9
ENDBRANCH   1   7
BRANCH   5  23
HETATM   23  C6  UNL     1       3.904  15.993   7.178  1.00  0.00    -0.025 A 
HETATM   24  C7  UNL     1       3.706  15.817   5.825  1.00  0.00     0.014 A 
HETATM   25  C8  UNL     1       4.615  15.111   5.040  1.00  0.00     0.031 A 
HETATM   26  C9  UNL     1       5.751  14.562   5.596  1.00  0.00     0.042 A 
HETATM   27  N2  UNL     1       6.774  13.847   5.079  1.00  0.00    -0.365 N 
HETATM   28  C12 UNL     1       5.957  14.735   6.949  1.00  0.00    -0.007 A 
HETATM   29  C10 UNL     1       7.663  13.536   6.056  1.00  0.00     0.089 A 
ATOM     30  H2  UNL     1       6.866  13.581   4.098  1.00  0.00     0.165 HD
HETATM   31  C11 UNL     1       7.148  14.089   7.212  1.00  0.00     0.030 A 
HETATM   32  C13 UNL     1       5.046  15.437   7.715  1.00  0.00     0.026 A 
ENDBRANCH   5  23
TORSDOF 4
ENDMDL
MODEL 3
REMARK VINA RESULT: -7.838553224      3.943      6.117
REMARK  4 active torsions:
REMARK  status: ('A' for Active; 'I' for Inactive)
REMARK    1  A    between atoms: S1_2  and  N1_4 
REMARK    2  A    between atoms: S1_2  and  C15_22 
REMARK    3  A    between atoms: N1_4  and  C1_6 
REMARK    4  A    between atoms: C5_10  and  C6_11 
ROOT
HETATM    1  C1  UNL     1       7.193  13.837   6.755  1.00  0.00     0.043 A 
HETATM    2  C2  UNL     1       7.142  13.467   5.444  1.00  0.00     0.030 A 
HETATM    3  C3  UNL     1       6.058  13.888   4.672  1.00  0.00     0.003 A 
HETATM    4  C4  UNL     1       5.055  14.663   5.213  1.00  0.00     0.012 A 
HETATM    5  C5  UNL     1       5.111  15.037   6.541  1.00  0.00    -0.024 A 
HETATM    6  C14 UNL     1       6.150  14.635   7.294  1.00  0.00     0.042 A 
ENDROOT
BRANCH   1   7
HETATM    7  N1  UNL     1       8.270  13.503   7.611  1.00  0.00    -0.281 N 
ATOM      8  H1  UNL     1       8.112  12.715   8.239  1.00  0.00     0.179 HD
BRANCH   7   9
HETATM    9  S1  UNL     1       9.770  14.239   7.721  1.00  0.00     0.265 S 
HETATM   10  O1  UNL     1      10.185  14.500   9.172  1.00  0.00    -0.200 OA
HETATM   11  O2  UNL     1      10.803  13.238   7.213  1.00  0.00    -0.200 OA
BRANCH   9  12
HETATM   12  C15 UNL     1       9.981  15.756   6.897  1.00  0.00     0.108 A 
HETATM   13  C16 UNL     1      10.659  15.760   5.656  1.00  0.00     0.028 A 
HETATM   14  C17 UNL     1      10.887  16.898   4.932  1.00  0.00     0.004 A 
HETATM   15  C18 UNL     1      10.455  18.123   5.389  1.00  0.00     0.032 A 
HETATM   16  C19 UNL     1       9.799  18.144   6.583  1.00  0.00     0.061 A 
HETATM   17  N3  UNL     1       9.259  19.142   7.291  1.00  0.00    -0.350 N 
HETATM   18  C21 UNL     1       9.570  16.982   7.315  1.00  0.00     0.083 A 
HETATM   19  C20 UNL     1       8.710  18.650   8.423  1.00  0.00     0.181 A 
ATOM     20  H3  UNL     1       9.261  20.125   7.018  1.00  0.00     0.166 HD
HETATM   21  N4  UNL     1       8.897  17.323   8.445  1.00  0.00    -0.349 N 
ATOM     22  H4  UNL     1       8.590  16.684   9.178  1.00  0.00     0.166 HD
ENDBRANCH   9  12
ENDBRANCH   7   9
ENDBRANCH   1   7
BRANCH   5  23
HETATM   23  C6  UNL     1       4.050  15.865   7.146  1.00  0.00    -0.025 A 
HETATM   24  C7  UNL     1       3.042  16.428   6.392  1.00  0.00     0.014 A 
HETATM   25  C8  UNL     1       2.045  17.209   6.972  1.00  0.00     0.031 A 
HETATM   26  C9  UNL     1       2.033  17.444   8.331  1.00  0.00     0.042 A 
HETATM   27  N2  UNL     1       1.204  18.146   9.135  1.00  0.00    -0.365 N 
HETATM   28  C12 UNL     1       3.037  16.883   9.092  1.00  0.00    -0.007 A 
HETATM   29  C10 UNL     1       1.631  18.068  10.421  1.00  0.00     0.089 A 
ATOM     30  H2  UNL     1       0.380  18.658   8.822  1.00  0.00     0.165 HD
HETATM   31  C11 UNL     1       2.767  17.284  10.385  1.00  0.00     0.030 A 
HETATM   32  C13 UNL     1       4.020  16.111   8.503  1.00  0.00     0.026 A 
ENDBRANCH   5  23
TORSDOF 4
ENDMDL
MODEL 4
REMARK VINA RESULT: -7.822516042      2.993      9.557
REMARK  4 active torsions:
REMARK  status: ('A' for Active; 'I' for Inactive)
REMARK    1  A    between atoms: S1_2  and  N1_4 
REMARK    2  A    between atoms: S1_2  and  C15_22 
REMARK    3  A    between atoms: N1_4  and  C1_6 
REMARK    4  A    between atoms: C5_10  and  C6_11 
ROOT
HETATM    1  C1  UNL     1       2.954  16.971   9.289  1.00  0.00     0.043 A 
HETATM    2  C2  UNL     1       1.963  17.442   8.480  1.00  0.00     0.030 A 
HETATM    3  C3  UNL     1       2.048  17.201   7.107  1.00  0.00     0.003 A 
HETATM    4  C4  UNL     1       3.109  16.503   6.570  1.00  0.00     0.012 A 
HETATM    5  C5  UNL     1       4.110  16.026   7.393  1.00  0.00    -0.024 A 
HETATM    6  C14 UNL     1       4.037  16.254   8.717  1.00  0.00     0.042 A 
ENDROOT
BRANCH   1   7
HETATM    7  N1  UNL     1       2.939  17.120  10.696  1.00  0.00    -0.281 N 
ATOM      8  H1  UNL     1       2.444  16.396  11.216  1.00  0.00     0.179 HD
BRANCH   7   9
HETATM    9  S1  UNL     1       3.632  18.337  11.615  1.00  0.00     0.265 S 
HETATM   10  O1  UNL     1       5.092  18.041  11.965  1.00  0.00    -0.200 OA
HETATM   11  O2  UNL     1       3.704  19.582  10.735  1.00  0.00    -0.200 OA
BRANCH   9  12
HETATM   12  C15 UNL     1       2.864  18.739  13.123  1.00  0.00     0.108 A 
HETATM   13  C16 UNL     1       3.581  19.523  14.056  1.00  0.00     0.028 A 
HETATM   14  C17 UNL     1       3.075  19.886  15.273  1.00  0.00     0.004 A 
HETATM   15  C18 UNL     1       1.810  19.497  15.656  1.00  0.00     0.032 A 
HETATM   16  C19 UNL     1       1.100  18.741  14.772  1.00  0.00     0.061 A 
HETATM   17  N3  UNL     1      -0.128  18.214  14.829  1.00  0.00    -0.350 N 
HETATM   18  C21 UNL     1       1.621  18.375  13.534  1.00  0.00     0.083 A 
HETATM   19  C20 UNL     1      -0.386  17.541  13.686  1.00  0.00     0.181 A 
ATOM     20  H3  UNL     1      -0.772  18.306  15.615  1.00  0.00     0.166 HD
HETATM   21  N4  UNL     1       0.684  17.635  12.885  1.00  0.00    -0.349 N 
ATOM     22  H4  UNL     1       0.778  17.226  11.956  1.00  0.00     0.166 HD
ENDBRANCH   9  12
ENDBRANCH   7   9
ENDBRANCH   1   7
BRANCH   5  23
HETATM   23  C6  UNL     1       5.256  15.276   6.844  1.00  0.00    -0.025 A 
HETATM   24  C7  UNL     1       6.112  14.556   7.651  1.00  0.00     0.014 A 
HETATM   25  C8  UNL     1       7.192  13.852   7.124  1.00  0.00     0.031 A 
HETATM   26  C9  UNL     1       7.441  13.851   5.767  1.00  0.00     0.042 A 
HETATM   27  N2  UNL     1       8.394  13.267   5.008  1.00  0.00    -0.365 N 
HETATM   28  C12 UNL     1       6.588  14.568   4.954  1.00  0.00    -0.007 A 
HETATM   29  C10 UNL     1       8.199  13.577   3.701  1.00  0.00     0.089 A 
ATOM     30  H2  UNL     1       9.148  12.680   5.364  1.00  0.00     0.165 HD
HETATM   31  C11 UNL     1       7.079  14.384   3.677  1.00  0.00     0.030 A 
HETATM   32  C13 UNL     1       5.521  15.263   5.491  1.00  0.00     0.026 A 
ENDBRANCH   5  23
TORSDOF 4
ENDMDL
MODEL 5
REMARK VINA RESULT: -7.726604537      2.057      2.432
REMARK  4 active torsions:
REMARK  status: ('A' for Active; 'I' for Inactive)
REMARK    1  A    between atoms: S1_2  and  N1_4 
REMARK    2  A    between atoms: S1_2  and  C15_22 
REMARK    3  A    between atoms: N1_4  and  C1_6 
REMARK    4  A    between atoms: C5_10  and  C6_11 
ROOT
HETATM    1  C1  UNL     1       4.718  17.941   9.389  1.00  0.00     0.043 A 
HETATM    2  C2  UNL     1       3.930  17.448   8.392  1.00  0.00     0.030 A 
HETATM    3  C3  UNL     1       2.587  17.185   8.667  1.00  0.00     0.003 A 
HETATM    4  C4  UNL     1       2.058  17.415   9.919  1.00  0.00     0.012 A 
HETATM    5  C5  UNL     1       2.858  17.916  10.926  1.00  0.00    -0.024 A 
HETATM    6  C14 UNL     1       4.154  18.172  10.671  1.00  0.00     0.042 A 
ENDROOT
BRANCH   1   7
HETATM    7  N1  UNL     1       6.077  18.285   9.201  1.00  0.00    -0.281 N 
ATOM      8  H1  UNL     1       6.532  18.751   9.985  1.00  0.00     0.179 HD
BRANCH   7   9
HETATM    9  S1  UNL     1       7.034  18.022   7.851  1.00  0.00     0.265 S 
HETATM   10  O1  UNL     1       6.553  18.816   6.633  1.00  0.00    -0.200 OA
HETATM   11  O2  UNL     1       8.412  18.601   8.153  1.00  0.00    -0.200 OA
BRANCH   9  12
HETATM   12  C15 UNL     1       7.205  16.382   7.297  1.00  0.00     0.108 A 
HETATM   13  C16 UNL     1       6.268  15.886   6.360  1.00  0.00     0.028 A 
HETATM   14  C17 UNL     1       6.306  14.610   5.870  1.00  0.00     0.004 A 
HETATM   15  C18 UNL     1       7.283  13.727   6.274  1.00  0.00     0.032 A 
HETATM   16  C19 UNL     1       8.197  14.183   7.176  1.00  0.00     0.061 A 
HETATM   17  N3  UNL     1       9.251  13.599   7.757  1.00  0.00    -0.350 N 
HETATM   18  C21 UNL     1       8.153  15.483   7.672  1.00  0.00     0.083 A 
HETATM   19  C20 UNL     1       9.856  14.477   8.586  1.00  0.00     0.181 A 
ATOM     20  H3  UNL     1       9.551  12.637   7.598  1.00  0.00     0.166 HD
HETATM   21  N4  UNL     1       9.187  15.638   8.539  1.00  0.00    -0.349 N 
ATOM     22  H4  UNL     1       9.414  16.484   9.061  1.00  0.00     0.166 HD
ENDBRANCH   9  12
ENDBRANCH   7   9
ENDBRANCH   1   7
BRANCH   5  23
HETATM   23  C6  UNL     1       2.318  18.171  12.276  1.00  0.00    -0.025 A 
HETATM   24  C7  UNL     1       3.138  18.355  13.369  1.00  0.00     0.014 A 
HETATM   25  C8  UNL     1       2.619  18.595  14.639  1.00  0.00     0.031 A 
HETATM   26  C9  UNL     1       1.256  18.657  14.845  1.00  0.00     0.042 A 
HETATM   27  N2  UNL     1       0.502  18.872  15.945  1.00  0.00    -0.365 N 
HETATM   28  C12 UNL     1       0.429  18.475  13.756  1.00  0.00    -0.007 A 
HETATM   29  C10 UNL     1      -0.815  18.837  15.618  1.00  0.00     0.089 A 
ATOM     30  H2  UNL     1       0.867  19.035  16.883  1.00  0.00     0.165 HD
HETATM   31  C11 UNL     1      -0.851  18.590  14.260  1.00  0.00     0.030 A 
HETATM   32  C13 UNL     1       0.959  18.237  12.502  1.00  0.00     0.026 A 
ENDBRANCH   5  23
TORSDOF 4
ENDMDL
