MODEL 1
REMARK VINA RESULT: -6.906633318      0.000      0.000
REMARK  6 active torsions:
REMARK  status: ('A' for Active; 'I' for Inactive)
REMARK    1  A    between atoms: C5_6  and  N2_7 
REMARK    2  A    between atoms: N2_7  and  C6_9 
REMARK    3  A    between atoms: C6_9  and  N3_11 
REMARK    4  A    between atoms: N3_11  and  N4_13 
REMARK    5  A    between atoms: C7_15  and  C8_16 
REMARK    6  A    between atoms: C9_17  and  C10_18 
ROOT
HETATM    1  N1  UNL     1       2.986  21.873  17.230  1.00  0.00    -0.191 NA
HETATM    2  C1  UNL     1       2.375  21.142  16.580  1.00  0.00     0.099 C 
HETATM    3  C2  UNL     1       1.627  20.234  15.748  1.00  0.00     0.044 A 
HETATM    4  C3  UNL     1       2.240  19.235  15.030  1.00  0.00     0.025 A 
HETATM    5  C4  UNL     1       1.490  18.362  14.225  1.00  0.00     0.031 A 
HETATM    6  C5  UNL     1       0.130  18.455  14.112  1.00  0.00     0.034 A 
HETATM    7  C22 UNL     1      -0.487  19.482  14.854  1.00  0.00     0.031 A 
HETATM    8  C23 UNL     1       0.257  20.322  15.632  1.00  0.00     0.025 A 
ENDROOT
BRANCH   6   9
HETATM    9  N2  UNL     1      -0.684  17.631  13.292  1.00  0.00    -0.332 N 
ATOM     10  H2  UNL     1      -1.100  16.820  13.751  1.00  0.00     0.168 HD
BRANCH   9  11
HETATM   11  C6  UNL     1      -0.992  17.787  11.932  1.00  0.00     0.191 C 
HETATM   12  S1  UNL     1      -2.213  18.741  11.461  1.00  0.00    -0.039 SA
BRANCH  11  13
HETATM   13  N3  UNL     1      -0.261  17.080  10.937  1.00  0.00    -0.276 N 
ATOM     14  H3  UNL     1      -0.599  16.174  10.612  1.00  0.00     0.189 HD
BRANCH  13  15
HETATM   15  N4  UNL     1       0.895  17.603  10.408  1.00  0.00    -0.309 N 
HETATM   16  C7  UNL     1       2.082  17.348  10.844  1.00  0.00     0.121 C 
ATOM     17  H4  UNL     1       0.808  18.238   9.614  1.00  0.00     0.186 HD
BRANCH  16  18
HETATM   18  C8  UNL     1       3.253  17.940  10.230  1.00  0.00     0.021 A 
HETATM   19  C9  UNL     1       3.825  19.155  10.518  1.00  0.00     0.055 A 
HETATM   20  N5  UNL     1       4.953  19.183   9.742  1.00  0.00    -0.354 N 
HETATM   21  C16 UNL     1       5.089  18.090   9.022  1.00  0.00     0.043 A 
ATOM     22  H5  UNL     1       5.612  19.961   9.725  1.00  0.00     0.166 HD
HETATM   23  C17 UNL     1       6.086  17.727   8.112  1.00  0.00     0.030 A 
HETATM   24  C21 UNL     1       4.034  17.253   9.286  1.00  0.00     0.004 A 
HETATM   25  C18 UNL     1       6.034  16.518   7.457  1.00  0.00     0.002 A 
HETATM   26  C19 UNL     1       4.981  15.674   7.716  1.00  0.00     0.001 A 
HETATM   27  C20 UNL     1       4.000  16.060   8.628  1.00  0.00     0.014 A 
BRANCH  19  28
HETATM   28  C10 UNL     1       3.474  20.225  11.423  1.00  0.00    -0.009 A 
HETATM   29  C11 UNL     1       4.490  20.771  12.238  1.00  0.00     0.014 A 
HETATM   30  C12 UNL     1       4.238  21.827  13.067  1.00  0.00     0.001 A 
HETATM   31  C13 UNL     1       2.994  22.406  13.149  1.00  0.00     0.000 A 
HETATM   32  C14 UNL     1       2.016  21.865  12.351  1.00  0.00     0.001 A 
HETATM   33  C15 UNL     1       2.236  20.786  11.489  1.00  0.00     0.014 A 
ENDBRANCH  19  28
ENDBRANCH  16  18
ENDBRANCH  13  15
ENDBRANCH  11  13
ENDBRANCH   9  11
ENDBRANCH   6   9
TORSDOF 6
ENDMDL
MODEL 2
REMARK VINA RESULT: -6.758506018      3.074      7.330
REMARK  6 active torsions:
REMARK  status: ('A' for Active; 'I' for Inactive)
REMARK    1  A    between atoms: C5_6  and  N2_7 
REMARK    2  A    between atoms: N2_7  and  C6_9 
REMARK    3  A    between atoms: C6_9  and  N3_11 
REMARK    4  A    between atoms: N3_11  and  N4_13 
REMARK    5  A    between atoms: C7_15  and  C8_16 
REMARK    6  A    between atoms: C9_17  and  C10_18 
ROOT
HETATM    1  N1  UNL     1       3.849  20.721   8.771  1.00  0.00    -0.191 NA
HETATM    2  C1  UNL     1       3.406  21.014   9.795  1.00  0.00     0.099 C 
HETATM    3  C2  UNL     1       2.870  21.364  11.086  1.00  0.00     0.044 A 
HETATM    4  C3  UNL     1       3.669  21.838  12.099  1.00  0.00     0.025 A 
HETATM    5  C4  UNL     1       3.124  22.173  13.350  1.00  0.00     0.031 A 
HETATM    6  C5  UNL     1       1.791  22.048  13.625  1.00  0.00     0.034 A 
HETATM    7  C22 UNL     1       0.982  21.562  12.578  1.00  0.00     0.031 A 
HETATM    8  C23 UNL     1       1.527  21.241  11.368  1.00  0.00     0.025 A 
ENDROOT
BRANCH   6   9
HETATM    9  N2  UNL     1       1.179  22.333  14.874  1.00  0.00    -0.332 N 
ATOM     10  H2  UNL     1       1.716  22.071  15.701  1.00  0.00     0.168 HD
BRANCH   9  11
HETATM   11  C6  UNL     1      -0.068  22.929  15.119  1.00  0.00     0.191 C 
HETATM   12  S1  UNL     1      -0.388  24.428  14.599  1.00  0.00    -0.039 SA
BRANCH  11  13
HETATM   13  N3  UNL     1      -1.067  22.241  15.862  1.00  0.00    -0.276 N 
ATOM     14  H3  UNL     1      -1.731  22.773  16.425  1.00  0.00     0.189 HD
BRANCH  13  15
HETATM   15  N4  UNL     1      -1.148  20.870  15.832  1.00  0.00    -0.309 N 
HETATM   16  C7  UNL     1      -1.653  20.186  14.861  1.00  0.00     0.121 C 
ATOM     17  H4  UNL     1      -0.785  20.356  16.635  1.00  0.00     0.186 HD
BRANCH  16  18
HETATM   18  C8  UNL     1      -1.702  18.739  14.905  1.00  0.00     0.021 A 
HETATM   19  C9  UNL     1      -0.720  17.856  14.528  1.00  0.00     0.055 A 
HETATM   20  N5  UNL     1      -1.226  16.630  14.870  1.00  0.00    -0.354 N 
HETATM   21  C16 UNL     1      -2.421  16.719  15.412  1.00  0.00     0.043 A 
ATOM     22  H5  UNL     1      -0.733  15.750  14.723  1.00  0.00     0.166 HD
HETATM   23  C17 UNL     1      -3.273  15.718  15.891  1.00  0.00     0.030 A 
HETATM   24  C21 UNL     1      -2.786  18.041  15.463  1.00  0.00     0.004 A 
HETATM   25  C18 UNL     1      -4.499  16.035  16.426  1.00  0.00     0.002 A 
HETATM   26  C19 UNL     1      -4.872  17.357  16.480  1.00  0.00     0.001 A 
HETATM   27  C20 UNL     1      -4.005  18.335  15.997  1.00  0.00     0.014 A 
BRANCH  19  28
HETATM   28  C10 UNL     1       0.593  18.024  13.949  1.00  0.00    -0.009 A 
HETATM   29  C11 UNL     1       1.637  18.483  14.781  1.00  0.00     0.014 A 
HETATM   30  C12 UNL     1       2.914  18.600  14.311  1.00  0.00     0.001 A 
HETATM   31  C13 UNL     1       3.244  18.280  13.016  1.00  0.00     0.000 A 
HETATM   32  C14 UNL     1       2.220  17.834  12.218  1.00  0.00     0.001 A 
HETATM   33  C15 UNL     1       0.901  17.700  12.663  1.00  0.00     0.014 A 
ENDBRANCH  19  28
ENDBRANCH  16  18
ENDBRANCH  13  15
ENDBRANCH  11  13
ENDBRANCH   9  11
ENDBRANCH   6   9
TORSDOF 6
ENDMDL
MODEL 3
REMARK VINA RESULT: -6.732000296      2.782      7.231
REMARK  6 active torsions:
REMARK  status: ('A' for Active; 'I' for Inactive)
REMARK    1  A    between atoms: C5_6  and  N2_7 
REMARK    2  A    between atoms: N2_7  and  C6_9 
REMARK    3  A    between atoms: C6_9  and  N3_11 
REMARK    4  A    between atoms: N3_11  and  N4_13 
REMARK    5  A    between atoms: C7_15  and  C8_16 
REMARK    6  A    between atoms: C9_17  and  C10_18 
ROOT
HETATM    1  N1  UNL     1       4.823  23.467  13.106  1.00  0.00    -0.191 NA
HETATM    2  C1  UNL     1       4.189  22.533  12.866  1.00  0.00     0.099 C 
HETATM    3  C2  UNL     1       3.384  21.371  12.587  1.00  0.00     0.044 A 
HETATM    4  C3  UNL     1       2.011  21.429  12.563  1.00  0.00     0.025 A 
HETATM    5  C4  UNL     1       1.246  20.283  12.290  1.00  0.00     0.031 A 
HETATM    6  C5  UNL     1       1.816  19.066  12.037  1.00  0.00     0.034 A 
HETATM    7  C22 UNL     1       3.224  19.019  12.064  1.00  0.00     0.031 A 
HETATM    8  C23 UNL     1       3.952  20.143  12.331  1.00  0.00     0.025 A 
ENDROOT
BRANCH   6   9
HETATM    9  N2  UNL     1       1.105  17.862  11.788  1.00  0.00    -0.332 N 
ATOM     10  H2  UNL     1       1.634  17.000  11.917  1.00  0.00     0.168 HD
BRANCH   9  11
HETATM   11  C6  UNL     1      -0.231  17.705  11.388  1.00  0.00     0.191 C 
HETATM   12  S1  UNL     1      -0.660  17.888   9.837  1.00  0.00    -0.039 SA
BRANCH  11  13
HETATM   13  N3  UNL     1      -1.246  17.417  12.342  1.00  0.00    -0.276 N 
ATOM     14  H3  UNL     1      -1.790  16.559  12.256  1.00  0.00     0.189 HD
BRANCH  13  15
HETATM   15  N4  UNL     1      -1.503  18.282  13.380  1.00  0.00    -0.309 N 
HETATM   16  C7  UNL     1      -1.357  17.992  14.629  1.00  0.00     0.121 C 
ATOM     17  H4  UNL     1      -1.832  19.218  13.145  1.00  0.00     0.186 HD
BRANCH  16  18
HETATM   18  C8  UNL     1      -1.650  18.961  15.665  1.00  0.00     0.021 A 
HETATM   19  C9  UNL     1      -0.776  19.833  16.267  1.00  0.00     0.055 A 
HETATM   20  N5  UNL     1      -1.572  20.591  17.084  1.00  0.00    -0.354 N 
HETATM   21  C16 UNL     1      -2.837  20.236  17.014  1.00  0.00     0.043 A 
ATOM     22  H5  UNL     1      -1.225  21.344  17.677  1.00  0.00     0.166 HD
HETATM   23  C17 UNL     1      -3.956  20.747  17.678  1.00  0.00     0.030 A 
HETATM   24  C21 UNL     1      -2.956  19.198  16.125  1.00  0.00     0.004 A 
HETATM   25  C18 UNL     1      -5.207  20.220  17.456  1.00  0.00     0.002 A 
HETATM   26  C19 UNL     1      -5.335  19.180  16.567  1.00  0.00     0.001 A 
HETATM   27  C20 UNL     1      -4.204  18.689  15.918  1.00  0.00     0.014 A 
BRANCH  19  28
HETATM   28  C10 UNL     1       0.646  20.054  16.141  1.00  0.00    -0.009 A 
HETATM   29  C11 UNL     1       1.157  21.328  16.470  1.00  0.00     0.014 A 
HETATM   30  C12 UNL     1       2.499  21.581  16.436  1.00  0.00     0.001 A 
HETATM   31  C13 UNL     1       3.411  20.617  16.080  1.00  0.00     0.000 A 
HETATM   32  C14 UNL     1       2.901  19.382  15.763  1.00  0.00     0.001 A 
HETATM   33  C15 UNL     1       1.535  19.085  15.789  1.00  0.00     0.014 A 
ENDBRANCH  19  28
ENDBRANCH  16  18
ENDBRANCH  13  15
ENDBRANCH  11  13
ENDBRANCH   9  11
ENDBRANCH   6   9
TORSDOF 6
ENDMDL
MODEL 4
REMARK VINA RESULT: -6.558963588      2.974      4.390
REMARK  6 active torsions:
REMARK  status: ('A' for Active; 'I' for Inactive)
REMARK    1  A    between atoms: C5_6  and  N2_7 
REMARK    2  A    between atoms: N2_7  and  C6_9 
REMARK    3  A    between atoms: C6_9  and  N3_11 
REMARK    4  A    between atoms: N3_11  and  N4_13 
REMARK    5  A    between atoms: C7_15  and  C8_16 
REMARK    6  A    between atoms: C9_17  and  C10_18 
ROOT
HETATM    1  N1  UNL     1       3.408  23.393  15.159  1.00  0.00    -0.191 NA
HETATM    2  C1  UNL     1       2.611  22.585  15.368  1.00  0.00     0.099 C 
HETATM    3  C2  UNL     1       1.610  21.587  15.648  1.00  0.00     0.044 A 
HETATM    4  C3  UNL     1       0.296  21.922  15.873  1.00  0.00     0.025 A 
HETATM    5  C4  UNL     1      -0.663  20.933  16.146  1.00  0.00     0.031 A 
HETATM    6  C5  UNL     1      -0.348  19.603  16.203  1.00  0.00     0.034 A 
HETATM    7  C22 UNL     1       1.002  19.273  15.971  1.00  0.00     0.031 A 
HETATM    8  C23 UNL     1       1.922  20.246  15.706  1.00  0.00     0.025 A 
ENDROOT
BRANCH   6   9
HETATM    9  N2  UNL     1      -1.257  18.556  16.507  1.00  0.00    -0.332 N 
ATOM     10  H2  UNL     1      -1.414  18.379  17.499  1.00  0.00     0.168 HD
BRANCH   9  11
HETATM   11  C6  UNL     1      -1.968  17.732  15.620  1.00  0.00     0.191 C 
HETATM   12  S1  UNL     1      -3.584  17.788  15.551  1.00  0.00    -0.039 SA
BRANCH  11  13
HETATM   13  N3  UNL     1      -1.285  16.804  14.787  1.00  0.00    -0.276 N 
ATOM     14  H3  UNL     1      -1.095  15.863  15.133  1.00  0.00     0.189 HD
BRANCH  13  15
HETATM   15  N4  UNL     1      -0.879  17.157  13.523  1.00  0.00    -0.309 N 
HETATM   16  C7  UNL     1      -1.017  18.334  13.010  1.00  0.00     0.121 C 
ATOM     17  H4  UNL     1      -0.437  16.439  12.949  1.00  0.00     0.186 HD
BRANCH  16  18
HETATM   18  C8  UNL     1      -0.561  18.628  11.667  1.00  0.00     0.021 A 
HETATM   19  C9  UNL     1       0.716  18.934  11.265  1.00  0.00     0.055 A 
HETATM   20  N5  UNL     1       0.625  19.013   9.901  1.00  0.00    -0.354 N 
HETATM   21  C16 UNL     1      -0.597  18.782   9.470  1.00  0.00     0.043 A 
ATOM     22  H5  UNL     1       1.413  19.225   9.290  1.00  0.00     0.166 HD
HETATM   23  C17 UNL     1      -1.107  18.767   8.168  1.00  0.00     0.030 A 
HETATM   24  C21 UNL     1      -1.406  18.529  10.549  1.00  0.00     0.004 A 
HETATM   25  C18 UNL     1      -2.436  18.499   7.937  1.00  0.00     0.002 A 
HETATM   26  C19 UNL     1      -3.253  18.246   9.013  1.00  0.00     0.001 A 
HETATM   27  C20 UNL     1      -2.719  18.266  10.300  1.00  0.00     0.014 A 
BRANCH  19  28
HETATM   28  C10 UNL     1       1.962  19.114  11.975  1.00  0.00    -0.009 A 
HETATM   29  C11 UNL     1       2.551  17.987  12.588  1.00  0.00     0.014 A 
HETATM   30  C12 UNL     1       3.759  18.076  13.217  1.00  0.00     0.001 A 
HETATM   31  C13 UNL     1       4.456  19.259  13.286  1.00  0.00     0.000 A 
HETATM   32  C14 UNL     1       3.872  20.348  12.686  1.00  0.00     0.001 A 
HETATM   33  C15 UNL     1       2.638  20.294  12.031  1.00  0.00     0.014 A 
ENDBRANCH  19  28
ENDBRANCH  16  18
ENDBRANCH  13  15
ENDBRANCH  11  13
ENDBRANCH   9  11
ENDBRANCH   6   9
TORSDOF 6
ENDMDL
MODEL 5
REMARK VINA RESULT: -6.527195832      2.392      4.175
REMARK  6 active torsions:
REMARK  status: ('A' for Active; 'I' for Inactive)
REMARK    1  A    between atoms: C5_6  and  N2_7 
REMARK    2  A    between atoms: N2_7  and  C6_9 
REMARK    3  A    between atoms: C6_9  and  N3_11 
REMARK    4  A    between atoms: N3_11  and  N4_13 
REMARK    5  A    between atoms: C7_15  and  C8_16 
REMARK    6  A    between atoms: C9_17  and  C10_18 
ROOT
HETATM    1  N1  UNL     1      -1.499  18.964  17.057  1.00  0.00    -0.191 NA
HETATM    2  C1  UNL     1      -0.540  19.170  16.449  1.00  0.00     0.099 C 
HETATM    3  C2  UNL     1       0.665  19.405  15.696  1.00  0.00     0.044 A 
HETATM    4  C3  UNL     1       1.077  18.549  14.702  1.00  0.00     0.025 A 
HETATM    5  C4  UNL     1       2.257  18.798  13.980  1.00  0.00     0.031 A 
HETATM    6  C5  UNL     1       3.048  19.886  14.223  1.00  0.00     0.034 A 
HETATM    7  C22 UNL     1       2.615  20.756  15.243  1.00  0.00     0.031 A 
HETATM    8  C23 UNL     1       1.466  20.500  15.935  1.00  0.00     0.025 A 
ENDROOT
BRANCH   6   9
HETATM    9  N2  UNL     1       4.268  20.179  13.558  1.00  0.00    -0.332 N 
ATOM     10  H2  UNL     1       5.068  19.607  13.827  1.00  0.00     0.168 HD
BRANCH   9  11
HETATM   11  C6  UNL     1       4.515  21.155  12.580  1.00  0.00     0.191 C 
HETATM   12  S1  UNL     1       4.206  22.717  12.869  1.00  0.00    -0.039 SA
BRANCH  11  13
HETATM   13  N3  UNL     1       5.010  20.787  11.298  1.00  0.00    -0.276 N 
ATOM     14  H3  UNL     1       5.533  21.467  10.746  1.00  0.00     0.189 HD
BRANCH  13  15
HETATM   15  N4  UNL     1       4.791  19.528  10.793  1.00  0.00    -0.309 N 
HETATM   16  C7  UNL     1       4.434  19.277   9.578  1.00  0.00     0.121 C 
ATOM     17  H4  UNL     1       4.920  18.736  11.422  1.00  0.00     0.186 HD
BRANCH  16  18
HETATM   18  C8  UNL     1       4.223  17.918   9.122  1.00  0.00     0.021 A 
HETATM   19  C9  UNL     1       3.061  17.188   9.174  1.00  0.00     0.055 A 
HETATM   20  N5  UNL     1       3.371  16.024   8.522  1.00  0.00    -0.354 N 
HETATM   21  C16 UNL     1       4.615  16.008   8.096  1.00  0.00     0.043 A 
ATOM     22  H5  UNL     1       2.712  15.258   8.382  1.00  0.00     0.166 HD
HETATM   23  C17 UNL     1       5.318  15.021   7.398  1.00  0.00     0.030 A 
HETATM   24  C21 UNL     1       5.218  17.189   8.448  1.00  0.00     0.004 A 
HETATM   25  C18 UNL     1       6.634  15.212   7.045  1.00  0.00     0.002 A 
HETATM   26  C19 UNL     1       7.245  16.392   7.394  1.00  0.00     0.001 A 
HETATM   27  C20 UNL     1       6.522  17.360   8.090  1.00  0.00     0.014 A 
BRANCH  19  28
HETATM   28  C10 UNL     1       1.744  17.459   9.703  1.00  0.00    -0.009 A 
HETATM   29  C11 UNL     1       0.760  17.961   8.823  1.00  0.00     0.014 A 
HETATM   30  C12 UNL     1      -0.520  18.176   9.245  1.00  0.00     0.001 A 
HETATM   31  C13 UNL     1      -0.912  17.918  10.537  1.00  0.00     0.000 A 
HETATM   32  C14 UNL     1       0.054  17.430  11.382  1.00  0.00     0.001 A 
HETATM   33  C15 UNL     1       1.374  17.195  10.985  1.00  0.00     0.014 A 
ENDBRANCH  19  28
ENDBRANCH  16  18
ENDBRANCH  13  15
ENDBRANCH  11  13
ENDBRANCH   9  11
ENDBRANCH   6   9
TORSDOF 6
ENDMDL
