MODEL 1
REMARK VINA RESULT: -7.759818277      0.000      0.000
REMARK  4 active torsions:
REMARK  status: ('A' for Active; 'I' for Inactive)
REMARK    1  A    between atoms: S1_2  and  N1_4 
REMARK    2  A    between atoms: S1_2  and  C14_23 
REMARK    3  A    between atoms: N1_4  and  C1_6 
REMARK    4  A    between atoms: C4_9  and  C5_10 
ROOT
HETATM    1  C1  UNL     1       1.115  17.942  13.706  1.00  0.00     0.042 A 
HETATM    2  C2  UNL     1       2.507  18.124  13.851  1.00  0.00     0.031 A 
HETATM    3  C3  UNL     1       3.329  17.998  12.773  1.00  0.00     0.017 A 
HETATM    4  C4  UNL     1       2.834  17.691  11.515  1.00  0.00     0.008 A 
HETATM    5  C12 UNL     1       1.478  17.518  11.402  1.00  0.00     0.017 A 
HETATM    6  C13 UNL     1       0.592  17.636  12.478  1.00  0.00     0.031 A 
ENDROOT
BRANCH   1   7
HETATM    7  N1  UNL     1       0.294  18.089  14.841  1.00  0.00    -0.281 N 
ATOM      8  H1  UNL     1      -0.015  17.238  15.311  1.00  0.00     0.179 HD
BRANCH   7   9
HETATM    9  S1  UNL     1      -0.215  19.557  15.479  1.00  0.00     0.264 S 
HETATM   10  O1  UNL     1      -1.380  20.063  14.620  1.00  0.00    -0.200 OA
HETATM   11  O2  UNL     1      -0.749  19.358  16.906  1.00  0.00    -0.200 OA
BRANCH   9  12
HETATM   12  C14 UNL     1       0.974  20.811  15.480  1.00  0.00     0.092 A 
HETATM   13  C15 UNL     1       1.692  21.085  16.627  1.00  0.00     0.026 A 
HETATM   14  C16 UNL     1       2.623  22.085  16.655  1.00  0.00     0.004 A 
HETATM   15  C17 UNL     1       2.852  22.836  15.514  1.00  0.00     0.030 A 
HETATM   16  C18 UNL     1       2.155  22.592  14.348  1.00  0.00     0.043 A 
HETATM   17  N4  UNL     1       2.169  23.147  13.123  1.00  0.00    -0.365 N 
HETATM   18  C21 UNL     1       1.213  21.568  14.349  1.00  0.00     0.015 A 
HETATM   19  C19 UNL     1       1.269  22.506  12.357  1.00  0.00     0.089 A 
ATOM     20  H4  UNL     1       2.761  23.922  12.826  1.00  0.00     0.165 HD
HETATM   21  C20 UNL     1       0.650  21.505  13.102  1.00  0.00     0.032 A 
ENDBRANCH   9  12
ENDBRANCH   7   9
ENDBRANCH   1   7
BRANCH   4  22
HETATM   22  C5  UNL     1       3.726  17.557  10.357  1.00  0.00     0.116 A 
HETATM   23  N2  UNL     1       3.597  16.626   9.396  1.00  0.00    -0.340 N 
HETATM   24  C6  UNL     1       4.587  16.786   8.478  1.00  0.00     0.060 A 
ATOM     25  H2  UNL     1       2.871  15.911   9.361  1.00  0.00     0.167 HD
HETATM   26  C7  UNL     1       4.929  16.128   7.314  1.00  0.00     0.032 A 
HETATM   27  C11 UNL     1       5.355  17.852   8.881  1.00  0.00     0.060 A 
HETATM   28  C8  UNL     1       6.018  16.528   6.569  1.00  0.00     0.002 A 
HETATM   29  C9  UNL     1       6.801  17.596   6.957  1.00  0.00     0.002 A 
HETATM   30  C10 UNL     1       6.441  18.241   8.124  1.00  0.00     0.032 A 
HETATM   31  N3  UNL     1       4.792  18.291  10.032  1.00  0.00    -0.340 N 
ATOM     32  H3  UNL     1       5.138  19.079  10.579  1.00  0.00     0.167 HD
ENDBRANCH   4  22
TORSDOF 4
ENDMDL
MODEL 2
REMARK VINA RESULT: -7.745030495      0.179      1.077
REMARK  4 active torsions:
REMARK  status: ('A' for Active; 'I' for Inactive)
REMARK    1  A    between atoms: S1_2  and  N1_4 
REMARK    2  A    between atoms: S1_2  and  C14_23 
REMARK    3  A    between atoms: N1_4  and  C1_6 
REMARK    4  A    between atoms: C4_9  and  C5_10 
ROOT
HETATM    1  C1  UNL     1       1.094  17.922  13.709  1.00  0.00     0.042 A 
HETATM    2  C2  UNL     1       2.490  18.113  13.782  1.00  0.00     0.031 A 
HETATM    3  C3  UNL     1       3.263  17.942  12.673  1.00  0.00     0.017 A 
HETATM    4  C4  UNL     1       2.712  17.580  11.454  1.00  0.00     0.008 A 
HETATM    5  C12 UNL     1       1.352  17.400  11.411  1.00  0.00     0.017 A 
HETATM    6  C13 UNL     1       0.517  17.562  12.520  1.00  0.00     0.031 A 
ENDROOT
BRANCH   1   7
HETATM    7  N1  UNL     1       0.326  18.116  14.873  1.00  0.00    -0.281 N 
ATOM      8  H1  UNL     1       0.062  17.287  15.406  1.00  0.00     0.179 HD
BRANCH   7   9
HETATM    9  S1  UNL     1      -0.190  19.607  15.451  1.00  0.00     0.264 S 
HETATM   10  O1  UNL     1      -1.318  20.099  14.537  1.00  0.00    -0.200 OA
HETATM   11  O2  UNL     1      -0.774  19.455  16.864  1.00  0.00    -0.200 OA
BRANCH   9  12
HETATM   12  C14 UNL     1       1.012  20.849  15.458  1.00  0.00     0.092 A 
HETATM   13  C15 UNL     1       1.689  21.152  16.622  1.00  0.00     0.026 A 
HETATM   14  C16 UNL     1       2.629  22.143  16.654  1.00  0.00     0.004 A 
HETATM   15  C17 UNL     1       2.909  22.856  15.499  1.00  0.00     0.030 A 
HETATM   16  C18 UNL     1       2.254  22.581  14.316  1.00  0.00     0.043 A 
HETATM   17  N4  UNL     1       2.320  23.096  13.076  1.00  0.00    -0.365 N 
HETATM   18  C21 UNL     1       1.301  21.567  14.313  1.00  0.00     0.015 A 
HETATM   19  C19 UNL     1       1.443  22.440  12.296  1.00  0.00     0.089 A 
ATOM     20  H4  UNL     1       2.932  23.856  12.777  1.00  0.00     0.165 HD
HETATM   21  C20 UNL     1       0.786  21.470  13.049  1.00  0.00     0.032 A 
ENDBRANCH   9  12
ENDBRANCH   7   9
ENDBRANCH   1   7
BRANCH   4  22
HETATM   22  C5  UNL     1       3.550  17.398  10.263  1.00  0.00     0.116 A 
HETATM   23  N2  UNL     1       4.578  18.195   9.921  1.00  0.00    -0.340 N 
HETATM   24  C6  UNL     1       5.135  17.742   8.767  1.00  0.00     0.060 A 
ATOM     25  H2  UNL     1       4.890  19.011  10.447  1.00  0.00     0.167 HD
HETATM   26  C7  UNL     1       6.188  18.164   7.983  1.00  0.00     0.032 A 
HETATM   27  C11 UNL     1       4.430  16.627   8.379  1.00  0.00     0.060 A 
HETATM   28  C8  UNL     1       6.531  17.485   6.833  1.00  0.00     0.002 A 
HETATM   29  C9  UNL     1       5.837  16.363   6.427  1.00  0.00     0.002 A 
HETATM   30  C10 UNL     1       4.787  15.958   7.226  1.00  0.00     0.032 A 
HETATM   31  N3  UNL     1       3.474  16.455   9.321  1.00  0.00    -0.340 N 
ATOM     32  H3  UNL     1       2.785  15.703   9.313  1.00  0.00     0.167 HD
ENDBRANCH   4  22
TORSDOF 4
ENDMDL
MODEL 3
REMARK VINA RESULT: -7.676838970      0.887      1.982
REMARK  4 active torsions:
REMARK  status: ('A' for Active; 'I' for Inactive)
REMARK    1  A    between atoms: S1_2  and  N1_4 
REMARK    2  A    between atoms: S1_2  and  C14_23 
REMARK    3  A    between atoms: N1_4  and  C1_6 
REMARK    4  A    between atoms: C4_9  and  C5_10 
ROOT
HETATM    1  C1  UNL     1       1.233  18.149  14.121  1.00  0.00     0.042 A 
HETATM    2  C2  UNL     1       0.661  17.757  12.892  1.00  0.00     0.031 A 
HETATM    3  C3  UNL     1       1.445  17.609  11.788  1.00  0.00     0.017 A 
HETATM    4  C4  UNL     1       2.812  17.835  11.835  1.00  0.00     0.008 A 
HETATM    5  C12 UNL     1       3.343  18.216  13.041  1.00  0.00     0.017 A 
HETATM    6  C13 UNL     1       2.580  18.382  14.202  1.00  0.00     0.031 A 
ENDROOT
BRANCH   1   7
HETATM    7  N1  UNL     1       0.393  18.284  15.243  1.00  0.00    -0.281 N 
ATOM      8  H1  UNL     1       0.414  17.538  15.939  1.00  0.00     0.179 HD
BRANCH   7   9
HETATM    9  S1  UNL     1      -0.641  19.578  15.524  1.00  0.00     0.264 S 
HETATM   10  O1  UNL     1      -1.968  19.280  14.816  1.00  0.00    -0.200 OA
HETATM   11  O2  UNL     1      -0.938  19.703  17.026  1.00  0.00    -0.200 OA
BRANCH   9  12
HETATM   12  C14 UNL     1      -0.094  21.101  14.918  1.00  0.00     0.092 A 
HETATM   13  C15 UNL     1      -0.778  21.727  13.895  1.00  0.00     0.026 A 
HETATM   14  C16 UNL     1      -0.352  22.922  13.388  1.00  0.00     0.004 A 
HETATM   15  C17 UNL     1       0.786  23.517  13.909  1.00  0.00     0.030 A 
HETATM   16  C18 UNL     1       1.496  22.923  14.932  1.00  0.00     0.043 A 
HETATM   17  N4  UNL     1       2.605  23.263  15.613  1.00  0.00    -0.365 N 
HETATM   18  C21 UNL     1       1.039  21.706  15.429  1.00  0.00     0.015 A 
HETATM   19  C19 UNL     1       2.858  22.301  16.519  1.00  0.00     0.089 A 
ATOM     20  H4  UNL     1       3.160  24.106  15.467  1.00  0.00     0.165 HD
HETATM   21  C20 UNL     1       1.887  21.307  16.426  1.00  0.00     0.032 A 
ENDBRANCH   9  12
ENDBRANCH   7   9
ENDBRANCH   1   7
BRANCH   4  22
HETATM   22  C5  UNL     1       3.652  17.673  10.642  1.00  0.00     0.116 A 
HETATM   23  N2  UNL     1       3.468  16.733   9.698  1.00  0.00    -0.340 N 
HETATM   24  C6  UNL     1       4.420  16.866   8.737  1.00  0.00     0.060 A 
ATOM     25  H2  UNL     1       2.729  16.030   9.703  1.00  0.00     0.167 HD
HETATM   26  C7  UNL     1       4.701  16.189   7.569  1.00  0.00     0.032 A 
HETATM   27  C11 UNL     1       5.222  17.924   9.095  1.00  0.00     0.060 A 
HETATM   28  C8  UNL     1       5.764  16.563   6.773  1.00  0.00     0.002 A 
HETATM   29  C9  UNL     1       6.580  17.622   7.115  1.00  0.00     0.002 A 
HETATM   30  C10 UNL     1       6.281  18.286   8.288  1.00  0.00     0.032 A 
HETATM   31  N3  UNL     1       4.715  18.385  10.263  1.00  0.00    -0.340 N 
ATOM     32  H3  UNL     1       5.096  19.174  10.785  1.00  0.00     0.167 HD
ENDBRANCH   4  22
TORSDOF 4
ENDMDL
MODEL 4
REMARK VINA RESULT: -7.419771142      3.891      9.546
REMARK  4 active torsions:
REMARK  status: ('A' for Active; 'I' for Inactive)
REMARK    1  A    between atoms: S1_2  and  N1_4 
REMARK    2  A    between atoms: S1_2  and  C14_23 
REMARK    3  A    between atoms: N1_4  and  C1_6 
REMARK    4  A    between atoms: C4_9  and  C5_10 
ROOT
HETATM    1  C1  UNL     1       3.389  16.934   9.408  1.00  0.00     0.042 A 
HETATM    2  C2  UNL     1       2.175  17.037  10.119  1.00  0.00     0.031 A 
HETATM    3  C3  UNL     1       2.084  17.853  11.206  1.00  0.00     0.017 A 
HETATM    4  C4  UNL     1       3.167  18.599  11.643  1.00  0.00     0.008 A 
HETATM    5  C12 UNL     1       4.336  18.481  10.936  1.00  0.00     0.017 A 
HETATM    6  C13 UNL     1       4.479  17.657   9.814  1.00  0.00     0.031 A 
ENDROOT
BRANCH   1   7
HETATM    7  N1  UNL     1       3.443  16.088   8.284  1.00  0.00    -0.281 N 
ATOM      8  H1  UNL     1       3.413  15.082   8.451  1.00  0.00     0.179 HD
BRANCH   7   9
HETATM    9  S1  UNL     1       3.552  16.607   6.690  1.00  0.00     0.264 S 
HETATM   10  O1  UNL     1       2.149  16.534   6.076  1.00  0.00    -0.200 OA
HETATM   11  O2  UNL     1       4.002  18.075   6.639  1.00  0.00    -0.200 OA
BRANCH   9  12
HETATM   12  C14 UNL     1       4.580  15.656   5.676  1.00  0.00     0.092 A 
HETATM   13  C15 UNL     1       4.344  15.589   4.318  1.00  0.00     0.026 A 
HETATM   14  C16 UNL     1       5.132  14.829   3.501  1.00  0.00     0.004 A 
HETATM   15  C17 UNL     1       6.186  14.111   4.045  1.00  0.00     0.030 A 
HETATM   16  C18 UNL     1       6.453  14.153   5.397  1.00  0.00     0.043 A 
HETATM   17  N4  UNL     1       7.383  13.576   6.179  1.00  0.00    -0.365 N 
HETATM   18  C21 UNL     1       5.634  14.936   6.205  1.00  0.00     0.015 A 
HETATM   19  C19 UNL     1       7.175  13.970   7.448  1.00  0.00     0.089 A 
ATOM     20  H4  UNL     1       8.120  12.946   5.863  1.00  0.00     0.165 HD
HETATM   21  C20 UNL     1       6.078  14.829   7.495  1.00  0.00     0.032 A 
ENDBRANCH   9  12
ENDBRANCH   7   9
ENDBRANCH   1   7
BRANCH   4  22
HETATM   22  C5  UNL     1       3.063  19.477  12.815  1.00  0.00     0.116 A 
HETATM   23  N2  UNL     1       2.941  20.815  12.761  1.00  0.00    -0.340 N 
HETATM   24  C6  UNL     1       2.870  21.313  14.024  1.00  0.00     0.060 A 
ATOM     25  H2  UNL     1       2.906  21.369  11.905  1.00  0.00     0.167 HD
HETATM   26  C7  UNL     1       2.743  22.584  14.545  1.00  0.00     0.032 A 
HETATM   27  C11 UNL     1       2.951  20.250  14.892  1.00  0.00     0.060 A 
HETATM   28  C8  UNL     1       2.698  22.787  15.908  1.00  0.00     0.002 A 
HETATM   29  C9  UNL     1       2.777  21.733  16.796  1.00  0.00     0.002 A 
HETATM   30  C10 UNL     1       2.903  20.470  16.253  1.00  0.00     0.032 A 
HETATM   31  N3  UNL     1       3.067  19.151  14.109  1.00  0.00    -0.340 N 
ATOM     32  H3  UNL     1       3.148  18.198  14.463  1.00  0.00     0.167 HD
ENDBRANCH   4  22
TORSDOF 4
ENDMDL
MODEL 5
REMARK VINA RESULT: -7.397487813      1.635      2.378
REMARK  4 active torsions:
REMARK  status: ('A' for Active; 'I' for Inactive)
REMARK    1  A    between atoms: S1_2  and  N1_4 
REMARK    2  A    between atoms: S1_2  and  C14_23 
REMARK    3  A    between atoms: N1_4  and  C1_6 
REMARK    4  A    between atoms: C4_9  and  C5_10 
ROOT
HETATM    1  C1  UNL     1       1.790  18.475  14.157  1.00  0.00     0.042 A 
HETATM    2  C2  UNL     1       3.131  18.370  13.729  1.00  0.00     0.031 A 
HETATM    3  C3  UNL     1       3.414  17.970  12.459  1.00  0.00     0.017 A 
HETATM    4  C4  UNL     1       2.410  17.657  11.556  1.00  0.00     0.008 A 
HETATM    5  C12 UNL     1       1.115  17.766  11.997  1.00  0.00     0.017 A 
HETATM    6  C13 UNL     1       0.773  18.172  13.291  1.00  0.00     0.031 A 
ENDROOT
BRANCH   1   7
HETATM    7  N1  UNL     1       1.535  18.901  15.475  1.00  0.00    -0.281 N 
ATOM      8  H1  UNL     1       1.612  18.206  16.217  1.00  0.00     0.179 HD
BRANCH   7   9
HETATM    9  S1  UNL     1       1.112  20.465  15.918  1.00  0.00     0.264 S 
HETATM   10  O1  UNL     1      -0.181  20.387  16.740  1.00  0.00    -0.200 OA
HETATM   11  O2  UNL     1       2.196  21.072  16.822  1.00  0.00    -0.200 OA
BRANCH   9  12
HETATM   12  C14 UNL     1       0.792  21.541  14.604  1.00  0.00     0.092 A 
HETATM   13  C15 UNL     1      -0.509  21.838  14.251  1.00  0.00     0.026 A 
HETATM   14  C16 UNL     1      -0.784  22.670  13.204  1.00  0.00     0.004 A 
HETATM   15  C17 UNL     1       0.259  23.227  12.482  1.00  0.00     0.030 A 
HETATM   16  C18 UNL     1       1.573  22.954  12.804  1.00  0.00     0.043 A 
HETATM   17  N4  UNL     1       2.755  23.343  12.293  1.00  0.00    -0.365 N 
HETATM   18  C21 UNL     1       1.824  22.104  13.876  1.00  0.00     0.015 A 
HETATM   19  C19 UNL     1       3.736  22.765  13.007  1.00  0.00     0.089 A 
ATOM     20  H4  UNL     1       2.884  23.969  11.498  1.00  0.00     0.165 HD
HETATM   21  C20 UNL     1       3.180  21.977  14.013  1.00  0.00     0.032 A 
ENDBRANCH   9  12
ENDBRANCH   7   9
ENDBRANCH   1   7
BRANCH   4  22
HETATM   22  C5  UNL     1       2.722  17.226  10.188  1.00  0.00     0.116 A 
HETATM   23  N2  UNL     1       3.746  16.422   9.853  1.00  0.00    -0.340 N 
HETATM   24  C6  UNL     1       3.745  16.226   8.508  1.00  0.00     0.060 A 
ATOM     25  H2  UNL     1       4.418  16.021  10.507  1.00  0.00     0.167 HD
HETATM   26  C7  UNL     1       4.547  15.509   7.645  1.00  0.00     0.032 A 
HETATM   27  C11 UNL     1       2.685  16.931   7.990  1.00  0.00     0.060 A 
HETATM   28  C8  UNL     1       4.294  15.497   6.290  1.00  0.00     0.002 A 
HETATM   29  C9  UNL     1       3.234  16.198   5.750  1.00  0.00     0.002 A 
HETATM   30  C10 UNL     1       2.444  16.908   6.631  1.00  0.00     0.032 A 
HETATM   31  N3  UNL     1       2.090  17.525   9.051  1.00  0.00    -0.340 N 
ATOM     32  H3  UNL     1       1.266  18.123   8.989  1.00  0.00     0.167 HD
ENDBRANCH   4  22
TORSDOF 4
ENDMDL
