MODEL 1
REMARK VINA RESULT: -7.758622060      0.000      0.000
REMARK  13 active torsions:
REMARK  status: ('A' for Active; 'I' for Inactive)
REMARK    1  A    between atoms: C2_2  and  C3_3 
REMARK    2  A    between atoms: C5_5  and  O1_6 
REMARK    3  A    between atoms: C16_20  and  N1_21 
REMARK       I    between atoms: N1_21  and  C17_23 
REMARK    4  A    between atoms: C17_23  and  C18_25 
REMARK    5  A    between atoms: C18_25  and  C19_26 
REMARK    6  A    between atoms: C19_26  and  C20_27 
REMARK    7  A    between atoms: C20_27  and  C21_28 
REMARK    8  A    between atoms: C21_28  and  C22_29 
REMARK    9  A    between atoms: C22_29  and  C23_30 
REMARK   10  A    between atoms: C23_30  and  C24_31 
REMARK   11  A    between atoms: C24_31  and  C25_32 
REMARK   12  A    between atoms: C25_32  and  N2_33 
REMARK   13  A    between atoms: C30_38  and  C31_39 
ROOT
HETATM    1  C3  UNL     1      -6.980  48.577   0.018  1.00  0.00    -0.020 C 
HETATM    2  C4  UNL     1      -6.790  48.381   1.433  1.00  0.00    -0.038 C 
HETATM    3  C5  UNL     1      -5.564  48.910   2.110  1.00  0.00     0.180 C 
HETATM    4  C6  UNL     1      -4.816  48.043   2.993  1.00  0.00     0.191 A 
HETATM    5  O2  UNL     1      -4.019  47.015   2.853  1.00  0.00    -0.365 OA
HETATM    6  C7  UNL     1      -5.119  46.772   3.456  1.00  0.00     0.108 A 
HETATM    7  C8  UNL     1      -6.102  47.132   4.503  1.00  0.00     0.106 C 
HETATM    8  C9  UNL     1      -6.209  45.977   5.420  1.00  0.00     0.157 C 
HETATM    9  O3  UNL     1      -7.173  45.962   6.233  1.00  0.00    -0.293 OA
HETATM   10  C10 UNL     1      -5.342  44.799   5.544  1.00  0.00     0.047 C 
HETATM   11  C11 UNL     1      -4.755  44.168   4.517  1.00  0.00    -0.014 C 
HETATM   12  C12 UNL     1      -4.786  44.428   3.030  1.00  0.00    -0.021 C 
HETATM   13  C13 UNL     1      -3.419  44.580   2.487  1.00  0.00     0.019 C 
HETATM   14  C14 UNL     1      -5.370  43.116   2.464  1.00  0.00     0.019 C 
HETATM   15  C15 UNL     1      -5.722  45.566   2.909  1.00  0.00     0.059 C 
HETATM   16  C16 UNL     1      -6.536  45.891   1.744  1.00  0.00     0.109 C 
HETATM   17  C32 UNL     1      -7.229  47.177   2.190  1.00  0.00     0.032 A 
HETATM   18  C33 UNL     1      -8.659  46.953   2.484  1.00  0.00    -0.013 A 
HETATM   19  C34 UNL     1      -8.609  47.244   3.765  1.00  0.00    -0.022 A 
HETATM   20  C35 UNL     1      -7.223  47.514   3.655  1.00  0.00     0.041 A 
ENDROOT
BRANCH  16  21
HETATM   21  N1  UNL     1      -7.600  44.896   1.508  1.00  0.00    -0.355 N 
HETATM   22  C17 UNL     1      -8.007  44.446   0.231  1.00  0.00     0.217 C 
HETATM   23  O4  UNL     1      -7.438  44.905  -0.773  1.00  0.00    -0.274 OA
ATOM     24  H1  UNL     1      -8.074  44.506   2.322  1.00  0.00     0.162 HD
BRANCH  22  25
HETATM   25  C18 UNL     1      -9.077  43.461   0.048  1.00  0.00     0.103 C 
BRANCH  25  26
HETATM   26  C19 UNL     1      -8.786  42.054   0.333  1.00  0.00     0.009 C 
BRANCH  26  27
HETATM   27  C20 UNL     1      -9.370  41.098  -0.631  1.00  0.00     0.000 C 
BRANCH  27  28
HETATM   28  C21 UNL     1     -10.062  41.871  -1.753  1.00  0.00     0.000 C 
BRANCH  28  29
HETATM   29  C22 UNL     1     -11.527  41.597  -1.793  1.00  0.00     0.000 C 
BRANCH  29  30
HETATM   30  C23 UNL     1     -12.340  42.867  -1.812  1.00  0.00     0.002 C 
BRANCH  30  31
HETATM   31  C24 UNL     1     -11.770  43.825  -2.823  1.00  0.00     0.030 C 
BRANCH  31  32
HETATM   32  C25 UNL     1     -12.271  45.213  -2.513  1.00  0.00     0.273 C 
BRANCH  32  33
HETATM   33  N2  UNL     1     -11.950  45.553  -1.147  1.00  0.00     0.103 N 
HETATM   34  C26 UNL     1     -10.848  46.509  -1.086  1.00  0.00     0.274 C 
HETATM   35  C27 UNL     1     -11.347  47.720  -0.344  1.00  0.00     0.037 C 
HETATM   36  C28 UNL     1     -12.828  47.675  -0.657  1.00  0.00     0.027 C 
HETATM   37  C29 UNL     1     -13.629  48.496   0.307  1.00  0.00     0.012 C 
HETATM   38  C30 UNL     1     -13.101  46.195  -0.544  1.00  0.00     0.326 C 
BRANCH  38  39
HETATM   39  C31 UNL     1     -13.220  45.800   0.886  1.00  0.00     0.208 C 
HETATM   40  O5  UNL     1     -12.224  45.546   1.606  1.00  0.00    -0.646 OA
HETATM   41  O6  UNL     1     -14.477  45.706   1.468  1.00  0.00    -0.646 OA
ENDBRANCH  38  39
ENDBRANCH  32  33
ENDBRANCH  31  32
ENDBRANCH  30  31
ENDBRANCH  29  30
ENDBRANCH  28  29
ENDBRANCH  27  28
ENDBRANCH  26  27
ENDBRANCH  25  26
ENDBRANCH  22  25
ENDBRANCH  16  21
BRANCH   1  42
HETATM   42  C2  UNL     1      -6.079  48.159  -1.059  1.00  0.00     0.023 C 
HETATM   43  C1  UNL     1      -5.516  49.379  -1.830  1.00  0.00     0.009 C 
ENDBRANCH   1  42
BRANCH   3  44
HETATM   44  O1  UNL     1      -4.651  49.494   1.186  1.00  0.00    -0.388 OA
ATOM     45  H1  UNL     1      -4.638  49.033   0.355  1.00  0.00     0.210 HD
ENDBRANCH   3  44
TORSDOF 13
ENDMDL
MODEL 2
REMARK VINA RESULT: -7.718154519      1.688      4.141
REMARK  13 active torsions:
REMARK  status: ('A' for Active; 'I' for Inactive)
REMARK    1  A    between atoms: C2_2  and  C3_3 
REMARK    2  A    between atoms: C5_5  and  O1_6 
REMARK    3  A    between atoms: C16_20  and  N1_21 
REMARK       I    between atoms: N1_21  and  C17_23 
REMARK    4  A    between atoms: C17_23  and  C18_25 
REMARK    5  A    between atoms: C18_25  and  C19_26 
REMARK    6  A    between atoms: C19_26  and  C20_27 
REMARK    7  A    between atoms: C20_27  and  C21_28 
REMARK    8  A    between atoms: C21_28  and  C22_29 
REMARK    9  A    between atoms: C22_29  and  C23_30 
REMARK   10  A    between atoms: C23_30  and  C24_31 
REMARK   11  A    between atoms: C24_31  and  C25_32 
REMARK   12  A    between atoms: C25_32  and  N2_33 
REMARK   13  A    between atoms: C30_38  and  C31_39 
ROOT
HETATM    1  C3  UNL     1      -5.490  46.500   5.337  1.00  0.00    -0.020 C 
HETATM    2  C4  UNL     1      -4.893  47.218   4.240  1.00  0.00    -0.038 C 
HETATM    3  C5  UNL     1      -5.054  48.702   4.132  1.00  0.00     0.180 C 
HETATM    4  C6  UNL     1      -5.456  49.279   2.868  1.00  0.00     0.191 A 
HETATM    5  O2  UNL     1      -6.558  49.336   2.165  1.00  0.00    -0.365 OA
HETATM    6  C7  UNL     1      -5.603  48.681   1.626  1.00  0.00     0.108 A 
HETATM    7  C8  UNL     1      -4.177  48.601   1.234  1.00  0.00     0.106 C 
HETATM    8  C9  UNL     1      -4.136  48.417  -0.233  1.00  0.00     0.157 C 
HETATM    9  O3  UNL     1      -3.039  48.068  -0.749  1.00  0.00    -0.293 OA
HETATM   10  C10 UNL     1      -5.204  48.583  -1.226  1.00  0.00     0.047 C 
HETATM   11  C11 UNL     1      -6.488  48.249  -1.033  1.00  0.00    -0.014 C 
HETATM   12  C12 UNL     1      -7.200  47.647   0.155  1.00  0.00    -0.021 C 
HETATM   13  C13 UNL     1      -8.340  48.489   0.576  1.00  0.00     0.019 C 
HETATM   14  C14 UNL     1      -7.776  46.334  -0.419  1.00  0.00     0.019 C 
HETATM   15  C15 UNL     1      -6.104  47.413   1.119  1.00  0.00     0.059 C 
HETATM   16  C16 UNL     1      -6.084  46.403   2.171  1.00  0.00     0.109 C 
HETATM   17  C32 UNL     1      -4.749  46.687   2.857  1.00  0.00     0.032 A 
HETATM   18  C33 UNL     1      -3.746  45.646   2.551  1.00  0.00    -0.013 A 
HETATM   19  C34 UNL     1      -2.898  46.422   1.910  1.00  0.00    -0.022 A 
HETATM   20  C35 UNL     1      -3.744  47.536   2.129  1.00  0.00     0.041 A 
ENDROOT
BRANCH  16  21
HETATM   21  N1  UNL     1      -6.000  45.032   1.631  1.00  0.00    -0.355 N 
HETATM   22  C17 UNL     1      -6.900  43.990   1.950  1.00  0.00     0.217 C 
HETATM   23  O4  UNL     1      -7.834  44.226   2.733  1.00  0.00    -0.274 OA
ATOM     24  H1  UNL     1      -5.241  44.822   0.983  1.00  0.00     0.162 HD
BRANCH  22  25
HETATM   25  C18 UNL     1      -6.769  42.639   1.394  1.00  0.00     0.103 C 
BRANCH  25  26
HETATM   26  C19 UNL     1      -7.693  42.228   0.334  1.00  0.00     0.009 C 
BRANCH  26  27
HETATM   27  C20 UNL     1      -8.226  40.858   0.480  1.00  0.00     0.000 C 
BRANCH  27  28
HETATM   28  C21 UNL     1      -9.183  40.563  -0.676  1.00  0.00     0.000 C 
BRANCH  28  29
HETATM   29  C22 UNL     1      -9.774  41.810  -1.237  1.00  0.00     0.000 C 
BRANCH  29  30
HETATM   30  C23 UNL     1     -11.139  41.571  -1.834  1.00  0.00     0.002 C 
BRANCH  30  31
HETATM   31  C24 UNL     1     -11.902  42.866  -1.903  1.00  0.00     0.030 C 
BRANCH  31  32
HETATM   32  C25 UNL     1     -11.125  43.929  -1.167  1.00  0.00     0.273 C 
BRANCH  32  33
HETATM   33  N2  UNL     1     -11.967  44.550  -0.174  1.00  0.00     0.103 N 
HETATM   34  C26 UNL     1     -11.191  44.965   0.991  1.00  0.00     0.274 C 
HETATM   35  C27 UNL     1     -11.399  46.446   1.162  1.00  0.00     0.037 C 
HETATM   36  C28 UNL     1     -11.674  46.878  -0.263  1.00  0.00     0.027 C 
HETATM   37  C29 UNL     1     -12.348  48.214  -0.323  1.00  0.00     0.012 C 
HETATM   38  C30 UNL     1     -12.552  45.748  -0.742  1.00  0.00     0.326 C 
BRANCH  38  39
HETATM   39  C31 UNL     1     -13.943  45.929  -0.241  1.00  0.00     0.208 C 
HETATM   40  O5  UNL     1     -14.873  46.365  -0.962  1.00  0.00    -0.646 OA
HETATM   41  O6  UNL     1     -14.244  45.605   1.075  1.00  0.00    -0.646 OA
ENDBRANCH  38  39
ENDBRANCH  32  33
ENDBRANCH  31  32
ENDBRANCH  30  31
ENDBRANCH  29  30
ENDBRANCH  28  29
ENDBRANCH  27  28
ENDBRANCH  26  27
ENDBRANCH  25  26
ENDBRANCH  22  25
ENDBRANCH  16  21
BRANCH   1  42
HETATM   42  C2  UNL     1      -6.906  46.477   5.710  1.00  0.00     0.023 C 
HETATM   43  C1  UNL     1      -7.092  46.648   7.239  1.00  0.00     0.009 C 
ENDBRANCH   1  42
BRANCH   3  44
HETATM   44  O1  UNL     1      -5.906  49.224   5.147  1.00  0.00    -0.388 OA
ATOM     45  H1  UNL     1      -6.757  49.473   4.807  1.00  0.00     0.210 HD
ENDBRANCH   3  44
TORSDOF 13
ENDMDL
MODEL 3
REMARK VINA RESULT: -7.715788951      0.849      1.125
REMARK  13 active torsions:
REMARK  status: ('A' for Active; 'I' for Inactive)
REMARK    1  A    between atoms: C2_2  and  C3_3 
REMARK    2  A    between atoms: C5_5  and  O1_6 
REMARK    3  A    between atoms: C16_20  and  N1_21 
REMARK       I    between atoms: N1_21  and  C17_23 
REMARK    4  A    between atoms: C17_23  and  C18_25 
REMARK    5  A    between atoms: C18_25  and  C19_26 
REMARK    6  A    between atoms: C19_26  and  C20_27 
REMARK    7  A    between atoms: C20_27  and  C21_28 
REMARK    8  A    between atoms: C21_28  and  C22_29 
REMARK    9  A    between atoms: C22_29  and  C23_30 
REMARK   10  A    between atoms: C23_30  and  C24_31 
REMARK   11  A    between atoms: C24_31  and  C25_32 
REMARK   12  A    between atoms: C25_32  and  N2_33 
REMARK   13  A    between atoms: C30_38  and  C31_39 
ROOT
HETATM    1  C3  UNL     1      -6.710  48.829   0.025  1.00  0.00    -0.020 C 
HETATM    2  C4  UNL     1      -6.567  48.588   1.439  1.00  0.00    -0.038 C 
HETATM    3  C5  UNL     1      -5.353  49.074   2.168  1.00  0.00     0.180 C 
HETATM    4  C6  UNL     1      -4.649  48.168   3.048  1.00  0.00     0.191 A 
HETATM    5  O2  UNL     1      -3.867  47.129   2.902  1.00  0.00    -0.365 OA
HETATM    6  C7  UNL     1      -4.989  46.889   3.463  1.00  0.00     0.108 A 
HETATM    7  C8  UNL     1      -5.999  47.237   4.490  1.00  0.00     0.106 C 
HETATM    8  C9  UNL     1      -6.154  46.057   5.368  1.00  0.00     0.157 C 
HETATM    9  O3  UNL     1      -7.144  46.037   6.151  1.00  0.00    -0.293 OA
HETATM   10  C10 UNL     1      -5.313  44.860   5.483  1.00  0.00     0.047 C 
HETATM   11  C11 UNL     1      -4.706  44.249   4.457  1.00  0.00    -0.014 C 
HETATM   12  C12 UNL     1      -4.685  44.553   2.978  1.00  0.00    -0.021 C 
HETATM   13  C13 UNL     1      -3.300  44.695   2.481  1.00  0.00     0.019 C 
HETATM   14  C14 UNL     1      -5.276  43.270   2.355  1.00  0.00     0.019 C 
HETATM   15  C15 UNL     1      -5.597  45.712   2.862  1.00  0.00     0.059 C 
HETATM   16  C16 UNL     1      -6.368  46.086   1.683  1.00  0.00     0.109 C 
HETATM   17  C32 UNL     1      -7.051  47.371   2.145  1.00  0.00     0.032 A 
HETATM   18  C33 UNL     1      -8.494  47.165   2.389  1.00  0.00    -0.013 A 
HETATM   19  C34 UNL     1      -8.478  47.418   3.679  1.00  0.00    -0.022 A 
HETATM   20  C35 UNL     1      -7.085  47.664   3.619  1.00  0.00     0.041 A 
ENDROOT
BRANCH  16  21
HETATM   21  N1  UNL     1      -7.442  45.118   1.384  1.00  0.00    -0.355 N 
HETATM   22  C17 UNL     1      -7.934  44.843   0.088  1.00  0.00     0.217 C 
HETATM   23  O4  UNL     1      -7.438  45.443  -0.879  1.00  0.00    -0.274 OA
ATOM     24  H1  UNL     1      -7.857  44.614   2.167  1.00  0.00     0.162 HD
BRANCH  22  25
HETATM   25  C18 UNL     1      -9.011  43.878  -0.156  1.00  0.00     0.103 C 
BRANCH  25  26
HETATM   26  C19 UNL     1      -8.649  42.512  -0.542  1.00  0.00     0.009 C 
BRANCH  26  27
HETATM   27  C20 UNL     1      -9.735  41.522  -0.392  1.00  0.00     0.000 C 
BRANCH  27  28
HETATM   28  C21 UNL     1     -10.437  41.334  -1.738  1.00  0.00     0.000 C 
BRANCH  28  29
HETATM   29  C22 UNL     1     -11.783  41.973  -1.754  1.00  0.00     0.000 C 
BRANCH  29  30
HETATM   30  C23 UNL     1     -11.776  43.290  -2.488  1.00  0.00     0.002 C 
BRANCH  30  31
HETATM   31  C24 UNL     1     -13.061  44.029  -2.229  1.00  0.00     0.030 C 
BRANCH  31  32
HETATM   32  C25 UNL     1     -12.740  45.466  -1.907  1.00  0.00     0.273 C 
BRANCH  32  33
HETATM   33  N2  UNL     1     -13.201  45.782  -0.576  1.00  0.00     0.103 N 
HETATM   34  C26 UNL     1     -12.403  45.095   0.435  1.00  0.00     0.274 C 
HETATM   35  C27 UNL     1     -11.821  46.150   1.338  1.00  0.00     0.037 C 
HETATM   36  C28 UNL     1     -11.732  47.334   0.398  1.00  0.00     0.027 C 
HETATM   37  C29 UNL     1     -11.606  48.629   1.140  1.00  0.00     0.012 C 
HETATM   38  C30 UNL     1     -13.036  47.204  -0.352  1.00  0.00     0.326 C 
BRANCH  38  39
HETATM   39  C31 UNL     1     -14.159  47.729   0.474  1.00  0.00     0.208 C 
HETATM   40  O5  UNL     1     -14.466  48.945   0.509  1.00  0.00    -0.646 OA
HETATM   41  O6  UNL     1     -14.911  46.851   1.243  1.00  0.00    -0.646 OA
ENDBRANCH  38  39
ENDBRANCH  32  33
ENDBRANCH  31  32
ENDBRANCH  30  31
ENDBRANCH  29  30
ENDBRANCH  28  29
ENDBRANCH  27  28
ENDBRANCH  26  27
ENDBRANCH  25  26
ENDBRANCH  22  25
ENDBRANCH  16  21
BRANCH   1  42
HETATM   42  C2  UNL     1      -5.784  48.426  -1.036  1.00  0.00     0.023 C 
HETATM   43  C1  UNL     1      -5.328  49.643  -1.881  1.00  0.00     0.009 C 
ENDBRANCH   1  42
BRANCH   3  44
HETATM   44  O1  UNL     1      -4.402  49.668   1.291  1.00  0.00    -0.388 OA
ATOM     45  H1  UNL     1      -3.585  49.868   1.732  1.00  0.00     0.210 HD
ENDBRANCH   3  44
TORSDOF 13
ENDMDL
MODEL 4
REMARK VINA RESULT: -7.355237730      2.199      3.451
REMARK  13 active torsions:
REMARK  status: ('A' for Active; 'I' for Inactive)
REMARK    1  A    between atoms: C2_2  and  C3_3 
REMARK    2  A    between atoms: C5_5  and  O1_6 
REMARK    3  A    between atoms: C16_20  and  N1_21 
REMARK       I    between atoms: N1_21  and  C17_23 
REMARK    4  A    between atoms: C17_23  and  C18_25 
REMARK    5  A    between atoms: C18_25  and  C19_26 
REMARK    6  A    between atoms: C19_26  and  C20_27 
REMARK    7  A    between atoms: C20_27  and  C21_28 
REMARK    8  A    between atoms: C21_28  and  C22_29 
REMARK    9  A    between atoms: C22_29  and  C23_30 
REMARK   10  A    between atoms: C23_30  and  C24_31 
REMARK   11  A    between atoms: C24_31  and  C25_32 
REMARK   12  A    between atoms: C25_32  and  N2_33 
REMARK   13  A    between atoms: C30_38  and  C31_39 
ROOT
HETATM    1  C3  UNL     1      -2.076  46.129   1.539  1.00  0.00    -0.020 C 
HETATM    2  C4  UNL     1      -2.917  46.912   2.409  1.00  0.00    -0.038 C 
HETATM    3  C5  UNL     1      -2.427  47.322   3.763  1.00  0.00     0.180 C 
HETATM    4  C6  UNL     1      -3.280  47.121   4.913  1.00  0.00     0.191 A 
HETATM    5  O2  UNL     1      -3.685  46.097   5.620  1.00  0.00    -0.365 OA
HETATM    6  C7  UNL     1      -4.603  46.710   4.977  1.00  0.00     0.108 A 
HETATM    7  C8  UNL     1      -5.262  47.983   4.602  1.00  0.00     0.106 C 
HETATM    8  C9  UNL     1      -6.669  47.895   5.049  1.00  0.00     0.157 C 
HETATM    9  O3  UNL     1      -7.478  48.757   4.608  1.00  0.00    -0.293 OA
HETATM   10  C10 UNL     1      -7.303  46.932   5.958  1.00  0.00     0.047 C 
HETATM   11  C11 UNL     1      -7.007  45.627   6.018  1.00  0.00    -0.014 C 
HETATM   12  C12 UNL     1      -6.019  44.785   5.246  1.00  0.00    -0.021 C 
HETATM   13  C13 UNL     1      -5.102  44.067   6.158  1.00  0.00     0.019 C 
HETATM   14  C14 UNL     1      -6.921  43.733   4.567  1.00  0.00     0.019 C 
HETATM   15  C15 UNL     1      -5.442  45.746   4.282  1.00  0.00     0.059 C 
HETATM   16  C16 UNL     1      -4.871  45.422   2.980  1.00  0.00     0.109 C 
HETATM   17  C32 UNL     1      -4.397  46.790   2.492  1.00  0.00     0.032 A 
HETATM   18  C33 UNL     1      -5.258  47.310   1.409  1.00  0.00    -0.013 A 
HETATM   19  C34 UNL     1      -5.711  48.363   2.054  1.00  0.00    -0.022 A 
HETATM   20  C35 UNL     1      -4.932  48.013   3.184  1.00  0.00     0.041 A 
ENDROOT
BRANCH  16  21
HETATM   21  N1  UNL     1      -5.890  44.958   2.020  1.00  0.00    -0.355 N 
HETATM   22  C17 UNL     1      -5.981  43.637   1.523  1.00  0.00     0.217 C 
HETATM   23  O4  UNL     1      -5.157  42.795   1.915  1.00  0.00    -0.274 OA
ATOM     24  H1  UNL     1      -6.577  45.636   1.691  1.00  0.00     0.162 HD
BRANCH  22  25
HETATM   25  C18 UNL     1      -7.007  43.227   0.561  1.00  0.00     0.103 C 
BRANCH  25  26
HETATM   26  C19 UNL     1      -8.040  42.286   1.002  1.00  0.00     0.009 C 
BRANCH  26  27
HETATM   27  C20 UNL     1      -7.889  40.915   0.473  1.00  0.00     0.000 C 
BRANCH  27  28
HETATM   28  C21 UNL     1      -9.030  40.620  -0.502  1.00  0.00     0.000 C 
BRANCH  28  29
HETATM   29  C22 UNL     1     -10.098  41.658  -0.431  1.00  0.00     0.000 C 
BRANCH  29  30
HETATM   30  C23 UNL     1     -10.905  41.726  -1.704  1.00  0.00     0.002 C 
BRANCH  30  31
HETATM   31  C24 UNL     1     -11.262  43.156  -2.008  1.00  0.00     0.030 C 
BRANCH  31  32
HETATM   32  C25 UNL     1     -10.090  44.036  -1.652  1.00  0.00     0.273 C 
BRANCH  32  33
HETATM   33  N2  UNL     1     -10.565  45.285  -1.109  1.00  0.00     0.103 N 
HETATM   34  C26 UNL     1     -11.648  45.066  -0.153  1.00  0.00     0.274 C 
HETATM   35  C27 UNL     1     -11.217  45.673   1.156  1.00  0.00     0.037 C 
HETATM   36  C28 UNL     1      -9.711  45.554   1.062  1.00  0.00     0.027 C 
HETATM   37  C29 UNL     1      -9.016  46.474   2.018  1.00  0.00     0.012 C 
HETATM   38  C30 UNL     1      -9.483  45.920  -0.385  1.00  0.00     0.326 C 
BRANCH  38  39
HETATM   39  C31 UNL     1      -9.545  47.398  -0.558  1.00  0.00     0.208 C 
HETATM   40  O5  UNL     1      -8.589  48.157  -0.265  1.00  0.00    -0.646 OA
HETATM   41  O6  UNL     1     -10.699  47.980  -1.065  1.00  0.00    -0.646 OA
ENDBRANCH  38  39
ENDBRANCH  32  33
ENDBRANCH  31  32
ENDBRANCH  30  31
ENDBRANCH  29  30
ENDBRANCH  28  29
ENDBRANCH  27  28
ENDBRANCH  26  27
ENDBRANCH  25  26
ENDBRANCH  22  25
ENDBRANCH  16  21
BRANCH   1  42
HETATM   42  C2  UNL     1      -1.475  44.826   1.831  1.00  0.00     0.023 C 
HETATM   43  C1  UNL     1      -0.599  44.330   0.652  1.00  0.00     0.009 C 
ENDBRANCH   1  42
BRANCH   3  44
HETATM   44  O1  UNL     1      -1.147  46.772   4.060  1.00  0.00    -0.388 OA
ATOM     45  H1  UNL     1      -0.455  47.184   3.556  1.00  0.00     0.210 HD
ENDBRANCH   3  44
TORSDOF 13
ENDMDL
MODEL 5
REMARK VINA RESULT: -7.262609989      1.900      2.979
REMARK  13 active torsions:
REMARK  status: ('A' for Active; 'I' for Inactive)
REMARK    1  A    between atoms: C2_2  and  C3_3 
REMARK    2  A    between atoms: C5_5  and  O1_6 
REMARK    3  A    between atoms: C16_20  and  N1_21 
REMARK       I    between atoms: N1_21  and  C17_23 
REMARK    4  A    between atoms: C17_23  and  C18_25 
REMARK    5  A    between atoms: C18_25  and  C19_26 
REMARK    6  A    between atoms: C19_26  and  C20_27 
REMARK    7  A    between atoms: C20_27  and  C21_28 
REMARK    8  A    between atoms: C21_28  and  C22_29 
REMARK    9  A    between atoms: C22_29  and  C23_30 
REMARK   10  A    between atoms: C23_30  and  C24_31 
REMARK   11  A    between atoms: C24_31  and  C25_32 
REMARK   12  A    between atoms: C25_32  and  N2_33 
REMARK   13  A    between atoms: C30_38  and  C31_39 
ROOT
HETATM    1  C3  UNL     1      -2.017  45.953   1.474  1.00  0.00    -0.020 C 
HETATM    2  C4  UNL     1      -2.790  46.743   2.399  1.00  0.00    -0.038 C 
HETATM    3  C5  UNL     1      -2.221  47.115   3.732  1.00  0.00     0.180 C 
HETATM    4  C6  UNL     1      -3.020  46.918   4.921  1.00  0.00     0.191 A 
HETATM    5  O2  UNL     1      -3.419  45.893   5.630  1.00  0.00    -0.365 OA
HETATM    6  C7  UNL     1      -4.350  46.543   5.045  1.00  0.00     0.108 A 
HETATM    7  C8  UNL     1      -4.990  47.840   4.725  1.00  0.00     0.106 C 
HETATM    8  C9  UNL     1      -6.375  47.784   5.241  1.00  0.00     0.157 C 
HETATM    9  O3  UNL     1      -7.179  48.676   4.856  1.00  0.00    -0.293 OA
HETATM   10  C10 UNL     1      -6.989  46.823   6.165  1.00  0.00     0.047 C 
HETATM   11  C11 UNL     1      -6.729  45.509   6.189  1.00  0.00    -0.014 C 
HETATM   12  C12 UNL     1      -5.806  44.654   5.354  1.00  0.00    -0.021 C 
HETATM   13  C13 UNL     1      -4.866  43.894   6.206  1.00  0.00     0.019 C 
HETATM   14  C14 UNL     1      -6.771  43.640   4.704  1.00  0.00     0.019 C 
HETATM   15  C15 UNL     1      -5.250  45.616   4.378  1.00  0.00     0.059 C 
HETATM   16  C16 UNL     1      -4.755  45.299   3.044  1.00  0.00     0.109 C 
HETATM   17  C32 UNL     1      -4.267  46.661   2.555  1.00  0.00     0.032 A 
HETATM   18  C33 UNL     1      -5.166  47.225   1.526  1.00  0.00    -0.013 A 
HETATM   19  C34 UNL     1      -5.555  48.279   2.210  1.00  0.00    -0.022 A 
HETATM   20  C35 UNL     1      -4.731  47.886   3.293  1.00  0.00     0.041 A 
ENDROOT
BRANCH  16  21
HETATM   21  N1  UNL     1      -5.835  44.881   2.128  1.00  0.00    -0.355 N 
HETATM   22  C17 UNL     1      -5.981  43.576   1.606  1.00  0.00     0.217 C 
HETATM   23  O4  UNL     1      -5.157  42.706   1.932  1.00  0.00    -0.274 OA
ATOM     24  H1  UNL     1      -6.522  45.582   1.854  1.00  0.00     0.162 HD
BRANCH  22  25
HETATM   25  C18 UNL     1      -7.067  43.212   0.691  1.00  0.00     0.103 C 
BRANCH  25  26
HETATM   26  C19 UNL     1      -7.713  41.907   0.858  1.00  0.00     0.009 C 
BRANCH  26  27
HETATM   27  C20 UNL     1      -9.123  41.858   0.421  1.00  0.00     0.000 C 
BRANCH  27  28
HETATM   28  C21 UNL     1      -9.206  42.238  -1.058  1.00  0.00     0.000 C 
BRANCH  28  29
HETATM   29  C22 UNL     1     -10.222  41.422  -1.782  1.00  0.00     0.000 C 
BRANCH  29  30
HETATM   30  C23 UNL     1     -11.580  42.079  -1.781  1.00  0.00     0.002 C 
BRANCH  30  31
HETATM   31  C24 UNL     1     -11.448  43.529  -2.164  1.00  0.00     0.030 C 
BRANCH  31  32
HETATM   32  C25 UNL     1     -12.654  44.278  -1.655  1.00  0.00     0.273 C 
BRANCH  32  33
HETATM   33  N2  UNL     1     -12.320  44.966  -0.431  1.00  0.00     0.103 N 
HETATM   34  C26 UNL     1     -10.903  45.317  -0.394  1.00  0.00     0.274 C 
HETATM   35  C27 UNL     1     -10.816  46.810  -0.224  1.00  0.00     0.037 C 
HETATM   36  C28 UNL     1     -12.106  47.263  -0.875  1.00  0.00     0.027 C 
HETATM   37  C29 UNL     1     -12.488  48.650  -0.458  1.00  0.00     0.012 C 
HETATM   38  C30 UNL     1     -13.065  46.208  -0.377  1.00  0.00     0.326 C 
BRANCH  38  39
HETATM   39  C31 UNL     1     -13.472  46.503   1.025  1.00  0.00     0.208 C 
HETATM   40  O5  UNL     1     -12.646  46.613   1.963  1.00  0.00    -0.646 OA
HETATM   41  O6  UNL     1     -14.817  46.670   1.326  1.00  0.00    -0.646 OA
ENDBRANCH  38  39
ENDBRANCH  32  33
ENDBRANCH  31  32
ENDBRANCH  30  31
ENDBRANCH  29  30
ENDBRANCH  28  29
ENDBRANCH  27  28
ENDBRANCH  26  27
ENDBRANCH  25  26
ENDBRANCH  22  25
ENDBRANCH  16  21
BRANCH   1  42
HETATM   42  C2  UNL     1      -1.440  44.628   1.713  1.00  0.00     0.023 C 
HETATM   43  C1  UNL     1      -0.509  44.198   0.552  1.00  0.00     0.009 C 
ENDBRANCH   1  42
BRANCH   3  44
HETATM   44  O1  UNL     1      -0.945  46.524   3.954  1.00  0.00    -0.388 OA
ATOM     45  H1  UNL     1      -0.234  47.107   3.716  1.00  0.00     0.210 HD
ENDBRANCH   3  44
TORSDOF 13
ENDMDL
