MODEL 1
REMARK VINA RESULT: -7.299607983      0.000      0.000
REMARK  14 active torsions:
REMARK  status: ('A' for Active; 'I' for Inactive)
REMARK    1  A    between atoms: C2_2  and  C4_4 
REMARK    2  A    between atoms: C4_4  and  C5_5 
REMARK    3  A    between atoms: C6_8  and  C7_9 
REMARK    4  A    between atoms: C7_9  and  C8_10 
REMARK    5  A    between atoms: C12_17  and  C13_18 
REMARK    6  A    between atoms: C13_18  and  C14_19 
REMARK    7  A    between atoms: C14_19  and  C15_20 
REMARK    8  A    between atoms: C15_20  and  C16_21 
REMARK    9  A    between atoms: C16_21  and  C17_22 
REMARK   10  A    between atoms: C17_22  and  C18_23 
REMARK       I    between atoms: C18_23  and  N3_25 
REMARK   11  A    between atoms: N3_25  and  C19_27 
REMARK   12  A    between atoms: C19_27  and  C20_28 
REMARK   13  A    between atoms: C20_28  and  C21_29 
REMARK   14  A    between atoms: C21_29  and  N4_30 
ROOT
HETATM    1  C5  UNL     1      -3.844  45.841   2.608  1.00  0.00    -0.017 C 
HETATM    2  N1  UNL     1      -4.559  44.874   2.984  1.00  0.00    -0.383 N 
ATOM      3  H1  UNL     1      -4.353  43.946   2.613  1.00  0.00     0.160 HD
HETATM    4  C6  UNL     1      -5.694  45.020   3.949  1.00  0.00     0.173 C 
HETATM    5  C11 UNL     1      -6.458  43.727   3.693  1.00  0.00     0.241 C 
HETATM    6  O1  UNL     1      -6.822  43.031   4.659  1.00  0.00    -0.271 OA
HETATM    7  N2  UNL     1      -6.789  43.237   2.429  1.00  0.00    -0.346 N 
ATOM      8  H2  UNL     1      -6.737  42.223   2.335  1.00  0.00     0.163 HD
HETATM    9  C12 UNL     1      -7.192  43.934   1.235  1.00  0.00     0.176 C 
HETATM   10  C27 UNL     1      -8.293  44.847   1.396  1.00  0.00     0.240 C 
HETATM   11  O3  UNL     1      -9.473  44.392   1.645  1.00  0.00    -0.271 OA
HETATM   12  N6  UNL     1      -8.221  46.263   1.309  1.00  0.00    -0.359 N 
ATOM     13  H6  UNL     1      -8.977  46.796   1.740  1.00  0.00     0.162 HD
HETATM   14  C28 UNL     1      -7.169  47.013   0.662  1.00  0.00     0.123 C 
HETATM   15  C29 UNL     1      -6.965  48.273   1.504  1.00  0.00     0.024 C 
HETATM   16  C30 UNL     1      -5.817  49.112   1.080  1.00  0.00    -0.017 C 
HETATM   17  C31 UNL     1      -5.714  50.280   2.035  1.00  0.00     0.010 C 
HETATM   18  C32 UNL     1      -4.523  48.428   0.836  1.00  0.00     0.005 C 
HETATM   19  C33 UNL     1      -3.603  48.276   1.987  1.00  0.00     0.006 C 
HETATM   20  C34 UNL     1      -3.917  47.246   3.001  1.00  0.00     0.052 C 
ENDROOT
BRANCH   9  21
HETATM   21  C13 UNL     1      -7.494  42.911   0.144  1.00  0.00     0.035 C 
BRANCH  21  22
HETATM   22  C14 UNL     1      -7.706  41.517   0.640  1.00  0.00     0.002 C 
BRANCH  22  23
HETATM   23  C15 UNL     1      -8.736  40.773  -0.229  1.00  0.00     0.001 C 
BRANCH  23  24
HETATM   24  C16 UNL     1      -9.963  41.673  -0.379  1.00  0.00     0.009 C 
BRANCH  24  25
HETATM   25  C17 UNL     1     -10.658  41.540  -1.679  1.00  0.00     0.103 C 
BRANCH  25  26
HETATM   26  C18 UNL     1     -11.668  42.607  -1.958  1.00  0.00     0.217 C 
HETATM   27  O2  UNL     1     -12.861  42.479  -1.692  1.00  0.00    -0.274 OA
HETATM   28  N3  UNL     1     -11.160  43.792  -2.552  1.00  0.00    -0.361 N 
ATOM     29  H3  UNL     1     -10.169  43.869  -2.778  1.00  0.00     0.162 HD
BRANCH  28  30
HETATM   30  C19 UNL     1     -12.064  44.897  -2.836  1.00  0.00     0.124 C 
BRANCH  30  31
HETATM   31  C20 UNL     1     -12.076  45.899  -1.704  1.00  0.00     0.050 C 
BRANCH  31  32
HETATM   32  C21 UNL     1     -13.408  45.851  -1.006  1.00  0.00     0.274 C 
BRANCH  32  33
HETATM   33  N4  UNL     1     -13.286  46.100   0.400  1.00  0.00     0.091 N 
HETATM   34  C22 UNL     1     -11.985  46.512   0.817  1.00  0.00     0.302 C 
HETATM   35  C23 UNL     1     -12.061  47.783   1.617  1.00  0.00     0.302 C 
HETATM   36  N5  UNL     1     -12.825  48.778   0.909  1.00  0.00     0.087 N 
HETATM   37  C24 UNL     1     -12.075  49.282  -0.207  1.00  0.00     0.310 C 
HETATM   38  C25 UNL     1     -14.143  48.378   0.537  1.00  0.00     0.302 C 
HETATM   39  C26 UNL     1     -14.356  46.906   0.928  1.00  0.00     0.302 C 
ENDBRANCH  32  33
ENDBRANCH  31  32
ENDBRANCH  30  31
ENDBRANCH  28  30
ENDBRANCH  25  26
ENDBRANCH  24  25
ENDBRANCH  23  24
ENDBRANCH  22  23
ENDBRANCH  21  22
ENDBRANCH   9  21
BRANCH   4  40
HETATM   40  C7  UNL     1      -5.110  45.120   5.285  1.00  0.00     0.038 C 
BRANCH  40  41
HETATM   41  C8  UNL     1      -3.965  44.406   5.806  1.00  0.00    -0.020 C 
HETATM   42  C9  UNL     1      -4.397  43.579   7.074  1.00  0.00     0.009 C 
HETATM   43  C10 UNL     1      -2.651  44.982   6.107  1.00  0.00     0.009 C 
ENDBRANCH  40  41
ENDBRANCH   4  40
BRANCH   1  44
HETATM   44  C4  UNL     1      -2.747  45.483   1.631  1.00  0.00     0.055 C 
BRANCH  44  45
HETATM   45  C2  UNL     1      -1.592  44.797   2.318  1.00  0.00    -0.018 C 
HETATM   46  C1  UNL     1      -0.734  45.808   3.056  1.00  0.00     0.010 C 
HETATM   47  C3  UNL     1      -0.665  44.226   1.232  1.00  0.00     0.010 C 
ENDBRANCH  44  45
ENDBRANCH   1  44
TORSDOF 14
ENDMDL
MODEL 2
REMARK VINA RESULT: -7.261671153      2.377      6.961
REMARK  14 active torsions:
REMARK  status: ('A' for Active; 'I' for Inactive)
REMARK    1  A    between atoms: C2_2  and  C4_4 
REMARK    2  A    between atoms: C4_4  and  C5_5 
REMARK    3  A    between atoms: C6_8  and  C7_9 
REMARK    4  A    between atoms: C7_9  and  C8_10 
REMARK    5  A    between atoms: C12_17  and  C13_18 
REMARK    6  A    between atoms: C13_18  and  C14_19 
REMARK    7  A    between atoms: C14_19  and  C15_20 
REMARK    8  A    between atoms: C15_20  and  C16_21 
REMARK    9  A    between atoms: C16_21  and  C17_22 
REMARK   10  A    between atoms: C17_22  and  C18_23 
REMARK       I    between atoms: C18_23  and  N3_25 
REMARK   11  A    between atoms: N3_25  and  C19_27 
REMARK   12  A    between atoms: C19_27  and  C20_28 
REMARK   13  A    between atoms: C20_28  and  C21_29 
REMARK   14  A    between atoms: C21_29  and  N4_30 
ROOT
HETATM    1  C5  UNL     1      -9.323  49.391  -0.652  1.00  0.00    -0.017 C 
HETATM    2  N1  UNL     1      -9.018  48.236  -1.052  1.00  0.00    -0.383 N 
ATOM      3  H1  UNL     1      -9.485  47.871  -1.882  1.00  0.00     0.160 HD
HETATM    4  C6  UNL     1      -8.004  47.373  -0.367  1.00  0.00     0.173 C 
HETATM    5  C11 UNL     1      -8.357  46.005  -0.937  1.00  0.00     0.241 C 
HETATM    6  O1  UNL     1      -7.452  45.276  -1.383  1.00  0.00    -0.271 OA
HETATM    7  N2  UNL     1      -9.651  45.487  -1.013  1.00  0.00    -0.346 N 
ATOM      8  H2  UNL     1      -9.846  44.939  -1.851  1.00  0.00     0.163 HD
HETATM    9  C12 UNL     1     -10.756  45.601  -0.096  1.00  0.00     0.176 C 
HETATM   10  C27 UNL     1     -10.468  45.237   1.266  1.00  0.00     0.240 C 
HETATM   11  O3  UNL     1     -10.222  44.007   1.564  1.00  0.00    -0.271 OA
HETATM   12  N6  UNL     1     -10.418  46.125   2.374  1.00  0.00    -0.359 N 
ATOM     13  H6  UNL     1      -9.910  45.811   3.201  1.00  0.00     0.162 HD
HETATM   14  C28 UNL     1     -11.025  47.434   2.428  1.00  0.00     0.123 C 
HETATM   15  C29 UNL     1     -10.072  48.312   3.240  1.00  0.00     0.024 C 
HETATM   16  C30 UNL     1     -10.453  49.745   3.288  1.00  0.00    -0.017 C 
HETATM   17  C31 UNL     1      -9.392  50.485   4.074  1.00  0.00     0.010 C 
HETATM   18  C32 UNL     1     -10.808  50.403   2.006  1.00  0.00     0.005 C 
HETATM   19  C33 UNL     1      -9.711  51.027   1.231  1.00  0.00     0.006 C 
HETATM   20  C34 UNL     1      -8.792  50.142   0.484  1.00  0.00     0.052 C 
ENDROOT
BRANCH   9  21
HETATM   21  C13 UNL     1     -11.930  44.789  -0.634  1.00  0.00     0.035 C 
BRANCH  21  22
HETATM   22  C14 UNL     1     -11.611  43.952  -1.832  1.00  0.00     0.002 C 
BRANCH  22  23
HETATM   23  C15 UNL     1     -12.343  42.600  -1.770  1.00  0.00     0.001 C 
BRANCH  23  24
HETATM   24  C16 UNL     1     -11.290  41.501  -1.625  1.00  0.00     0.009 C 
BRANCH  24  25
HETATM   25  C17 UNL     1      -9.895  41.978  -1.741  1.00  0.00     0.103 C 
BRANCH  25  26
HETATM   26  C18 UNL     1      -9.000  41.572  -0.613  1.00  0.00     0.217 C 
HETATM   27  O2  UNL     1      -9.033  40.450  -0.111  1.00  0.00    -0.274 OA
HETATM   28  N3  UNL     1      -8.098  42.567  -0.155  1.00  0.00    -0.361 N 
ATOM     29  H3  UNL     1      -8.101  43.495  -0.578  1.00  0.00     0.162 HD
BRANCH  28  30
HETATM   30  C19 UNL     1      -7.169  42.255   0.921  1.00  0.00     0.124 C 
BRANCH  30  31
HETATM   31  C20 UNL     1      -6.666  43.513   1.591  1.00  0.00     0.050 C 
BRANCH  31  32
HETATM   32  C21 UNL     1      -6.778  43.365   3.084  1.00  0.00     0.274 C 
BRANCH  32  33
HETATM   33  N4  UNL     1      -5.504  43.464   3.731  1.00  0.00     0.091 N 
HETATM   34  C22 UNL     1      -4.690  44.543   3.273  1.00  0.00     0.302 C 
HETATM   35  C23 UNL     1      -4.218  45.380   4.429  1.00  0.00     0.302 C 
HETATM   36  N5  UNL     1      -5.330  45.759   5.263  1.00  0.00     0.087 N 
HETATM   37  C24 UNL     1      -6.133  46.750   4.605  1.00  0.00     0.310 C 
HETATM   38  C25 UNL     1      -6.111  44.673   5.758  1.00  0.00     0.302 C 
HETATM   39  C26 UNL     1      -5.585  43.355   5.164  1.00  0.00     0.302 C 
ENDBRANCH  32  33
ENDBRANCH  31  32
ENDBRANCH  30  31
ENDBRANCH  28  30
ENDBRANCH  25  26
ENDBRANCH  24  25
ENDBRANCH  23  24
ENDBRANCH  22  23
ENDBRANCH  21  22
ENDBRANCH   9  21
BRANCH   4  40
HETATM   40  C7  UNL     1      -6.686  47.868  -0.762  1.00  0.00     0.038 C 
BRANCH  40  41
HETATM   41  C8  UNL     1      -5.619  48.328   0.100  1.00  0.00    -0.020 C 
HETATM   42  C9  UNL     1      -4.392  48.776  -0.778  1.00  0.00     0.009 C 
HETATM   43  C10 UNL     1      -5.070  47.610   1.254  1.00  0.00     0.009 C 
ENDBRANCH  40  41
ENDBRANCH   4  40
BRANCH   1  44
HETATM   44  C4  UNL     1     -10.368  50.100  -1.483  1.00  0.00     0.055 C 
BRANCH  44  45
HETATM   45  C2  UNL     1      -9.804  51.324  -2.161  1.00  0.00    -0.018 C 
HETATM   46  C1  UNL     1     -10.798  52.469  -2.107  1.00  0.00     0.010 C 
HETATM   47  C3  UNL     1      -9.660  51.012  -3.661  1.00  0.00     0.010 C 
ENDBRANCH  44  45
ENDBRANCH   1  44
TORSDOF 14
ENDMDL
MODEL 3
REMARK VINA RESULT: -7.177777980      1.142      1.474
REMARK  14 active torsions:
REMARK  status: ('A' for Active; 'I' for Inactive)
REMARK    1  A    between atoms: C2_2  and  C4_4 
REMARK    2  A    between atoms: C4_4  and  C5_5 
REMARK    3  A    between atoms: C6_8  and  C7_9 
REMARK    4  A    between atoms: C7_9  and  C8_10 
REMARK    5  A    between atoms: C12_17  and  C13_18 
REMARK    6  A    between atoms: C13_18  and  C14_19 
REMARK    7  A    between atoms: C14_19  and  C15_20 
REMARK    8  A    between atoms: C15_20  and  C16_21 
REMARK    9  A    between atoms: C16_21  and  C17_22 
REMARK   10  A    between atoms: C17_22  and  C18_23 
REMARK       I    between atoms: C18_23  and  N3_25 
REMARK   11  A    between atoms: N3_25  and  C19_27 
REMARK   12  A    between atoms: C19_27  and  C20_28 
REMARK   13  A    between atoms: C20_28  and  C21_29 
REMARK   14  A    between atoms: C21_29  and  N4_30 
ROOT
HETATM    1  C5  UNL     1      -4.511  46.193   2.841  1.00  0.00    -0.017 C 
HETATM    2  N1  UNL     1      -5.155  45.146   3.120  1.00  0.00    -0.383 N 
ATOM      3  H1  UNL     1      -4.831  44.260   2.733  1.00  0.00     0.160 HD
HETATM    4  C6  UNL     1      -6.373  45.140   3.991  1.00  0.00     0.173 C 
HETATM    5  C11 UNL     1      -6.983  43.793   3.625  1.00  0.00     0.241 C 
HETATM    6  O1  UNL     1      -7.352  43.023   4.530  1.00  0.00    -0.271 OA
HETATM    7  N2  UNL     1      -7.162  43.332   2.319  1.00  0.00    -0.346 N 
ATOM      8  H2  UNL     1      -7.003  42.332   2.192  1.00  0.00     0.163 HD
HETATM    9  C12 UNL     1      -7.536  44.041   1.123  1.00  0.00     0.176 C 
HETATM   10  C27 UNL     1      -8.730  44.837   1.226  1.00  0.00     0.240 C 
HETATM   11  O3  UNL     1      -9.876  44.261   1.358  1.00  0.00    -0.271 OA
HETATM   12  N6  UNL     1      -8.792  46.256   1.198  1.00  0.00    -0.359 N 
ATOM     13  H6  UNL     1      -9.628  46.694   1.584  1.00  0.00     0.162 HD
HETATM   14  C28 UNL     1      -7.771  47.131   0.670  1.00  0.00     0.123 C 
HETATM   15  C29 UNL     1      -7.759  48.365   1.572  1.00  0.00     0.024 C 
HETATM   16  C30 UNL     1      -6.669  49.327   1.277  1.00  0.00    -0.017 C 
HETATM   17  C31 UNL     1      -6.757  50.456   2.281  1.00  0.00     0.010 C 
HETATM   18  C32 UNL     1      -5.299  48.781   1.117  1.00  0.00     0.005 C 
HETATM   19  C33 UNL     1      -4.462  48.665   2.334  1.00  0.00     0.006 C 
HETATM   20  C34 UNL     1      -4.754  47.566   3.279  1.00  0.00     0.052 C 
ENDROOT
BRANCH   9  21
HETATM   21  C13 UNL     1      -7.648  43.045  -0.027  1.00  0.00     0.035 C 
BRANCH  21  22
HETATM   22  C14 UNL     1      -7.837  41.623   0.398  1.00  0.00     0.002 C 
BRANCH  22  23
HETATM   23  C15 UNL     1      -9.103  41.021  -0.237  1.00  0.00     0.001 C 
BRANCH  23  24
HETATM   24  C16 UNL     1      -9.580  41.977  -1.332  1.00  0.00     0.009 C 
BRANCH  24  25
HETATM   25  C17 UNL     1     -10.973  41.746  -1.774  1.00  0.00     0.103 C 
BRANCH  25  26
HETATM   26  C18 UNL     1     -11.863  42.943  -1.681  1.00  0.00     0.217 C 
HETATM   27  O2  UNL     1     -13.088  42.867  -1.756  1.00  0.00    -0.274 OA
HETATM   28  N3  UNL     1     -11.204  44.186  -1.494  1.00  0.00    -0.361 N 
ATOM     29  H3  UNL     1     -10.186  44.225  -1.451  1.00  0.00     0.162 HD
BRANCH  28  30
HETATM   30  C19 UNL     1     -11.990  45.404  -1.365  1.00  0.00     0.124 C 
BRANCH  30  31
HETATM   31  C20 UNL     1     -11.100  46.624  -1.286  1.00  0.00     0.050 C 
BRANCH  31  32
HETATM   32  C21 UNL     1     -11.918  47.816  -0.874  1.00  0.00     0.274 C 
BRANCH  32  33
HETATM   33  N4  UNL     1     -12.467  47.662   0.441  1.00  0.00     0.091 N 
HETATM   34  C22 UNL     1     -11.652  48.190   1.487  1.00  0.00     0.302 C 
HETATM   35  C23 UNL     1     -12.445  49.127   2.355  1.00  0.00     0.302 C 
HETATM   36  N5  UNL     1     -13.123  50.109   1.549  1.00  0.00     0.087 N 
HETATM   37  C24 UNL     1     -12.183  51.059   1.023  1.00  0.00     0.310 C 
HETATM   38  C25 UNL     1     -13.974  49.576   0.536  1.00  0.00     0.302 C 
HETATM   39  C26 UNL     1     -13.853  48.042   0.525  1.00  0.00     0.302 C 
ENDBRANCH  32  33
ENDBRANCH  31  32
ENDBRANCH  30  31
ENDBRANCH  28  30
ENDBRANCH  25  26
ENDBRANCH  24  25
ENDBRANCH  23  24
ENDBRANCH  22  23
ENDBRANCH  21  22
ENDBRANCH   9  21
BRANCH   4  40
HETATM   40  C7  UNL     1      -5.909  45.235   5.374  1.00  0.00     0.038 C 
BRANCH  40  41
HETATM   41  C8  UNL     1      -6.586  45.850   6.495  1.00  0.00    -0.020 C 
HETATM   42  C9  UNL     1      -7.385  47.111   5.996  1.00  0.00     0.009 C 
HETATM   43  C10 UNL     1      -5.976  46.218   7.776  1.00  0.00     0.009 C 
ENDBRANCH  40  41
ENDBRANCH   4  40
BRANCH   1  44
HETATM   44  C4  UNL     1      -3.310  45.985   1.947  1.00  0.00     0.055 C 
BRANCH  44  45
HETATM   45  C2  UNL     1      -2.466  44.824   2.409  1.00  0.00    -0.018 C 
HETATM   46  C1  UNL     1      -1.723  45.179   3.684  1.00  0.00     0.010 C 
HETATM   47  C3  UNL     1      -1.356  44.599   1.368  1.00  0.00     0.010 C 
ENDBRANCH  44  45
ENDBRANCH   1  44
TORSDOF 14
ENDMDL
MODEL 4
REMARK VINA RESULT: -7.171153251      2.966      6.472
REMARK  14 active torsions:
REMARK  status: ('A' for Active; 'I' for Inactive)
REMARK    1  A    between atoms: C2_2  and  C4_4 
REMARK    2  A    between atoms: C4_4  and  C5_5 
REMARK    3  A    between atoms: C6_8  and  C7_9 
REMARK    4  A    between atoms: C7_9  and  C8_10 
REMARK    5  A    between atoms: C12_17  and  C13_18 
REMARK    6  A    between atoms: C13_18  and  C14_19 
REMARK    7  A    between atoms: C14_19  and  C15_20 
REMARK    8  A    between atoms: C15_20  and  C16_21 
REMARK    9  A    between atoms: C16_21  and  C17_22 
REMARK   10  A    between atoms: C17_22  and  C18_23 
REMARK       I    between atoms: C18_23  and  N3_25 
REMARK   11  A    between atoms: N3_25  and  C19_27 
REMARK   12  A    between atoms: C19_27  and  C20_28 
REMARK   13  A    between atoms: C20_28  and  C21_29 
REMARK   14  A    between atoms: C21_29  and  N4_30 
ROOT
HETATM    1  C5  UNL     1     -10.700  47.508   1.362  1.00  0.00    -0.017 C 
HETATM    2  N1  UNL     1      -9.886  46.927   0.595  1.00  0.00    -0.383 N 
ATOM      3  H1  UNL     1     -10.137  46.009   0.229  1.00  0.00     0.160 HD
HETATM    4  C6  UNL     1      -8.569  47.518   0.196  1.00  0.00     0.173 C 
HETATM    5  C11 UNL     1      -7.838  46.280  -0.306  1.00  0.00     0.241 C 
HETATM    6  O1  UNL     1      -7.244  46.322  -1.399  1.00  0.00    -0.271 OA
HETATM    7  N2  UNL     1      -7.780  45.061   0.374  1.00  0.00    -0.346 N 
ATOM      8  H2  UNL     1      -7.817  44.236  -0.224  1.00  0.00     0.163 HD
HETATM    9  C12 UNL     1      -7.678  44.784   1.783  1.00  0.00     0.176 C 
HETATM   10  C27 UNL     1      -6.601  45.450   2.466  1.00  0.00     0.240 C 
HETATM   11  O3  UNL     1      -5.380  45.123   2.214  1.00  0.00    -0.271 OA
HETATM   12  N6  UNL     1      -6.739  46.482   3.433  1.00  0.00    -0.359 N 
ATOM     13  H6  UNL     1      -5.925  47.072   3.605  1.00  0.00     0.162 HD
HETATM   14  C28 UNL     1      -7.934  46.765   4.194  1.00  0.00     0.123 C 
HETATM   15  C29 UNL     1      -7.989  48.285   4.349  1.00  0.00     0.024 C 
HETATM   16  C30 UNL     1      -9.231  48.790   4.985  1.00  0.00    -0.017 C 
HETATM   17  C31 UNL     1      -9.159  50.301   5.017  1.00  0.00     0.010 C 
HETATM   18  C32 UNL     1     -10.523  48.268   4.474  1.00  0.00     0.005 C 
HETATM   19  C33 UNL     1     -11.157  48.995   3.350  1.00  0.00     0.006 C 
HETATM   20  C34 UNL     1     -10.589  48.820   1.996  1.00  0.00     0.052 C 
ENDROOT
BRANCH   9  21
HETATM   21  C13 UNL     1      -7.591  43.274   1.983  1.00  0.00     0.035 C 
BRANCH  21  22
HETATM   22  C14 UNL     1      -7.127  42.512   0.783  1.00  0.00     0.002 C 
BRANCH  22  23
HETATM   23  C15 UNL     1      -7.958  41.232   0.586  1.00  0.00     0.001 C 
BRANCH  23  24
HETATM   24  C16 UNL     1      -9.396  41.649   0.271  1.00  0.00     0.009 C 
BRANCH  24  25
HETATM   25  C17 UNL     1      -9.615  42.054  -1.135  1.00  0.00     0.103 C 
BRANCH  25  26
HETATM   26  C18 UNL     1     -10.478  43.263  -1.308  1.00  0.00     0.217 C 
HETATM   27  O2  UNL     1     -10.570  44.141  -0.453  1.00  0.00    -0.274 OA
HETATM   28  N3  UNL     1     -11.188  43.340  -2.534  1.00  0.00    -0.361 N 
ATOM     29  H3  UNL     1     -11.107  42.591  -3.222  1.00  0.00     0.162 HD
BRANCH  28  30
HETATM   30  C19 UNL     1     -12.033  44.495  -2.804  1.00  0.00     0.124 C 
BRANCH  30  31
HETATM   31  C20 UNL     1     -13.485  44.189  -2.517  1.00  0.00     0.050 C 
BRANCH  31  32
HETATM   32  C21 UNL     1     -14.338  45.349  -2.954  1.00  0.00     0.274 C 
BRANCH  32  33
HETATM   33  N4  UNL     1     -15.734  45.034  -2.915  1.00  0.00     0.091 N 
HETATM   34  C22 UNL     1     -16.598  46.168  -2.974  1.00  0.00     0.302 C 
HETATM   35  C23 UNL     1     -17.617  46.004  -4.068  1.00  0.00     0.302 C 
HETATM   36  N5  UNL     1     -16.972  45.657  -5.308  1.00  0.00     0.087 N 
HETATM   37  C24 UNL     1     -16.275  46.793  -5.843  1.00  0.00     0.310 C 
HETATM   38  C25 UNL     1     -16.147  44.494  -5.256  1.00  0.00     0.302 C 
HETATM   39  C26 UNL     1     -16.100  43.968  -3.811  1.00  0.00     0.302 C 
ENDBRANCH  32  33
ENDBRANCH  31  32
ENDBRANCH  30  31
ENDBRANCH  28  30
ENDBRANCH  25  26
ENDBRANCH  24  25
ENDBRANCH  23  24
ENDBRANCH  22  23
ENDBRANCH  21  22
ENDBRANCH   9  21
BRANCH   4  40
HETATM   40  C7  UNL     1      -8.845  48.515  -0.836  1.00  0.00     0.038 C 
BRANCH  40  41
HETATM   41  C8  UNL     1      -8.279  49.841  -0.960  1.00  0.00    -0.020 C 
HETATM   42  C9  UNL     1      -9.160  50.697  -1.942  1.00  0.00     0.009 C 
HETATM   43  C10 UNL     1      -6.880  50.158  -1.264  1.00  0.00     0.009 C 
ENDBRANCH  40  41
ENDBRANCH   4  40
BRANCH   1  44
HETATM   44  C4  UNL     1     -11.974  46.744   1.641  1.00  0.00     0.055 C 
BRANCH  44  45
HETATM   45  C2  UNL     1     -12.826  46.612   0.402  1.00  0.00    -0.018 C 
HETATM   46  C1  UNL     1     -13.099  47.976  -0.204  1.00  0.00     0.010 C 
HETATM   47  C3  UNL     1     -14.210  46.097   0.831  1.00  0.00     0.010 C 
ENDBRANCH  44  45
ENDBRANCH   1  44
TORSDOF 14
ENDMDL
MODEL 5
REMARK VINA RESULT: -7.155549461      1.972      4.774
REMARK  14 active torsions:
REMARK  status: ('A' for Active; 'I' for Inactive)
REMARK    1  A    between atoms: C2_2  and  C4_4 
REMARK    2  A    between atoms: C4_4  and  C5_5 
REMARK    3  A    between atoms: C6_8  and  C7_9 
REMARK    4  A    between atoms: C7_9  and  C8_10 
REMARK    5  A    between atoms: C12_17  and  C13_18 
REMARK    6  A    between atoms: C13_18  and  C14_19 
REMARK    7  A    between atoms: C14_19  and  C15_20 
REMARK    8  A    between atoms: C15_20  and  C16_21 
REMARK    9  A    between atoms: C16_21  and  C17_22 
REMARK   10  A    between atoms: C17_22  and  C18_23 
REMARK       I    between atoms: C18_23  and  N3_25 
REMARK   11  A    between atoms: N3_25  and  C19_27 
REMARK   12  A    between atoms: C19_27  and  C20_28 
REMARK   13  A    between atoms: C20_28  and  C21_29 
REMARK   14  A    between atoms: C21_29  and  N4_30 
ROOT
HETATM    1  C5  UNL     1      -7.166  47.276   3.629  1.00  0.00    -0.017 C 
HETATM    2  N1  UNL     1      -7.395  47.188   2.394  1.00  0.00    -0.383 N 
ATOM      3  H1  UNL     1      -8.344  47.363   2.063  1.00  0.00     0.160 HD
HETATM    4  C6  UNL     1      -6.343  46.840   1.387  1.00  0.00     0.173 C 
HETATM    5  C11 UNL     1      -7.204  46.428   0.200  1.00  0.00     0.241 C 
HETATM    6  O1  UNL     1      -6.952  46.888  -0.928  1.00  0.00    -0.271 OA
HETATM    7  N2  UNL     1      -8.293  45.556   0.274  1.00  0.00    -0.346 N 
ATOM      8  H2  UNL     1      -9.077  45.797  -0.332  1.00  0.00     0.163 HD
HETATM    9  C12 UNL     1      -8.485  44.371   1.069  1.00  0.00     0.176 C 
HETATM   10  C27 UNL     1      -7.440  43.387   0.974  1.00  0.00     0.240 C 
HETATM   11  O3  UNL     1      -7.269  42.738  -0.127  1.00  0.00    -0.271 OA
HETATM   12  N6  UNL     1      -6.529  43.035   2.005  1.00  0.00    -0.359 N 
ATOM     13  H6  UNL     1      -5.665  42.570   1.726  1.00  0.00     0.162 HD
HETATM   14  C28 UNL     1      -6.723  43.278   3.416  1.00  0.00     0.123 C 
HETATM   15  C29 UNL     1      -5.343  43.611   3.984  1.00  0.00     0.024 C 
HETATM   16  C30 UNL     1      -5.353  44.036   5.405  1.00  0.00    -0.017 C 
HETATM   17  C31 UNL     1      -3.934  44.381   5.801  1.00  0.00     0.010 C 
HETATM   18  C32 UNL     1      -6.347  45.064   5.805  1.00  0.00     0.005 C 
HETATM   19  C33 UNL     1      -5.944  46.485   5.693  1.00  0.00     0.006 C 
HETATM   20  C34 UNL     1      -5.904  47.095   4.346  1.00  0.00     0.052 C 
ENDROOT
BRANCH   9  21
HETATM   21  C13 UNL     1      -9.838  43.758   0.721  1.00  0.00     0.035 C 
BRANCH  21  22
HETATM   22  C14 UNL     1     -10.255  43.937  -0.704  1.00  0.00     0.002 C 
BRANCH  22  23
HETATM   23  C15 UNL     1     -10.612  42.586  -1.348  1.00  0.00     0.001 C 
BRANCH  23  24
HETATM   24  C16 UNL     1     -12.049  42.675  -1.863  1.00  0.00     0.009 C 
BRANCH  24  25
HETATM   25  C17 UNL     1     -12.282  43.777  -2.823  1.00  0.00     0.103 C 
BRANCH  25  26
HETATM   26  C18 UNL     1     -13.381  44.716  -2.441  1.00  0.00     0.217 C 
HETATM   27  O2  UNL     1     -14.097  45.274  -3.271  1.00  0.00    -0.274 OA
HETATM   28  N3  UNL     1     -13.555  44.923  -1.048  1.00  0.00    -0.361 N 
ATOM     29  H3  UNL     1     -12.939  44.461  -0.379  1.00  0.00     0.162 HD
BRANCH  28  30
HETATM   30  C19 UNL     1     -14.618  45.800  -0.579  1.00  0.00     0.124 C 
BRANCH  30  31
HETATM   31  C20 UNL     1     -14.347  46.285   0.827  1.00  0.00     0.050 C 
BRANCH  31  32
HETATM   32  C21 UNL     1     -12.874  46.186   1.116  1.00  0.00     0.274 C 
BRANCH  32  33
HETATM   33  N4  UNL     1     -12.350  47.402   1.662  1.00  0.00     0.091 N 
HETATM   34  C22 UNL     1     -10.925  47.471   1.693  1.00  0.00     0.302 C 
HETATM   35  C23 UNL     1     -10.440  48.734   1.036  1.00  0.00     0.302 C 
HETATM   36  N5  UNL     1     -11.035  48.883  -0.267  1.00  0.00     0.087 N 
HETATM   37  C24 UNL     1     -10.465  47.940  -1.187  1.00  0.00     0.310 C 
HETATM   38  C25 UNL     1     -12.461  48.863  -0.286  1.00  0.00     0.302 C 
HETATM   39  C26 UNL     1     -12.985  48.581   1.132  1.00  0.00     0.302 C 
ENDBRANCH  32  33
ENDBRANCH  31  32
ENDBRANCH  30  31
ENDBRANCH  28  30
ENDBRANCH  25  26
ENDBRANCH  24  25
ENDBRANCH  23  24
ENDBRANCH  22  23
ENDBRANCH  21  22
ENDBRANCH   9  21
BRANCH   4  40
HETATM   40  C7  UNL     1      -5.549  48.048   1.164  1.00  0.00     0.038 C 
BRANCH  40  41
HETATM   41  C8  UNL     1      -4.108  48.164   1.123  1.00  0.00    -0.020 C 
HETATM   42  C9  UNL     1      -3.641  48.376  -0.364  1.00  0.00     0.009 C 
HETATM   43  C10 UNL     1      -3.149  47.240   1.738  1.00  0.00     0.009 C 
ENDBRANCH  40  41
ENDBRANCH   4  40
BRANCH   1  44
HETATM   44  C4  UNL     1      -8.363  47.640   4.478  1.00  0.00     0.055 C 
BRANCH  44  45
HETATM   45  C2  UNL     1      -8.695  49.107   4.371  1.00  0.00    -0.018 C 
HETATM   46  C1  UNL     1      -7.899  49.910   5.383  1.00  0.00     0.010 C 
HETATM   47  C3  UNL     1     -10.161  49.295   4.798  1.00  0.00     0.010 C 
ENDBRANCH  44  45
ENDBRANCH   1  44
TORSDOF 14
ENDMDL
