MODEL 1
REMARK VINA RESULT: -7.805581985      0.000      0.000
REMARK  13 active torsions:
REMARK  status: ('A' for Active; 'I' for Inactive)
REMARK    1  A    between atoms: C5_8  and  C6_9 
REMARK    2  A    between atoms: C6_9  and  C7_10 
REMARK       I    between atoms: C7_10  and  N3_12 
REMARK    3  A    between atoms: N3_12  and  C8_14 
REMARK    4  A    between atoms: C8_14  and  C9_15 
REMARK    5  A    between atoms: C8_14  and  C16_22 
REMARK    6  A    between atoms: C9_15  and  C10_16 
REMARK       I    between atoms: C16_22  and  N4_24 
REMARK    7  A    between atoms: N4_24  and  C17_26 
REMARK    8  A    between atoms: C17_26  and  C18_27 
REMARK    9  A    between atoms: C17_26  and  C27_39 
REMARK   10  A    between atoms: C18_27  and  N5_28 
REMARK       I    between atoms: N5_28  and  C19_30 
REMARK   11  A    between atoms: C19_30  and  C20_32 
REMARK   12  A    between atoms: C20_32  and  C21_33 
REMARK   13  A    between atoms: C27_39  and  C28_40 
ROOT
HETATM    1  C8  UNL     1     -10.331  31.977  -0.379  1.00  0.00     0.177 C 
ENDROOT
BRANCH   1   2
HETATM    2  N3  UNL     1     -11.428  31.235  -0.971  1.00  0.00    -0.347 N 
HETATM    3  C7  UNL     1     -11.447  29.834  -1.079  1.00  0.00     0.224 C 
HETATM    4  O1  UNL     1     -10.400  29.239  -0.627  1.00  0.00    -0.273 OA
ATOM      5  H3  UNL     1     -12.228  31.758  -1.328  1.00  0.00     0.163 HD
BRANCH   3   6
HETATM    6  C6  UNL     1     -12.534  29.014  -1.647  1.00  0.00     0.162 C 
BRANCH   6   7
HETATM    7  C5  UNL     1     -12.948  29.319  -3.008  1.00  0.00     0.043 A 
HETATM    8  C2  UNL     1     -12.221  29.279  -4.164  1.00  0.00     0.029 A 
HETATM    9  C1  UNL     1     -10.799  28.941  -4.359  1.00  0.00     0.070 C 
HETATM   10  N1  UNL     1     -13.017  29.617  -5.221  1.00  0.00    -0.354 N 
HETATM   11  C3  UNL     1     -14.239  29.868  -4.722  1.00  0.00     0.183 A 
ATOM     12  H1  UNL     1     -12.737  29.668  -6.200  1.00  0.00     0.166 HD
HETATM   13  N2  UNL     1     -14.187  29.684  -3.376  1.00  0.00    -0.349 N 
HETATM   14  C4  UNL     1     -15.351  29.871  -2.520  1.00  0.00     0.156 C 
ENDBRANCH   6   7
ENDBRANCH   3   6
ENDBRANCH   1   2
BRANCH   1  15
HETATM   15  C9  UNL     1      -9.543  32.631  -1.463  1.00  0.00     0.039 C 
BRANCH  15  16
HETATM   16  C10 UNL     1      -8.067  32.540  -1.419  1.00  0.00    -0.012 C 
HETATM   17  C11 UNL     1      -7.501  31.304  -0.833  1.00  0.00     0.005 C 
HETATM   18  C12 UNL     1      -6.020  31.384  -0.531  1.00  0.00     0.000 C 
HETATM   19  C13 UNL     1      -5.693  32.572   0.341  1.00  0.00     0.000 C 
HETATM   20  C14 UNL     1      -7.001  33.315   0.660  1.00  0.00     0.000 C 
HETATM   21  C15 UNL     1      -7.551  33.744  -0.665  1.00  0.00     0.005 C 
ENDBRANCH  15  16
ENDBRANCH   1  15
BRANCH   1  22
HETATM   22  C16 UNL     1     -10.903  33.120   0.420  1.00  0.00     0.244 C 
HETATM   23  O2  UNL     1     -11.074  34.224  -0.176  1.00  0.00    -0.271 OA
HETATM   24  N4  UNL     1     -11.247  33.007   1.761  1.00  0.00    -0.331 N 
ATOM     25  H4  UNL     1     -11.117  32.111   2.230  1.00  0.00     0.168 HD
BRANCH  24  26
HETATM   26  C17 UNL     1     -11.780  34.115   2.507  1.00  0.00     0.007 C 
BRANCH  26  27
HETATM   27  C18 UNL     1     -10.920  34.659   3.575  1.00  0.00     0.175 C 
BRANCH  27  28
HETATM   28  N5  UNL     1      -9.670  35.211   3.185  1.00  0.00    -0.356 N 
HETATM   29  C19 UNL     1      -9.622  36.561   2.756  1.00  0.00     0.218 C 
HETATM   30  O3  UNL     1     -10.671  37.280   2.716  1.00  0.00    -0.274 OA
ATOM     31  H5  UNL     1      -8.821  34.646   3.214  1.00  0.00     0.162 HD
BRANCH  29  32
HETATM   32  C20 UNL     1      -8.348  37.183   2.335  1.00  0.00     0.107 C 
BRANCH  32  33
HETATM   33  C21 UNL     1      -7.133  36.412   2.809  1.00  0.00    -0.006 C 
HETATM   34  C22 UNL     1      -6.622  36.989   4.115  1.00  0.00     0.005 C 
HETATM   35  C23 UNL     1      -5.515  37.983   3.791  1.00  0.00     0.000 C 
HETATM   36  C24 UNL     1      -4.262  37.249   3.352  1.00  0.00     0.000 C 
HETATM   37  C25 UNL     1      -4.692  36.098   2.447  1.00  0.00     0.000 C 
HETATM   38  C26 UNL     1      -6.029  36.410   1.807  1.00  0.00     0.005 C 
ENDBRANCH  32  33
ENDBRANCH  29  32
ENDBRANCH  27  28
ENDBRANCH  26  27
BRANCH  26  39
HETATM   39  C27 UNL     1     -13.232  33.910   2.830  1.00  0.00     0.058 C 
BRANCH  39  40
HETATM   40  C28 UNL     1     -14.216  34.696   2.032  1.00  0.00    -0.017 C 
HETATM   41  C29 UNL     1     -14.711  33.847   0.833  1.00  0.00     0.010 C 
HETATM   42  C30 UNL     1     -13.740  35.980   1.439  1.00  0.00     0.010 C 
ENDBRANCH  39  40
ENDBRANCH  26  39
ENDBRANCH  24  26
ENDBRANCH   1  22
TORSDOF 13
ENDMDL
MODEL 2
REMARK VINA RESULT: -7.562158859      0.429      1.291
REMARK  13 active torsions:
REMARK  status: ('A' for Active; 'I' for Inactive)
REMARK    1  A    between atoms: C5_8  and  C6_9 
REMARK    2  A    between atoms: C6_9  and  C7_10 
REMARK       I    between atoms: C7_10  and  N3_12 
REMARK    3  A    between atoms: N3_12  and  C8_14 
REMARK    4  A    between atoms: C8_14  and  C9_15 
REMARK    5  A    between atoms: C8_14  and  C16_22 
REMARK    6  A    between atoms: C9_15  and  C10_16 
REMARK       I    between atoms: C16_22  and  N4_24 
REMARK    7  A    between atoms: N4_24  and  C17_26 
REMARK    8  A    between atoms: C17_26  and  C18_27 
REMARK    9  A    between atoms: C17_26  and  C27_39 
REMARK   10  A    between atoms: C18_27  and  N5_28 
REMARK       I    between atoms: N5_28  and  C19_30 
REMARK   11  A    between atoms: C19_30  and  C20_32 
REMARK   12  A    between atoms: C20_32  and  C21_33 
REMARK   13  A    between atoms: C27_39  and  C28_40 
ROOT
HETATM    1  C8  UNL     1     -10.317  31.912  -0.409  1.00  0.00     0.177 C 
ENDROOT
BRANCH   1   2
HETATM    2  N3  UNL     1     -11.404  31.157  -1.004  1.00  0.00    -0.347 N 
HETATM    3  C7  UNL     1     -11.406  29.756  -1.114  1.00  0.00     0.224 C 
HETATM    4  O1  UNL     1     -10.352  29.174  -0.662  1.00  0.00    -0.273 OA
ATOM      5  H3  UNL     1     -12.210  31.671  -1.362  1.00  0.00     0.163 HD
BRANCH   3   6
HETATM    6  C6  UNL     1     -12.481  28.924  -1.686  1.00  0.00     0.162 C 
BRANCH   6   7
HETATM    7  C5  UNL     1     -13.019  29.334  -2.973  1.00  0.00     0.043 A 
HETATM    8  C2  UNL     1     -14.278  29.759  -3.290  1.00  0.00     0.029 A 
HETATM    9  C1  UNL     1     -15.461  29.898  -2.420  1.00  0.00     0.070 C 
HETATM   10  N1  UNL     1     -14.340  30.070  -4.618  1.00  0.00    -0.354 N 
HETATM   11  C3  UNL     1     -13.118  29.838  -5.128  1.00  0.00     0.183 A 
ATOM     12  H1  UNL     1     -15.156  30.414  -5.125  1.00  0.00     0.166 HD
HETATM   13  N2  UNL     1     -12.323  29.391  -4.120  1.00  0.00    -0.349 N 
HETATM   14  C4  UNL     1     -10.923  29.045  -4.329  1.00  0.00     0.156 C 
ENDBRANCH   6   7
ENDBRANCH   3   6
ENDBRANCH   1   2
BRANCH   1  15
HETATM   15  C9  UNL     1      -9.537  32.579  -1.491  1.00  0.00     0.039 C 
BRANCH  15  16
HETATM   16  C10 UNL     1      -8.060  32.541  -1.425  1.00  0.00    -0.012 C 
HETATM   17  C11 UNL     1      -7.458  31.327  -0.828  1.00  0.00     0.005 C 
HETATM   18  C12 UNL     1      -5.986  31.461  -0.504  1.00  0.00     0.000 C 
HETATM   19  C13 UNL     1      -5.714  32.662   0.370  1.00  0.00     0.000 C 
HETATM   20  C14 UNL     1      -7.053  33.357   0.668  1.00  0.00     0.000 C 
HETATM   21  C15 UNL     1      -7.598  33.765  -0.666  1.00  0.00     0.005 C 
ENDBRANCH  15  16
ENDBRANCH   1  15
BRANCH   1  22
HETATM   22  C16 UNL     1     -10.905  33.045   0.393  1.00  0.00     0.244 C 
HETATM   23  O2  UNL     1     -11.125  34.137  -0.209  1.00  0.00    -0.271 OA
HETATM   24  N4  UNL     1     -11.210  32.935   1.743  1.00  0.00    -0.331 N 
ATOM     25  H4  UNL     1     -11.040  32.049   2.218  1.00  0.00     0.168 HD
BRANCH  24  26
HETATM   26  C17 UNL     1     -11.759  34.034   2.493  1.00  0.00     0.007 C 
BRANCH  26  27
HETATM   27  C18 UNL     1     -10.916  34.573   3.575  1.00  0.00     0.175 C 
BRANCH  27  28
HETATM   28  N5  UNL     1      -9.681  35.169   3.203  1.00  0.00    -0.356 N 
HETATM   29  C19 UNL     1      -9.655  36.553   2.892  1.00  0.00     0.218 C 
HETATM   30  O3  UNL     1     -10.710  37.261   2.942  1.00  0.00    -0.274 OA
ATOM     31  H5  UNL     1      -8.828  34.612   3.161  1.00  0.00     0.162 HD
BRANCH  29  32
HETATM   32  C20 UNL     1      -8.398  37.221   2.494  1.00  0.00     0.107 C 
BRANCH  32  33
HETATM   33  C21 UNL     1      -7.163  36.438   2.893  1.00  0.00    -0.006 C 
HETATM   34  C22 UNL     1      -6.610  36.965   4.204  1.00  0.00     0.005 C 
HETATM   35  C23 UNL     1      -5.519  37.977   3.883  1.00  0.00     0.000 C 
HETATM   36  C24 UNL     1      -4.279  37.269   3.372  1.00  0.00     0.000 C 
HETATM   37  C25 UNL     1      -4.736  36.153   2.435  1.00  0.00     0.000 C 
HETATM   38  C26 UNL     1      -6.095  36.483   1.855  1.00  0.00     0.005 C 
ENDBRANCH  32  33
ENDBRANCH  29  32
ENDBRANCH  27  28
ENDBRANCH  26  27
BRANCH  26  39
HETATM   39  C27 UNL     1     -13.214  33.819   2.795  1.00  0.00     0.058 C 
BRANCH  39  40
HETATM   40  C28 UNL     1     -14.188  34.667   2.051  1.00  0.00    -0.017 C 
HETATM   41  C29 UNL     1     -14.748  33.879   0.840  1.00  0.00     0.010 C 
HETATM   42  C30 UNL     1     -13.681  35.952   1.488  1.00  0.00     0.010 C 
ENDBRANCH  39  40
ENDBRANCH  26  39
ENDBRANCH  24  26
ENDBRANCH   1  22
TORSDOF 13
ENDMDL
MODEL 3
REMARK VINA RESULT: -7.524863182      3.342      7.408
REMARK  13 active torsions:
REMARK  status: ('A' for Active; 'I' for Inactive)
REMARK    1  A    between atoms: C5_8  and  C6_9 
REMARK    2  A    between atoms: C6_9  and  C7_10 
REMARK       I    between atoms: C7_10  and  N3_12 
REMARK    3  A    between atoms: N3_12  and  C8_14 
REMARK    4  A    between atoms: C8_14  and  C9_15 
REMARK    5  A    between atoms: C8_14  and  C16_22 
REMARK    6  A    between atoms: C9_15  and  C10_16 
REMARK       I    between atoms: C16_22  and  N4_24 
REMARK    7  A    between atoms: N4_24  and  C17_26 
REMARK    8  A    between atoms: C17_26  and  C18_27 
REMARK    9  A    between atoms: C17_26  and  C27_39 
REMARK   10  A    between atoms: C18_27  and  N5_28 
REMARK       I    between atoms: N5_28  and  C19_30 
REMARK   11  A    between atoms: C19_30  and  C20_32 
REMARK   12  A    between atoms: C20_32  and  C21_33 
REMARK   13  A    between atoms: C27_39  and  C28_40 
ROOT
HETATM    1  C8  UNL     1     -10.001  33.726   1.731  1.00  0.00     0.177 C 
ENDROOT
BRANCH   1   2
HETATM    2  N3  UNL     1     -10.585  34.796   2.519  1.00  0.00    -0.347 N 
HETATM    3  C7  UNL     1     -11.652  34.608   3.413  1.00  0.00     0.224 C 
HETATM    4  O1  UNL     1     -12.101  33.404   3.477  1.00  0.00    -0.273 OA
ATOM      5  H3  UNL     1     -10.199  35.736   2.418  1.00  0.00     0.163 HD
BRANCH   3   6
HETATM    6  C6  UNL     1     -12.278  35.640   4.259  1.00  0.00     0.162 C 
BRANCH   6   7
HETATM    7  C5  UNL     1     -11.703  35.851   5.578  1.00  0.00     0.043 A 
HETATM    8  C2  UNL     1     -12.108  35.360   6.787  1.00  0.00     0.029 A 
HETATM    9  C1  UNL     1     -13.260  34.496   7.104  1.00  0.00     0.070 C 
HETATM   10  N1  UNL     1     -11.259  35.790   7.766  1.00  0.00    -0.354 N 
HETATM   11  C3  UNL     1     -10.327  36.550   7.166  1.00  0.00     0.183 A 
ATOM     12  H1  UNL     1     -11.320  35.575   8.762  1.00  0.00     0.166 HD
HETATM   13  N2  UNL     1     -10.606  36.581   5.836  1.00  0.00    -0.349 N 
HETATM   14  C4  UNL     1      -9.784  37.318   4.886  1.00  0.00     0.156 C 
ENDBRANCH   6   7
ENDBRANCH   3   6
ENDBRANCH   1   2
BRANCH   1  15
HETATM   15  C9  UNL     1     -10.432  33.875   0.311  1.00  0.00     0.039 C 
BRANCH  15  16
HETATM   16  C10 UNL     1     -10.819  32.663  -0.442  1.00  0.00    -0.012 C 
HETATM   17  C11 UNL     1     -11.026  31.431   0.353  1.00  0.00     0.005 C 
HETATM   18  C12 UNL     1     -11.116  30.168  -0.475  1.00  0.00     0.000 C 
HETATM   19  C13 UNL     1      -9.921  30.008  -1.381  1.00  0.00     0.000 C 
HETATM   20  C14 UNL     1      -8.972  31.195  -1.147  1.00  0.00     0.000 C 
HETATM   21  C15 UNL     1      -9.765  32.416  -1.498  1.00  0.00     0.005 C 
ENDBRANCH  15  16
ENDBRANCH   1  15
BRANCH   1  22
HETATM   22  C16 UNL     1      -8.507  33.916   1.699  1.00  0.00     0.244 C 
HETATM   23  O2  UNL     1      -7.836  33.449   2.666  1.00  0.00    -0.271 OA
HETATM   24  N4  UNL     1      -7.850  34.572   0.666  1.00  0.00    -0.331 N 
ATOM     25  H4  UNL     1      -8.396  34.936  -0.115  1.00  0.00     0.168 HD
BRANCH  24  26
HETATM   26  C17 UNL     1      -6.422  34.754   0.663  1.00  0.00     0.007 C 
BRANCH  26  27
HETATM   27  C18 UNL     1      -5.935  36.107   0.985  1.00  0.00     0.175 C 
BRANCH  27  28
HETATM   28  N5  UNL     1      -5.204  36.266   2.194  1.00  0.00    -0.356 N 
HETATM   29  C19 UNL     1      -5.690  37.169   3.173  1.00  0.00     0.218 C 
HETATM   30  O3  UNL     1      -6.761  37.831   2.989  1.00  0.00    -0.274 OA
ATOM     31  H5  UNL     1      -4.345  35.740   2.354  1.00  0.00     0.162 HD
BRANCH  29  32
HETATM   32  C20 UNL     1      -4.966  37.375   4.446  1.00  0.00     0.107 C 
BRANCH  32  33
HETATM   33  C21 UNL     1      -5.806  38.075   5.495  1.00  0.00    -0.006 C 
HETATM   34  C22 UNL     1      -4.967  39.093   6.244  1.00  0.00     0.005 C 
HETATM   35  C23 UNL     1      -4.443  38.431   7.511  1.00  0.00     0.000 C 
HETATM   36  C24 UNL     1      -5.565  38.263   8.518  1.00  0.00     0.000 C 
HETATM   37  C25 UNL     1      -6.811  37.821   7.755  1.00  0.00     0.000 C 
HETATM   38  C26 UNL     1      -6.415  37.126   6.468  1.00  0.00     0.005 C 
ENDBRANCH  32  33
ENDBRANCH  29  32
ENDBRANCH  27  28
ENDBRANCH  26  27
BRANCH  26  39
HETATM   39  C27 UNL     1      -5.782  34.049  -0.499  1.00  0.00     0.058 C 
BRANCH  39  40
HETATM   40  C28 UNL     1      -4.926  32.871  -0.181  1.00  0.00    -0.017 C 
HETATM   41  C29 UNL     1      -5.743  31.567  -0.371  1.00  0.00     0.010 C 
HETATM   42  C30 UNL     1      -4.364  32.790   1.198  1.00  0.00     0.010 C 
ENDBRANCH  39  40
ENDBRANCH  26  39
ENDBRANCH  24  26
ENDBRANCH   1  22
TORSDOF 13
ENDMDL
MODEL 4
REMARK VINA RESULT: -7.518175483      3.523      7.521
REMARK  13 active torsions:
REMARK  status: ('A' for Active; 'I' for Inactive)
REMARK    1  A    between atoms: C5_8  and  C6_9 
REMARK    2  A    between atoms: C6_9  and  C7_10 
REMARK       I    between atoms: C7_10  and  N3_12 
REMARK    3  A    between atoms: N3_12  and  C8_14 
REMARK    4  A    between atoms: C8_14  and  C9_15 
REMARK    5  A    between atoms: C8_14  and  C16_22 
REMARK    6  A    between atoms: C9_15  and  C10_16 
REMARK       I    between atoms: C16_22  and  N4_24 
REMARK    7  A    between atoms: N4_24  and  C17_26 
REMARK    8  A    between atoms: C17_26  and  C18_27 
REMARK    9  A    between atoms: C17_26  and  C27_39 
REMARK   10  A    between atoms: C18_27  and  N5_28 
REMARK       I    between atoms: N5_28  and  C19_30 
REMARK   11  A    between atoms: C19_30  and  C20_32 
REMARK   12  A    between atoms: C20_32  and  C21_33 
REMARK   13  A    between atoms: C27_39  and  C28_40 
ROOT
HETATM    1  C8  UNL     1      -9.915  34.078   2.030  1.00  0.00     0.177 C 
ENDROOT
BRANCH   1   2
HETATM    2  N3  UNL     1     -10.528  35.093   2.866  1.00  0.00    -0.347 N 
HETATM    3  C7  UNL     1     -11.701  34.880   3.610  1.00  0.00     0.224 C 
HETATM    4  O1  UNL     1     -12.219  33.709   3.485  1.00  0.00    -0.273 OA
ATOM      5  H3  UNL     1     -10.083  36.010   2.917  1.00  0.00     0.163 HD
BRANCH   3   6
HETATM    6  C6  UNL     1     -12.366  35.855   4.495  1.00  0.00     0.162 C 
BRANCH   6   7
HETATM    7  C5  UNL     1     -12.261  35.625   5.927  1.00  0.00     0.043 A 
HETATM    8  C2  UNL     1     -11.262  35.977   6.789  1.00  0.00     0.029 A 
HETATM    9  C1  UNL     1      -9.990  36.670   6.510  1.00  0.00     0.070 C 
HETATM   10  N1  UNL     1     -11.588  35.587   8.057  1.00  0.00    -0.354 N 
HETATM   11  C3  UNL     1     -12.790  34.990   7.982  1.00  0.00     0.183 A 
ATOM     12  H1  UNL     1     -11.027  35.723   8.898  1.00  0.00     0.166 HD
HETATM   13  N2  UNL     1     -13.190  35.019   6.683  1.00  0.00    -0.349 N 
HETATM   14  C4  UNL     1     -14.461  34.455   6.249  1.00  0.00     0.156 C 
ENDBRANCH   6   7
ENDBRANCH   3   6
ENDBRANCH   1   2
BRANCH   1  15
HETATM   15  C9  UNL     1     -10.179  34.401   0.598  1.00  0.00     0.039 C 
BRANCH  15  16
HETATM   16  C10 UNL     1     -10.547  33.300  -0.319  1.00  0.00    -0.012 C 
HETATM   17  C11 UNL     1     -10.863  31.997   0.309  1.00  0.00     0.005 C 
HETATM   18  C12 UNL     1     -10.931  30.841  -0.665  1.00  0.00     0.000 C 
HETATM   19  C13 UNL     1      -9.671  30.731  -1.489  1.00  0.00     0.000 C 
HETATM   20  C14 UNL     1      -8.703  31.840  -1.045  1.00  0.00     0.000 C 
HETATM   21  C15 UNL     1      -9.419  33.128  -1.312  1.00  0.00     0.005 C 
ENDBRANCH  15  16
ENDBRANCH   1  15
BRANCH   1  22
HETATM   22  C16 UNL     1      -8.418  34.180   2.175  1.00  0.00     0.244 C 
HETATM   23  O2  UNL     1      -7.852  33.385   2.981  1.00  0.00    -0.271 OA
HETATM   24  N4  UNL     1      -7.651  35.096   1.466  1.00  0.00    -0.331 N 
ATOM     25  H4  UNL     1      -8.113  35.725   0.810  1.00  0.00     0.168 HD
BRANCH  24  26
HETATM   26  C17 UNL     1      -6.224  35.184   1.630  1.00  0.00     0.007 C 
BRANCH  26  27
HETATM   27  C18 UNL     1      -5.701  36.471   2.124  1.00  0.00     0.175 C 
BRANCH  27  28
HETATM   28  N5  UNL     1      -5.142  36.488   3.431  1.00  0.00    -0.356 N 
HETATM   29  C19 UNL     1      -6.007  36.645   4.543  1.00  0.00     0.218 C 
HETATM   30  O3  UNL     1      -7.264  36.767   4.391  1.00  0.00    -0.274 OA
ATOM     31  H5  UNL     1      -4.136  36.389   3.566  1.00  0.00     0.162 HD
BRANCH  29  32
HETATM   32  C20 UNL     1      -5.477  36.674   5.923  1.00  0.00     0.107 C 
BRANCH  32  33
HETATM   33  C21 UNL     1      -5.848  37.939   6.669  1.00  0.00    -0.006 C 
HETATM   34  C22 UNL     1      -4.597  38.649   7.152  1.00  0.00     0.005 C 
HETATM   35  C23 UNL     1      -4.333  38.217   8.588  1.00  0.00     0.000 C 
HETATM   36  C24 UNL     1      -5.343  38.856   9.523  1.00  0.00     0.000 C 
HETATM   37  C25 UNL     1      -6.705  38.811   8.835  1.00  0.00     0.000 C 
HETATM   38  C26 UNL     1      -6.745  37.678   7.830  1.00  0.00     0.005 C 
ENDBRANCH  32  33
ENDBRANCH  29  32
ENDBRANCH  27  28
ENDBRANCH  26  27
BRANCH  26  39
HETATM   39  C27 UNL     1      -5.500  34.541   0.482  1.00  0.00     0.058 C 
BRANCH  39  40
HETATM   40  C28 UNL     1      -5.061  33.129   0.671  1.00  0.00    -0.017 C 
HETATM   41  C29 UNL     1      -3.568  33.098   1.090  1.00  0.00     0.010 C 
HETATM   42  C30 UNL     1      -5.161  32.221  -0.508  1.00  0.00     0.010 C 
ENDBRANCH  39  40
ENDBRANCH  26  39
ENDBRANCH  24  26
ENDBRANCH   1  22
TORSDOF 13
ENDMDL
MODEL 5
REMARK VINA RESULT: -7.505649334      1.146      1.493
REMARK  13 active torsions:
REMARK  status: ('A' for Active; 'I' for Inactive)
REMARK    1  A    between atoms: C5_8  and  C6_9 
REMARK    2  A    between atoms: C6_9  and  C7_10 
REMARK       I    between atoms: C7_10  and  N3_12 
REMARK    3  A    between atoms: N3_12  and  C8_14 
REMARK    4  A    between atoms: C8_14  and  C9_15 
REMARK    5  A    between atoms: C8_14  and  C16_22 
REMARK    6  A    between atoms: C9_15  and  C10_16 
REMARK       I    between atoms: C16_22  and  N4_24 
REMARK    7  A    between atoms: N4_24  and  C17_26 
REMARK    8  A    between atoms: C17_26  and  C18_27 
REMARK    9  A    between atoms: C17_26  and  C27_39 
REMARK   10  A    between atoms: C18_27  and  N5_28 
REMARK       I    between atoms: N5_28  and  C19_30 
REMARK   11  A    between atoms: C19_30  and  C20_32 
REMARK   12  A    between atoms: C20_32  and  C21_33 
REMARK   13  A    between atoms: C27_39  and  C28_40 
ROOT
HETATM    1  C8  UNL     1     -10.186  31.752  -0.358  1.00  0.00     0.177 C 
ENDROOT
BRANCH   1   2
HETATM    2  N3  UNL     1     -11.345  31.102  -0.942  1.00  0.00    -0.347 N 
HETATM    3  C7  UNL     1     -11.449  29.712  -1.115  1.00  0.00     0.224 C 
HETATM    4  O1  UNL     1     -10.423  29.037  -0.733  1.00  0.00    -0.273 OA
ATOM      5  H3  UNL     1     -12.125  31.687  -1.243  1.00  0.00     0.163 HD
BRANCH   3   6
HETATM    6  C6  UNL     1     -12.601  28.984  -1.680  1.00  0.00     0.162 C 
BRANCH   6   7
HETATM    7  C5  UNL     1     -12.995  29.323  -3.038  1.00  0.00     0.043 A 
HETATM    8  C2  UNL     1     -12.252  29.306  -4.184  1.00  0.00     0.029 A 
HETATM    9  C1  UNL     1     -10.829  28.963  -4.368  1.00  0.00     0.070 C 
HETATM   10  N1  UNL     1     -13.030  29.672  -5.244  1.00  0.00    -0.354 N 
HETATM   11  C3  UNL     1     -14.258  29.919  -4.757  1.00  0.00     0.183 A 
ATOM     12  H1  UNL     1     -12.737  29.744  -6.219  1.00  0.00     0.166 HD
HETATM   13  N2  UNL     1     -14.226  29.704  -3.415  1.00  0.00    -0.349 N 
HETATM   14  C4  UNL     1     -15.401  29.877  -2.571  1.00  0.00     0.156 C 
ENDBRANCH   6   7
ENDBRANCH   3   6
ENDBRANCH   1   2
BRANCH   1  15
HETATM   15  C9  UNL     1      -9.449  32.486  -1.425  1.00  0.00     0.039 C 
BRANCH  15  16
HETATM   16  C10 UNL     1      -7.970  32.442  -1.424  1.00  0.00    -0.012 C 
HETATM   17  C11 UNL     1      -7.348  31.250  -0.803  1.00  0.00     0.005 C 
HETATM   18  C12 UNL     1      -5.862  31.389  -0.551  1.00  0.00     0.000 C 
HETATM   19  C13 UNL     1      -5.546  32.623   0.259  1.00  0.00     0.000 C 
HETATM   20  C14 UNL     1      -6.867  33.339   0.586  1.00  0.00     0.000 C 
HETATM   21  C15 UNL     1      -7.469  33.693  -0.738  1.00  0.00     0.005 C 
ENDBRANCH  15  16
ENDBRANCH   1  15
BRANCH   1  22
HETATM   22  C16 UNL     1     -10.664  32.826   0.585  1.00  0.00     0.244 C 
HETATM   23  O2  UNL     1     -10.140  32.871   1.737  1.00  0.00    -0.271 OA
HETATM   24  N4  UNL     1     -11.641  33.752   0.242  1.00  0.00    -0.331 N 
ATOM     25  H4  UNL     1     -12.050  33.716  -0.692  1.00  0.00     0.168 HD
BRANCH  24  26
HETATM   26  C17 UNL     1     -12.092  34.761   1.163  1.00  0.00     0.007 C 
BRANCH  26  27
HETATM   27  C18 UNL     1     -11.327  36.021   1.179  1.00  0.00     0.175 C 
BRANCH  27  28
HETATM   28  N5  UNL     1      -9.909  35.921   1.164  1.00  0.00    -0.356 N 
HETATM   29  C19 UNL     1      -9.145  37.082   0.881  1.00  0.00     0.218 C 
HETATM   30  O3  UNL     1      -9.703  38.200   0.645  1.00  0.00    -0.274 OA
ATOM     31  H5  UNL     1      -9.449  35.031   1.353  1.00  0.00     0.162 HD
BRANCH  29  32
HETATM   32  C20 UNL     1      -7.667  37.032   0.848  1.00  0.00     0.107 C 
BRANCH  32  33
HETATM   33  C21 UNL     1      -7.065  36.536   2.147  1.00  0.00    -0.006 C 
HETATM   34  C22 UNL     1      -7.368  37.509   3.270  1.00  0.00     0.005 C 
HETATM   35  C23 UNL     1      -6.181  38.453   3.409  1.00  0.00     0.000 C 
HETATM   36  C24 UNL     1      -5.004  37.728   4.035  1.00  0.00     0.000 C 
HETATM   37  C25 UNL     1      -4.940  36.332   3.423  1.00  0.00     0.000 C 
HETATM   38  C26 UNL     1      -5.592  36.332   2.055  1.00  0.00     0.005 C 
ENDBRANCH  32  33
ENDBRANCH  29  32
ENDBRANCH  27  28
ENDBRANCH  26  27
BRANCH  26  39
HETATM   39  C27 UNL     1     -12.465  34.164   2.490  1.00  0.00     0.058 C 
BRANCH  39  40
HETATM   40  C28 UNL     1     -12.676  35.115   3.619  1.00  0.00    -0.017 C 
HETATM   41  C29 UNL     1     -11.507  34.994   4.629  1.00  0.00     0.010 C 
HETATM   42  C30 UNL     1     -13.918  34.946   4.427  1.00  0.00     0.010 C 
ENDBRANCH  39  40
ENDBRANCH  26  39
ENDBRANCH  24  26
ENDBRANCH   1  22
TORSDOF 13
ENDMDL
