MODEL 1
REMARK VINA RESULT: -7.238582028      0.000      0.000
REMARK  15 active torsions:
REMARK  status: ('A' for Active; 'I' for Inactive)
REMARK    1  A    between atoms: C2_2  and  C4_4 
REMARK    2  A    between atoms: C5_5  and  C6_6 
REMARK    3  A    between atoms: C6_6  and  N1_7 
REMARK    4  A    between atoms: C6_6  and  C12_16 
REMARK       I    between atoms: N1_7  and  C7_9 
REMARK    5  A    between atoms: C7_9  and  O2_11 
REMARK    6  A    between atoms: O2_11  and  C8_12 
REMARK       I    between atoms: C12_16  and  N2_18 
REMARK    7  A    between atoms: N2_18  and  C13_20 
REMARK    8  A    between atoms: C13_20  and  C14_21 
REMARK    9  A    between atoms: C13_20  and  C18_25 
REMARK   10  A    between atoms: C14_21  and  C15_22 
REMARK       I    between atoms: C18_25  and  N3_27 
REMARK   11  A    between atoms: N3_27  and  C19_29 
REMARK   12  A    between atoms: C19_29  and  C20_30 
REMARK   13  A    between atoms: C19_29  and  C23_36 
REMARK   14  A    between atoms: C21_31  and  S1_32 
REMARK   15  A    between atoms: C23_36  and  C24_37 
ROOT
HETATM    1  C13 UNL     1      -7.600  33.319   0.942  1.00  0.00     0.177 C 
ENDROOT
BRANCH   1   2
HETATM    2  N2  UNL     1      -8.855  32.742   0.509  1.00  0.00    -0.346 N 
HETATM    3  C12 UNL     1      -9.102  31.510  -0.094  1.00  0.00     0.245 C 
HETATM    4  O3  UNL     1      -8.196  30.699  -0.349  1.00  0.00    -0.271 OA
ATOM      5  H2  UNL     1      -9.678  33.323   0.669  1.00  0.00     0.163 HD
BRANCH   3   6
HETATM    6  C6  UNL     1     -10.491  31.081  -0.490  1.00  0.00     0.202 C 
BRANCH   6   7
HETATM    7  C5  UNL     1     -10.558  30.781  -1.942  1.00  0.00     0.004 C 
HETATM    8  C4  UNL     1     -10.916  29.596  -2.403  1.00  0.00    -0.024 C 
BRANCH   8   9
HETATM    9  C2  UNL     1     -10.984  29.294  -3.851  1.00  0.00    -0.001 C 
HETATM   10  C1  UNL     1     -12.369  29.594  -4.407  1.00  0.00     0.013 C 
HETATM   11  C3  UNL     1     -10.603  27.851  -4.138  1.00  0.00     0.013 C 
ENDBRANCH   8   9
ENDBRANCH   6   7
BRANCH   6  12
HETATM   12  N1  UNL     1     -11.430  32.203  -0.277  1.00  0.00    -0.320 N 
HETATM   13  C7  UNL     1     -12.214  32.202   0.914  1.00  0.00     0.362 C 
HETATM   14  O1  UNL     1     -12.112  31.256   1.756  1.00  0.00    -0.238 OA
ATOM     15  H1  UNL     1     -11.515  32.954  -0.962  1.00  0.00     0.166 HD
BRANCH  13  16
HETATM   16  O2  UNL     1     -13.091  33.220   1.178  1.00  0.00    -0.294 OA
BRANCH  16  17
HETATM   17  C8  UNL     1     -12.730  34.402   1.842  1.00  0.00     0.061 C 
HETATM   18  C9  UNL     1     -12.229  34.207   3.240  1.00  0.00     0.046 C 
HETATM   19  C10 UNL     1     -11.696  35.219   1.080  1.00  0.00     0.046 C 
HETATM   20  C11 UNL     1     -13.969  35.295   1.918  1.00  0.00     0.046 C 
ENDBRANCH  16  17
ENDBRANCH  13  16
ENDBRANCH   6  12
ENDBRANCH   3   6
ENDBRANCH   1   2
BRANCH   1  21
HETATM   21  C14 UNL     1      -6.787  33.903  -0.201  1.00  0.00     0.038 C 
BRANCH  21  22
HETATM   22  C15 UNL     1      -5.340  33.396  -0.160  1.00  0.00    -0.020 C 
HETATM   23  C16 UNL     1      -4.798  33.479   1.250  1.00  0.00     0.009 C 
HETATM   24  C17 UNL     1      -5.372  31.960  -0.607  1.00  0.00     0.009 C 
ENDBRANCH  21  22
ENDBRANCH   1  21
BRANCH   1  25
HETATM   25  C18 UNL     1      -7.949  34.412   1.860  1.00  0.00     0.241 C 
HETATM   26  O4  UNL     1      -8.731  34.119   2.833  1.00  0.00    -0.271 OA
HETATM   27  N3  UNL     1      -7.536  35.752   1.819  1.00  0.00    -0.351 N 
ATOM     28  H3  UNL     1      -6.910  36.052   1.071  1.00  0.00     0.163 HD
BRANCH  27  29
HETATM   29  C19 UNL     1      -7.970  36.729   2.806  1.00  0.00     0.108 C 
BRANCH  29  30
HETATM   30  C20 UNL     1      -9.016  37.595   2.224  1.00  0.00     0.010 C 
HETATM   31  C21 UNL     1      -8.855  38.207   1.066  1.00  0.00     0.106 C 
BRANCH  31  32
HETATM   32  S1  UNL     1     -10.068  39.229   0.362  1.00  0.00     0.161 S 
HETATM   33  C22 UNL     1     -10.881  40.244   1.573  1.00  0.00     0.166 C 
HETATM   34  O5  UNL     1      -9.427  40.133  -0.660  1.00  0.00    -0.224 OA
HETATM   35  O6  UNL     1     -11.075  38.396  -0.404  1.00  0.00    -0.224 OA
ENDBRANCH  31  32
ENDBRANCH  29  30
BRANCH  29  36
HETATM   36  C23 UNL     1      -6.840  37.497   3.435  1.00  0.00     0.033 C 
BRANCH  36  37
HETATM   37  C24 UNL     1      -5.672  36.540   3.594  1.00  0.00    -0.021 C 
HETATM   38  C25 UNL     1      -5.503  36.086   5.025  1.00  0.00     0.009 C 
HETATM   39  C26 UNL     1      -4.385  37.157   3.129  1.00  0.00     0.009 C 
ENDBRANCH  36  37
ENDBRANCH  29  36
ENDBRANCH  27  29
ENDBRANCH   1  25
TORSDOF 15
ENDMDL
MODEL 2
REMARK VINA RESULT: -6.863232656      1.753      5.265
REMARK  15 active torsions:
REMARK  status: ('A' for Active; 'I' for Inactive)
REMARK    1  A    between atoms: C2_2  and  C4_4 
REMARK    2  A    between atoms: C5_5  and  C6_6 
REMARK    3  A    between atoms: C6_6  and  N1_7 
REMARK    4  A    between atoms: C6_6  and  C12_16 
REMARK       I    between atoms: N1_7  and  C7_9 
REMARK    5  A    between atoms: C7_9  and  O2_11 
REMARK    6  A    between atoms: O2_11  and  C8_12 
REMARK       I    between atoms: C12_16  and  N2_18 
REMARK    7  A    between atoms: N2_18  and  C13_20 
REMARK    8  A    between atoms: C13_20  and  C14_21 
REMARK    9  A    between atoms: C13_20  and  C18_25 
REMARK   10  A    between atoms: C14_21  and  C15_22 
REMARK       I    between atoms: C18_25  and  N3_27 
REMARK   11  A    between atoms: N3_27  and  C19_29 
REMARK   12  A    between atoms: C19_29  and  C20_30 
REMARK   13  A    between atoms: C19_29  and  C23_36 
REMARK   14  A    between atoms: C21_31  and  S1_32 
REMARK   15  A    between atoms: C23_36  and  C24_37 
ROOT
HETATM    1  C13 UNL     1     -11.876  34.130   0.971  1.00  0.00     0.177 C 
ENDROOT
BRANCH   1   2
HETATM    2  N2  UNL     1     -11.272  33.104   0.149  1.00  0.00    -0.346 N 
HETATM    3  C12 UNL     1     -10.694  31.893   0.526  1.00  0.00     0.245 C 
HETATM    4  O3  UNL     1     -10.627  31.527   1.712  1.00  0.00    -0.271 OA
ATOM      5  H2  UNL     1     -11.269  33.295  -0.853  1.00  0.00     0.163 HD
BRANCH   3   6
HETATM    6  C6  UNL     1     -10.097  30.946  -0.483  1.00  0.00     0.202 C 
BRANCH   6   7
HETATM    7  C5  UNL     1      -8.856  31.511  -1.069  1.00  0.00     0.004 C 
HETATM    8  C4  UNL     1      -7.801  31.812  -0.334  1.00  0.00    -0.024 C 
BRANCH   8   9
HETATM    9  C2  UNL     1      -6.561  32.374  -0.916  1.00  0.00    -0.001 C 
HETATM   10  C1  UNL     1      -5.358  32.082  -0.029  1.00  0.00     0.013 C 
HETATM   11  C3  UNL     1      -6.686  33.869  -1.156  1.00  0.00     0.013 C 
ENDBRANCH   8   9
ENDBRANCH   6   7
BRANCH   6  12
HETATM   12  N1  UNL     1     -11.031  30.787  -1.618  1.00  0.00    -0.320 N 
HETATM   13  C7  UNL     1     -11.868  29.634  -1.638  1.00  0.00     0.362 C 
HETATM   14  O1  UNL     1     -11.800  28.765  -0.712  1.00  0.00    -0.238 OA
ATOM     15  H1  UNL     1     -11.075  31.482  -2.363  1.00  0.00     0.166 HD
BRANCH  13  16
HETATM   16  O2  UNL     1     -12.765  29.435  -2.653  1.00  0.00    -0.294 OA
BRANCH  16  17
HETATM   17  C8  UNL     1     -12.420  28.880  -3.895  1.00  0.00     0.061 C 
HETATM   18  C9  UNL     1     -10.953  28.652  -4.094  1.00  0.00     0.046 C 
HETATM   19  C10 UNL     1     -13.143  27.571  -4.182  1.00  0.00     0.046 C 
HETATM   20  C11 UNL     1     -12.887  29.844  -4.986  1.00  0.00     0.046 C 
ENDBRANCH  16  17
ENDBRANCH  13  16
ENDBRANCH   6  12
ENDBRANCH   3   6
ENDBRANCH   1   2
BRANCH   1  21
HETATM   21  C14 UNL     1     -12.623  33.571   2.170  1.00  0.00     0.038 C 
BRANCH  21  22
HETATM   22  C15 UNL     1     -14.063  34.094   2.213  1.00  0.00    -0.020 C 
HETATM   23  C16 UNL     1     -14.186  35.200   3.238  1.00  0.00     0.009 C 
HETATM   24  C17 UNL     1     -14.368  34.636   0.843  1.00  0.00     0.009 C 
ENDBRANCH  21  22
ENDBRANCH   1  21
BRANCH   1  25
HETATM   25  C18 UNL     1     -10.769  34.959   1.468  1.00  0.00     0.241 C 
HETATM   26  O4  UNL     1     -10.543  34.920   2.730  1.00  0.00    -0.271 OA
HETATM   27  N3  UNL     1      -9.911  35.798   0.741  1.00  0.00    -0.351 N 
ATOM     28  H3  UNL     1     -10.035  35.873  -0.269  1.00  0.00     0.163 HD
BRANCH  27  29
HETATM   29  C19 UNL     1      -8.852  36.565   1.378  1.00  0.00     0.108 C 
BRANCH  29  30
HETATM   30  C20 UNL     1      -9.169  38.007   1.308  1.00  0.00     0.010 C 
HETATM   31  C21 UNL     1      -9.247  38.652   0.159  1.00  0.00     0.106 C 
BRANCH  31  32
HETATM   32  S1  UNL     1      -9.617  40.344   0.049  1.00  0.00     0.161 S 
HETATM   33  C22 UNL     1      -8.286  41.364   0.639  1.00  0.00     0.166 C 
HETATM   34  O5  UNL     1      -9.887  40.703  -1.389  1.00  0.00    -0.224 OA
HETATM   35  O6  UNL     1     -10.899  40.649   0.796  1.00  0.00    -0.224 OA
ENDBRANCH  31  32
ENDBRANCH  29  30
BRANCH  29  36
HETATM   36  C23 UNL     1      -7.475  36.231   0.874  1.00  0.00     0.033 C 
BRANCH  36  37
HETATM   37  C24 UNL     1      -6.653  35.773   2.066  1.00  0.00    -0.021 C 
HETATM   38  C25 UNL     1      -5.170  35.797   1.772  1.00  0.00     0.009 C 
HETATM   39  C26 UNL     1      -7.035  34.389   2.503  1.00  0.00     0.009 C 
ENDBRANCH  36  37
ENDBRANCH  29  36
ENDBRANCH  27  29
ENDBRANCH   1  25
TORSDOF 15
ENDMDL
MODEL 3
REMARK VINA RESULT: -6.783360110      3.209      7.843
REMARK  15 active torsions:
REMARK  status: ('A' for Active; 'I' for Inactive)
REMARK    1  A    between atoms: C2_2  and  C4_4 
REMARK    2  A    between atoms: C5_5  and  C6_6 
REMARK    3  A    between atoms: C6_6  and  N1_7 
REMARK    4  A    between atoms: C6_6  and  C12_16 
REMARK       I    between atoms: N1_7  and  C7_9 
REMARK    5  A    between atoms: C7_9  and  O2_11 
REMARK    6  A    between atoms: O2_11  and  C8_12 
REMARK       I    between atoms: C12_16  and  N2_18 
REMARK    7  A    between atoms: N2_18  and  C13_20 
REMARK    8  A    between atoms: C13_20  and  C14_21 
REMARK    9  A    between atoms: C13_20  and  C18_25 
REMARK   10  A    between atoms: C14_21  and  C15_22 
REMARK       I    between atoms: C18_25  and  N3_27 
REMARK   11  A    between atoms: N3_27  and  C19_29 
REMARK   12  A    between atoms: C19_29  and  C20_30 
REMARK   13  A    between atoms: C19_29  and  C23_36 
REMARK   14  A    between atoms: C21_31  and  S1_32 
REMARK   15  A    between atoms: C23_36  and  C24_37 
ROOT
HETATM    1  C13 UNL     1     -11.274  33.037   2.060  1.00  0.00     0.177 C 
ENDROOT
BRANCH   1   2
HETATM    2  N2  UNL     1     -10.609  34.274   2.409  1.00  0.00    -0.346 N 
HETATM    3  C12 UNL     1      -9.272  34.501   2.731  1.00  0.00     0.245 C 
HETATM    4  O3  UNL     1      -8.429  33.589   2.756  1.00  0.00    -0.271 OA
ATOM      5  H2  UNL     1     -11.206  35.101   2.420  1.00  0.00     0.163 HD
BRANCH   3   6
HETATM    6  C6  UNL     1      -8.758  35.873   3.083  1.00  0.00     0.202 C 
BRANCH   6   7
HETATM    7  C5  UNL     1      -7.275  35.894   3.096  1.00  0.00     0.004 C 
HETATM    8  C4  UNL     1      -6.563  36.215   2.031  1.00  0.00    -0.024 C 
BRANCH   8   9
HETATM    9  C2  UNL     1      -5.082  36.238   2.042  1.00  0.00    -0.001 C 
HETATM   10  C1  UNL     1      -4.512  34.829   1.954  1.00  0.00     0.013 C 
HETATM   11  C3  UNL     1      -4.545  36.945   3.275  1.00  0.00     0.013 C 
ENDBRANCH   8   9
ENDBRANCH   6   7
BRANCH   6  12
HETATM   12  N1  UNL     1      -9.169  36.212   4.462  1.00  0.00    -0.320 N 
HETATM   13  C7  UNL     1     -10.394  36.918   4.640  1.00  0.00     0.362 C 
HETATM   14  O1  UNL     1     -11.101  37.255   3.639  1.00  0.00    -0.238 OA
ATOM     15  H1  UNL     1      -8.593  35.947   5.261  1.00  0.00     0.166 HD
BRANCH  13  16
HETATM   16  O2  UNL     1     -10.838  37.248   5.893  1.00  0.00    -0.294 OA
BRANCH  16  17
HETATM   17  C8  UNL     1     -11.962  36.662   6.496  1.00  0.00     0.061 C 
HETATM   18  C9  UNL     1     -13.273  37.269   6.101  1.00  0.00     0.046 C 
HETATM   19  C10 UNL     1     -12.047  35.161   6.260  1.00  0.00     0.046 C 
HETATM   20  C11 UNL     1     -11.819  36.823   8.010  1.00  0.00     0.046 C 
ENDBRANCH  16  17
ENDBRANCH  13  16
ENDBRANCH   6  12
ENDBRANCH   3   6
ENDBRANCH   1   2
BRANCH   1  21
HETATM   21  C14 UNL     1     -12.766  33.206   1.833  1.00  0.00     0.038 C 
BRANCH  21  22
HETATM   22  C15 UNL     1     -13.192  34.665   2.036  1.00  0.00    -0.020 C 
HETATM   23  C16 UNL     1     -13.865  35.190   0.788  1.00  0.00     0.009 C 
HETATM   24  C17 UNL     1     -14.168  34.675   3.181  1.00  0.00     0.009 C 
ENDBRANCH  21  22
ENDBRANCH   1  21
BRANCH   1  25
HETATM   25  C18 UNL     1     -10.667  32.589   0.799  1.00  0.00     0.241 C 
HETATM   26  O4  UNL     1     -10.978  33.250  -0.255  1.00  0.00    -0.271 OA
HETATM   27  N3  UNL     1      -9.781  31.523   0.587  1.00  0.00    -0.351 N 
ATOM     28  H3  UNL     1      -9.491  30.957   1.384  1.00  0.00     0.163 HD
BRANCH  27  29
HETATM   29  C19 UNL     1      -9.262  31.196  -0.733  1.00  0.00     0.108 C 
BRANCH  29  30
HETATM   30  C20 UNL     1     -10.077  30.122  -1.337  1.00  0.00     0.010 C 
HETATM   31  C21 UNL     1     -10.531  30.197  -2.574  1.00  0.00     0.106 C 
BRANCH  31  32
HETATM   32  S1  UNL     1     -11.490  28.950  -3.306  1.00  0.00     0.161 S 
HETATM   33  C22 UNL     1     -12.807  28.403  -2.245  1.00  0.00     0.166 C 
HETATM   34  O5  UNL     1     -12.096  29.471  -4.583  1.00  0.00    -0.224 OA
HETATM   35  O6  UNL     1     -10.611  27.786  -3.715  1.00  0.00    -0.224 OA
ENDBRANCH  31  32
ENDBRANCH  29  30
BRANCH  29  36
HETATM   36  C23 UNL     1      -7.786  30.907  -0.748  1.00  0.00     0.033 C 
BRANCH  36  37
HETATM   37  C24 UNL     1      -7.069  32.176  -0.322  1.00  0.00    -0.021 C 
HETATM   38  C25 UNL     1      -7.577  33.389  -1.067  1.00  0.00     0.009 C 
HETATM   39  C26 UNL     1      -5.586  32.069  -0.528  1.00  0.00     0.009 C 
ENDBRANCH  36  37
ENDBRANCH  29  36
ENDBRANCH  27  29
ENDBRANCH   1  25
TORSDOF 15
ENDMDL
MODEL 4
REMARK VINA RESULT: -6.782449217      3.454      9.116
REMARK  15 active torsions:
REMARK  status: ('A' for Active; 'I' for Inactive)
REMARK    1  A    between atoms: C2_2  and  C4_4 
REMARK    2  A    between atoms: C5_5  and  C6_6 
REMARK    3  A    between atoms: C6_6  and  N1_7 
REMARK    4  A    between atoms: C6_6  and  C12_16 
REMARK       I    between atoms: N1_7  and  C7_9 
REMARK    5  A    between atoms: C7_9  and  O2_11 
REMARK    6  A    between atoms: O2_11  and  C8_12 
REMARK       I    between atoms: C12_16  and  N2_18 
REMARK    7  A    between atoms: N2_18  and  C13_20 
REMARK    8  A    between atoms: C13_20  and  C14_21 
REMARK    9  A    between atoms: C13_20  and  C18_25 
REMARK   10  A    between atoms: C14_21  and  C15_22 
REMARK       I    between atoms: C18_25  and  N3_27 
REMARK   11  A    between atoms: N3_27  and  C19_29 
REMARK   12  A    between atoms: C19_29  and  C20_30 
REMARK   13  A    between atoms: C19_29  and  C23_36 
REMARK   14  A    between atoms: C21_31  and  S1_32 
REMARK   15  A    between atoms: C23_36  and  C24_37 
ROOT
HETATM    1  C13 UNL     1      -6.193  35.359   1.232  1.00  0.00     0.177 C 
ENDROOT
BRANCH   1   2
HETATM    2  N2  UNL     1      -6.412  36.298   2.312  1.00  0.00    -0.346 N 
HETATM    3  C12 UNL     1      -5.482  36.982   3.093  1.00  0.00     0.245 C 
HETATM    4  O3  UNL     1      -4.257  36.853   2.936  1.00  0.00    -0.271 OA
ATOM      5  H2  UNL     1      -7.390  36.486   2.533  1.00  0.00     0.163 HD
BRANCH   3   6
HETATM    6  C6  UNL     1      -5.903  37.921   4.193  1.00  0.00     0.202 C 
BRANCH   6   7
HETATM    7  C5  UNL     1      -5.831  39.332   3.740  1.00  0.00     0.004 C 
HETATM    8  C4  UNL     1      -4.772  40.091   3.956  1.00  0.00    -0.024 C 
BRANCH   8   9
HETATM    9  C2  UNL     1      -4.696  41.499   3.504  1.00  0.00    -0.001 C 
HETATM   10  C1  UNL     1      -3.510  41.711   2.572  1.00  0.00     0.013 C 
HETATM   11  C3  UNL     1      -4.620  42.459   4.678  1.00  0.00     0.013 C 
ENDBRANCH   8   9
ENDBRANCH   6   7
BRANCH   6  12
HETATM   12  N1  UNL     1      -4.948  37.820   5.317  1.00  0.00    -0.320 N 
HETATM   13  C7  UNL     1      -5.477  37.678   6.633  1.00  0.00     0.362 C 
HETATM   14  O1  UNL     1      -6.732  37.655   6.829  1.00  0.00    -0.238 OA
ATOM     15  H1  UNL     1      -3.942  37.849   5.155  1.00  0.00     0.166 HD
BRANCH  13  16
HETATM   16  O2  UNL     1      -4.645  37.564   7.715  1.00  0.00    -0.294 OA
BRANCH  16  17
HETATM   17  C8  UNL     1      -4.318  38.638   8.558  1.00  0.00     0.061 C 
HETATM   18  C9  UNL     1      -4.209  39.963   7.871  1.00  0.00     0.046 C 
HETATM   19  C10 UNL     1      -5.283  38.790   9.726  1.00  0.00     0.046 C 
HETATM   20  C11 UNL     1      -2.961  38.337   9.196  1.00  0.00     0.046 C 
ENDBRANCH  16  17
ENDBRANCH  13  16
ENDBRANCH   6  12
ENDBRANCH   3   6
ENDBRANCH   1   2
BRANCH   1  21
HETATM   21  C14 UNL     1      -5.618  34.034   1.702  1.00  0.00     0.038 C 
BRANCH  21  22
HETATM   22  C15 UNL     1      -4.464  33.584   0.799  1.00  0.00    -0.020 C 
HETATM   23  C16 UNL     1      -3.313  33.075   1.638  1.00  0.00     0.009 C 
HETATM   24  C17 UNL     1      -4.996  32.470  -0.060  1.00  0.00     0.009 C 
ENDBRANCH  21  22
ENDBRANCH   1  21
BRANCH   1  25
HETATM   25  C18 UNL     1      -7.514  35.101   0.642  1.00  0.00     0.241 C 
HETATM   26  O4  UNL     1      -8.250  36.125   0.411  1.00  0.00    -0.271 OA
HETATM   27  N3  UNL     1      -8.087  33.870   0.289  1.00  0.00    -0.351 N 
ATOM     28  H3  UNL     1      -7.552  33.015   0.444  1.00  0.00     0.163 HD
BRANCH  27  29
HETATM   29  C19 UNL     1      -9.418  33.772  -0.291  1.00  0.00     0.108 C 
BRANCH  29  30
HETATM   30  C20 UNL     1     -10.380  33.338   0.743  1.00  0.00     0.010 C 
HETATM   31  C21 UNL     1     -11.121  34.198   1.416  1.00  0.00     0.106 C 
BRANCH  31  32
HETATM   32  S1  UNL     1     -12.258  33.714   2.636  1.00  0.00     0.161 S 
HETATM   33  C22 UNL     1     -13.905  34.279   2.284  1.00  0.00     0.166 C 
HETATM   34  O5  UNL     1     -12.283  32.210   2.725  1.00  0.00    -0.224 OA
HETATM   35  O6  UNL     1     -11.802  34.197   3.997  1.00  0.00    -0.224 OA
ENDBRANCH  31  32
ENDBRANCH  29  30
BRANCH  29  36
HETATM   36  C23 UNL     1      -9.473  32.942  -1.544  1.00  0.00     0.033 C 
BRANCH  36  37
HETATM   37  C24 UNL     1      -9.632  31.492  -1.122  1.00  0.00    -0.021 C 
HETATM   38  C25 UNL     1      -8.297  30.809  -0.929  1.00  0.00     0.009 C 
HETATM   39  C26 UNL     1     -10.433  30.710  -2.123  1.00  0.00     0.009 C 
ENDBRANCH  36  37
ENDBRANCH  29  36
ENDBRANCH  27  29
ENDBRANCH   1  25
TORSDOF 15
ENDMDL
MODEL 5
REMARK VINA RESULT: -6.735265298      1.812      5.278
REMARK  15 active torsions:
REMARK  status: ('A' for Active; 'I' for Inactive)
REMARK    1  A    between atoms: C2_2  and  C4_4 
REMARK    2  A    between atoms: C5_5  and  C6_6 
REMARK    3  A    between atoms: C6_6  and  N1_7 
REMARK    4  A    between atoms: C6_6  and  C12_16 
REMARK       I    between atoms: N1_7  and  C7_9 
REMARK    5  A    between atoms: C7_9  and  O2_11 
REMARK    6  A    between atoms: O2_11  and  C8_12 
REMARK       I    between atoms: C12_16  and  N2_18 
REMARK    7  A    between atoms: N2_18  and  C13_20 
REMARK    8  A    between atoms: C13_20  and  C14_21 
REMARK    9  A    between atoms: C13_20  and  C18_25 
REMARK   10  A    between atoms: C14_21  and  C15_22 
REMARK       I    between atoms: C18_25  and  N3_27 
REMARK   11  A    between atoms: N3_27  and  C19_29 
REMARK   12  A    between atoms: C19_29  and  C20_30 
REMARK   13  A    between atoms: C19_29  and  C23_36 
REMARK   14  A    between atoms: C21_31  and  S1_32 
REMARK   15  A    between atoms: C23_36  and  C24_37 
ROOT
HETATM    1  C13 UNL     1     -11.604  34.079   1.395  1.00  0.00     0.177 C 
ENDROOT
BRANCH   1   2
HETATM    2  N2  UNL     1     -10.991  33.174   0.446  1.00  0.00    -0.346 N 
HETATM    3  C12 UNL     1     -10.448  31.907   0.653  1.00  0.00     0.245 C 
HETATM    4  O3  UNL     1     -10.430  31.365   1.770  1.00  0.00    -0.271 OA
ATOM      5  H2  UNL     1     -10.950  33.514  -0.515  1.00  0.00     0.163 HD
BRANCH   3   6
HETATM    6  C6  UNL     1      -9.835  31.109  -0.469  1.00  0.00     0.202 C 
BRANCH   6   7
HETATM    7  C5  UNL     1      -8.666  31.820  -1.045  1.00  0.00     0.004 C 
HETATM    8  C4  UNL     1      -7.627  32.180  -0.314  1.00  0.00    -0.024 C 
BRANCH   8   9
HETATM    9  C2  UNL     1      -6.459  32.887  -0.886  1.00  0.00    -0.001 C 
HETATM   10  C1  UNL     1      -5.159  32.373  -0.283  1.00  0.00     0.013 C 
HETATM   11  C3  UNL     1      -6.569  34.390  -0.695  1.00  0.00     0.013 C 
ENDBRANCH   8   9
ENDBRANCH   6   7
BRANCH   6  12
HETATM   12  N1  UNL     1     -10.808  30.992  -1.576  1.00  0.00    -0.320 N 
HETATM   13  C7  UNL     1     -11.633  29.830  -1.621  1.00  0.00     0.362 C 
HETATM   14  O1  UNL     1     -11.520  28.920  -0.740  1.00  0.00    -0.238 OA
ATOM     15  H1  UNL     1     -10.887  31.720  -2.285  1.00  0.00     0.166 HD
BRANCH  13  16
HETATM   16  O2  UNL     1     -12.564  29.667  -2.611  1.00  0.00    -0.294 OA
BRANCH  16  17
HETATM   17  C8  UNL     1     -12.296  29.025  -3.830  1.00  0.00     0.061 C 
HETATM   18  C9  UNL     1     -10.844  28.928  -4.181  1.00  0.00     0.046 C 
HETATM   19  C10 UNL     1     -12.894  27.627  -3.907  1.00  0.00     0.046 C 
HETATM   20  C11 UNL     1     -12.985  29.818  -4.940  1.00  0.00     0.046 C 
ENDBRANCH  16  17
ENDBRANCH  13  16
ENDBRANCH   6  12
ENDBRANCH   3   6
ENDBRANCH   1   2
BRANCH   1  21
HETATM   21  C14 UNL     1     -12.553  33.382   2.354  1.00  0.00     0.038 C 
BRANCH  21  22
HETATM   22  C15 UNL     1     -13.966  33.970   2.252  1.00  0.00    -0.020 C 
HETATM   23  C16 UNL     1     -14.253  34.847   3.451  1.00  0.00     0.009 C 
HETATM   24  C17 UNL     1     -14.000  34.799   0.998  1.00  0.00     0.009 C 
ENDBRANCH  21  22
ENDBRANCH   1  21
BRANCH   1  25
HETATM   25  C18 UNL     1     -10.502  34.654   2.179  1.00  0.00     0.241 C 
HETATM   26  O4  UNL     1     -10.665  34.701   3.450  1.00  0.00    -0.271 OA
HETATM   27  N3  UNL     1      -9.279  35.166   1.721  1.00  0.00    -0.351 N 
ATOM     28  H3  UNL     1      -9.085  35.157   0.720  1.00  0.00     0.163 HD
BRANCH  27  29
HETATM   29  C19 UNL     1      -8.278  35.711   2.627  1.00  0.00     0.108 C 
BRANCH  29  30
HETATM   30  C20 UNL     1      -8.049  37.137   2.317  1.00  0.00     0.010 C 
HETATM   31  C21 UNL     1      -9.036  38.011   2.266  1.00  0.00     0.106 C 
BRANCH  31  32
HETATM   32  S1  UNL     1      -8.793  39.691   1.903  1.00  0.00     0.161 S 
HETATM   33  C22 UNL     1      -8.780  40.008   0.155  1.00  0.00     0.166 C 
HETATM   34  O5  UNL     1      -9.903  40.501   2.523  1.00  0.00    -0.224 OA
HETATM   35  O6  UNL     1      -7.516  40.186   2.549  1.00  0.00    -0.224 OA
ENDBRANCH  31  32
ENDBRANCH  29  30
BRANCH  29  36
HETATM   36  C23 UNL     1      -7.012  34.901   2.687  1.00  0.00     0.033 C 
BRANCH  36  37
HETATM   37  C24 UNL     1      -5.870  35.863   2.962  1.00  0.00    -0.021 C 
HETATM   38  C25 UNL     1      -4.651  35.547   2.127  1.00  0.00     0.009 C 
HETATM   39  C26 UNL     1      -5.477  35.854   4.411  1.00  0.00     0.009 C 
ENDBRANCH  36  37
ENDBRANCH  29  36
ENDBRANCH  27  29
ENDBRANCH   1  25
TORSDOF 15
ENDMDL
