MODEL 1
REMARK VINA RESULT: -7.590448854      0.000      0.000
REMARK  10 active torsions:
REMARK  status: ('A' for Active; 'I' for Inactive)
REMARK    1  A    between atoms: C2_2  and  C3_3 
REMARK       I    between atoms: C3_3  and  N1_5 
REMARK    2  A    between atoms: N1_5  and  C4_7 
REMARK    3  A    between atoms: C4_7  and  C5_8 
REMARK    4  A    between atoms: C5_8  and  C6_9 
REMARK    5  A    between atoms: C16_19  and  O2_20 
REMARK    6  A    between atoms: C16_19  and  N2_22 
REMARK    7  A    between atoms: N2_22  and  C17_24 
REMARK    8  A    between atoms: C17_24  and  C18_25 
REMARK    9  A    between atoms: C17_24  and  C20_29 
REMARK   10  A    between atoms: C18_25  and  C19_26 
REMARK       I    between atoms: C20_29  and  N3_31 
ROOT
HETATM    1  C4  UNL     1     -10.585  44.098  -0.851  1.00  0.00     0.082 C 
HETATM    2  C16 UNL     1     -11.872  44.036  -1.460  1.00  0.00     0.163 C 
ENDROOT
BRANCH   1   3
HETATM    3  N1  UNL     1      -9.856  42.865  -1.323  1.00  0.00    -0.324 N 
HETATM    4  C3  UNL     1      -9.843  41.769  -0.425  1.00  0.00     0.221 C 
HETATM    5  O1  UNL     1     -10.392  41.753   0.708  1.00  0.00    -0.273 OA
ATOM      6  H1  UNL     1      -9.401  42.821  -2.234  1.00  0.00     0.169 HD
BRANCH   4   7
HETATM    7  C2  UNL     1      -9.124  40.520  -0.821  1.00  0.00     0.098 C 
HETATM    8  C1  UNL     1      -8.485  39.926   0.407  1.00  0.00     0.014 C 
ENDBRANCH   4   7
ENDBRANCH   1   3
BRANCH   1   9
HETATM    9  C5  UNL     1     -10.130  44.389   0.480  1.00  0.00     0.012 C 
BRANCH   9  10
HETATM   10  C6  UNL     1      -8.937  45.098   0.903  1.00  0.00     0.015 C 
HETATM   11  C7  UNL     1      -8.233  45.628  -0.409  1.00  0.00     0.009 C 
HETATM   12  C8  UNL     1      -7.614  46.968  -0.108  1.00  0.00     0.001 C 
HETATM   13  C9  UNL     1      -7.094  46.912   1.335  1.00  0.00     0.005 C 
HETATM   14  C10 UNL     1      -6.643  45.508   1.545  1.00  0.00    -0.010 C 
HETATM   15  C11 UNL     1      -5.792  45.268   2.747  1.00  0.00     0.005 C 
HETATM   16  C15 UNL     1      -7.841  44.530   1.676  1.00  0.00    -0.003 C 
HETATM   17  C12 UNL     1      -5.269  43.852   2.681  1.00  0.00     0.000 C 
HETATM   18  C13 UNL     1      -6.262  42.813   2.331  1.00  0.00     0.000 C 
HETATM   19  C14 UNL     1      -7.248  43.224   1.238  1.00  0.00     0.005 C 
ENDBRANCH   9  10
ENDBRANCH   1   9
BRANCH   2  20
HETATM   20  O2  UNL     1     -11.842  43.475  -2.698  1.00  0.00    -0.345 OA
ATOM     21  H2  UNL     1     -11.585  42.561  -2.681  1.00  0.00     0.219 HD
ENDBRANCH   2  20
BRANCH   2  22
HETATM   22  N2  UNL     1     -13.184  44.389  -1.175  1.00  0.00    -0.355 N 
ATOM     23  H2  UNL     1     -13.819  43.663  -0.841  1.00  0.00     0.162 HD
BRANCH  22  24
HETATM   24  C17 UNL     1     -13.717  45.786  -1.334  1.00  0.00     0.186 C 
BRANCH  24  25
HETATM   25  C18 UNL     1     -15.077  45.719  -1.882  1.00  0.00     0.147 C 
BRANCH  25  26
HETATM   26  C19 UNL     1     -15.473  44.373  -2.411  1.00  0.00     0.175 C 
HETATM   27  O3  UNL     1     -15.306  44.100  -3.599  1.00  0.00    -0.648 OA
HETATM   28  O4  UNL     1     -16.028  43.455  -1.528  1.00  0.00    -0.648 OA
ENDBRANCH  25  26
ENDBRANCH  24  25
BRANCH  24  29
HETATM   29  C20 UNL     1     -13.559  46.459  -0.037  1.00  0.00     0.243 C 
HETATM   30  O5  UNL     1     -14.506  46.184   0.809  1.00  0.00    -0.271 OA
HETATM   31  N3  UNL     1     -12.588  47.321   0.420  1.00  0.00    -0.350 N 
HETATM   32  C21 UNL     1     -12.700  47.792   1.835  1.00  0.00     0.126 C 
HETATM   33  C25 UNL     1     -11.456  47.889  -0.278  1.00  0.00     0.126 C 
HETATM   34  C22 UNL     1     -11.389  47.501   2.536  1.00  0.00     0.020 C 
HETATM   35  C23 UNL     1     -10.322  48.372   1.927  1.00  0.00     0.003 C 
HETATM   36  C24 UNL     1     -10.734  48.904   0.597  1.00  0.00     0.020 C 
ENDBRANCH  24  29
ENDBRANCH  22  24
ENDBRANCH   2  22
TORSDOF 10
ENDMDL
MODEL 2
REMARK VINA RESULT: -7.550221420      2.368      5.250
REMARK  10 active torsions:
REMARK  status: ('A' for Active; 'I' for Inactive)
REMARK    1  A    between atoms: C2_2  and  C3_3 
REMARK       I    between atoms: C3_3  and  N1_5 
REMARK    2  A    between atoms: N1_5  and  C4_7 
REMARK    3  A    between atoms: C4_7  and  C5_8 
REMARK    4  A    between atoms: C5_8  and  C6_9 
REMARK    5  A    between atoms: C16_19  and  O2_20 
REMARK    6  A    between atoms: C16_19  and  N2_22 
REMARK    7  A    between atoms: N2_22  and  C17_24 
REMARK    8  A    between atoms: C17_24  and  C18_25 
REMARK    9  A    between atoms: C17_24  and  C20_29 
REMARK   10  A    between atoms: C18_25  and  C19_26 
REMARK       I    between atoms: C20_29  and  N3_31 
ROOT
HETATM    1  C4  UNL     1      -9.319  45.104   1.775  1.00  0.00     0.082 C 
HETATM    2  C16 UNL     1     -10.333  45.919   2.361  1.00  0.00     0.163 C 
ENDROOT
BRANCH   1   3
HETATM    3  N1  UNL     1      -8.025  45.844   2.004  1.00  0.00    -0.324 N 
HETATM    4  C3  UNL     1      -7.016  45.132   2.697  1.00  0.00     0.221 C 
HETATM    5  O1  UNL     1      -7.120  43.950   3.116  1.00  0.00    -0.273 OA
ATOM      6  H1  UNL     1      -7.885  46.801   1.680  1.00  0.00     0.169 HD
BRANCH   4   7
HETATM    7  C2  UNL     1      -5.714  45.810   2.974  1.00  0.00     0.098 C 
HETATM    8  C1  UNL     1      -4.657  44.756   3.175  1.00  0.00     0.014 C 
ENDBRANCH   4   7
ENDBRANCH   1   3
BRANCH   1   9
HETATM    9  C5  UNL     1      -9.206  44.406   0.525  1.00  0.00     0.012 C 
BRANCH   9  10
HETATM   10  C6  UNL     1     -10.202  43.616  -0.174  1.00  0.00     0.015 C 
HETATM   11  C7  UNL     1      -9.435  42.799  -1.289  1.00  0.00     0.009 C 
HETATM   12  C8  UNL     1     -10.092  41.451  -1.426  1.00  0.00     0.001 C 
HETATM   13  C9  UNL     1     -11.598  41.657  -1.217  1.00  0.00     0.005 C 
HETATM   14  C10 UNL     1     -11.901  43.002  -1.780  1.00  0.00    -0.010 C 
HETATM   15  C11 UNL     1     -13.344  43.307  -2.005  1.00  0.00     0.005 C 
HETATM   16  C15 UNL     1     -11.367  44.142  -0.872  1.00  0.00    -0.003 C 
HETATM   17  C12 UNL     1     -13.440  44.612  -2.761  1.00  0.00     0.000 C 
HETATM   18  C13 UNL     1     -12.581  45.709  -2.265  1.00  0.00     0.000 C 
HETATM   19  C14 UNL     1     -11.180  45.273  -1.840  1.00  0.00     0.005 C 
ENDBRANCH   9  10
ENDBRANCH   1   9
BRANCH   2  20
HETATM   20  O2  UNL     1      -9.903  46.578   3.468  1.00  0.00    -0.345 OA
ATOM     21  H2  UNL     1     -10.378  46.329   4.252  1.00  0.00     0.219 HD
ENDBRANCH   2  20
BRANCH   2  22
HETATM   22  N2  UNL     1     -11.663  46.250   2.147  1.00  0.00    -0.355 N 
ATOM     23  H2  UNL     1     -12.367  45.854   2.771  1.00  0.00     0.162 HD
BRANCH  22  24
HETATM   24  C17 UNL     1     -12.121  47.161   1.041  1.00  0.00     0.186 C 
BRANCH  24  25
HETATM   25  C18 UNL     1     -13.580  47.304   1.114  1.00  0.00     0.147 C 
BRANCH  25  26
HETATM   26  C19 UNL     1     -14.334  46.009   1.168  1.00  0.00     0.175 C 
HETATM   27  O3  UNL     1     -14.332  45.333   2.195  1.00  0.00    -0.648 OA
HETATM   28  O4  UNL     1     -15.028  45.604   0.035  1.00  0.00    -0.648 OA
ENDBRANCH  25  26
ENDBRANCH  24  25
BRANCH  24  29
HETATM   29  C20 UNL     1     -11.330  48.395   1.145  1.00  0.00     0.243 C 
HETATM   30  O5  UNL     1     -11.396  48.959   2.313  1.00  0.00    -0.271 OA
HETATM   31  N3  UNL     1     -10.544  49.043   0.219  1.00  0.00    -0.350 N 
HETATM   32  C21 UNL     1      -9.822  50.272   0.672  1.00  0.00     0.126 C 
HETATM   33  C25 UNL     1     -10.319  48.737  -1.177  1.00  0.00     0.126 C 
HETATM   34  C22 UNL     1      -8.351  50.103   0.352  1.00  0.00     0.020 C 
HETATM   35  C23 UNL     1      -8.189  50.095  -1.145  1.00  0.00     0.003 C 
HETATM   36  C24 UNL     1      -9.479  49.819  -1.840  1.00  0.00     0.020 C 
ENDBRANCH  24  29
ENDBRANCH  22  24
ENDBRANCH   2  22
TORSDOF 10
ENDMDL
MODEL 3
REMARK VINA RESULT: -7.549842665      2.649      5.323
REMARK  10 active torsions:
REMARK  status: ('A' for Active; 'I' for Inactive)
REMARK    1  A    between atoms: C2_2  and  C3_3 
REMARK       I    between atoms: C3_3  and  N1_5 
REMARK    2  A    between atoms: N1_5  and  C4_7 
REMARK    3  A    between atoms: C4_7  and  C5_8 
REMARK    4  A    between atoms: C5_8  and  C6_9 
REMARK    5  A    between atoms: C16_19  and  O2_20 
REMARK    6  A    between atoms: C16_19  and  N2_22 
REMARK    7  A    between atoms: N2_22  and  C17_24 
REMARK    8  A    between atoms: C17_24  and  C18_25 
REMARK    9  A    between atoms: C17_24  and  C20_29 
REMARK   10  A    between atoms: C18_25  and  C19_26 
REMARK       I    between atoms: C20_29  and  N3_31 
ROOT
HETATM    1  C4  UNL     1      -9.347  44.817   1.990  1.00  0.00     0.082 C 
HETATM    2  C16 UNL     1      -9.758  46.167   2.193  1.00  0.00     0.163 C 
ENDROOT
BRANCH   1   3
HETATM    3  N1  UNL     1      -8.136  44.628   2.867  1.00  0.00    -0.324 N 
HETATM    4  C3  UNL     1      -6.922  45.168   2.376  1.00  0.00     0.221 C 
HETATM    5  O1  UNL     1      -6.792  45.787   1.288  1.00  0.00    -0.273 OA
ATOM      6  H1  UNL     1      -8.187  44.140   3.762  1.00  0.00     0.169 HD
BRANCH   4   7
HETATM    7  C2  UNL     1      -5.677  45.002   3.187  1.00  0.00     0.098 C 
HETATM    8  C1  UNL     1      -5.679  43.622   3.790  1.00  0.00     0.014 C 
ENDBRANCH   4   7
ENDBRANCH   1   3
BRANCH   1   9
HETATM    9  C5  UNL     1      -9.171  43.998   0.822  1.00  0.00     0.012 C 
BRANCH   9  10
HETATM   10  C6  UNL     1     -10.178  43.372  -0.015  1.00  0.00     0.015 C 
HETATM   11  C7  UNL     1      -9.406  42.639  -1.183  1.00  0.00     0.009 C 
HETATM   12  C8  UNL     1     -10.144  41.368  -1.515  1.00  0.00     0.001 C 
HETATM   13  C9  UNL     1     -11.641  41.660  -1.355  1.00  0.00     0.005 C 
HETATM   14  C10 UNL     1     -11.820  43.080  -1.764  1.00  0.00    -0.010 C 
HETATM   15  C11 UNL     1     -13.224  43.516  -2.019  1.00  0.00     0.005 C 
HETATM   16  C15 UNL     1     -11.262  44.063  -0.699  1.00  0.00    -0.003 C 
HETATM   17  C12 UNL     1     -13.188  44.905  -2.614  1.00  0.00     0.000 C 
HETATM   18  C13 UNL     1     -12.287  45.869  -1.947  1.00  0.00     0.000 C 
HETATM   19  C14 UNL     1     -10.945  45.283  -1.512  1.00  0.00     0.005 C 
ENDBRANCH   9  10
ENDBRANCH   1   9
BRANCH   2  20
HETATM   20  O2  UNL     1      -9.540  46.597   3.463  1.00  0.00    -0.345 OA
ATOM     21  H2  UNL     1     -10.336  46.878   3.899  1.00  0.00     0.219 HD
ENDBRANCH   2  20
BRANCH   2  22
HETATM   22  N2  UNL     1     -10.335  47.205   1.476  1.00  0.00    -0.355 N 
ATOM     23  H2  UNL     1      -9.726  47.810   0.924  1.00  0.00     0.162 HD
BRANCH  22  24
HETATM   24  C17 UNL     1     -11.813  47.485   1.471  1.00  0.00     0.186 C 
BRANCH  24  25
HETATM   25  C18 UNL     1     -12.535  46.240   1.761  1.00  0.00     0.147 C 
BRANCH  25  26
HETATM   26  C19 UNL     1     -13.982  46.250   1.371  1.00  0.00     0.175 C 
HETATM   27  O3  UNL     1     -14.774  45.476   1.907  1.00  0.00    -0.648 OA
HETATM   28  O4  UNL     1     -14.396  47.148   0.396  1.00  0.00    -0.648 OA
ENDBRANCH  25  26
ENDBRANCH  24  25
BRANCH  24  29
HETATM   29  C20 UNL     1     -12.042  48.611   2.387  1.00  0.00     0.243 C 
HETATM   30  O5  UNL     1     -11.989  48.280   3.642  1.00  0.00    -0.271 OA
HETATM   31  N3  UNL     1     -12.302  49.940   2.135  1.00  0.00    -0.350 N 
HETATM   32  C21 UNL     1     -12.436  50.847   3.317  1.00  0.00     0.126 C 
HETATM   33  C25 UNL     1     -12.505  50.618   0.874  1.00  0.00     0.126 C 
HETATM   34  C22 UNL     1     -11.483  52.010   3.131  1.00  0.00     0.020 C 
HETATM   35  C23 UNL     1     -11.958  52.831   1.962  1.00  0.00     0.003 C 
HETATM   36  C24 UNL     1     -12.905  52.070   1.098  1.00  0.00     0.020 C 
ENDBRANCH  24  29
ENDBRANCH  22  24
ENDBRANCH   2  22
TORSDOF 10
ENDMDL
MODEL 4
REMARK VINA RESULT: -7.355564925      3.391      6.310
REMARK  10 active torsions:
REMARK  status: ('A' for Active; 'I' for Inactive)
REMARK    1  A    between atoms: C2_2  and  C3_3 
REMARK       I    between atoms: C3_3  and  N1_5 
REMARK    2  A    between atoms: N1_5  and  C4_7 
REMARK    3  A    between atoms: C4_7  and  C5_8 
REMARK    4  A    between atoms: C5_8  and  C6_9 
REMARK    5  A    between atoms: C16_19  and  O2_20 
REMARK    6  A    between atoms: C16_19  and  N2_22 
REMARK    7  A    between atoms: N2_22  and  C17_24 
REMARK    8  A    between atoms: C17_24  and  C18_25 
REMARK    9  A    between atoms: C17_24  and  C20_29 
REMARK   10  A    between atoms: C18_25  and  C19_26 
REMARK       I    between atoms: C20_29  and  N3_31 
ROOT
HETATM    1  C4  UNL     1     -13.547  45.456  -2.108  1.00  0.00     0.082 C 
HETATM    2  C16 UNL     1     -14.823  45.689  -2.700  1.00  0.00     0.163 C 
ENDROOT
BRANCH   1   3
HETATM    3  N1  UNL     1     -13.310  46.627  -1.187  1.00  0.00    -0.324 N 
HETATM    4  C3  UNL     1     -13.624  46.417   0.178  1.00  0.00     0.221 C 
HETATM    5  O1  UNL     1     -14.068  45.344   0.664  1.00  0.00    -0.273 OA
ATOM      6  H1  UNL     1     -12.946  47.517  -1.527  1.00  0.00     0.169 HD
BRANCH   4   7
HETATM    7  C2  UNL     1     -13.430  47.541   1.144  1.00  0.00     0.098 C 
HETATM    8  C1  UNL     1     -12.121  47.335   1.861  1.00  0.00     0.014 C 
ENDBRANCH   4   7
ENDBRANCH   1   3
BRANCH   1   9
HETATM    9  C5  UNL     1     -12.272  45.045  -2.627  1.00  0.00     0.012 C 
BRANCH   9  10
HETATM   10  C6  UNL     1     -11.385  44.000  -2.150  1.00  0.00     0.015 C 
HETATM   11  C7  UNL     1     -12.246  43.067  -1.208  1.00  0.00     0.009 C 
HETATM   12  C8  UNL     1     -11.774  41.648  -1.387  1.00  0.00     0.001 C 
HETATM   13  C9  UNL     1     -10.256  41.699  -1.601  1.00  0.00     0.005 C 
HETATM   14  C10 UNL     1      -9.773  42.839  -0.774  1.00  0.00    -0.010 C 
HETATM   15  C11 UNL     1      -8.300  42.900  -0.541  1.00  0.00     0.005 C 
HETATM   16  C15 UNL     1     -10.156  44.209  -1.397  1.00  0.00    -0.003 C 
HETATM   17  C12 UNL     1      -8.025  43.986   0.473  1.00  0.00     0.000 C 
HETATM   18  C13 UNL     1      -8.734  45.267   0.254  1.00  0.00     0.000 C 
HETATM   19  C14 UNL     1     -10.184  45.117  -0.203  1.00  0.00     0.005 C 
ENDBRANCH   9  10
ENDBRANCH   1   9
BRANCH   2  20
HETATM   20  O2  UNL     1     -15.689  46.310  -1.857  1.00  0.00    -0.345 OA
ATOM     21  H2  UNL     1     -16.528  46.495  -2.263  1.00  0.00     0.219 HD
ENDBRANCH   2  20
BRANCH   2  22
HETATM   22  N2  UNL     1     -15.475  45.465  -3.905  1.00  0.00    -0.355 N 
ATOM     23  H2  UNL     1     -15.360  44.557  -4.355  1.00  0.00     0.162 HD
BRANCH  22  24
HETATM   24  C17 UNL     1     -16.341  46.493  -4.580  1.00  0.00     0.186 C 
BRANCH  24  25
HETATM   25  C18 UNL     1     -15.920  46.627  -5.979  1.00  0.00     0.147 C 
BRANCH  25  26
HETATM   26  C19 UNL     1     -16.017  48.016  -6.533  1.00  0.00     0.175 C 
HETATM   27  O3  UNL     1     -15.842  48.219  -7.734  1.00  0.00    -0.648 OA
HETATM   28  O4  UNL     1     -16.309  49.055  -5.659  1.00  0.00    -0.648 OA
ENDBRANCH  25  26
ENDBRANCH  24  25
BRANCH  24  29
HETATM   29  C20 UNL     1     -17.738  46.102  -4.344  1.00  0.00     0.243 C 
HETATM   30  O5  UNL     1     -18.029  44.918  -4.793  1.00  0.00    -0.271 OA
HETATM   31  N3  UNL     1     -18.773  46.776  -3.736  1.00  0.00    -0.350 N 
HETATM   32  C21 UNL     1     -20.080  46.059  -3.613  1.00  0.00     0.126 C 
HETATM   33  C25 UNL     1     -18.814  48.121  -3.206  1.00  0.00     0.126 C 
HETATM   34  C22 UNL     1     -20.503  46.091  -2.159  1.00  0.00     0.020 C 
HETATM   35  C23 UNL     1     -20.813  47.516  -1.786  1.00  0.00     0.003 C 
HETATM   36  C24 UNL     1     -20.221  48.483  -2.754  1.00  0.00     0.020 C 
ENDBRANCH  24  29
ENDBRANCH  22  24
ENDBRANCH   2  22
TORSDOF 10
ENDMDL
MODEL 5
REMARK VINA RESULT: -7.285839025      2.782      6.013
REMARK  10 active torsions:
REMARK  status: ('A' for Active; 'I' for Inactive)
REMARK    1  A    between atoms: C2_2  and  C3_3 
REMARK       I    between atoms: C3_3  and  N1_5 
REMARK    2  A    between atoms: N1_5  and  C4_7 
REMARK    3  A    between atoms: C4_7  and  C5_8 
REMARK    4  A    between atoms: C5_8  and  C6_9 
REMARK    5  A    between atoms: C16_19  and  O2_20 
REMARK    6  A    between atoms: C16_19  and  N2_22 
REMARK    7  A    between atoms: N2_22  and  C17_24 
REMARK    8  A    between atoms: C17_24  and  C18_25 
REMARK    9  A    between atoms: C17_24  and  C20_29 
REMARK   10  A    between atoms: C18_25  and  C19_26 
REMARK       I    between atoms: C20_29  and  N3_31 
ROOT
HETATM    1  C4  UNL     1      -8.575  45.135   1.708  1.00  0.00     0.082 C 
HETATM    2  C16 UNL     1      -8.817  46.205   2.619  1.00  0.00     0.163 C 
ENDROOT
BRANCH   1   3
HETATM    3  N1  UNL     1      -7.119  44.780   1.881  1.00  0.00    -0.324 N 
HETATM    4  C3  UNL     1      -6.840  43.420   2.159  1.00  0.00     0.221 C 
HETATM    5  O1  UNL     1      -7.702  42.509   2.261  1.00  0.00    -0.273 OA
ATOM      6  H1  UNL     1      -6.380  45.478   1.801  1.00  0.00     0.169 HD
BRANCH   4   7
HETATM    7  C2  UNL     1      -5.419  43.001   2.359  1.00  0.00     0.098 C 
HETATM    8  C1  UNL     1      -4.649  44.170   2.916  1.00  0.00     0.014 C 
ENDBRANCH   4   7
ENDBRANCH   1   3
BRANCH   1   9
HETATM    9  C5  UNL     1      -8.919  44.905   0.333  1.00  0.00     0.012 C 
BRANCH   9  10
HETATM   10  C6  UNL     1      -9.860  43.953  -0.227  1.00  0.00     0.015 C 
HETATM   11  C7  UNL     1      -9.099  43.187  -1.382  1.00  0.00     0.009 C 
HETATM   12  C8  UNL     1      -9.574  41.757  -1.395  1.00  0.00     0.001 C 
HETATM   13  C9  UNL     1     -11.067  41.773  -1.041  1.00  0.00     0.005 C 
HETATM   14  C10 UNL     1     -11.605  43.033  -1.624  1.00  0.00    -0.010 C 
HETATM   15  C11 UNL     1     -13.091  43.131  -1.712  1.00  0.00     0.005 C 
HETATM   16  C15 UNL     1     -11.148  44.282  -0.823  1.00  0.00    -0.003 C 
HETATM   17  C12 UNL     1     -13.438  44.369  -2.506  1.00  0.00     0.000 C 
HETATM   18  C13 UNL     1     -12.694  45.596  -2.146  1.00  0.00     0.000 C 
HETATM   19  C14 UNL     1     -11.212  45.373  -1.850  1.00  0.00     0.005 C 
ENDBRANCH   9  10
ENDBRANCH   1   9
BRANCH   2  20
HETATM   20  O2  UNL     1      -8.086  46.101   3.760  1.00  0.00    -0.345 OA
ATOM     21  H2  UNL     1      -7.176  46.344   3.637  1.00  0.00     0.219 HD
ENDBRANCH   2  20
BRANCH   2  22
HETATM   22  N2  UNL     1      -9.596  47.349   2.706  1.00  0.00    -0.355 N 
ATOM     23  H2  UNL     1      -9.207  48.228   2.362  1.00  0.00     0.162 HD
BRANCH  22  24
HETATM   24  C17 UNL     1     -10.986  47.361   3.282  1.00  0.00     0.186 C 
BRANCH  24  25
HETATM   25  C18 UNL     1     -11.073  48.419   4.296  1.00  0.00     0.147 C 
BRANCH  25  26
HETATM   26  C19 UNL     1     -10.597  48.019   5.661  1.00  0.00     0.175 C 
HETATM   27  O3  UNL     1     -11.389  47.964   6.601  1.00  0.00    -0.648 OA
HETATM   28  O4  UNL     1      -9.252  47.717   5.827  1.00  0.00    -0.648 OA
ENDBRANCH  25  26
ENDBRANCH  24  25
BRANCH  24  29
HETATM   29  C20 UNL     1     -11.920  47.451   2.151  1.00  0.00     0.243 C 
HETATM   30  O5  UNL     1     -12.701  46.419   2.038  1.00  0.00    -0.271 OA
HETATM   31  N3  UNL     1     -12.100  48.435   1.205  1.00  0.00    -0.350 N 
HETATM   32  C21 UNL     1     -13.193  48.232   0.204  1.00  0.00     0.126 C 
HETATM   33  C25 UNL     1     -11.358  49.658   0.994  1.00  0.00     0.126 C 
HETATM   34  C22 UNL     1     -14.086  49.456   0.224  1.00  0.00     0.020 C 
HETATM   35  C23 UNL     1     -13.300  50.627  -0.300  1.00  0.00     0.003 C 
HETATM   36  C24 UNL     1     -11.832  50.368  -0.267  1.00  0.00     0.020 C 
ENDBRANCH  24  29
ENDBRANCH  22  24
ENDBRANCH   2  22
TORSDOF 10
ENDMDL
