MODEL 1
REMARK VINA RESULT: -8.846136154      0.000      0.000
REMARK  8 active torsions:
REMARK  status: ('A' for Active; 'I' for Inactive)
REMARK    1  A    between atoms: C2_2  and  C3_3 
REMARK    2  A    between atoms: C3_3  and  C4_4 
REMARK    3  A    between atoms: C7_11  and  C8_12 
REMARK    4  A    between atoms: C8_12  and  N3_13 
REMARK    5  A    between atoms: C11_16  and  N4_17 
REMARK    6  A    between atoms: N4_17  and  S1_19 
REMARK    7  A    between atoms: S1_19  and  N5_22 
REMARK    8  A    between atoms: N5_22  and  C12_24 
ROOT
HETATM    1  N3  UNL     1      -8.884  45.218   0.319  1.00  0.00    -0.367 N 
HETATM    2  C9  UNL     1      -9.453  44.499   1.479  1.00  0.00     0.130 C 
HETATM    3  C10 UNL     1     -10.932  44.619   1.440  1.00  0.00     0.051 C 
HETATM    4  C11 UNL     1     -11.186  45.526   0.210  1.00  0.00     0.134 C 
HETATM    5  C22 UNL     1      -9.842  46.080  -0.130  1.00  0.00     0.089 C 
ENDROOT
BRANCH   4   6
HETATM    6  N4  UNL     1     -12.153  46.545   0.378  1.00  0.00    -0.293 N 
ATOM      7  H4  UNL     1     -11.843  47.439   0.761  1.00  0.00     0.174 HD
BRANCH   6   8
HETATM    8  S1  UNL     1     -13.761  46.378  -0.008  1.00  0.00     0.316 S 
HETATM    9  O1  UNL     1     -14.602  45.399   0.650  1.00  0.00    -0.183 OA
HETATM   10  O2  UNL     1     -14.490  47.747   0.246  1.00  0.00    -0.183 OA
BRANCH   8  11
HETATM   11  N5  UNL     1     -13.775  46.321  -1.746  1.00  0.00    -0.293 N 
ATOM     12  H5  UNL     1     -12.967  46.582  -2.310  1.00  0.00     0.174 HD
BRANCH  11  13
HETATM   13  C12 UNL     1     -14.991  45.887  -2.316  1.00  0.00     0.043 C 
HETATM   14  C13 UNL     1     -14.572  45.311  -3.688  1.00  0.00     0.036 C 
HETATM   15  C14 UNL     1     -15.734  44.821  -4.474  1.00  0.00    -0.012 C 
HETATM   16  C15 UNL     1     -16.417  43.724  -3.684  1.00  0.00     0.009 C 
HETATM   17  C19 UNL     1     -16.656  45.970  -4.776  1.00  0.00     0.009 C 
HETATM   18  C16 UNL     1     -16.887  44.323  -2.397  1.00  0.00    -0.012 C 
HETATM   19  C17 UNL     1     -17.809  45.460  -2.691  1.00  0.00     0.009 C 
HETATM   20  C21 UNL     1     -15.657  44.755  -1.611  1.00  0.00     0.036 C 
HETATM   21  C18 UNL     1     -17.079  46.563  -3.449  1.00  0.00    -0.012 C 
HETATM   22  C20 UNL     1     -15.922  47.042  -2.645  1.00  0.00     0.036 C 
ENDBRANCH  11  13
ENDBRANCH   8  11
ENDBRANCH   6   8
ENDBRANCH   4   6
BRANCH   1  23
HETATM   23  C8  UNL     1      -8.006  44.382  -0.349  1.00  0.00     0.105 C 
BRANCH  23  24
HETATM   24  C7  UNL     1      -8.040  42.940  -0.086  1.00  0.00     0.027 A 
HETATM   25  C4  UNL     1      -9.019  42.087  -0.656  1.00  0.00     0.039 A 
HETATM   26  N1  UNL     1      -8.832  40.911  -0.081  1.00  0.00    -0.304 N 
HETATM   27  N2  UNL     1      -7.850  40.932   0.789  1.00  0.00    -0.304 N 
ATOM     28  H1  UNL     1      -9.389  40.082  -0.290  1.00  0.00     0.186 HD
HETATM   29  C5  UNL     1      -7.328  42.202   0.820  1.00  0.00     0.035 A 
ATOM     30  H2  UNL     1      -7.530  40.141   1.348  1.00  0.00     0.186 HD
HETATM   31  C6  UNL     1      -6.387  42.561   1.914  1.00  0.00     0.070 C 
BRANCH  25  32
HETATM   32  C3  UNL     1     -10.009  42.521  -1.664  1.00  0.00     0.059 C 
BRANCH  32  33
HETATM   33  C2  UNL     1     -11.372  41.935  -1.527  1.00  0.00     0.002 C 
HETATM   34  C1  UNL     1     -12.449  42.938  -1.905  1.00  0.00     0.005 C 
ENDBRANCH  32  33
ENDBRANCH  25  32
ENDBRANCH  23  24
ENDBRANCH   1  23
TORSDOF 8
ENDMDL
MODEL 2
REMARK VINA RESULT: -8.607090756      0.859      2.556
REMARK  8 active torsions:
REMARK  status: ('A' for Active; 'I' for Inactive)
REMARK    1  A    between atoms: C2_2  and  C3_3 
REMARK    2  A    between atoms: C3_3  and  C4_4 
REMARK    3  A    between atoms: C7_11  and  C8_12 
REMARK    4  A    between atoms: C8_12  and  N3_13 
REMARK    5  A    between atoms: C11_16  and  N4_17 
REMARK    6  A    between atoms: N4_17  and  S1_19 
REMARK    7  A    between atoms: S1_19  and  N5_22 
REMARK    8  A    between atoms: N5_22  and  C12_24 
ROOT
HETATM    1  N3  UNL     1      -9.135  45.287   0.168  1.00  0.00    -0.367 N 
HETATM    2  C9  UNL     1      -9.061  45.167   1.639  1.00  0.00     0.130 C 
HETATM    3  C10 UNL     1     -10.438  45.159   2.192  1.00  0.00     0.051 C 
HETATM    4  C11 UNL     1     -11.328  45.358   0.939  1.00  0.00     0.134 C 
HETATM    5  C22 UNL     1     -10.375  45.770  -0.134  1.00  0.00     0.089 C 
ENDROOT
BRANCH   4   6
HETATM    6  N4  UNL     1     -12.399  46.271   1.076  1.00  0.00    -0.293 N 
ATOM      7  H4  UNL     1     -12.194  47.196   1.456  1.00  0.00     0.174 HD
BRANCH   6   8
HETATM    8  S1  UNL     1     -13.973  45.933   0.657  1.00  0.00     0.316 S 
HETATM    9  O1  UNL     1     -14.938  45.480   1.637  1.00  0.00    -0.183 OA
HETATM   10  O2  UNL     1     -14.624  47.224   0.040  1.00  0.00    -0.183 OA
BRANCH   8  11
HETATM   11  N5  UNL     1     -13.828  44.935  -0.760  1.00  0.00    -0.293 N 
ATOM     12  H5  UNL     1     -13.047  44.295  -0.903  1.00  0.00     0.174 HD
BRANCH  11  13
HETATM   13  C12 UNL     1     -14.874  45.079  -1.696  1.00  0.00     0.043 C 
HETATM   14  C13 UNL     1     -14.346  44.356  -2.956  1.00  0.00     0.036 C 
HETATM   15  C14 UNL     1     -15.304  44.421  -4.090  1.00  0.00    -0.012 C 
HETATM   16  C15 UNL     1     -16.596  43.756  -3.663  1.00  0.00     0.009 C 
HETATM   17  C19 UNL     1     -15.504  45.856  -4.494  1.00  0.00     0.009 C 
HETATM   18  C16 UNL     1     -17.132  44.522  -2.495  1.00  0.00    -0.012 C 
HETATM   19  C17 UNL     1     -17.339  45.945  -2.894  1.00  0.00     0.009 C 
HETATM   20  C21 UNL     1     -16.141  44.373  -1.350  1.00  0.00     0.036 C 
HETATM   21  C18 UNL     1     -16.014  46.596  -3.276  1.00  0.00    -0.012 C 
HETATM   22  C20 UNL     1     -15.070  46.523  -2.129  1.00  0.00     0.036 C 
ENDBRANCH  11  13
ENDBRANCH   8  11
ENDBRANCH   6   8
ENDBRANCH   4   6
BRANCH   1  23
HETATM   23  C8  UNL     1      -8.364  44.292  -0.410  1.00  0.00     0.105 C 
BRANCH  23  24
HETATM   24  C7  UNL     1      -8.734  42.886  -0.213  1.00  0.00     0.027 A 
HETATM   25  C4  UNL     1      -7.895  41.970   0.470  1.00  0.00     0.039 A 
HETATM   26  N1  UNL     1      -8.474  40.790   0.317  1.00  0.00    -0.304 N 
HETATM   27  N2  UNL     1      -9.578  40.864  -0.390  1.00  0.00    -0.304 N 
ATOM     28  H1  UNL     1      -8.105  39.922   0.704  1.00  0.00     0.186 HD
HETATM   29  C5  UNL     1      -9.772  42.175  -0.750  1.00  0.00     0.035 A 
ATOM     30  H2  UNL     1     -10.186  40.082  -0.630  1.00  0.00     0.186 HD
HETATM   31  C6  UNL     1     -10.800  42.488  -1.778  1.00  0.00     0.070 C 
BRANCH  25  32
HETATM   32  C3  UNL     1      -6.647  42.348   1.165  1.00  0.00     0.059 C 
BRANCH  32  33
HETATM   33  C2  UNL     1      -6.776  42.626   2.622  1.00  0.00     0.002 C 
HETATM   34  C1  UNL     1      -5.634  43.494   3.126  1.00  0.00     0.005 C 
ENDBRANCH  32  33
ENDBRANCH  25  32
ENDBRANCH  23  24
ENDBRANCH   1  23
TORSDOF 8
ENDMDL
MODEL 3
REMARK VINA RESULT: -8.507508659      0.986      2.871
REMARK  8 active torsions:
REMARK  status: ('A' for Active; 'I' for Inactive)
REMARK    1  A    between atoms: C2_2  and  C3_3 
REMARK    2  A    between atoms: C3_3  and  C4_4 
REMARK    3  A    between atoms: C7_11  and  C8_12 
REMARK    4  A    between atoms: C8_12  and  N3_13 
REMARK    5  A    between atoms: C11_16  and  N4_17 
REMARK    6  A    between atoms: N4_17  and  S1_19 
REMARK    7  A    between atoms: S1_19  and  N5_22 
REMARK    8  A    between atoms: N5_22  and  C12_24 
ROOT
HETATM    1  N3  UNL     1      -9.115  45.125  -0.001  1.00  0.00    -0.367 N 
HETATM    2  C9  UNL     1      -9.543  44.992   1.407  1.00  0.00     0.130 C 
HETATM    3  C10 UNL     1     -11.022  44.873   1.452  1.00  0.00     0.051 C 
HETATM    4  C11 UNL     1     -11.438  45.020  -0.034  1.00  0.00     0.134 C 
HETATM    5  C22 UNL     1     -10.208  45.517  -0.719  1.00  0.00     0.089 C 
ENDROOT
BRANCH   4   6
HETATM    6  N4  UNL     1     -12.557  45.847  -0.286  1.00  0.00    -0.293 N 
ATOM      7  H4  UNL     1     -12.425  46.858  -0.240  1.00  0.00     0.174 HD
BRANCH   6   8
HETATM    8  S1  UNL     1     -14.075  45.276  -0.654  1.00  0.00     0.316 S 
HETATM    9  O1  UNL     1     -14.283  43.921  -1.121  1.00  0.00    -0.183 OA
HETATM   10  O2  UNL     1     -14.984  45.389   0.624  1.00  0.00    -0.183 OA
BRANCH   8  11
HETATM   11  N5  UNL     1     -14.765  46.521  -1.653  1.00  0.00    -0.293 N 
ATOM     12  H5  UNL     1     -14.639  47.514  -1.457  1.00  0.00     0.174 HD
BRANCH  11  13
HETATM   13  C12 UNL     1     -15.511  46.052  -2.754  1.00  0.00     0.043 C 
HETATM   14  C13 UNL     1     -16.055  47.341  -3.410  1.00  0.00     0.036 C 
HETATM   15  C14 UNL     1     -16.910  47.059  -4.592  1.00  0.00    -0.012 C 
HETATM   16  C15 UNL     1     -16.078  46.316  -5.616  1.00  0.00     0.009 C 
HETATM   17  C19 UNL     1     -18.120  46.278  -4.160  1.00  0.00     0.009 C 
HETATM   18  C16 UNL     1     -15.632  45.033  -4.990  1.00  0.00    -0.012 C 
HETATM   19  C17 UNL     1     -16.831  44.251  -4.565  1.00  0.00     0.009 C 
HETATM   20  C21 UNL     1     -14.718  45.382  -3.824  1.00  0.00     0.036 C 
HETATM   21  C18 UNL     1     -17.621  45.009  -3.504  1.00  0.00    -0.012 C 
HETATM   22  C20 UNL     1     -16.750  45.280  -2.329  1.00  0.00     0.036 C 
ENDBRANCH  11  13
ENDBRANCH   8  11
ENDBRANCH   6   8
ENDBRANCH   4   6
BRANCH   1  23
HETATM   23  C8  UNL     1      -8.120  44.200  -0.265  1.00  0.00     0.105 C 
BRANCH  23  24
HETATM   24  C7  UNL     1      -8.352  42.783   0.037  1.00  0.00     0.027 A 
HETATM   25  C4  UNL     1      -7.492  42.035   0.880  1.00  0.00     0.039 A 
HETATM   26  N1  UNL     1      -7.921  40.787   0.794  1.00  0.00    -0.304 N 
HETATM   27  N2  UNL     1      -8.951  40.669  -0.012  1.00  0.00    -0.304 N 
ATOM     28  H1  UNL     1      -7.501  40.006   1.297  1.00  0.00     0.186 HD
HETATM   29  C5  UNL     1      -9.249  41.911  -0.516  1.00  0.00     0.035 A 
ATOM     30  H2  UNL     1      -9.445  39.802  -0.227  1.00  0.00     0.186 HD
HETATM   31  C6  UNL     1     -10.198  42.009  -1.658  1.00  0.00     0.070 C 
BRANCH  25  32
HETATM   32  C3  UNL     1      -6.367  42.617   1.641  1.00  0.00     0.059 C 
BRANCH  32  33
HETATM   33  C2  UNL     1      -6.691  43.089   3.016  1.00  0.00     0.002 C 
HETATM   34  C1  UNL     1      -6.282  44.539   3.217  1.00  0.00     0.005 C 
ENDBRANCH  32  33
ENDBRANCH  25  32
ENDBRANCH  23  24
ENDBRANCH   1  23
TORSDOF 8
ENDMDL
MODEL 4
REMARK VINA RESULT: -8.385603655      0.987      1.741
REMARK  8 active torsions:
REMARK  status: ('A' for Active; 'I' for Inactive)
REMARK    1  A    between atoms: C2_2  and  C3_3 
REMARK    2  A    between atoms: C3_3  and  C4_4 
REMARK    3  A    between atoms: C7_11  and  C8_12 
REMARK    4  A    between atoms: C8_12  and  N3_13 
REMARK    5  A    between atoms: C11_16  and  N4_17 
REMARK    6  A    between atoms: N4_17  and  S1_19 
REMARK    7  A    between atoms: S1_19  and  N5_22 
REMARK    8  A    between atoms: N5_22  and  C12_24 
ROOT
HETATM    1  N3  UNL     1      -9.012  45.807   0.444  1.00  0.00    -0.367 N 
HETATM    2  C9  UNL     1      -9.621  45.064   1.567  1.00  0.00     0.130 C 
HETATM    3  C10 UNL     1     -11.031  44.749   1.225  1.00  0.00     0.051 C 
HETATM    4  C11 UNL     1     -11.226  45.428  -0.154  1.00  0.00     0.134 C 
HETATM    5  C22 UNL     1     -10.033  46.312  -0.307  1.00  0.00     0.089 C 
ENDROOT
BRANCH   4   6
HETATM    6  N4  UNL     1     -12.438  46.136  -0.332  1.00  0.00    -0.293 N 
ATOM      7  H4  UNL     1     -12.402  47.155  -0.315  1.00  0.00     0.174 HD
BRANCH   6   8
HETATM    8  S1  UNL     1     -13.916  45.411  -0.568  1.00  0.00     0.316 S 
HETATM    9  O1  UNL     1     -14.025  44.024  -0.972  1.00  0.00    -0.183 OA
HETATM   10  O2  UNL     1     -14.740  45.491   0.768  1.00  0.00    -0.183 OA
BRANCH   8  11
HETATM   11  N5  UNL     1     -14.790  46.544  -1.556  1.00  0.00    -0.293 N 
ATOM     12  H5  UNL     1     -14.792  47.547  -1.369  1.00  0.00     0.174 HD
BRANCH  11  13
HETATM   13  C12 UNL     1     -15.494  45.970  -2.635  1.00  0.00     0.043 C 
HETATM   14  C13 UNL     1     -16.193  47.176  -3.305  1.00  0.00     0.036 C 
HETATM   15  C14 UNL     1     -17.028  46.773  -4.466  1.00  0.00    -0.012 C 
HETATM   16  C15 UNL     1     -16.133  46.110  -5.491  1.00  0.00     0.009 C 
HETATM   17  C19 UNL     1     -18.134  45.867  -3.997  1.00  0.00     0.009 C 
HETATM   18  C16 UNL     1     -15.532  44.899  -4.849  1.00  0.00    -0.012 C 
HETATM   19  C17 UNL     1     -16.626  43.994  -4.389  1.00  0.00     0.009 C 
HETATM   20  C21 UNL     1     -14.646  45.374  -3.706  1.00  0.00     0.036 C 
HETATM   21  C18 UNL     1     -17.481  44.677  -3.327  1.00  0.00    -0.012 C 
HETATM   22  C20 UNL     1     -16.629  45.070  -2.173  1.00  0.00     0.036 C 
ENDBRANCH  11  13
ENDBRANCH   8  11
ENDBRANCH   6   8
ENDBRANCH   4   6
BRANCH   1  23
HETATM   23  C8  UNL     1      -7.817  45.202   0.093  1.00  0.00     0.105 C 
BRANCH  23  24
HETATM   24  C7  UNL     1      -7.514  43.858   0.595  1.00  0.00     0.027 A 
HETATM   25  C4  UNL     1      -8.052  42.688   0.003  1.00  0.00     0.039 A 
HETATM   26  N1  UNL     1      -7.691  41.697   0.802  1.00  0.00    -0.304 N 
HETATM   27  N2  UNL     1      -6.991  42.117   1.831  1.00  0.00    -0.304 N 
ATOM     28  H1  UNL     1      -7.929  40.719   0.639  1.00  0.00     0.186 HD
HETATM   29  C5  UNL     1      -6.864  43.481   1.738  1.00  0.00     0.035 A 
ATOM     30  H2  UNL     1      -6.608  41.530   2.572  1.00  0.00     0.186 HD
HETATM   31  C6  UNL     1      -6.349  44.231   2.915  1.00  0.00     0.070 C 
BRANCH  25  32
HETATM   32  C3  UNL     1      -8.852  42.680  -1.239  1.00  0.00     0.059 C 
BRANCH  32  33
HETATM   33  C2  UNL     1      -9.745  41.503  -1.427  1.00  0.00     0.002 C 
HETATM   34  C1  UNL     1     -11.198  41.924  -1.569  1.00  0.00     0.005 C 
ENDBRANCH  32  33
ENDBRANCH  25  32
ENDBRANCH  23  24
ENDBRANCH   1  23
TORSDOF 8
ENDMDL
MODEL 5
REMARK VINA RESULT: -8.308269113      1.404      2.987
REMARK  8 active torsions:
REMARK  status: ('A' for Active; 'I' for Inactive)
REMARK    1  A    between atoms: C2_2  and  C3_3 
REMARK    2  A    between atoms: C3_3  and  C4_4 
REMARK    3  A    between atoms: C7_11  and  C8_12 
REMARK    4  A    between atoms: C8_12  and  N3_13 
REMARK    5  A    between atoms: C11_16  and  N4_17 
REMARK    6  A    between atoms: N4_17  and  S1_19 
REMARK    7  A    between atoms: S1_19  and  N5_22 
REMARK    8  A    between atoms: N5_22  and  C12_24 
ROOT
HETATM    1  N3  UNL     1      -9.959  43.308  -0.641  1.00  0.00    -0.367 N 
HETATM    2  C9  UNL     1     -10.501  42.613  -1.828  1.00  0.00     0.130 C 
HETATM    3  C10 UNL     1     -11.793  43.240  -2.203  1.00  0.00     0.051 C 
HETATM    4  C11 UNL     1     -12.007  44.309  -1.101  1.00  0.00     0.134 C 
HETATM    5  C22 UNL     1     -10.997  43.973  -0.054  1.00  0.00     0.089 C 
ENDROOT
BRANCH   4   6
HETATM    6  N4  UNL     1     -13.314  44.399  -0.568  1.00  0.00    -0.293 N 
ATOM      7  H4  UNL     1     -13.884  43.554  -0.555  1.00  0.00     0.174 HD
BRANCH   6   8
HETATM    8  S1  UNL     1     -13.978  45.797   0.041  1.00  0.00     0.316 S 
HETATM    9  O1  UNL     1     -14.973  45.769   1.093  1.00  0.00    -0.183 OA
HETATM   10  O2  UNL     1     -12.826  46.696   0.620  1.00  0.00    -0.183 OA
BRANCH   8  11
HETATM   11  N5  UNL     1     -14.417  46.707  -1.375  1.00  0.00    -0.293 N 
ATOM     12  H5  UNL     1     -14.118  47.671  -1.522  1.00  0.00     0.174 HD
BRANCH  11  13
HETATM   13  C12 UNL     1     -15.220  46.011  -2.302  1.00  0.00     0.043 C 
HETATM   14  C13 UNL     1     -16.165  47.097  -2.865  1.00  0.00     0.036 C 
HETATM   15  C14 UNL     1     -17.130  46.551  -3.854  1.00  0.00    -0.012 C 
HETATM   16  C15 UNL     1     -16.348  45.955  -5.005  1.00  0.00     0.009 C 
HETATM   17  C19 UNL     1     -18.020  45.542  -3.181  1.00  0.00     0.009 C 
HETATM   18  C16 UNL     1     -15.504  44.851  -4.453  1.00  0.00    -0.012 C 
HETATM   19  C17 UNL     1     -16.384  43.843  -3.790  1.00  0.00     0.009 C 
HETATM   20  C21 UNL     1     -14.500  45.474  -3.492  1.00  0.00     0.036 C 
HETATM   21  C18 UNL     1     -17.122  44.466  -2.610  1.00  0.00    -0.012 C 
HETATM   22  C20 UNL     1     -16.140  45.004  -1.631  1.00  0.00     0.036 C 
ENDBRANCH  11  13
ENDBRANCH   8  11
ENDBRANCH   6   8
ENDBRANCH   4   6
BRANCH   1  23
HETATM   23  C8  UNL     1      -8.647  43.674  -0.887  1.00  0.00     0.105 C 
BRANCH  23  24
HETATM   24  C7  UNL     1      -7.847  44.262   0.192  1.00  0.00     0.027 A 
HETATM   25  C4  UNL     1      -7.104  43.471   1.105  1.00  0.00     0.039 A 
HETATM   26  N1  UNL     1      -6.649  44.322   2.010  1.00  0.00    -0.304 N 
HETATM   27  N2  UNL     1      -7.027  45.556   1.769  1.00  0.00    -0.304 N 
ATOM     28  H1  UNL     1      -6.069  44.050   2.804  1.00  0.00     0.186 HD
HETATM   29  C5  UNL     1      -7.794  45.557   0.630  1.00  0.00     0.035 A 
ATOM     30  H2  UNL     1      -6.792  46.373   2.333  1.00  0.00     0.186 HD
HETATM   31  C6  UNL     1      -8.568  46.782   0.293  1.00  0.00     0.070 C 
BRANCH  25  32
HETATM   32  C3  UNL     1      -6.945  42.007   0.993  1.00  0.00     0.059 C 
BRANCH  32  33
HETATM   33  C2  UNL     1      -8.149  41.197   1.328  1.00  0.00     0.002 C 
HETATM   34  C1  UNL     1      -8.400  40.116   0.290  1.00  0.00     0.005 C 
ENDBRANCH  32  33
ENDBRANCH  25  32
ENDBRANCH  23  24
ENDBRANCH   1  23
TORSDOF 8
ENDMDL
