MODEL 1
REMARK VINA RESULT: -7.203809586      0.000      0.000
REMARK  8 active torsions:
REMARK  status: ('A' for Active; 'I' for Inactive)
REMARK    1  A    between atoms: C2_2  and  C3_3 
REMARK    2  A    between atoms: C3_3  and  C5_5 
REMARK    3  A    between atoms: C5_5  and  C18_24 
REMARK    4  A    between atoms: N1_6  and  S1_8 
REMARK    5  A    between atoms: S1_8  and  C6_11 
REMARK    6  A    between atoms: C8_13  and  O3_14 
REMARK    7  A    between atoms: C10_16  and  C11_17 
REMARK       I    between atoms: C18_24  and  N2_26 
REMARK    8  A    between atoms: N2_26  and  C19_27 
ROOT
HETATM    1  C5  UNL     1     -16.144  45.609  -3.720  1.00  0.00     0.106 C 
HETATM    2  N1  UNL     1     -15.167  45.891  -2.826  1.00  0.00    -0.277 N 
ATOM      3  H1  UNL     1     -14.399  46.289  -3.366  1.00  0.00     0.179 HD
ENDROOT
BRANCH   2   4
HETATM    4  S1  UNL     1     -14.677  45.883  -1.316  1.00  0.00     0.263 S 
HETATM    5  O1  UNL     1     -14.582  47.377  -0.723  1.00  0.00    -0.200 OA
HETATM    6  O2  UNL     1     -15.528  45.247  -0.289  1.00  0.00    -0.200 OA
BRANCH   4   7
HETATM    7  C6  UNL     1     -12.993  45.390  -1.100  1.00  0.00     0.088 A 
HETATM    8  C7  UNL     1     -12.043  46.277  -0.662  1.00  0.00     0.063 A 
HETATM    9  C8  UNL     1     -10.724  45.909  -0.479  1.00  0.00     0.076 A 
HETATM   10  C10 UNL     1     -10.287  44.542  -0.724  1.00  0.00    -0.015 A 
HETATM   11  C14 UNL     1     -11.272  43.703  -1.158  1.00  0.00    -0.045 A 
HETATM   12  C15 UNL     1     -10.976  42.270  -1.391  1.00  0.00     0.049 C 
HETATM   13  C16 UNL     1     -12.578  44.111  -1.349  1.00  0.00    -0.032 A 
HETATM   14  C17 UNL     1     -13.572  43.216  -2.048  1.00  0.00     0.050 C 
BRANCH   9  15
HETATM   15  O3  UNL     1      -9.710  46.676  -0.074  1.00  0.00    -0.355 OA
HETATM   16  C9  UNL     1      -9.282  47.938  -0.172  1.00  0.00     0.210 C 
ENDBRANCH   9  15
BRANCH  10  17
HETATM   17  C11 UNL     1      -8.902  44.227  -0.422  1.00  0.00     0.014 C 
HETATM   18  C12 UNL     1      -8.108  43.389  -1.348  1.00  0.00     0.015 C 
HETATM   19  C13 UNL     1      -8.817  43.638   1.020  1.00  0.00     0.015 C 
ENDBRANCH  10  17
ENDBRANCH   4   7
ENDBRANCH   2   4
BRANCH   1  20
HETATM   20  C3  UNL     1     -17.493  46.368  -3.591  1.00  0.00     0.038 C 
HETATM   21  C4  UNL     1     -17.218  47.788  -3.000  1.00  0.00     0.016 C 
BRANCH  20  22
HETATM   22  C2  UNL     1     -18.287  45.740  -2.475  1.00  0.00     0.006 C 
HETATM   23  C1  UNL     1     -19.716  46.273  -2.448  1.00  0.00     0.006 C 
ENDBRANCH  20  22
ENDBRANCH   1  20
BRANCH   1  24
HETATM   24  C18 UNL     1     -15.761  45.525  -5.154  1.00  0.00     0.342 C 
HETATM   25  O4  UNL     1     -15.393  44.386  -5.560  1.00  0.00    -0.250 OA
HETATM   26  N2  UNL     1     -15.817  46.603  -5.996  1.00  0.00    -0.330 NA
BRANCH  26  27
HETATM   27  C19 UNL     1     -15.884  47.518  -6.687  1.00  0.00     0.262 A 
HETATM   28  N3  UNL     1     -17.295  47.785  -7.177  1.00  0.00    -0.325 N 
HETATM   29  C20 UNL     1     -17.184  48.917  -7.850  1.00  0.00     0.109 A 
ATOM     30  H3  UNL     1     -18.132  47.222  -7.024  1.00  0.00     0.169 HD
HETATM   31  C21 UNL     1     -15.927  49.362  -7.841  1.00  0.00     0.109 A 
HETATM   32  N4  UNL     1     -15.147  48.516  -7.140  1.00  0.00    -0.325 N 
ATOM     33  H4  UNL     1     -14.146  48.629  -6.985  1.00  0.00     0.169 HD
ENDBRANCH  26  27
ENDBRANCH   1  24
TORSDOF 8
ENDMDL
MODEL 2
REMARK VINA RESULT: -7.073081186      3.421      5.896
REMARK  8 active torsions:
REMARK  status: ('A' for Active; 'I' for Inactive)
REMARK    1  A    between atoms: C2_2  and  C3_3 
REMARK    2  A    between atoms: C3_3  and  C5_5 
REMARK    3  A    between atoms: C5_5  and  C18_24 
REMARK    4  A    between atoms: N1_6  and  S1_8 
REMARK    5  A    between atoms: S1_8  and  C6_11 
REMARK    6  A    between atoms: C8_13  and  O3_14 
REMARK    7  A    between atoms: C10_16  and  C11_17 
REMARK       I    between atoms: C18_24  and  N2_26 
REMARK    8  A    between atoms: N2_26  and  C19_27 
ROOT
HETATM    1  C5  UNL     1     -13.072  46.300   0.842  1.00  0.00     0.106 C 
HETATM    2  N1  UNL     1     -12.152  45.972  -0.096  1.00  0.00    -0.277 N 
ATOM      3  H1  UNL     1     -12.667  45.501  -0.840  1.00  0.00     0.179 HD
ENDROOT
BRANCH   2   4
HETATM    4  S1  UNL     1     -10.634  45.989  -0.561  1.00  0.00     0.263 S 
HETATM    5  O1  UNL     1     -10.425  45.132  -1.908  1.00  0.00    -0.200 OA
HETATM    6  O2  UNL     1     -10.024  47.272  -0.970  1.00  0.00    -0.200 OA
BRANCH   4   7
HETATM    7  C6  UNL     1      -9.536  45.106   0.505  1.00  0.00     0.088 A 
HETATM    8  C7  UNL     1      -9.327  43.759   0.353  1.00  0.00     0.063 A 
HETATM    9  C8  UNL     1      -8.467  43.053   1.171  1.00  0.00     0.076 A 
HETATM   10  C10 UNL     1      -7.718  43.721   2.227  1.00  0.00    -0.015 A 
HETATM   11  C14 UNL     1      -7.965  45.059   2.334  1.00  0.00    -0.045 A 
HETATM   12  C15 UNL     1      -7.227  45.872   3.330  1.00  0.00     0.049 C 
HETATM   13  C16 UNL     1      -8.848  45.729   1.509  1.00  0.00    -0.032 A 
HETATM   14  C17 UNL     1      -9.261  47.149   1.814  1.00  0.00     0.050 C 
BRANCH   9  15
HETATM   15  O3  UNL     1      -8.190  41.748   1.135  1.00  0.00    -0.355 OA
HETATM   16  C9  UNL     1      -8.440  40.673   0.382  1.00  0.00     0.210 C 
ENDBRANCH   9  15
BRANCH  10  17
HETATM   17  C11 UNL     1      -6.774  42.915   2.979  1.00  0.00     0.014 C 
HETATM   18  C12 UNL     1      -6.767  42.959   4.458  1.00  0.00     0.015 C 
HETATM   19  C13 UNL     1      -5.334  43.183   2.440  1.00  0.00     0.015 C 
ENDBRANCH  10  17
ENDBRANCH   4   7
ENDBRANCH   2   4
BRANCH   1  20
HETATM   20  C3  UNL     1     -13.311  47.806   1.135  1.00  0.00     0.038 C 
HETATM   21  C4  UNL     1     -12.972  48.630  -0.150  1.00  0.00     0.016 C 
BRANCH  20  22
HETATM   22  C2  UNL     1     -12.235  48.284   2.075  1.00  0.00     0.006 C 
HETATM   23  C1  UNL     1     -12.414  49.762   2.412  1.00  0.00     0.006 C 
ENDBRANCH  20  22
ENDBRANCH   1  20
BRANCH   1  24
HETATM   24  C18 UNL     1     -14.379  45.593   0.801  1.00  0.00     0.342 C 
HETATM   25  O4  UNL     1     -14.957  45.438   1.915  1.00  0.00    -0.250 OA
HETATM   26  N2  UNL     1     -14.940  45.148  -0.365  1.00  0.00    -0.330 NA
BRANCH  26  27
HETATM   27  C19 UNL     1     -15.398  44.795  -1.358  1.00  0.00     0.262 A 
HETATM   28  N3  UNL     1     -14.717  45.401  -2.570  1.00  0.00    -0.325 N 
HETATM   29  C20 UNL     1     -15.299  44.797  -3.592  1.00  0.00     0.109 A 
ATOM     30  H3  UNL     1     -13.983  46.110  -2.592  1.00  0.00     0.169 HD
HETATM   31  C21 UNL     1     -16.223  43.930  -3.176  1.00  0.00     0.109 A 
HETATM   32  N4  UNL     1     -16.279  43.932  -1.830  1.00  0.00    -0.325 N 
ATOM     33  H4  UNL     1     -16.905  43.358  -1.265  1.00  0.00     0.169 HD
ENDBRANCH  26  27
ENDBRANCH   1  24
TORSDOF 8
ENDMDL
MODEL 3
REMARK VINA RESULT: -7.017851260      3.716      5.794
REMARK  8 active torsions:
REMARK  status: ('A' for Active; 'I' for Inactive)
REMARK    1  A    between atoms: C2_2  and  C3_3 
REMARK    2  A    between atoms: C3_3  and  C5_5 
REMARK    3  A    between atoms: C5_5  and  C18_24 
REMARK    4  A    between atoms: N1_6  and  S1_8 
REMARK    5  A    between atoms: S1_8  and  C6_11 
REMARK    6  A    between atoms: C8_13  and  O3_14 
REMARK    7  A    between atoms: C10_16  and  C11_17 
REMARK       I    between atoms: C18_24  and  N2_26 
REMARK    8  A    between atoms: N2_26  and  C19_27 
ROOT
HETATM    1  C5  UNL     1     -13.838  45.609  -1.009  1.00  0.00     0.106 C 
HETATM    2  N1  UNL     1     -12.833  44.725  -0.807  1.00  0.00    -0.277 N 
ATOM      3  H1  UNL     1     -12.853  44.500   0.187  1.00  0.00     0.179 HD
ENDROOT
BRANCH   2   4
HETATM    4  S1  UNL     1     -11.636  43.879  -1.419  1.00  0.00     0.263 S 
HETATM    5  O1  UNL     1     -12.095  42.373  -1.755  1.00  0.00    -0.200 OA
HETATM    6  O2  UNL     1     -11.070  44.278  -2.725  1.00  0.00    -0.200 OA
BRANCH   4   7
HETATM    7  C6  UNL     1     -10.335  43.526  -0.276  1.00  0.00     0.088 A 
HETATM    8  C7  UNL     1      -9.767  42.278  -0.209  1.00  0.00     0.063 A 
HETATM    9  C8  UNL     1      -8.744  41.985   0.672  1.00  0.00     0.076 A 
HETATM   10  C10 UNL     1      -8.204  43.004   1.560  1.00  0.00    -0.015 A 
HETATM   11  C14 UNL     1      -8.806  44.225   1.452  1.00  0.00    -0.045 A 
HETATM   12  C15 UNL     1      -8.316  45.368   2.258  1.00  0.00     0.049 C 
HETATM   13  C16 UNL     1      -9.841  44.477   0.572  1.00  0.00    -0.032 A 
HETATM   14  C17 UNL     1     -10.625  45.764   0.653  1.00  0.00     0.050 C 
BRANCH   9  15
HETATM   15  O3  UNL     1      -8.122  40.817   0.842  1.00  0.00    -0.355 OA
HETATM   16  C9  UNL     1      -8.133  39.574   0.352  1.00  0.00     0.210 C 
ENDBRANCH   9  15
BRANCH  10  17
HETATM   17  C11 UNL     1      -7.073  42.627   2.388  1.00  0.00     0.014 C 
HETATM   18  C12 UNL     1      -7.107  42.861   3.850  1.00  0.00     0.015 C 
HETATM   19  C13 UNL     1      -5.774  43.248   1.789  1.00  0.00     0.015 C 
ENDBRANCH  10  17
ENDBRANCH   4   7
ENDBRANCH   2   4
BRANCH   1  20
HETATM   20  C3  UNL     1     -15.008  45.185  -1.938  1.00  0.00     0.038 C 
HETATM   21  C4  UNL     1     -15.211  43.639  -1.819  1.00  0.00     0.016 C 
BRANCH  20  22
HETATM   22  C2  UNL     1     -14.548  45.306  -3.368  1.00  0.00     0.006 C 
HETATM   23  C1  UNL     1     -15.503  44.585  -4.316  1.00  0.00     0.006 C 
ENDBRANCH  20  22
ENDBRANCH   1  20
BRANCH   1  24
HETATM   24  C18 UNL     1     -14.384  46.314   0.180  1.00  0.00     0.342 C 
HETATM   25  O4  UNL     1     -15.102  45.618   0.953  1.00  0.00    -0.250 OA
HETATM   26  N2  UNL     1     -14.117  47.630   0.443  1.00  0.00    -0.330 NA
BRANCH  26  27
HETATM   27  C19 UNL     1     -13.869  48.733   0.650  1.00  0.00     0.262 A 
HETATM   28  N3  UNL     1     -12.809  48.907   1.721  1.00  0.00    -0.325 N 
HETATM   29  C20 UNL     1     -12.587  50.211   1.733  1.00  0.00     0.109 A 
ATOM     30  H3  UNL     1     -12.371  48.189   2.298  1.00  0.00     0.169 HD
HETATM   31  C21 UNL     1     -13.353  50.838   0.840  1.00  0.00     0.109 A 
HETATM   32  N4  UNL     1     -14.124  49.945   0.191  1.00  0.00    -0.325 N 
ATOM     33  H4  UNL     1     -14.799  50.169  -0.541  1.00  0.00     0.169 HD
ENDBRANCH  26  27
ENDBRANCH   1  24
TORSDOF 8
ENDMDL
MODEL 4
REMARK VINA RESULT: -6.983712628      3.801      5.701
REMARK  8 active torsions:
REMARK  status: ('A' for Active; 'I' for Inactive)
REMARK    1  A    between atoms: C2_2  and  C3_3 
REMARK    2  A    between atoms: C3_3  and  C5_5 
REMARK    3  A    between atoms: C5_5  and  C18_24 
REMARK    4  A    between atoms: N1_6  and  S1_8 
REMARK    5  A    between atoms: S1_8  and  C6_11 
REMARK    6  A    between atoms: C8_13  and  O3_14 
REMARK    7  A    between atoms: C10_16  and  C11_17 
REMARK       I    between atoms: C18_24  and  N2_26 
REMARK    8  A    between atoms: N2_26  and  C19_27 
ROOT
HETATM    1  C5  UNL     1     -13.716  45.638  -0.755  1.00  0.00     0.106 C 
HETATM    2  N1  UNL     1     -12.774  44.672  -0.635  1.00  0.00    -0.277 N 
ATOM      3  H1  UNL     1     -12.808  44.366   0.337  1.00  0.00     0.179 HD
ENDROOT
BRANCH   2   4
HETATM    4  S1  UNL     1     -11.640  43.800  -1.324  1.00  0.00     0.263 S 
HETATM    5  O1  UNL     1     -12.155  42.305  -1.628  1.00  0.00    -0.200 OA
HETATM    6  O2  UNL     1     -11.153  44.187  -2.665  1.00  0.00    -0.200 OA
BRANCH   4   7
HETATM    7  C6  UNL     1     -10.275  43.416  -0.270  1.00  0.00     0.088 A 
HETATM    8  C7  UNL     1      -9.780  44.338   0.617  1.00  0.00     0.063 A 
HETATM    9  C8  UNL     1      -8.719  44.055   1.455  1.00  0.00     0.076 A 
HETATM   10  C10 UNL     1      -8.088  42.742   1.448  1.00  0.00    -0.015 A 
HETATM   11  C14 UNL     1      -8.619  41.865   0.546  1.00  0.00    -0.045 A 
HETATM   12  C15 UNL     1      -8.108  40.476   0.474  1.00  0.00     0.049 C 
HETATM   13  C16 UNL     1      -9.669  42.190  -0.291  1.00  0.00    -0.032 A 
HETATM   14  C17 UNL     1     -10.064  41.275  -1.424  1.00  0.00     0.050 C 
BRANCH   9  15
HETATM   15  O3  UNL     1      -8.141  44.863   2.345  1.00  0.00    -0.355 OA
HETATM   16  C9  UNL     1      -8.059  46.164   2.640  1.00  0.00     0.210 C 
ENDBRANCH   9  15
BRANCH  10  17
HETATM   17  C11 UNL     1      -7.038  42.508   2.423  1.00  0.00     0.014 C 
HETATM   18  C12 UNL     1      -7.257  42.841   3.849  1.00  0.00     0.015 C 
HETATM   19  C13 UNL     1      -5.722  43.179   1.924  1.00  0.00     0.015 C 
ENDBRANCH  10  17
ENDBRANCH   4   7
ENDBRANCH   2   4
BRANCH   1  20
HETATM   20  C3  UNL     1     -14.914  45.375  -1.707  1.00  0.00     0.038 C 
HETATM   21  C4  UNL     1     -15.166  43.835  -1.787  1.00  0.00     0.016 C 
BRANCH  20  22
HETATM   22  C2  UNL     1     -14.473  45.669  -3.118  1.00  0.00     0.006 C 
HETATM   23  C1  UNL     1     -15.261  44.837  -4.125  1.00  0.00     0.006 C 
ENDBRANCH  20  22
ENDBRANCH   1  20
BRANCH   1  24
HETATM   24  C18 UNL     1     -14.209  46.276   0.494  1.00  0.00     0.342 C 
HETATM   25  O4  UNL     1     -15.019  45.591   1.181  1.00  0.00    -0.250 OA
HETATM   26  N2  UNL     1     -13.805  47.521   0.894  1.00  0.00    -0.330 NA
BRANCH  26  27
HETATM   27  C19 UNL     1     -13.442  48.562   1.217  1.00  0.00     0.262 A 
HETATM   28  N3  UNL     1     -12.412  48.508   2.330  1.00  0.00    -0.325 N 
HETATM   29  C20 UNL     1     -12.043  49.769   2.477  1.00  0.00     0.109 A 
ATOM     30  H3  UNL     1     -12.081  47.691   2.844  1.00  0.00     0.169 HD
HETATM   31  C21 UNL     1     -12.698  50.565   1.630  1.00  0.00     0.109 A 
HETATM   32  N4  UNL     1     -13.539  49.834   0.873  1.00  0.00    -0.325 N 
ATOM     33  H4  UNL     1     -14.154  50.204   0.149  1.00  0.00     0.169 HD
ENDBRANCH  26  27
ENDBRANCH   1  24
TORSDOF 8
ENDMDL
MODEL 5
REMARK VINA RESULT: -6.983311223      3.852      6.865
REMARK  8 active torsions:
REMARK  status: ('A' for Active; 'I' for Inactive)
REMARK    1  A    between atoms: C2_2  and  C3_3 
REMARK    2  A    between atoms: C3_3  and  C5_5 
REMARK    3  A    between atoms: C5_5  and  C18_24 
REMARK    4  A    between atoms: N1_6  and  S1_8 
REMARK    5  A    between atoms: S1_8  and  C6_11 
REMARK    6  A    between atoms: C8_13  and  O3_14 
REMARK    7  A    between atoms: C10_16  and  C11_17 
REMARK       I    between atoms: C18_24  and  N2_26 
REMARK    8  A    between atoms: N2_26  and  C19_27 
ROOT
HETATM    1  C5  UNL     1     -13.000  44.063  -1.255  1.00  0.00     0.106 C 
HETATM    2  N1  UNL     1     -12.944  45.113  -0.402  1.00  0.00    -0.277 N 
ATOM      3  H1  UNL     1     -12.019  45.524  -0.525  1.00  0.00     0.179 HD
ENDROOT
BRANCH   2   4
HETATM    4  S1  UNL     1     -13.667  45.994   0.703  1.00  0.00     0.263 S 
HETATM    5  O1  UNL     1     -14.774  46.963   0.048  1.00  0.00    -0.200 OA
HETATM    6  O2  UNL     1     -14.484  45.322   1.735  1.00  0.00    -0.200 OA
BRANCH   4   7
HETATM    7  C6  UNL     1     -12.633  47.217   1.450  1.00  0.00     0.088 A 
HETATM    8  C7  UNL     1     -12.923  48.555   1.344  1.00  0.00     0.063 A 
HETATM    9  C8  UNL     1     -12.132  49.525   1.927  1.00  0.00     0.076 A 
HETATM   10  C10 UNL     1     -10.957  49.165   2.708  1.00  0.00    -0.015 A 
HETATM   11  C14 UNL     1     -10.716  47.823   2.780  1.00  0.00    -0.045 A 
HETATM   12  C15 UNL     1      -9.584  47.316   3.591  1.00  0.00     0.049 C 
HETATM   13  C16 UNL     1     -11.519  46.881   2.167  1.00  0.00    -0.032 A 
HETATM   14  C17 UNL     1     -11.084  45.438   2.078  1.00  0.00     0.050 C 
BRANCH   9  15
HETATM   15  O3  UNL     1     -12.297  50.849   1.885  1.00  0.00    -0.355 OA
HETATM   16  C9  UNL     1     -12.906  51.778   1.143  1.00  0.00     0.210 C 
ENDBRANCH   9  15
BRANCH  10  17
HETATM   17  C11 UNL     1     -10.236  50.246   3.356  1.00  0.00     0.014 C 
HETATM   18  C12 UNL     1      -8.784  50.417   3.128  1.00  0.00     0.015 C 
HETATM   19  C13 UNL     1     -10.525  50.205   4.888  1.00  0.00     0.015 C 
ENDBRANCH  10  17
ENDBRANCH   4   7
ENDBRANCH   2   4
BRANCH   1  20
HETATM   20  C3  UNL     1     -14.044  44.111  -2.404  1.00  0.00     0.038 C 
HETATM   21  C4  UNL     1     -14.170  45.584  -2.910  1.00  0.00     0.016 C 
BRANCH  20  22
HETATM   22  C2  UNL     1     -15.413  43.892  -1.812  1.00  0.00     0.006 C 
HETATM   23  C1  UNL     1     -16.477  43.807  -2.903  1.00  0.00     0.006 C 
ENDBRANCH  20  22
ENDBRANCH   1  20
BRANCH   1  24
HETATM   24  C18 UNL     1     -11.715  43.532  -1.779  1.00  0.00     0.342 C 
HETATM   25  O4  UNL     1     -11.643  43.401  -3.035  1.00  0.00    -0.250 OA
HETATM   26  N2  UNL     1     -10.661  43.218  -0.965  1.00  0.00    -0.330 NA
BRANCH  26  27
HETATM   27  C19 UNL     1      -9.785  42.973  -0.263  1.00  0.00     0.262 A 
HETATM   28  N3  UNL     1      -8.471  43.571  -0.729  1.00  0.00    -0.325 N 
HETATM   29  C20 UNL     1      -7.629  43.280   0.248  1.00  0.00     0.109 A 
ATOM     30  H3  UNL     1      -8.281  44.079  -1.593  1.00  0.00     0.169 HD
HETATM   31  C21 UNL     1      -8.237  42.597   1.219  1.00  0.00     0.109 A 
HETATM   32  N4  UNL     1      -9.534  42.414   0.907  1.00  0.00    -0.325 N 
ATOM     33  H4  UNL     1     -10.216  41.921   1.484  1.00  0.00     0.169 HD
ENDBRANCH  26  27
ENDBRANCH   1  24
TORSDOF 8
ENDMDL
