MODEL 1
REMARK VINA RESULT: -6.371699318      0.000      0.000
REMARK  10 active torsions:
REMARK  status: ('A' for Active; 'I' for Inactive)
REMARK    1  A    between atoms: C2_2  and  C3_3 
REMARK    2  A    between atoms: C3_3  and  C4_4 
REMARK    3  A    between atoms: N1_7  and  C6_8 
REMARK    4  A    between atoms: C6_8  and  C7_9 
REMARK    5  A    between atoms: C6_8  and  C9_11 
REMARK    6  A    between atoms: C9_11  and  O2_12 
REMARK       I    between atoms: N2_19  and  C15_20 
REMARK    7  A    between atoms: C15_20  and  C16_22 
REMARK    8  A    between atoms: C16_22  and  N3_23 
REMARK    9  A    between atoms: C16_22  and  C21_32 
REMARK       I    between atoms: N3_23  and  C17_25 
REMARK       I    between atoms: C17_25  and  N4_27 
REMARK   10  A    between atoms: N4_27  and  C18_29 
ROOT
HETATM    1  C4  UNL     1     -12.823  47.491   0.864  1.00  0.00     0.180 C 
HETATM    2  C5  UNL     1     -13.709  46.568   0.136  1.00  0.00     0.243 C 
HETATM    3  O1  UNL     1     -14.755  46.279   0.823  1.00  0.00    -0.271 OA
HETATM    4  N1  UNL     1     -13.747  45.892  -1.122  1.00  0.00    -0.344 N 
HETATM    5  C10 UNL     1     -12.747  45.524  -2.092  1.00  0.00     0.126 C 
HETATM    6  C11 UNL     1     -11.324  45.620  -1.580  1.00  0.00     0.022 C 
HETATM    7  C12 UNL     1     -10.912  47.046  -1.730  1.00  0.00     0.026 C 
HETATM    8  C13 UNL     1     -10.469  47.572  -0.372  1.00  0.00     0.084 C 
HETATM    9  C14 UNL     1     -10.281  49.070  -0.561  1.00  0.00     0.032 C 
HETATM   10  N2  UNL     1     -11.408  47.239   0.662  1.00  0.00    -0.333 N 
HETATM   11  C15 UNL     1     -10.848  46.469   1.695  1.00  0.00     0.244 C 
HETATM   12  O3  UNL     1     -11.663  46.080   2.613  1.00  0.00    -0.271 OA
ENDROOT
BRANCH   1  13
HETATM   13  C3  UNL     1     -13.172  48.942   0.614  1.00  0.00     0.035 C 
BRANCH  13  14
HETATM   14  C2  UNL     1     -12.895  49.832   1.804  1.00  0.00    -0.002 C 
HETATM   15  C1  UNL     1     -12.660  51.265   1.462  1.00  0.00     0.005 C 
ENDBRANCH  13  14
ENDBRANCH   1  13
BRANCH  11  16
HETATM   16  C16 UNL     1      -9.449  46.044   1.865  1.00  0.00     0.181 C 
BRANCH  16  17
HETATM   17  N3  UNL     1      -9.431  44.564   1.976  1.00  0.00    -0.330 N 
HETATM   18  C17 UNL     1      -9.051  43.741   0.906  1.00  0.00     0.317 C 
HETATM   19  O4  UNL     1      -8.734  44.265  -0.189  1.00  0.00    -0.247 OA
HETATM   20  N4  UNL     1      -9.009  42.332   1.011  1.00  0.00    -0.339 N 
ATOM     21  H4  UNL     1      -9.254  41.907   1.905  1.00  0.00     0.164 HD
ATOM     22  H3  UNL     1      -9.703  44.132   2.859  1.00  0.00     0.165 HD
BRANCH  20  23
HETATM   23  C18 UNL     1      -8.639  41.464  -0.080  1.00  0.00     0.078 C 
HETATM   24  C19 UNL     1      -8.270  40.074   0.442  1.00  0.00     0.032 C 
HETATM   25  C20 UNL     1      -9.691  41.403  -1.131  1.00  0.00     0.032 C 
ENDBRANCH  20  23
ENDBRANCH  16  17
BRANCH  16  26
HETATM   26  C21 UNL     1      -8.902  46.511   3.198  1.00  0.00     0.009 C 
HETATM   27  C22 UNL     1      -7.495  45.988   3.409  1.00  0.00     0.012 C 
HETATM   28  C23 UNL     1      -8.816  48.049   3.203  1.00  0.00     0.012 C 
ENDBRANCH  16  26
ENDBRANCH  11  16
BRANCH   4  29
HETATM   29  C6  UNL     1     -15.075  45.513  -1.465  1.00  0.00     0.110 C 
BRANCH  29  30
HETATM   30  C7  UNL     1     -15.234  44.067  -1.840  1.00  0.00     0.023 C 
HETATM   31  C8  UNL     1     -16.472  43.842  -2.698  1.00  0.00     0.007 C 
ENDBRANCH  29  30
BRANCH  29  32
HETATM   32  C9  UNL     1     -15.614  46.341  -2.640  1.00  0.00     0.189 C 
BRANCH  32  33
HETATM   33  O2  UNL     1     -15.766  47.677  -2.275  1.00  0.00    -0.399 OA
ATOM     34  H2  UNL     1     -15.767  48.238  -3.042  1.00  0.00     0.209 HD
ENDBRANCH  32  33
ENDBRANCH  29  32
ENDBRANCH   4  29
TORSDOF 10
ENDMDL
MODEL 2
REMARK VINA RESULT: -6.090915798      2.207      5.653
REMARK  10 active torsions:
REMARK  status: ('A' for Active; 'I' for Inactive)
REMARK    1  A    between atoms: C2_2  and  C3_3 
REMARK    2  A    between atoms: C3_3  and  C4_4 
REMARK    3  A    between atoms: N1_7  and  C6_8 
REMARK    4  A    between atoms: C6_8  and  C7_9 
REMARK    5  A    between atoms: C6_8  and  C9_11 
REMARK    6  A    between atoms: C9_11  and  O2_12 
REMARK       I    between atoms: N2_19  and  C15_20 
REMARK    7  A    between atoms: C15_20  and  C16_22 
REMARK    8  A    between atoms: C16_22  and  N3_23 
REMARK    9  A    between atoms: C16_22  and  C21_32 
REMARK       I    between atoms: N3_23  and  C17_25 
REMARK       I    between atoms: C17_25  and  N4_27 
REMARK   10  A    between atoms: N4_27  and  C18_29 
ROOT
HETATM    1  C4  UNL     1     -11.306  45.770  -0.102  1.00  0.00     0.180 C 
HETATM    2  C5  UNL     1     -10.670  44.459   0.105  1.00  0.00     0.243 C 
HETATM    3  O1  UNL     1     -11.543  43.522   0.203  1.00  0.00    -0.271 OA
HETATM    4  N1  UNL     1      -9.354  43.917   0.230  1.00  0.00    -0.344 N 
HETATM    5  C10 UNL     1      -8.071  44.473   0.579  1.00  0.00     0.126 C 
HETATM    6  C11 UNL     1      -8.144  45.850   1.207  1.00  0.00     0.022 C 
HETATM    7  C12 UNL     1      -8.236  46.827   0.084  1.00  0.00     0.026 C 
HETATM    8  C13 UNL     1      -9.486  47.674   0.274  1.00  0.00     0.084 C 
HETATM    9  C14 UNL     1      -9.627  48.480  -1.009  1.00  0.00     0.032 C 
HETATM   10  N2  UNL     1     -10.637  46.868   0.572  1.00  0.00    -0.333 N 
HETATM   11  C15 UNL     1     -11.232  47.183   1.805  1.00  0.00     0.244 C 
HETATM   12  O3  UNL     1     -12.225  46.442   2.157  1.00  0.00    -0.271 OA
ENDROOT
BRANCH   1  13
HETATM   13  C3  UNL     1     -11.539  46.074  -1.566  1.00  0.00     0.035 C 
BRANCH  13  14
HETATM   14  C2  UNL     1     -12.993  45.981  -1.967  1.00  0.00    -0.002 C 
HETATM   15  C1  UNL     1     -13.371  44.697  -2.626  1.00  0.00     0.005 C 
ENDBRANCH  13  14
ENDBRANCH   1  13
BRANCH  11  16
HETATM   16  C16 UNL     1     -10.868  48.249   2.752  1.00  0.00     0.181 C 
BRANCH  16  17
HETATM   17  N3  UNL     1     -10.479  47.610   4.034  1.00  0.00    -0.330 N 
HETATM   18  C17 UNL     1      -9.148  47.572   4.473  1.00  0.00     0.317 C 
HETATM   19  O4  UNL     1      -8.250  48.075   3.757  1.00  0.00    -0.247 OA
HETATM   20  N4  UNL     1      -8.773  46.985   5.704  1.00  0.00    -0.339 N 
ATOM     21  H4  UNL     1      -9.505  46.588   6.293  1.00  0.00     0.164 HD
ATOM     22  H3  UNL     1     -11.203  47.185   4.613  1.00  0.00     0.165 HD
BRANCH  20  23
HETATM   23  C18 UNL     1      -7.410  46.918   6.170  1.00  0.00     0.078 C 
HETATM   24  C19 UNL     1      -7.333  47.266   7.657  1.00  0.00     0.032 C 
HETATM   25  C20 UNL     1      -6.778  45.603   5.872  1.00  0.00     0.032 C 
ENDBRANCH  20  23
ENDBRANCH  16  17
BRANCH  16  26
HETATM   26  C21 UNL     1     -12.079  49.082   3.118  1.00  0.00     0.009 C 
HETATM   27  C22 UNL     1     -11.746  50.040   4.245  1.00  0.00     0.012 C 
HETATM   28  C23 UNL     1     -12.494  49.938   1.907  1.00  0.00     0.012 C 
ENDBRANCH  16  26
ENDBRANCH  11  16
BRANCH   4  29
HETATM   29  C6  UNL     1      -9.338  42.524  -0.061  1.00  0.00     0.110 C 
BRANCH  29  30
HETATM   30  C7  UNL     1      -8.171  41.779   0.522  1.00  0.00     0.023 C 
HETATM   31  C8  UNL     1      -8.370  40.271   0.439  1.00  0.00     0.007 C 
ENDBRANCH  29  30
BRANCH  29  32
HETATM   32  C9  UNL     1      -9.325  42.262  -1.574  1.00  0.00     0.189 C 
BRANCH  32  33
HETATM   33  O2  UNL     1     -10.486  41.603  -1.971  1.00  0.00    -0.399 OA
ATOM     34  H2  UNL     1     -10.297  40.965  -2.649  1.00  0.00     0.209 HD
ENDBRANCH  32  33
ENDBRANCH  29  32
ENDBRANCH   4  29
TORSDOF 10
ENDMDL
MODEL 3
REMARK VINA RESULT: -6.080317145      2.934      5.849
REMARK  10 active torsions:
REMARK  status: ('A' for Active; 'I' for Inactive)
REMARK    1  A    between atoms: C2_2  and  C3_3 
REMARK    2  A    between atoms: C3_3  and  C4_4 
REMARK    3  A    between atoms: N1_7  and  C6_8 
REMARK    4  A    between atoms: C6_8  and  C7_9 
REMARK    5  A    between atoms: C6_8  and  C9_11 
REMARK    6  A    between atoms: C9_11  and  O2_12 
REMARK       I    between atoms: N2_19  and  C15_20 
REMARK    7  A    between atoms: C15_20  and  C16_22 
REMARK    8  A    between atoms: C16_22  and  N3_23 
REMARK    9  A    between atoms: C16_22  and  C21_32 
REMARK       I    between atoms: N3_23  and  C17_25 
REMARK       I    between atoms: C17_25  and  N4_27 
REMARK   10  A    between atoms: N4_27  and  C18_29 
ROOT
HETATM    1  C4  UNL     1     -10.349  48.562  -0.375  1.00  0.00     0.180 C 
HETATM    2  C5  UNL     1      -8.938  48.669  -0.780  1.00  0.00     0.243 C 
HETATM    3  O1  UNL     1      -8.809  49.336  -1.870  1.00  0.00    -0.271 OA
HETATM    4  N1  UNL     1      -7.656  48.245  -0.312  1.00  0.00    -0.344 N 
HETATM    5  C10 UNL     1      -7.209  47.201   0.576  1.00  0.00     0.126 C 
HETATM    6  C11 UNL     1      -8.263  46.156   0.880  1.00  0.00     0.022 C 
HETATM    7  C12 UNL     1      -9.101  46.704   1.985  1.00  0.00     0.026 C 
HETATM    8  C13 UNL     1     -10.555  46.720   1.533  1.00  0.00     0.084 C 
HETATM    9  C14 UNL     1     -11.305  47.489   2.612  1.00  0.00     0.032 C 
HETATM   10  N2  UNL     1     -10.701  47.286   0.222  1.00  0.00    -0.333 N 
HETATM   11  C15 UNL     1     -11.279  46.402  -0.705  1.00  0.00     0.244 C 
HETATM   12  O3  UNL     1     -11.366  46.833  -1.916  1.00  0.00    -0.271 OA
ENDROOT
BRANCH   1  13
HETATM   13  C3  UNL     1     -10.790  49.723   0.489  1.00  0.00     0.035 C 
BRANCH  13  14
HETATM   14  C2  UNL     1     -12.015  50.428  -0.046  1.00  0.00    -0.002 C 
HETATM   15  C1  UNL     1     -13.270  49.624   0.022  1.00  0.00     0.005 C 
ENDBRANCH  13  14
ENDBRANCH   1  13
BRANCH  11  16
HETATM   16  C16 UNL     1     -11.797  45.045  -0.474  1.00  0.00     0.181 C 
BRANCH  16  17
HETATM   17  N3  UNL     1     -10.736  44.078  -0.851  1.00  0.00    -0.330 N 
HETATM   18  C17 UNL     1     -10.069  43.295   0.102  1.00  0.00     0.317 C 
HETATM   19  O4  UNL     1     -10.361  43.422   1.315  1.00  0.00    -0.247 OA
HETATM   20  N4  UNL     1      -9.072  42.357  -0.252  1.00  0.00    -0.339 N 
ATOM     21  H4  UNL     1      -8.844  42.243  -1.240  1.00  0.00     0.164 HD
ATOM     22  H3  UNL     1     -10.483  43.982  -1.834  1.00  0.00     0.165 HD
BRANCH  20  23
HETATM   23  C18 UNL     1      -8.361  41.551   0.710  1.00  0.00     0.078 C 
HETATM   24  C19 UNL     1      -8.299  40.094   0.250  1.00  0.00     0.032 C 
HETATM   25  C20 UNL     1      -7.009  42.098   1.010  1.00  0.00     0.032 C 
ENDBRANCH  20  23
ENDBRANCH  16  17
BRANCH  16  26
HETATM   26  C21 UNL     1     -12.927  44.729  -1.431  1.00  0.00     0.009 C 
HETATM   27  C22 UNL     1     -13.031  43.234  -1.658  1.00  0.00     0.012 C 
HETATM   28  C23 UNL     1     -14.262  45.185  -0.813  1.00  0.00     0.012 C 
ENDBRANCH  16  26
ENDBRANCH  11  16
BRANCH   4  29
HETATM   29  C6  UNL     1      -6.615  49.047  -0.857  1.00  0.00     0.110 C 
BRANCH  29  30
HETATM   30  C7  UNL     1      -5.337  48.306  -1.134  1.00  0.00     0.023 C 
HETATM   31  C8  UNL     1      -4.129  49.232  -1.089  1.00  0.00     0.007 C 
ENDBRANCH  29  30
BRANCH  29  32
HETATM   32  C9  UNL     1      -6.259  50.219   0.068  1.00  0.00     0.189 C 
BRANCH  32  33
HETATM   33  O2  UNL     1      -6.914  51.381  -0.333  1.00  0.00    -0.399 OA
ATOM     34  H2  UNL     1      -6.688  52.108   0.235  1.00  0.00     0.209 HD
ENDBRANCH  32  33
ENDBRANCH  29  32
ENDBRANCH   4  29
TORSDOF 10
ENDMDL
MODEL 4
REMARK VINA RESULT: -6.058761294      1.853      6.500
REMARK  10 active torsions:
REMARK  status: ('A' for Active; 'I' for Inactive)
REMARK    1  A    between atoms: C2_2  and  C3_3 
REMARK    2  A    between atoms: C3_3  and  C4_4 
REMARK    3  A    between atoms: N1_7  and  C6_8 
REMARK    4  A    between atoms: C6_8  and  C7_9 
REMARK    5  A    between atoms: C6_8  and  C9_11 
REMARK    6  A    between atoms: C9_11  and  O2_12 
REMARK       I    between atoms: N2_19  and  C15_20 
REMARK    7  A    between atoms: C15_20  and  C16_22 
REMARK    8  A    between atoms: C16_22  and  N3_23 
REMARK    9  A    between atoms: C16_22  and  C21_32 
REMARK       I    between atoms: N3_23  and  C17_25 
REMARK       I    between atoms: C17_25  and  N4_27 
REMARK   10  A    between atoms: N4_27  and  C18_29 
ROOT
HETATM    1  C4  UNL     1      -8.892  46.101  -0.250  1.00  0.00     0.180 C 
HETATM    2  C5  UNL     1      -8.735  44.639  -0.283  1.00  0.00     0.243 C 
HETATM    3  O1  UNL     1      -8.220  44.244  -1.391  1.00  0.00    -0.271 OA
HETATM    4  N1  UNL     1      -8.990  43.516   0.565  1.00  0.00    -0.344 N 
HETATM    5  C10 UNL     1      -9.861  43.289   1.690  1.00  0.00     0.126 C 
HETATM    6  C11 UNL     1     -10.931  44.347   1.868  1.00  0.00     0.022 C 
HETATM    7  C12 UNL     1     -10.298  45.473   2.615  1.00  0.00     0.026 C 
HETATM    8  C13 UNL     1     -10.457  46.750   1.801  1.00  0.00     0.084 C 
HETATM    9  C14 UNL     1      -9.604  47.790   2.512  1.00  0.00     0.032 C 
HETATM   10  N2  UNL     1     -10.094  46.555   0.425  1.00  0.00    -0.333 N 
HETATM   11  C15 UNL     1     -11.141  46.830  -0.470  1.00  0.00     0.244 C 
HETATM   12  O3  UNL     1     -10.894  46.601  -1.714  1.00  0.00    -0.271 OA
ENDROOT
BRANCH   1  13
HETATM   13  C3  UNL     1      -7.659  46.802   0.276  1.00  0.00     0.035 C 
BRANCH  13  14
HETATM   14  C2  UNL     1      -7.194  47.933  -0.612  1.00  0.00    -0.002 C 
HETATM   15  C1  UNL     1      -5.714  48.033  -0.761  1.00  0.00     0.005 C 
ENDBRANCH  13  14
ENDBRANCH   1  13
BRANCH  11  16
HETATM   16  C16 UNL     1     -12.489  47.342  -0.174  1.00  0.00     0.181 C 
BRANCH  16  17
HETATM   17  N3  UNL     1     -13.382  46.957  -1.296  1.00  0.00    -0.330 N 
HETATM   18  C17 UNL     1     -14.503  46.137  -1.108  1.00  0.00     0.317 C 
HETATM   19  O4  UNL     1     -14.755  45.694   0.038  1.00  0.00    -0.247 OA
HETATM   20  N4  UNL     1     -15.370  45.785  -2.167  1.00  0.00    -0.339 N 
ATOM     21  H4  UNL     1     -15.173  46.155  -3.097  1.00  0.00     0.164 HD
ATOM     22  H3  UNL     1     -13.173  47.301  -2.233  1.00  0.00     0.165 HD
BRANCH  20  23
HETATM   23  C18 UNL     1     -16.520  44.928  -2.002  1.00  0.00     0.078 C 
HETATM   24  C19 UNL     1     -17.707  45.463  -2.805  1.00  0.00     0.032 C 
HETATM   25  C20 UNL     1     -16.216  43.510  -2.336  1.00  0.00     0.032 C 
ENDBRANCH  20  23
ENDBRANCH  16  17
BRANCH  16  26
HETATM   26  C21 UNL     1     -12.508  48.855  -0.201  1.00  0.00     0.009 C 
HETATM   27  C22 UNL     1     -13.030  49.405   1.111  1.00  0.00     0.012 C 
HETATM   28  C23 UNL     1     -11.071  49.381  -0.370  1.00  0.00     0.012 C 
ENDBRANCH  16  26
ENDBRANCH  11  16
BRANCH   4  29
HETATM   29  C6  UNL     1      -8.195  42.396   0.193  1.00  0.00     0.110 C 
BRANCH  29  30
HETATM   30  C7  UNL     1      -8.975  41.140  -0.074  1.00  0.00     0.023 C 
HETATM   31  C8  UNL     1      -9.783  41.243  -1.361  1.00  0.00     0.007 C 
ENDBRANCH  29  30
BRANCH  29  32
HETATM   32  C9  UNL     1      -7.156  42.057   1.271  1.00  0.00     0.189 C 
BRANCH  32  33
HETATM   33  O2  UNL     1      -6.354  43.161   1.549  1.00  0.00    -0.399 OA
ATOM     34  H2  UNL     1      -5.584  43.167   0.993  1.00  0.00     0.209 HD
ENDBRANCH  32  33
ENDBRANCH  29  32
ENDBRANCH   4  29
TORSDOF 10
ENDMDL
MODEL 5
REMARK VINA RESULT: -6.050936338      1.124      1.225
REMARK  10 active torsions:
REMARK  status: ('A' for Active; 'I' for Inactive)
REMARK    1  A    between atoms: C2_2  and  C3_3 
REMARK    2  A    between atoms: C3_3  and  C4_4 
REMARK    3  A    between atoms: N1_7  and  C6_8 
REMARK    4  A    between atoms: C6_8  and  C7_9 
REMARK    5  A    between atoms: C6_8  and  C9_11 
REMARK    6  A    between atoms: C9_11  and  O2_12 
REMARK       I    between atoms: N2_19  and  C15_20 
REMARK    7  A    between atoms: C15_20  and  C16_22 
REMARK    8  A    between atoms: C16_22  and  N3_23 
REMARK    9  A    between atoms: C16_22  and  C21_32 
REMARK       I    between atoms: N3_23  and  C17_25 
REMARK       I    between atoms: C17_25  and  N4_27 
REMARK   10  A    between atoms: N4_27  and  C18_29 
ROOT
HETATM    1  C4  UNL     1     -12.808  48.087   0.720  1.00  0.00     0.180 C 
HETATM    2  C5  UNL     1     -13.566  47.003   0.076  1.00  0.00     0.243 C 
HETATM    3  O1  UNL     1     -14.705  46.822   0.642  1.00  0.00    -0.271 OA
HETATM    4  N1  UNL     1     -13.406  46.081  -1.005  1.00  0.00    -0.344 N 
HETATM    5  C10 UNL     1     -12.266  45.559  -1.715  1.00  0.00     0.126 C 
HETATM    6  C11 UNL     1     -10.940  45.811  -1.026  1.00  0.00     0.022 C 
HETATM    7  C12 UNL     1     -10.516  47.190  -1.407  1.00  0.00     0.026 C 
HETATM    8  C13 UNL     1     -10.291  48.000  -0.138  1.00  0.00     0.084 C 
HETATM    9  C14 UNL     1     -10.083  49.433  -0.605  1.00  0.00     0.032 C 
HETATM   10  N2  UNL     1     -11.377  47.852   0.790  1.00  0.00    -0.333 N 
HETATM   11  C15 UNL     1     -10.980  47.331   2.033  1.00  0.00     0.244 C 
HETATM   12  O3  UNL     1     -11.925  47.109   2.879  1.00  0.00    -0.271 OA
ENDROOT
BRANCH   1  13
HETATM   13  C3  UNL     1     -13.121  49.442   0.124  1.00  0.00     0.035 C 
BRANCH  13  14
HETATM   14  C2  UNL     1     -13.048  50.565   1.132  1.00  0.00    -0.002 C 
HETATM   15  C1  UNL     1     -12.688  51.892   0.554  1.00  0.00     0.005 C 
ENDBRANCH  13  14
ENDBRANCH   1  13
BRANCH  11  16
HETATM   16  C16 UNL     1      -9.622  47.002   2.496  1.00  0.00     0.181 C 
BRANCH  16  17
HETATM   17  N3  UNL     1      -9.514  45.524   2.584  1.00  0.00    -0.330 N 
HETATM   18  C17 UNL     1      -8.604  44.796   1.804  1.00  0.00     0.317 C 
HETATM   19  O4  UNL     1      -7.869  45.404   0.990  1.00  0.00    -0.247 OA
HETATM   20  N4  UNL     1      -8.480  43.391   1.899  1.00  0.00    -0.339 N 
ATOM     21  H4  UNL     1      -9.068  42.898   2.570  1.00  0.00     0.164 HD
ATOM     22  H3  UNL     1     -10.121  45.023   3.233  1.00  0.00     0.165 HD
BRANCH  20  23
HETATM   23  C18 UNL     1      -7.564  42.618   1.096  1.00  0.00     0.078 C 
HETATM   24  C19 UNL     1      -6.229  42.444   1.822  1.00  0.00     0.032 C 
HETATM   25  C20 UNL     1      -8.146  41.313   0.680  1.00  0.00     0.032 C 
ENDBRANCH  20  23
ENDBRANCH  16  17
BRANCH  16  26
HETATM   26  C21 UNL     1      -9.413  47.464   3.923  1.00  0.00     0.009 C 
HETATM   27  C22 UNL     1      -8.071  46.989   4.445  1.00  0.00     0.012 C 
HETATM   28  C23 UNL     1      -9.393  49.003   3.963  1.00  0.00     0.012 C 
ENDBRANCH  16  26
ENDBRANCH  11  16
BRANCH   4  29
HETATM   29  C6  UNL     1     -14.663  45.591  -1.457  1.00  0.00     0.110 C 
BRANCH  29  30
HETATM   30  C7  UNL     1     -14.659  44.143  -1.859  1.00  0.00     0.023 C 
HETATM   31  C8  UNL     1     -16.042  43.679  -2.298  1.00  0.00     0.007 C 
ENDBRANCH  29  30
BRANCH  29  32
HETATM   32  C9  UNL     1     -15.180  46.388  -2.662  1.00  0.00     0.189 C 
BRANCH  32  33
HETATM   33  O2  UNL     1     -15.788  47.571  -2.249  1.00  0.00    -0.399 OA
ATOM     34  H2  UNL     1     -16.605  47.391  -1.799  1.00  0.00     0.209 HD
ENDBRANCH  32  33
ENDBRANCH  29  32
ENDBRANCH   4  29
TORSDOF 10
ENDMDL
