MODEL 1
REMARK VINA RESULT: -7.201158523      0.000      0.000
REMARK  3 active torsions:
REMARK  status: ('A' for Active; 'I' for Inactive)
REMARK    1  A    between atoms: C4_6  and  N2_7 
REMARK    2  A    between atoms: C9_15  and  N4_16 
REMARK    3  A    between atoms: N4_16  and  C10_17 
ROOT
HETATM    1  C1  UNL     1     -30.891  28.319   0.445  1.00  0.00     0.055 C 
HETATM    2  C2  UNL     1     -32.206  28.168  -0.210  1.00  0.00     0.012 A 
HETATM    3  C3  UNL     1     -32.490  27.047  -0.934  1.00  0.00     0.117 A 
HETATM    4  N1  UNL     1     -33.685  26.908  -1.530  1.00  0.00    -0.201 N 
ATOM      5  H1  UNL     1     -33.894  26.070  -2.073  1.00  0.00     0.183 HD
HETATM    6  C4  UNL     1     -34.617  27.895  -1.403  1.00  0.00     0.682 A 
HETATM    7  N3  UNL     1     -34.329  28.965  -0.704  1.00  0.00    -0.164 N 
ATOM      8  H3  UNL     1     -35.052  29.680  -0.633  1.00  0.00     0.187 HD
HETATM    9  C9  UNL     1     -33.152  29.210  -0.062  1.00  0.00     0.195 A 
ENDROOT
BRANCH   9  10
HETATM   10  N4  UNL     1     -32.927  30.218   0.530  1.00  0.00    -0.424 NA
BRANCH  10  11
HETATM   11  C10 UNL     1     -32.666  31.355   1.193  1.00  0.00     0.165 C 
HETATM   12  C11 UNL     1     -31.330  31.377   1.888  1.00  0.00     0.040 C 
HETATM   13  C12 UNL     1     -30.763  32.710   2.136  1.00  0.00     0.007 C 
HETATM   14  C13 UNL     1     -31.865  33.730   2.313  1.00  0.00    -0.019 C 
HETATM   15  C14 UNL     1     -31.323  35.102   2.660  1.00  0.00     0.010 C 
HETATM   16  C15 UNL     1     -32.496  33.872   0.941  1.00  0.00     0.007 C 
HETATM   17  C16 UNL     1     -32.973  32.569   0.387  1.00  0.00     0.040 C 
ENDBRANCH  10  11
ENDBRANCH   9  10
BRANCH   6  18
HETATM   18  N2  UNL     1     -35.828  27.667  -2.111  1.00  0.00    -0.216 N 
HETATM   19  C5  UNL     1     -35.808  26.620  -3.165  1.00  0.00     0.151 C 
HETATM   20  C6  UNL     1     -36.699  25.509  -2.634  1.00  0.00     0.094 C 
HETATM   21  S1  UNL     1     -38.377  26.205  -2.562  1.00  0.00    -0.166 SA
HETATM   22  C7  UNL     1     -38.194  27.993  -2.650  1.00  0.00     0.094 C 
HETATM   23  C8  UNL     1     -37.003  28.387  -1.799  1.00  0.00     0.151 C 
ENDBRANCH   6  18
TORSDOF 3
ENDMDL
MODEL 2
REMARK VINA RESULT: -7.086206062      0.864      1.386
REMARK  3 active torsions:
REMARK  status: ('A' for Active; 'I' for Inactive)
REMARK    1  A    between atoms: C4_6  and  N2_7 
REMARK    2  A    between atoms: C9_15  and  N4_16 
REMARK    3  A    between atoms: N4_16  and  C10_17 
ROOT
HETATM    1  C1  UNL     1     -31.123  28.187   0.283  1.00  0.00     0.055 C 
HETATM    2  C2  UNL     1     -32.455  28.080  -0.342  1.00  0.00     0.012 A 
HETATM    3  C3  UNL     1     -32.782  26.981  -1.082  1.00  0.00     0.117 A 
HETATM    4  N1  UNL     1     -33.994  26.882  -1.652  1.00  0.00    -0.201 N 
ATOM      5  H1  UNL     1     -34.235  26.060  -2.208  1.00  0.00     0.183 HD
HETATM    6  C4  UNL     1     -34.900  27.886  -1.483  1.00  0.00     0.682 A 
HETATM    7  N3  UNL     1     -34.571  28.934  -0.768  1.00  0.00    -0.164 N 
ATOM      8  H3  UNL     1     -35.276  29.664  -0.665  1.00  0.00     0.187 HD
HETATM    9  C9  UNL     1     -33.373  29.139  -0.150  1.00  0.00     0.195 A 
ENDROOT
BRANCH   9  10
HETATM   10  N4  UNL     1     -33.112  30.129   0.457  1.00  0.00    -0.424 NA
BRANCH  10  11
HETATM   11  C10 UNL     1     -32.812  31.248   1.135  1.00  0.00     0.165 C 
HETATM   12  C11 UNL     1     -31.487  31.205   1.851  1.00  0.00     0.040 C 
HETATM   13  C12 UNL     1     -30.866  32.510   2.120  1.00  0.00     0.007 C 
HETATM   14  C13 UNL     1     -31.926  33.576   2.289  1.00  0.00    -0.019 C 
HETATM   15  C14 UNL     1     -31.330  34.919   2.657  1.00  0.00     0.010 C 
HETATM   16  C15 UNL     1     -32.528  33.757   0.909  1.00  0.00     0.007 C 
HETATM   17  C16 UNL     1     -33.053  32.481   0.335  1.00  0.00     0.040 C 
ENDBRANCH  10  11
ENDBRANCH   9  10
BRANCH   6  18
HETATM   18  N2  UNL     1     -36.132  27.700  -2.165  1.00  0.00    -0.216 N 
HETATM   19  C5  UNL     1     -37.125  28.801  -2.078  1.00  0.00     0.151 C 
HETATM   20  C6  UNL     1     -37.209  29.369  -3.485  1.00  0.00     0.094 C 
HETATM   21  S1  UNL     1     -37.917  28.050  -4.516  1.00  0.00    -0.166 SA
HETATM   22  C7  UNL     1     -37.743  26.522  -3.583  1.00  0.00     0.094 C 
HETATM   23  C8  UNL     1     -36.382  26.530  -2.916  1.00  0.00     0.151 C 
ENDBRANCH   6  18
TORSDOF 3
ENDMDL
MODEL 3
REMARK VINA RESULT: -6.971448709      0.602      1.193
REMARK  3 active torsions:
REMARK  status: ('A' for Active; 'I' for Inactive)
REMARK    1  A    between atoms: C4_6  and  N2_7 
REMARK    2  A    between atoms: C9_15  and  N4_16 
REMARK    3  A    between atoms: N4_16  and  C10_17 
ROOT
HETATM    1  C1  UNL     1     -30.932  28.223   0.272  1.00  0.00     0.055 C 
HETATM    2  C2  UNL     1     -32.297  28.235  -0.291  1.00  0.00     0.012 A 
HETATM    3  C3  UNL     1     -32.813  27.112  -0.869  1.00  0.00     0.117 A 
HETATM    4  N1  UNL     1     -34.055  27.121  -1.382  1.00  0.00    -0.201 N 
ATOM      5  H1  UNL     1     -34.438  26.281  -1.816  1.00  0.00     0.183 HD
HETATM    6  C4  UNL     1     -34.799  28.261  -1.318  1.00  0.00     0.682 A 
HETATM    7  N3  UNL     1     -34.289  29.331  -0.759  1.00  0.00    -0.164 N 
ATOM      8  H3  UNL     1     -34.877  30.164  -0.731  1.00  0.00     0.187 HD
HETATM    9  C9  UNL     1     -33.045  29.434  -0.212  1.00  0.00     0.195 A 
ENDROOT
BRANCH   9  10
HETATM   10  N4  UNL     1     -32.615  30.443   0.251  1.00  0.00    -0.424 NA
BRANCH  10  11
HETATM   11  C10 UNL     1     -32.123  31.580   0.767  1.00  0.00     0.165 C 
HETATM   12  C11 UNL     1     -32.760  32.834   0.229  1.00  0.00     0.040 C 
HETATM   13  C12 UNL     1     -32.684  34.013   1.104  1.00  0.00     0.007 C 
HETATM   14  C13 UNL     1     -31.443  33.954   1.965  1.00  0.00    -0.019 C 
HETATM   15  C14 UNL     1     -31.281  35.196   2.818  1.00  0.00     0.010 C 
HETATM   16  C15 UNL     1     -31.689  32.816   2.937  1.00  0.00     0.007 C 
HETATM   17  C16 UNL     1     -31.999  31.526   2.250  1.00  0.00     0.040 C 
ENDBRANCH  10  11
ENDBRANCH   9  10
BRANCH   6  18
HETATM   18  N2  UNL     1     -36.078  28.174  -1.930  1.00  0.00    -0.216 N 
HETATM   19  C5  UNL     1     -36.213  27.249  -3.085  1.00  0.00     0.151 C 
HETATM   20  C6  UNL     1     -37.121  26.135  -2.593  1.00  0.00     0.094 C 
HETATM   21  S1  UNL     1     -38.741  26.904  -2.293  1.00  0.00    -0.166 SA
HETATM   22  C7  UNL     1     -38.457  28.679  -2.211  1.00  0.00     0.094 C 
HETATM   23  C8  UNL     1     -37.176  28.916  -1.438  1.00  0.00     0.151 C 
ENDBRANCH   6  18
TORSDOF 3
ENDMDL
MODEL 4
REMARK VINA RESULT: -6.957556043      1.001      1.854
REMARK  3 active torsions:
REMARK  status: ('A' for Active; 'I' for Inactive)
REMARK    1  A    between atoms: C4_6  and  N2_7 
REMARK    2  A    between atoms: C9_15  and  N4_16 
REMARK    3  A    between atoms: N4_16  and  C10_17 
ROOT
HETATM    1  C1  UNL     1     -30.941  28.234   0.335  1.00  0.00     0.055 C 
HETATM    2  C2  UNL     1     -32.306  28.256  -0.227  1.00  0.00     0.012 A 
HETATM    3  C3  UNL     1     -32.830  27.137  -0.807  1.00  0.00     0.117 A 
HETATM    4  N1  UNL     1     -34.072  27.155  -1.319  1.00  0.00    -0.201 N 
ATOM      5  H1  UNL     1     -34.460  26.318  -1.754  1.00  0.00     0.183 HD
HETATM    6  C4  UNL     1     -34.809  28.300  -1.252  1.00  0.00     0.682 A 
HETATM    7  N3  UNL     1     -34.291  29.365  -0.691  1.00  0.00    -0.164 N 
ATOM      8  H3  UNL     1     -34.874  30.202  -0.661  1.00  0.00     0.187 HD
HETATM    9  C9  UNL     1     -33.046  29.459  -0.145  1.00  0.00     0.195 A 
ENDROOT
BRANCH   9  10
HETATM   10  N4  UNL     1     -32.609  30.465   0.320  1.00  0.00    -0.424 NA
BRANCH  10  11
HETATM   11  C10 UNL     1     -32.110  31.598   0.837  1.00  0.00     0.165 C 
HETATM   12  C11 UNL     1     -32.696  32.858   0.255  1.00  0.00     0.040 C 
HETATM   13  C12 UNL     1     -32.626  34.048   1.115  1.00  0.00     0.007 C 
HETATM   14  C13 UNL     1     -31.420  33.975   2.024  1.00  0.00    -0.019 C 
HETATM   15  C14 UNL     1     -31.262  35.226   2.864  1.00  0.00     0.010 C 
HETATM   16  C15 UNL     1     -31.731  32.859   3.003  1.00  0.00     0.007 C 
HETATM   17  C16 UNL     1     -32.045  31.566   2.324  1.00  0.00     0.040 C 
ENDBRANCH  10  11
ENDBRANCH   9  10
BRANCH   6  18
HETATM   18  N2  UNL     1     -36.088  28.222  -1.863  1.00  0.00    -0.216 N 
HETATM   19  C5  UNL     1     -37.021  29.354  -1.626  1.00  0.00     0.151 C 
HETATM   20  C6  UNL     1     -37.165  30.036  -2.977  1.00  0.00     0.094 C 
HETATM   21  S1  UNL     1     -37.999  28.835  -4.057  1.00  0.00    -0.166 SA
HETATM   22  C7  UNL     1     -37.840  27.231  -3.257  1.00  0.00     0.094 C 
HETATM   23  C8  UNL     1     -36.441  27.127  -2.683  1.00  0.00     0.151 C 
ENDBRANCH   6  18
TORSDOF 3
ENDMDL
MODEL 5
REMARK VINA RESULT: -6.842493507      1.037      1.154
REMARK  3 active torsions:
REMARK  status: ('A' for Active; 'I' for Inactive)
REMARK    1  A    between atoms: C4_6  and  N2_7 
REMARK    2  A    between atoms: C9_15  and  N4_16 
REMARK    3  A    between atoms: N4_16  and  C10_17 
ROOT
HETATM    1  C1  UNL     1     -31.622  27.869   0.050  1.00  0.00     0.055 C 
HETATM    2  C2  UNL     1     -32.939  27.936  -0.614  1.00  0.00     0.012 A 
HETATM    3  C3  UNL     1     -33.358  26.915  -1.417  1.00  0.00     0.117 A 
HETATM    4  N1  UNL     1     -34.556  26.974  -2.021  1.00  0.00    -0.201 N 
ATOM      5  H1  UNL     1     -34.865  26.211  -2.624  1.00  0.00     0.183 HD
HETATM    6  C4  UNL     1     -35.354  28.060  -1.824  1.00  0.00     0.682 A 
HETATM    7  N3  UNL     1     -34.938  29.032  -1.049  1.00  0.00    -0.164 N 
ATOM      8  H3  UNL     1     -35.565  29.827  -0.927  1.00  0.00     0.187 HD
HETATM    9  C9  UNL     1     -33.745  29.077  -0.391  1.00  0.00     0.195 A 
ENDROOT
BRANCH   9  10
HETATM   10  N4  UNL     1     -33.399  30.003   0.272  1.00  0.00    -0.424 NA
BRANCH  10  11
HETATM   11  C10 UNL     1     -33.014  31.052   1.015  1.00  0.00     0.165 C 
HETATM   12  C11 UNL     1     -31.681  30.877   1.695  1.00  0.00     0.040 C 
HETATM   13  C12 UNL     1     -30.972  32.119   2.035  1.00  0.00     0.007 C 
HETATM   14  C13 UNL     1     -31.957  33.236   2.300  1.00  0.00    -0.019 C 
HETATM   15  C14 UNL     1     -31.268  34.511   2.742  1.00  0.00     0.010 C 
HETATM   16  C15 UNL     1     -32.573  33.548   0.950  1.00  0.00     0.007 C 
HETATM   17  C16 UNL     1     -33.190  32.349   0.305  1.00  0.00     0.040 C 
ENDBRANCH  10  11
ENDBRANCH   9  10
BRANCH   6  18
HETATM   18  N2  UNL     1     -36.578  28.041  -2.546  1.00  0.00    -0.216 N 
HETATM   19  C5  UNL     1     -37.310  26.749  -2.600  1.00  0.00     0.151 C 
HETATM   20  C6  UNL     1     -38.575  26.979  -1.789  1.00  0.00     0.094 C 
HETATM   21  S1  UNL     1     -39.541  28.215  -2.708  1.00  0.00    -0.166 SA
HETATM   22  C7  UNL     1     -38.406  28.994  -3.866  1.00  0.00     0.094 C 
HETATM   23  C8  UNL     1     -37.084  29.210  -3.157  1.00  0.00     0.151 C 
ENDBRANCH   6  18
TORSDOF 3
ENDMDL
