MODEL 1
REMARK VINA RESULT: -6.756463126      0.000      0.000
REMARK  5 active torsions:
REMARK  status: ('A' for Active; 'I' for Inactive)
REMARK    1  A    between atoms: C2_2  and  O1_3 
REMARK    2  A    between atoms: O1_3  and  C3_4 
REMARK       I    between atoms: C3_4  and  N1_6 
REMARK    3  A    between atoms: N1_6  and  C4_8 
REMARK       I    between atoms: N2_15  and  C11_16 
REMARK    4  A    between atoms: C11_16  and  O4_18 
REMARK    5  A    between atoms: O4_18  and  C12_19 
ROOT
HETATM    1  C4  UNL     1     -34.292  33.297  -0.187  1.00  0.00     0.051 C 
HETATM    2  C5  UNL     1     -34.907  32.500   0.930  1.00  0.00     0.033 C 
HETATM    3  C6  UNL     1     -35.844  31.431   0.565  1.00  0.00     0.004 C 
HETATM    4  C7  UNL     1     -36.338  31.343  -0.821  1.00  0.00     0.025 C 
HETATM    5  C8  UNL     1     -35.281  31.521  -1.879  1.00  0.00     0.089 C 
HETATM    6  C9  UNL     1     -35.350  32.956  -2.381  1.00  0.00     0.028 C 
HETATM    7  C10 UNL     1     -35.302  33.837  -1.137  1.00  0.00     0.035 C 
HETATM    8  N2  UNL     1     -33.958  31.279  -1.395  1.00  0.00    -0.321 N 
HETATM    9  C11 UNL     1     -33.407  29.973  -1.425  1.00  0.00     0.363 C 
HETATM   10  O3  UNL     1     -34.114  29.045  -1.888  1.00  0.00    -0.238 OA
HETATM   11  C16 UNL     1     -33.231  32.427  -0.881  1.00  0.00     0.159 C 
ENDROOT
BRANCH   1  12
HETATM   12  N1  UNL     1     -33.570  34.405   0.407  1.00  0.00    -0.326 N 
HETATM   13  C3  UNL     1     -32.359  34.301   1.120  1.00  0.00     0.361 C 
HETATM   14  O2  UNL     1     -31.774  33.204   1.311  1.00  0.00    -0.238 OA
ATOM     15  H1  UNL     1     -33.972  35.336   0.300  1.00  0.00     0.165 HD
BRANCH  13  16
HETATM   16  O1  UNL     1     -31.745  35.447   1.659  1.00  0.00    -0.304 OA
BRANCH  16  17
HETATM   17  C2  UNL     1     -30.697  35.286   2.599  1.00  0.00     0.176 C 
HETATM   18  C1  UNL     1     -30.804  36.394   3.619  1.00  0.00     0.034 C 
ENDBRANCH  16  17
ENDBRANCH  13  16
ENDBRANCH   1  12
BRANCH   9  19
HETATM   19  O4  UNL     1     -32.144  29.657  -0.979  1.00  0.00    -0.294 OA
BRANCH  19  20
HETATM   20  C12 UNL     1     -31.889  28.980   0.238  1.00  0.00     0.061 C 
HETATM   21  C13 UNL     1     -33.163  28.718   1.010  1.00  0.00     0.046 C 
HETATM   22  C14 UNL     1     -30.943  29.738   1.124  1.00  0.00     0.046 C 
HETATM   23  C15 UNL     1     -31.256  27.642  -0.078  1.00  0.00     0.046 C 
ENDBRANCH  19  20
ENDBRANCH   9  19
TORSDOF 5
ENDMDL
MODEL 2
REMARK VINA RESULT: -6.702658126      2.567      6.985
REMARK  5 active torsions:
REMARK  status: ('A' for Active; 'I' for Inactive)
REMARK    1  A    between atoms: C2_2  and  O1_3 
REMARK    2  A    between atoms: O1_3  and  C3_4 
REMARK       I    between atoms: C3_4  and  N1_6 
REMARK    3  A    between atoms: N1_6  and  C4_8 
REMARK       I    between atoms: N2_15  and  C11_16 
REMARK    4  A    between atoms: C11_16  and  O4_18 
REMARK    5  A    between atoms: O4_18  and  C12_19 
ROOT
HETATM    1  C4  UNL     1     -33.503  28.854  -1.350  1.00  0.00     0.051 C 
HETATM    2  C5  UNL     1     -34.800  28.958  -0.598  1.00  0.00     0.033 C 
HETATM    3  C6  UNL     1     -34.729  29.149   0.856  1.00  0.00     0.004 C 
HETATM    4  C7  UNL     1     -33.437  28.978   1.546  1.00  0.00     0.025 C 
HETATM    5  C8  UNL     1     -32.265  29.625   0.856  1.00  0.00     0.089 C 
HETATM    6  C9  UNL     1     -31.522  28.549   0.077  1.00  0.00     0.028 C 
HETATM    7  C10 UNL     1     -32.577  27.844  -0.770  1.00  0.00     0.035 C 
HETATM    8  N2  UNL     1     -32.650  30.655  -0.057  1.00  0.00    -0.321 N 
HETATM    9  C11 UNL     1     -32.800  31.992   0.387  1.00  0.00     0.363 C 
HETATM   10  O3  UNL     1     -32.584  32.240   1.598  1.00  0.00    -0.238 OA
HETATM   11  C16 UNL     1     -32.874  30.254  -1.435  1.00  0.00     0.159 C 
ENDROOT
BRANCH   1  12
HETATM   12  N1  UNL     1     -33.813  28.473  -2.714  1.00  0.00    -0.326 N 
HETATM   13  C3  UNL     1     -34.279  27.207  -3.121  1.00  0.00     0.361 C 
HETATM   14  O2  UNL     1     -34.476  26.263  -2.314  1.00  0.00    -0.238 OA
ATOM     15  H1  UNL     1     -33.685  29.180  -3.438  1.00  0.00     0.165 HD
BRANCH  13  16
HETATM   16  O1  UNL     1     -34.547  26.946  -4.478  1.00  0.00    -0.304 OA
BRANCH  16  17
HETATM   17  C2  UNL     1     -35.699  26.194  -4.817  1.00  0.00     0.176 C 
HETATM   18  C1  UNL     1     -35.590  25.791  -6.268  1.00  0.00     0.034 C 
ENDBRANCH  16  17
ENDBRANCH  13  16
ENDBRANCH   1  12
BRANCH   9  19
HETATM   19  O4  UNL     1     -33.167  33.040  -0.426  1.00  0.00    -0.294 OA
BRANCH  19  20
HETATM   20  C12 UNL     1     -34.502  33.486  -0.576  1.00  0.00     0.061 C 
HETATM   21  C13 UNL     1     -35.398  32.948   0.519  1.00  0.00     0.046 C 
HETATM   22  C14 UNL     1     -35.088  33.099  -1.903  1.00  0.00     0.046 C 
HETATM   23  C15 UNL     1     -34.519  34.996  -0.486  1.00  0.00     0.046 C 
ENDBRANCH  19  20
ENDBRANCH   9  19
TORSDOF 5
ENDMDL
MODEL 3
REMARK VINA RESULT: -6.124804766      2.005      4.356
REMARK  5 active torsions:
REMARK  status: ('A' for Active; 'I' for Inactive)
REMARK    1  A    between atoms: C2_2  and  O1_3 
REMARK    2  A    between atoms: O1_3  and  C3_4 
REMARK       I    between atoms: C3_4  and  N1_6 
REMARK    3  A    between atoms: N1_6  and  C4_8 
REMARK       I    between atoms: N2_15  and  C11_16 
REMARK    4  A    between atoms: C11_16  and  O4_18 
REMARK    5  A    between atoms: O4_18  and  C12_19 
ROOT
HETATM    1  C4  UNL     1     -32.890  31.032   0.326  1.00  0.00     0.051 C 
HETATM    2  C5  UNL     1     -32.957  30.848  -1.164  1.00  0.00     0.033 C 
HETATM    3  C6  UNL     1     -33.565  29.612  -1.670  1.00  0.00     0.004 C 
HETATM    4  C7  UNL     1     -33.848  28.509  -0.734  1.00  0.00     0.025 C 
HETATM    5  C8  UNL     1     -34.480  28.932   0.566  1.00  0.00     0.089 C 
HETATM    6  C9  UNL     1     -33.387  29.002   1.624  1.00  0.00     0.028 C 
HETATM    7  C10 UNL     1     -32.283  29.867   1.026  1.00  0.00     0.035 C 
HETATM    8  N2  UNL     1     -35.114  30.211   0.490  1.00  0.00    -0.321 N 
HETATM    9  C11 UNL     1     -36.468  30.322   0.089  1.00  0.00     0.363 C 
HETATM   10  O3  UNL     1     -37.088  29.269  -0.194  1.00  0.00    -0.238 OA
HETATM   11  C16 UNL     1     -34.301  31.363   0.841  1.00  0.00     0.159 C 
ENDROOT
BRANCH   1  12
HETATM   12  N1  UNL     1     -32.084  32.208   0.590  1.00  0.00    -0.326 N 
HETATM   13  C3  UNL     1     -31.550  32.564   1.845  1.00  0.00     0.361 C 
HETATM   14  O2  UNL     1     -31.727  31.874   2.881  1.00  0.00    -0.238 OA
ATOM     15  H1  UNL     1     -31.887  32.827  -0.196  1.00  0.00     0.165 HD
BRANCH  13  16
HETATM   16  O1  UNL     1     -30.781  33.734   1.988  1.00  0.00    -0.304 OA
BRANCH  16  17
HETATM   17  C2  UNL     1     -31.202  34.723   2.911  1.00  0.00     0.176 C 
HETATM   18  C1  UNL     1     -30.835  36.078   2.352  1.00  0.00     0.034 C 
ENDBRANCH  16  17
ENDBRANCH  13  16
ENDBRANCH   1  12
BRANCH   9  19
HETATM   19  O4  UNL     1     -37.150  31.513  -0.009  1.00  0.00    -0.294 OA
BRANCH  19  20
HETATM   20  C12 UNL     1     -37.290  32.239  -1.217  1.00  0.00     0.061 C 
HETATM   21  C13 UNL     1     -38.741  32.383  -1.619  1.00  0.00     0.046 C 
HETATM   22  C14 UNL     1     -36.541  31.606  -2.354  1.00  0.00     0.046 C 
HETATM   23  C15 UNL     1     -36.728  33.629  -1.011  1.00  0.00     0.046 C 
ENDBRANCH  19  20
ENDBRANCH   9  19
TORSDOF 5
ENDMDL
MODEL 4
REMARK VINA RESULT: -6.092893085      1.834      2.373
REMARK  5 active torsions:
REMARK  status: ('A' for Active; 'I' for Inactive)
REMARK    1  A    between atoms: C2_2  and  O1_3 
REMARK    2  A    between atoms: O1_3  and  C3_4 
REMARK       I    between atoms: C3_4  and  N1_6 
REMARK    3  A    between atoms: N1_6  and  C4_8 
REMARK       I    between atoms: N2_15  and  C11_16 
REMARK    4  A    between atoms: C11_16  and  O4_18 
REMARK    5  A    between atoms: O4_18  and  C12_19 
ROOT
HETATM    1  C4  UNL     1     -34.338  32.352  -0.418  1.00  0.00     0.051 C 
HETATM    2  C5  UNL     1     -35.296  32.155   0.724  1.00  0.00     0.033 C 
HETATM    3  C6  UNL     1     -36.702  31.895   0.393  1.00  0.00     0.004 C 
HETATM    4  C7  UNL     1     -37.167  32.088  -0.992  1.00  0.00     0.025 C 
HETATM    5  C8  UNL     1     -36.251  31.528  -2.048  1.00  0.00     0.089 C 
HETATM    6  C9  UNL     1     -35.416  32.673  -2.605  1.00  0.00     0.028 C 
HETATM    7  C10 UNL     1     -34.805  33.372  -1.396  1.00  0.00     0.035 C 
HETATM    8  N2  UNL     1     -35.362  30.528  -1.545  1.00  0.00    -0.321 N 
HETATM    9  C11 UNL     1     -35.749  29.166  -1.521  1.00  0.00     0.363 C 
HETATM   10  O3  UNL     1     -36.889  28.868  -1.953  1.00  0.00    -0.238 OA
HETATM   11  C16 UNL     1     -34.068  30.986  -1.071  1.00  0.00     0.159 C 
ENDROOT
BRANCH   1  12
HETATM   12  N1  UNL     1     -33.071  32.785   0.139  1.00  0.00    -0.326 N 
HETATM   13  C3  UNL     1     -32.807  34.066   0.663  1.00  0.00     0.361 C 
HETATM   14  O2  UNL     1     -33.672  34.979   0.698  1.00  0.00    -0.238 OA
ATOM     15  H1  UNL     1     -32.310  32.107   0.153  1.00  0.00     0.165 HD
BRANCH  13  16
HETATM   16  O1  UNL     1     -31.535  34.380   1.177  1.00  0.00    -0.304 OA
BRANCH  16  17
HETATM   17  C2  UNL     1     -31.341  34.369   2.581  1.00  0.00     0.176 C 
HETATM   18  C1  UNL     1     -30.742  35.695   2.986  1.00  0.00     0.034 C 
ENDBRANCH  16  17
ENDBRANCH  13  16
ENDBRANCH   1  12
BRANCH   9  19
HETATM   19  O4  UNL     1     -34.954  28.144  -1.054  1.00  0.00    -0.294 OA
BRANCH  19  20
HETATM   20  C12 UNL     1     -34.165  27.319  -1.891  1.00  0.00     0.061 C 
HETATM   21  C13 UNL     1     -33.924  27.959  -3.241  1.00  0.00     0.046 C 
HETATM   22  C14 UNL     1     -34.785  25.968  -2.109  1.00  0.00     0.046 C 
HETATM   23  C15 UNL     1     -32.819  27.109  -1.232  1.00  0.00     0.046 C 
ENDBRANCH  19  20
ENDBRANCH   9  19
TORSDOF 5
ENDMDL
MODEL 5
REMARK VINA RESULT: -6.088678658      2.107      5.132
REMARK  5 active torsions:
REMARK  status: ('A' for Active; 'I' for Inactive)
REMARK    1  A    between atoms: C2_2  and  O1_3 
REMARK    2  A    between atoms: O1_3  and  C3_4 
REMARK       I    between atoms: C3_4  and  N1_6 
REMARK    3  A    between atoms: N1_6  and  C4_8 
REMARK       I    between atoms: N2_15  and  C11_16 
REMARK    4  A    between atoms: C11_16  and  O4_18 
REMARK    5  A    between atoms: O4_18  and  C12_19 
ROOT
HETATM    1  C4  UNL     1     -34.130  30.204  -1.104  1.00  0.00     0.051 C 
HETATM    2  C5  UNL     1     -34.996  30.377   0.112  1.00  0.00     0.033 C 
HETATM    3  C6  UNL     1     -34.669  29.575   1.297  1.00  0.00     0.004 C 
HETATM    4  C7  UNL     1     -33.698  28.473   1.181  1.00  0.00     0.025 C 
HETATM    5  C8  UNL     1     -32.457  28.808   0.395  1.00  0.00     0.089 C 
HETATM    6  C9  UNL     1     -32.628  28.258  -1.015  1.00  0.00     0.028 C 
HETATM    7  C10 UNL     1     -33.973  28.780  -1.506  1.00  0.00     0.035 C 
HETATM    8  N2  UNL     1     -32.215  30.213   0.302  1.00  0.00    -0.321 N 
HETATM    9  C11 UNL     1     -31.457  30.881   1.296  1.00  0.00     0.363 C 
HETATM   10  O3  UNL     1     -31.009  30.203   2.251  1.00  0.00    -0.238 OA
HETATM   11  C16 UNL     1     -32.782  30.897  -0.847  1.00  0.00     0.159 C 
ENDROOT
BRANCH   1  12
HETATM   12  N1  UNL     1     -34.750  30.931  -2.194  1.00  0.00    -0.326 N 
HETATM   13  C3  UNL     1     -35.320  32.217  -2.097  1.00  0.00     0.361 C 
HETATM   14  O2  UNL     1     -35.343  32.871  -1.023  1.00  0.00    -0.238 OA
ATOM     15  H1  UNL     1     -34.775  30.476  -3.107  1.00  0.00     0.165 HD
BRANCH  13  16
HETATM   16  O1  UNL     1     -35.900  32.829  -3.223  1.00  0.00    -0.304 OA
BRANCH  16  17
HETATM   17  C2  UNL     1     -36.645  34.021  -3.048  1.00  0.00     0.176 C 
HETATM   18  C1  UNL     1     -37.131  34.479  -4.403  1.00  0.00     0.034 C 
ENDBRANCH  16  17
ENDBRANCH  13  16
ENDBRANCH   1  12
BRANCH   9  19
HETATM   19  O4  UNL     1     -31.179  32.228   1.280  1.00  0.00    -0.294 OA
BRANCH  19  20
HETATM   20  C12 UNL     1     -31.999  33.205   1.895  1.00  0.00     0.061 C 
HETATM   21  C13 UNL     1     -32.991  32.581   2.852  1.00  0.00     0.046 C 
HETATM   22  C14 UNL     1     -32.758  34.027   0.893  1.00  0.00     0.046 C 
HETATM   23  C15 UNL     1     -31.117  34.144   2.690  1.00  0.00     0.046 C 
ENDBRANCH  19  20
ENDBRANCH   9  19
TORSDOF 5
ENDMDL
