MODEL 1
REMARK VINA RESULT: -6.830073016      0.000      0.000
REMARK  4 active torsions:
REMARK  status: ('A' for Active; 'I' for Inactive)
REMARK       I    between atoms: N1_2  and  C2_4 
REMARK    1  A    between atoms: C2_4  and  O2_6 
REMARK    2  A    between atoms: O2_6  and  C3_7 
REMARK    3  A    between atoms: C3_7  and  C4_9 
REMARK    4  A    between atoms: C10_16  and  C11_17 
ROOT
HETATM    1  C4  UNL     1     -32.613  33.174   0.187  1.00  0.00     0.091 C 
HETATM    2  C5  UNL     1     -33.159  33.142   1.610  1.00  0.00     0.041 C 
HETATM    3  C6  UNL     1     -32.756  31.847   2.212  1.00  0.00     0.169 C 
HETATM    4  O4  UNL     1     -32.754  30.762   1.449  1.00  0.00    -0.380 OA
HETATM    5  C7  UNL     1     -33.266  30.751   0.210  1.00  0.00     0.061 C 
HETATM    6  C8  UNL     1     -34.694  30.224   0.296  1.00  0.00     0.038 C 
HETATM    7  C9  UNL     1     -34.806  28.824  -0.268  1.00  0.00     0.008 C 
HETATM    8  C10 UNL     1     -34.450  28.901  -1.726  1.00  0.00    -0.007 C 
HETATM    9  C15 UNL     1     -33.045  29.346  -1.872  1.00  0.00     0.008 C 
HETATM   10  C16 UNL     1     -32.387  29.793  -0.605  1.00  0.00     0.038 C 
HETATM   11  C17 UNL     1     -33.308  32.043  -0.536  1.00  0.00     0.052 C 
ENDROOT
BRANCH   1  12
HETATM   12  C3  UNL     1     -33.015  34.478  -0.400  1.00  0.00     0.271 C 
HETATM   13  O3  UNL     1     -32.469  34.955  -1.426  1.00  0.00    -0.264 OA
BRANCH  12  14
HETATM   14  O2  UNL     1     -34.031  35.217   0.188  1.00  0.00    -0.227 OA
BRANCH  14  15
HETATM   15  C2  UNL     1     -35.307  35.314  -0.340  1.00  0.00     0.367 C 
HETATM   16  N1  UNL     1     -35.674  34.676  -1.555  1.00  0.00    -0.341 N 
HETATM   17  C1  UNL     1     -37.014  34.791  -2.091  1.00  0.00     0.151 C 
ATOM     18  H1  UNL     1     -34.980  34.126  -2.060  1.00  0.00     0.164 HD
HETATM   19  O1  UNL     1     -36.181  35.987   0.264  1.00  0.00    -0.238 OA
ENDBRANCH  14  15
ENDBRANCH  12  14
ENDBRANCH   1  12
BRANCH   8  20
HETATM   20  C11 UNL     1     -34.770  27.624  -2.464  1.00  0.00    -0.048 C 
HETATM   21  C12 UNL     1     -34.172  26.424  -1.762  1.00  0.00     0.015 C 
HETATM   22  C13 UNL     1     -36.243  27.378  -2.591  1.00  0.00     0.015 C 
HETATM   23  C14 UNL     1     -34.189  27.639  -3.870  1.00  0.00     0.015 C 
ENDBRANCH   8  20
TORSDOF 4
ENDMDL
MODEL 2
REMARK VINA RESULT: -6.789065946      2.881      3.720
REMARK  4 active torsions:
REMARK  status: ('A' for Active; 'I' for Inactive)
REMARK       I    between atoms: N1_2  and  C2_4 
REMARK    1  A    between atoms: C2_4  and  O2_6 
REMARK    2  A    between atoms: O2_6  and  C3_7 
REMARK    3  A    between atoms: C3_7  and  C4_9 
REMARK    4  A    between atoms: C10_16  and  C11_17 
ROOT
HETATM    1  C4  UNL     1     -31.527  31.545   1.237  1.00  0.00     0.091 C 
HETATM    2  C5  UNL     1     -30.898  30.350   1.945  1.00  0.00     0.041 C 
HETATM    3  C6  UNL     1     -30.701  29.286   0.930  1.00  0.00     0.169 C 
HETATM    4  O4  UNL     1     -31.620  29.123  -0.013  1.00  0.00    -0.380 OA
HETATM    5  C7  UNL     1     -32.801  29.759   0.016  1.00  0.00     0.061 C 
HETATM    6  C8  UNL     1     -33.826  28.822   0.644  1.00  0.00     0.038 C 
HETATM    7  C9  UNL     1     -34.794  28.283  -0.388  1.00  0.00     0.008 C 
HETATM    8  C10 UNL     1     -35.551  29.457  -0.944  1.00  0.00    -0.007 C 
HETATM    9  C15 UNL     1     -34.611  30.375  -1.627  1.00  0.00     0.008 C 
HETATM   10  C16 UNL     1     -33.162  30.050  -1.447  1.00  0.00     0.038 C 
HETATM   11  C17 UNL     1     -32.873  31.058   0.747  1.00  0.00     0.052 C 
ENDROOT
BRANCH   1  12
HETATM   12  C3  UNL     1     -31.711  32.605   2.261  1.00  0.00     0.271 C 
HETATM   13  O3  UNL     1     -32.630  32.565   3.118  1.00  0.00    -0.264 OA
BRANCH  12  14
HETATM   14  O2  UNL     1     -30.849  33.691   2.295  1.00  0.00    -0.227 OA
BRANCH  14  15
HETATM   15  C2  UNL     1     -31.279  35.002   2.392  1.00  0.00     0.367 C 
HETATM   16  N1  UNL     1     -30.789  35.889   3.387  1.00  0.00    -0.341 N 
HETATM   17  C1  UNL     1     -31.252  37.258   3.472  1.00  0.00     0.151 C 
ATOM     18  H1  UNL     1     -30.097  35.554   4.057  1.00  0.00     0.164 HD
HETATM   19  O1  UNL     1     -32.132  35.439   1.578  1.00  0.00    -0.238 OA
ENDBRANCH  14  15
ENDBRANCH  12  14
ENDBRANCH   1  12
BRANCH   8  20
HETATM   20  C11 UNL     1     -36.724  29.034  -1.792  1.00  0.00    -0.048 C 
HETATM   21  C12 UNL     1     -36.465  27.697  -2.454  1.00  0.00     0.015 C 
HETATM   22  C13 UNL     1     -37.994  28.903  -1.007  1.00  0.00     0.015 C 
HETATM   23  C14 UNL     1     -36.983  30.031  -2.912  1.00  0.00     0.015 C 
ENDBRANCH   8  20
TORSDOF 4
ENDMDL
MODEL 3
REMARK VINA RESULT: -6.750095878      2.830      3.561
REMARK  4 active torsions:
REMARK  status: ('A' for Active; 'I' for Inactive)
REMARK       I    between atoms: N1_2  and  C2_4 
REMARK    1  A    between atoms: C2_4  and  O2_6 
REMARK    2  A    between atoms: O2_6  and  C3_7 
REMARK    3  A    between atoms: C3_7  and  C4_9 
REMARK    4  A    between atoms: C10_16  and  C11_17 
ROOT
HETATM    1  C4  UNL     1     -31.866  31.697   1.230  1.00  0.00     0.091 C 
HETATM    2  C5  UNL     1     -31.108  30.755   2.158  1.00  0.00     0.041 C 
HETATM    3  C6  UNL     1     -30.480  29.709   1.313  1.00  0.00     0.169 C 
HETATM    4  O4  UNL     1     -31.148  29.252   0.262  1.00  0.00    -0.380 OA
HETATM    5  C7  UNL     1     -32.432  29.566   0.032  1.00  0.00     0.061 C 
HETATM    6  C8  UNL     1     -33.298  28.443   0.591  1.00  0.00     0.038 C 
HETATM    7  C9  UNL     1     -33.905  27.605  -0.513  1.00  0.00     0.008 C 
HETATM    8  C10 UNL     1     -34.808  28.505  -1.310  1.00  0.00    -0.007 C 
HETATM    9  C15 UNL     1     -34.008  29.583  -1.935  1.00  0.00     0.008 C 
HETATM   10  C16 UNL     1     -32.580  29.653  -1.493  1.00  0.00     0.038 C 
HETATM   11  C17 UNL     1     -32.944  30.850   0.592  1.00  0.00     0.052 C 
ENDROOT
BRANCH   1  12
HETATM   12  C3  UNL     1     -32.481  32.743   2.088  1.00  0.00     0.271 C 
HETATM   13  O3  UNL     1     -33.084  32.473   3.156  1.00  0.00    -0.264 OA
BRANCH  12  14
HETATM   14  O2  UNL     1     -32.400  34.077   1.716  1.00  0.00    -0.227 OA
BRANCH  14  15
HETATM   15  C2  UNL     1     -31.535  34.982   2.305  1.00  0.00     0.367 C 
HETATM   16  N1  UNL     1     -31.215  34.933   3.689  1.00  0.00    -0.341 N 
HETATM   17  C1  UNL     1     -30.307  35.890   4.286  1.00  0.00     0.151 C 
ATOM     18  H1  UNL     1     -31.634  34.210   4.273  1.00  0.00     0.164 HD
HETATM   19  O1  UNL     1     -31.006  35.883   1.607  1.00  0.00    -0.238 OA
ENDBRANCH  14  15
ENDBRANCH  12  14
ENDBRANCH   1  12
BRANCH   8  20
HETATM   20  C11 UNL     1     -35.672  27.739  -2.280  1.00  0.00    -0.048 C 
HETATM   21  C12 UNL     1     -35.367  26.256  -2.229  1.00  0.00     0.015 C 
HETATM   22  C13 UNL     1     -37.137  27.902  -2.010  1.00  0.00     0.015 C 
HETATM   23  C14 UNL     1     -35.422  28.184  -3.713  1.00  0.00     0.015 C 
ENDBRANCH   8  20
TORSDOF 4
ENDMDL
MODEL 4
REMARK VINA RESULT: -6.747060890      2.685      5.442
REMARK  4 active torsions:
REMARK  status: ('A' for Active; 'I' for Inactive)
REMARK       I    between atoms: N1_2  and  C2_4 
REMARK    1  A    between atoms: C2_4  and  O2_6 
REMARK    2  A    between atoms: O2_6  and  C3_7 
REMARK    3  A    between atoms: C3_7  and  C4_9 
REMARK    4  A    between atoms: C10_16  and  C11_17 
ROOT
HETATM    1  C4  UNL     1     -31.952  31.588   1.974  1.00  0.00     0.091 C 
HETATM    2  C5  UNL     1     -31.111  32.853   1.847  1.00  0.00     0.041 C 
HETATM    3  C6  UNL     1     -32.033  34.012   1.951  1.00  0.00     0.169 C 
HETATM    4  O4  UNL     1     -33.235  33.924   1.396  1.00  0.00    -0.380 OA
HETATM    5  C7  UNL     1     -33.586  32.906   0.597  1.00  0.00     0.061 C 
HETATM    6  C8  UNL     1     -33.369  33.344  -0.847  1.00  0.00     0.038 C 
HETATM    7  C9  UNL     1     -34.683  33.597  -1.555  1.00  0.00     0.008 C 
HETATM    8  C10 UNL     1     -35.425  32.290  -1.597  1.00  0.00    -0.007 C 
HETATM    9  C15 UNL     1     -35.723  31.844  -0.216  1.00  0.00     0.008 C 
HETATM   10  C16 UNL     1     -35.075  32.650   0.865  1.00  0.00     0.038 C 
HETATM   11  C17 UNL     1     -32.881  31.603   0.781  1.00  0.00     0.052 C 
ENDROOT
BRANCH   1  12
HETATM   12  C3  UNL     1     -31.017  30.438   1.877  1.00  0.00     0.271 C 
HETATM   13  O3  UNL     1     -29.770  30.583   1.830  1.00  0.00    -0.264 OA
BRANCH  12  14
HETATM   14  O2  UNL     1     -31.515  29.144   1.835  1.00  0.00    -0.227 OA
BRANCH  14  15
HETATM   15  C2  UNL     1     -31.603  28.399   0.672  1.00  0.00     0.367 C 
HETATM   16  N1  UNL     1     -32.850  28.053   0.087  1.00  0.00    -0.341 N 
HETATM   17  C1  UNL     1     -32.921  27.272  -1.130  1.00  0.00     0.151 C 
ATOM     18  H1  UNL     1     -33.714  28.362   0.534  1.00  0.00     0.164 HD
HETATM   19  O1  UNL     1     -30.553  28.006   0.103  1.00  0.00    -0.238 OA
ENDBRANCH  14  15
ENDBRANCH  12  14
ENDBRANCH   1  12
BRANCH   8  20
HETATM   20  C11 UNL     1     -36.632  32.343  -2.500  1.00  0.00    -0.048 C 
HETATM   21  C12 UNL     1     -36.359  33.191  -3.725  1.00  0.00     0.015 C 
HETATM   22  C13 UNL     1     -37.059  30.990  -2.982  1.00  0.00     0.015 C 
HETATM   23  C14 UNL     1     -37.823  32.971  -1.793  1.00  0.00     0.015 C 
ENDBRANCH   8  20
TORSDOF 4
ENDMDL
MODEL 5
REMARK VINA RESULT: -6.736602001      1.461      2.034
REMARK  4 active torsions:
REMARK  status: ('A' for Active; 'I' for Inactive)
REMARK       I    between atoms: N1_2  and  C2_4 
REMARK    1  A    between atoms: C2_4  and  O2_6 
REMARK    2  A    between atoms: O2_6  and  C3_7 
REMARK    3  A    between atoms: C3_7  and  C4_9 
REMARK    4  A    between atoms: C10_16  and  C11_17 
ROOT
HETATM    1  C4  UNL     1     -31.742  31.871   0.964  1.00  0.00     0.091 C 
HETATM    2  C5  UNL     1     -31.364  31.145   2.250  1.00  0.00     0.041 C 
HETATM    3  C6  UNL     1     -30.724  29.863   1.864  1.00  0.00     0.169 C 
HETATM    4  O4  UNL     1     -31.195  29.204   0.814  1.00  0.00    -0.380 OA
HETATM    5  C7  UNL     1     -32.332  29.556   0.194  1.00  0.00     0.061 C 
HETATM    6  C8  UNL     1     -33.459  28.700   0.759  1.00  0.00     0.038 C 
HETATM    7  C9  UNL     1     -33.917  27.656  -0.237  1.00  0.00     0.008 C 
HETATM    8  C10 UNL     1     -34.471  28.387  -1.427  1.00  0.00    -0.007 C 
HETATM    9  C15 UNL     1     -33.399  29.189  -2.060  1.00  0.00     0.008 C 
HETATM   10  C16 UNL     1     -32.115  29.250  -1.293  1.00  0.00     0.038 C 
HETATM   11  C17 UNL     1     -32.761  30.982   0.287  1.00  0.00     0.052 C 
ENDROOT
BRANCH   1  12
HETATM   12  C3  UNL     1     -32.374  33.155   1.364  1.00  0.00     0.271 C 
HETATM   13  O3  UNL     1     -33.040  33.280   2.422  1.00  0.00    -0.264 OA
BRANCH  12  14
HETATM   14  O2  UNL     1     -32.238  34.274   0.555  1.00  0.00    -0.227 OA
BRANCH  14  15
HETATM   15  C2  UNL     1     -33.190  34.668  -0.368  1.00  0.00     0.367 C 
HETATM   16  N1  UNL     1     -34.579  34.452  -0.162  1.00  0.00    -0.341 N 
HETATM   17  C1  UNL     1     -35.560  34.871  -1.141  1.00  0.00     0.151 C 
ATOM     18  H1  UNL     1     -34.891  33.991   0.693  1.00  0.00     0.164 HD
HETATM   19  O1  UNL     1     -32.830  35.237  -1.429  1.00  0.00    -0.238 OA
ENDBRANCH  14  15
ENDBRANCH  12  14
ENDBRANCH   1  12
BRANCH   8  20
HETATM   20  C11 UNL     1     -35.197  27.470  -2.380  1.00  0.00    -0.048 C 
HETATM   21  C12 UNL     1     -34.912  26.017  -2.060  1.00  0.00     0.015 C 
HETATM   22  C13 UNL     1     -36.684  27.650  -2.344  1.00  0.00     0.015 C 
HETATM   23  C14 UNL     1     -34.745  27.695  -3.814  1.00  0.00     0.015 C 
ENDBRANCH   8  20
TORSDOF 4
ENDMDL
