MODEL 1
REMARK VINA RESULT: -7.535203510      0.000      0.000
REMARK  3 active torsions:
REMARK  status: ('A' for Active; 'I' for Inactive)
REMARK    1  A    between atoms: N1_1  and  C1_4 
REMARK    2  A    between atoms: N4_15  and  C8_16 
REMARK    3  A    between atoms: N5_19  and  C11_20 
ROOT
HETATM    1  C1  UNL     1     -31.940  33.026   1.127  1.00  0.00     0.109 A 
HETATM    2  N2  UNL     1     -32.609  33.833   0.287  1.00  0.00    -0.338 N 
ATOM      3  H2  UNL     1     -32.511  34.847   0.336  1.00  0.00     0.168 HD
HETATM    4  C2  UNL     1     -33.416  33.251  -0.625  1.00  0.00     0.183 A 
HETATM    5  N3  UNL     1     -33.557  31.931  -0.704  1.00  0.00    -0.338 N 
ATOM      6  H3  UNL     1     -34.180  31.541  -1.411  1.00  0.00     0.168 HD
HETATM    7  C3  UNL     1     -32.897  31.089   0.126  1.00  0.00     0.114 A 
HETATM    8  C4  UNL     1     -32.068  31.644   1.065  1.00  0.00     0.029 A 
HETATM    9  C5  UNL     1     -31.255  30.834   2.044  1.00  0.00     0.048 C 
HETATM   10  C6  UNL     1     -31.128  29.430   1.553  1.00  0.00     0.025 C 
HETATM   11  C7  UNL     1     -32.463  28.871   1.097  1.00  0.00     0.125 C 
HETATM   12  N4  UNL     1     -33.079  29.688   0.064  1.00  0.00    -0.362 N 
ENDROOT
BRANCH  12  13
HETATM   13  C8  UNL     1     -33.852  29.114  -1.005  1.00  0.00     0.089 C 
HETATM   14  C9  UNL     1     -33.412  27.649  -1.249  1.00  0.00     0.055 C 
HETATM   15  C10 UNL     1     -34.542  26.867  -1.920  1.00  0.00     0.275 C 
HETATM   16  N5  UNL     1     -35.337  27.657  -2.812  1.00  0.00     0.093 N 
HETATM   17  C16 UNL     1     -35.930  28.823  -2.179  1.00  0.00     0.275 C 
HETATM   18  C17 UNL     1     -35.317  29.003  -0.776  1.00  0.00     0.055 C 
BRANCH  16  19
HETATM   19  C11 UNL     1     -36.446  26.857  -3.273  1.00  0.00     0.223 C 
HETATM   20  C12 UNL     1     -36.139  26.219  -4.633  1.00  0.00     0.036 C 
HETATM   21  C13 UNL     1     -37.351  25.303  -4.779  1.00  0.00     0.002 C 
HETATM   22  C14 UNL     1     -37.692  24.874  -3.359  1.00  0.00     0.002 C 
HETATM   23  C15 UNL     1     -36.710  25.634  -2.456  1.00  0.00     0.036 C 
ENDBRANCH  16  19
ENDBRANCH  12  13
BRANCH   1  24
HETATM   24  N1  UNL     1     -31.150  33.498   2.044  1.00  0.00    -0.385 N 
ATOM     25  H12 UNL     1     -31.044  32.937   2.889  1.00  0.00     0.157 HD
ATOM     26  H11 UNL     1     -30.665  34.388   1.929  1.00  0.00     0.157 HD
ENDBRANCH   1  24
TORSDOF 3
ENDMDL
MODEL 2
REMARK VINA RESULT: -7.519076151      2.917      8.571
REMARK  3 active torsions:
REMARK  status: ('A' for Active; 'I' for Inactive)
REMARK    1  A    between atoms: N1_1  and  C1_4 
REMARK    2  A    between atoms: N4_15  and  C8_16 
REMARK    3  A    between atoms: N5_19  and  C11_20 
ROOT
HETATM    1  C1  UNL     1     -33.078  27.911  -0.429  1.00  0.00     0.109 A 
HETATM    2  N2  UNL     1     -31.772  27.647  -0.254  1.00  0.00    -0.338 N 
ATOM      3  H2  UNL     1     -31.379  26.739  -0.500  1.00  0.00     0.168 HD
HETATM    4  C2  UNL     1     -31.001  28.629   0.258  1.00  0.00     0.183 A 
HETATM    5  N3  UNL     1     -31.497  29.820   0.583  1.00  0.00    -0.338 N 
ATOM      6  H3  UNL     1     -30.871  30.528   0.968  1.00  0.00     0.168 HD
HETATM    7  C3  UNL     1     -32.807  30.120   0.419  1.00  0.00     0.114 A 
HETATM    8  C4  UNL     1     -33.620  29.147  -0.099  1.00  0.00     0.029 A 
HETATM    9  C5  UNL     1     -35.094  29.341  -0.356  1.00  0.00     0.048 C 
HETATM   10  C6  UNL     1     -35.408  30.799  -0.409  1.00  0.00     0.025 C 
HETATM   11  C7  UNL     1     -34.778  31.554   0.748  1.00  0.00     0.125 C 
HETATM   12  N4  UNL     1     -33.337  31.373   0.802  1.00  0.00    -0.362 N 
ENDROOT
BRANCH  12  13
HETATM   13  C8  UNL     1     -32.451  32.425   1.226  1.00  0.00     0.089 C 
HETATM   14  C9  UNL     1     -32.774  33.731   0.458  1.00  0.00     0.055 C 
HETATM   15  C10 UNL     1     -32.292  34.943   1.256  1.00  0.00     0.275 C 
HETATM   16  N5  UNL     1     -31.100  34.695   2.013  1.00  0.00     0.093 N 
HETATM   17  C16 UNL     1     -31.225  33.583   2.941  1.00  0.00     0.275 C 
HETATM   18  C17 UNL     1     -32.541  32.831   2.654  1.00  0.00     0.055 C 
BRANCH  16  19
HETATM   19  C11 UNL     1     -30.823  35.853   2.828  1.00  0.00     0.223 C 
HETATM   20  C12 UNL     1     -31.944  36.893   2.708  1.00  0.00     0.036 C 
HETATM   21  C13 UNL     1     -31.508  37.881   3.786  1.00  0.00     0.002 C 
HETATM   22  C14 UNL     1     -30.841  37.028   4.856  1.00  0.00     0.002 C 
HETATM   23  C15 UNL     1     -30.851  35.596   4.299  1.00  0.00     0.036 C 
ENDBRANCH  16  19
ENDBRANCH  12  13
BRANCH   1  24
HETATM   24  N1  UNL     1     -33.897  27.023  -0.906  1.00  0.00    -0.385 N 
ATOM     25  H12 UNL     1     -34.686  27.374  -1.449  1.00  0.00     0.157 HD
ATOM     26  H11 UNL     1     -33.764  26.026  -0.740  1.00  0.00     0.157 HD
ENDBRANCH   1  24
TORSDOF 3
ENDMDL
MODEL 3
REMARK VINA RESULT: -7.432766690      0.807      1.087
REMARK  3 active torsions:
REMARK  status: ('A' for Active; 'I' for Inactive)
REMARK    1  A    between atoms: N1_1  and  C1_4 
REMARK    2  A    between atoms: N4_15  and  C8_16 
REMARK    3  A    between atoms: N5_19  and  C11_20 
ROOT
HETATM    1  C1  UNL     1     -32.260  33.530   1.427  1.00  0.00     0.109 A 
HETATM    2  N2  UNL     1     -33.227  34.180   0.759  1.00  0.00    -0.338 N 
ATOM      3  H2  UNL     1     -33.351  35.187   0.854  1.00  0.00     0.168 HD
HETATM    4  C2  UNL     1     -34.029  33.448  -0.043  1.00  0.00     0.183 A 
HETATM    5  N3  UNL     1     -33.883  32.133  -0.179  1.00  0.00    -0.338 N 
ATOM      6  H3  UNL     1     -34.516  31.626  -0.798  1.00  0.00     0.168 HD
HETATM    7  C3  UNL     1     -32.918  31.448   0.478  1.00  0.00     0.114 A 
HETATM    8  C4  UNL     1     -32.084  32.158   1.301  1.00  0.00     0.029 A 
HETATM    9  C5  UNL     1     -30.954  31.535   2.082  1.00  0.00     0.048 C 
HETATM   10  C6  UNL     1     -30.604  30.209   1.491  1.00  0.00     0.025 C 
HETATM   11  C7  UNL     1     -31.838  29.368   1.226  1.00  0.00     0.125 C 
HETATM   12  N4  UNL     1     -32.790  30.044   0.360  1.00  0.00    -0.362 N 
ENDROOT
BRANCH  12  13
HETATM   13  C8  UNL     1     -33.589  29.332  -0.602  1.00  0.00     0.089 C 
HETATM   14  C9  UNL     1     -32.940  27.962  -0.919  1.00  0.00     0.055 C 
HETATM   15  C10 UNL     1     -33.997  26.988  -1.440  1.00  0.00     0.275 C 
HETATM   16  N5  UNL     1     -35.029  27.618  -2.209  1.00  0.00     0.093 N 
HETATM   17  C16 UNL     1     -35.724  28.672  -1.490  1.00  0.00     0.275 C 
HETATM   18  C17 UNL     1     -34.969  28.973  -0.180  1.00  0.00     0.055 C 
BRANCH  16  19
HETATM   19  C11 UNL     1     -36.035  26.633  -2.525  1.00  0.00     0.223 C 
HETATM   20  C12 UNL     1     -37.446  27.213  -2.358  1.00  0.00     0.036 C 
HETATM   21  C13 UNL     1     -38.275  26.067  -2.930  1.00  0.00     0.002 C 
HETATM   22  C14 UNL     1     -37.405  25.457  -4.020  1.00  0.00     0.002 C 
HETATM   23  C15 UNL     1     -36.079  26.231  -3.963  1.00  0.00     0.036 C 
ENDBRANCH  16  19
ENDBRANCH  12  13
BRANCH   1  24
HETATM   24  N1  UNL     1     -31.448  34.150   2.230  1.00  0.00    -0.385 N 
ATOM     25  H12 UNL     1     -31.585  35.156   2.332  1.00  0.00     0.157 HD
ATOM     26  H11 UNL     1     -30.706  33.659   2.727  1.00  0.00     0.157 HD
ENDBRANCH   1  24
TORSDOF 3
ENDMDL
MODEL 4
REMARK VINA RESULT: -7.033538476      1.460      2.001
REMARK  3 active torsions:
REMARK  status: ('A' for Active; 'I' for Inactive)
REMARK    1  A    between atoms: N1_1  and  C1_4 
REMARK    2  A    between atoms: N4_15  and  C8_16 
REMARK    3  A    between atoms: N5_19  and  C11_20 
ROOT
HETATM    1  C1  UNL     1     -32.001  31.051   1.183  1.00  0.00     0.109 A 
HETATM    2  N2  UNL     1     -32.938  31.992   0.983  1.00  0.00    -0.338 N 
ATOM      3  H2  UNL     1     -32.893  32.893   1.459  1.00  0.00     0.168 HD
HETATM    4  C2  UNL     1     -33.942  31.700   0.130  1.00  0.00     0.183 A 
HETATM    5  N3  UNL     1     -34.017  30.530  -0.499  1.00  0.00    -0.338 N 
ATOM      6  H3  UNL     1     -34.797  30.359  -1.134  1.00  0.00     0.168 HD
HETATM    7  C3  UNL     1     -33.089  29.560  -0.322  1.00  0.00     0.114 A 
HETATM    8  C4  UNL     1     -32.055  29.822   0.538  1.00  0.00     0.029 A 
HETATM    9  C5  UNL     1     -30.939  28.847   0.821  1.00  0.00     0.048 C 
HETATM   10  C6  UNL     1     -30.877  27.823  -0.265  1.00  0.00     0.025 C 
HETATM   11  C7  UNL     1     -32.250  27.263  -0.589  1.00  0.00     0.125 C 
HETATM   12  N4  UNL     1     -33.194  28.304  -0.962  1.00  0.00    -0.362 N 
ENDROOT
BRANCH  12  13
HETATM   13  C8  UNL     1     -34.213  28.091  -1.956  1.00  0.00     0.089 C 
HETATM   14  C9  UNL     1     -33.592  28.157  -3.373  1.00  0.00     0.055 C 
HETATM   15  C10 UNL     1     -34.466  27.389  -4.366  1.00  0.00     0.275 C 
HETATM   16  N5  UNL     1     -35.866  27.451  -4.066  1.00  0.00     0.093 N 
HETATM   17  C16 UNL     1     -36.194  26.970  -2.734  1.00  0.00     0.275 C 
HETATM   18  C17 UNL     1     -34.890  26.767  -1.935  1.00  0.00     0.055 C 
BRANCH  16  19
HETATM   19  C11 UNL     1     -36.571  26.582  -4.977  1.00  0.00     0.223 C 
HETATM   20  C12 UNL     1     -35.600  25.888  -5.941  1.00  0.00     0.036 C 
HETATM   21  C13 UNL     1     -36.554  24.915  -6.628  1.00  0.00     0.002 C 
HETATM   22  C14 UNL     1     -37.575  24.545  -5.561  1.00  0.00     0.002 C 
HETATM   23  C15 UNL     1     -37.206  25.392  -4.333  1.00  0.00     0.036 C 
ENDBRANCH  16  19
ENDBRANCH  12  13
BRANCH   1  24
HETATM   24  N1  UNL     1     -31.004  31.239   1.995  1.00  0.00    -0.385 N 
ATOM     25  H12 UNL     1     -31.117  31.973   2.694  1.00  0.00     0.157 HD
ATOM     26  H11 UNL     1     -30.149  30.687   1.933  1.00  0.00     0.157 HD
ENDBRANCH   1  24
TORSDOF 3
ENDMDL
MODEL 5
REMARK VINA RESULT: -6.985319467      2.281      7.640
REMARK  3 active torsions:
REMARK  status: ('A' for Active; 'I' for Inactive)
REMARK    1  A    between atoms: N1_1  and  C1_4 
REMARK    2  A    between atoms: N4_15  and  C8_16 
REMARK    3  A    between atoms: N5_19  and  C11_20 
ROOT
HETATM    1  C1  UNL     1     -38.619  26.486  -4.448  1.00  0.00     0.109 A 
HETATM    2  N2  UNL     1     -39.453  26.648  -3.407  1.00  0.00    -0.338 N 
ATOM      3  H2  UNL     1     -40.449  26.446  -3.490  1.00  0.00     0.168 HD
HETATM    4  C2  UNL     1     -38.922  27.089  -2.247  1.00  0.00     0.183 A 
HETATM    5  N3  UNL     1     -37.626  27.357  -2.119  1.00  0.00    -0.338 N 
ATOM      6  H3  UNL     1     -37.276  27.689  -1.220  1.00  0.00     0.168 HD
HETATM    7  C3  UNL     1     -36.758  27.204  -3.147  1.00  0.00     0.114 A 
HETATM    8  C4  UNL     1     -37.261  26.758  -4.341  1.00  0.00     0.029 A 
HETATM    9  C5  UNL     1     -36.414  26.521  -5.566  1.00  0.00     0.048 C 
HETATM   10  C6  UNL     1     -34.980  26.393  -5.171  1.00  0.00     0.025 C 
HETATM   11  C7  UNL     1     -34.560  27.492  -4.213  1.00  0.00     0.125 C 
HETATM   12  N4  UNL     1     -35.387  27.527  -3.018  1.00  0.00    -0.362 N 
ENDROOT
BRANCH  12  13
HETATM   13  C8  UNL     1     -34.852  27.873  -1.727  1.00  0.00     0.089 C 
HETATM   14  C9  UNL     1     -33.601  27.012  -1.425  1.00  0.00     0.055 C 
HETATM   15  C10 UNL     1     -32.711  27.720  -0.403  1.00  0.00     0.275 C 
HETATM   16  N5  UNL     1     -33.442  28.492   0.557  1.00  0.00     0.093 N 
HETATM   17  C16 UNL     1     -34.301  29.499  -0.044  1.00  0.00     0.275 C 
HETATM   18  C17 UNL     1     -34.361  29.267  -1.567  1.00  0.00     0.055 C 
BRANCH  16  19
HETATM   19  C11 UNL     1     -32.501  29.221   1.374  1.00  0.00     0.223 C 
HETATM   20  C12 UNL     1     -31.095  29.186   0.761  1.00  0.00     0.036 C 
HETATM   21  C13 UNL     1     -30.377  30.165   1.685  1.00  0.00     0.002 C 
HETATM   22  C14 UNL     1     -31.435  31.186   2.076  1.00  0.00     0.002 C 
HETATM   23  C15 UNL     1     -32.736  30.695   1.424  1.00  0.00     0.036 C 
ENDBRANCH  16  19
ENDBRANCH  12  13
BRANCH   1  24
HETATM   24  N1  UNL     1     -39.042  26.077  -5.605  1.00  0.00    -0.385 N 
ATOM     25  H12 UNL     1     -39.983  26.362  -5.875  1.00  0.00     0.157 HD
ATOM     26  H11 UNL     1     -38.466  25.494  -6.212  1.00  0.00     0.157 HD
ENDBRANCH   1  24
TORSDOF 3
ENDMDL
