MODEL 1
REMARK VINA RESULT: -6.686975312      0.000      0.000
REMARK  2 active torsions:
REMARK  status: ('A' for Active; 'I' for Inactive)
REMARK    1  A    between atoms: C16_20  and  C17_21 
REMARK    2  A    between atoms: C17_21  and  O3_22 
ROOT
HETATM    1  O1  UNL     1     -34.560  32.347   2.061  1.00  0.00    -0.273 OA
HETATM    2  C1  UNL     1     -34.382  31.524   1.164  1.00  0.00     0.227 C 
HETATM    3  N1  UNL     1     -33.372  30.509   1.442  1.00  0.00    -0.329 N 
ATOM      4  H1  UNL     1     -33.036  30.393   2.398  1.00  0.00     0.165 HD
HETATM    5  C2  UNL     1     -32.838  29.669   0.410  1.00  0.00     0.137 C 
HETATM    6  C3  UNL     1     -31.331  29.559   0.690  1.00  0.00     0.061 C 
HETATM    7  C4  UNL     1     -30.651  28.782  -0.413  1.00  0.00     0.005 C 
HETATM    8  C5  UNL     1     -31.184  27.364  -0.355  1.00  0.00     0.000 C 
HETATM    9  C6  UNL     1     -32.673  27.415  -0.520  1.00  0.00     0.005 C 
HETATM   10  C7  UNL     1     -33.358  28.229   0.548  1.00  0.00     0.061 C 
HETATM   11  O2  UNL     1     -33.095  30.060  -0.860  1.00  0.00    -0.355 OA
HETATM   12  C8  UNL     1     -33.783  31.189  -1.084  1.00  0.00     0.138 C 
HETATM   13  C9  UNL     1     -33.041  32.489  -0.893  1.00  0.00     0.033 C 
HETATM   14  C10 UNL     1     -33.847  33.543  -1.541  1.00  0.00     0.008 C 
HETATM   15  C11 UNL     1     -35.326  33.501  -1.416  1.00  0.00    -0.003 C 
HETATM   16  C12 UNL     1     -35.846  33.731  -2.798  1.00  0.00     0.005 C 
HETATM   17  C13 UNL     1     -37.286  33.558  -3.033  1.00  0.00     0.000 C 
HETATM   18  C14 UNL     1     -37.781  32.299  -2.441  1.00  0.00     0.001 C 
HETATM   19  C15 UNL     1     -36.875  31.550  -1.573  1.00  0.00     0.013 C 
HETATM   20  C16 UNL     1     -35.940  32.363  -0.663  1.00  0.00    -0.001 C 
HETATM   21  C18 UNL     1     -34.986  31.354  -0.146  1.00  0.00     0.118 C 
ENDROOT
BRANCH  20  22
HETATM   22  C17 UNL     1     -36.841  32.792   0.472  1.00  0.00     0.175 C 
BRANCH  22  23
HETATM   23  O3  UNL     1     -36.654  34.175   0.768  1.00  0.00    -0.400 OA
ATOM     24  H3  UNL     1     -36.589  34.312   1.705  1.00  0.00     0.209 HD
ENDBRANCH  22  23
ENDBRANCH  20  22
TORSDOF 2
ENDMDL
MODEL 2
REMARK VINA RESULT: -6.235744832      2.898      5.500
REMARK  2 active torsions:
REMARK  status: ('A' for Active; 'I' for Inactive)
REMARK    1  A    between atoms: C16_20  and  C17_21 
REMARK    2  A    between atoms: C17_21  and  O3_22 
ROOT
HETATM    1  O1  UNL     1     -34.258  28.125   0.732  1.00  0.00    -0.273 OA
HETATM    2  C1  UNL     1     -34.308  29.050  -0.078  1.00  0.00     0.227 C 
HETATM    3  N1  UNL     1     -34.146  30.383   0.491  1.00  0.00    -0.329 N 
ATOM      4  H1  UNL     1     -33.794  30.476   1.444  1.00  0.00     0.165 HD
HETATM    5  C2  UNL     1     -34.468  31.567  -0.251  1.00  0.00     0.137 C 
HETATM    6  C3  UNL     1     -35.164  32.513   0.740  1.00  0.00     0.061 C 
HETATM    7  C4  UNL     1     -35.648  33.753   0.025  1.00  0.00     0.005 C 
HETATM    8  C5  UNL     1     -34.419  34.498  -0.460  1.00  0.00     0.000 C 
HETATM    9  C6  UNL     1     -33.639  33.584  -1.356  1.00  0.00     0.005 C 
HETATM   10  C7  UNL     1     -33.193  32.320  -0.666  1.00  0.00     0.061 C 
HETATM   11  O2  UNL     1     -35.196  31.378  -1.376  1.00  0.00    -0.355 OA
HETATM   12  C8  UNL     1     -35.594  30.143  -1.713  1.00  0.00     0.138 C 
HETATM   13  C9  UNL     1     -36.750  29.563  -0.934  1.00  0.00     0.033 C 
HETATM   14  C10 UNL     1     -37.245  28.403  -1.701  1.00  0.00     0.008 C 
HETATM   15  C11 UNL     1     -36.267  27.505  -2.365  1.00  0.00    -0.003 C 
HETATM   16  C12 UNL     1     -36.794  27.302  -3.749  1.00  0.00     0.005 C 
HETATM   17  C13 UNL     1     -35.939  26.604  -4.719  1.00  0.00     0.000 C 
HETATM   18  C14 UNL     1     -34.563  27.138  -4.708  1.00  0.00     0.001 C 
HETATM   19  C15 UNL     1     -34.206  28.081  -3.650  1.00  0.00     0.013 C 
HETATM   20  C16 UNL     1     -34.812  27.841  -2.258  1.00  0.00    -0.001 C 
HETATM   21  C18 UNL     1     -34.501  29.085  -1.518  1.00  0.00     0.118 C 
ENDROOT
BRANCH  20  22
HETATM   22  C17 UNL     1     -33.965  26.725  -1.694  1.00  0.00     0.175 C 
BRANCH  22  23
HETATM   23  O3  UNL     1     -34.692  25.498  -1.677  1.00  0.00    -0.400 OA
ATOM     24  H3  UNL     1     -34.708  25.129  -0.802  1.00  0.00     0.209 HD
ENDBRANCH  22  23
ENDBRANCH  20  22
TORSDOF 2
ENDMDL
MODEL 3
REMARK VINA RESULT: -6.145915175      2.318      5.135
REMARK  2 active torsions:
REMARK  status: ('A' for Active; 'I' for Inactive)
REMARK    1  A    between atoms: C16_20  and  C17_21 
REMARK    2  A    between atoms: C17_21  and  O3_22 
ROOT
HETATM    1  O1  UNL     1     -32.709  29.650  -0.995  1.00  0.00    -0.273 OA
HETATM    2  C1  UNL     1     -33.690  30.088  -0.395  1.00  0.00     0.227 C 
HETATM    3  N1  UNL     1     -34.967  29.491  -0.773  1.00  0.00    -0.329 N 
ATOM      4  H1  UNL     1     -34.969  28.630  -1.320  1.00  0.00     0.165 HD
HETATM    5  C2  UNL     1     -36.219  30.080  -0.396  1.00  0.00     0.137 C 
HETATM    6  C3  UNL     1     -37.136  29.947  -1.622  1.00  0.00     0.061 C 
HETATM    7  C4  UNL     1     -38.452  30.643  -1.365  1.00  0.00     0.005 C 
HETATM    8  C5  UNL     1     -39.147  29.888  -0.249  1.00  0.00     0.000 C 
HETATM    9  C6  UNL     1     -38.250  29.894   0.951  1.00  0.00     0.005 C 
HETATM   10  C7  UNL     1     -36.913  29.245   0.693  1.00  0.00     0.061 C 
HETATM   11  O2  UNL     1     -36.158  31.351   0.063  1.00  0.00    -0.355 OA
HETATM   12  C8  UNL     1     -34.978  31.987   0.111  1.00  0.00     0.138 C 
HETATM   13  C9  UNL     1     -34.422  32.492  -1.198  1.00  0.00     0.033 C 
HETATM   14  C10 UNL     1     -33.354  33.456  -0.868  1.00  0.00     0.008 C 
HETATM   15  C11 UNL     1     -32.443  33.163   0.268  1.00  0.00    -0.003 C 
HETATM   16  C12 UNL     1     -32.373  34.432   1.054  1.00  0.00     0.005 C 
HETATM   17  C13 UNL     1     -31.690  34.403   2.356  1.00  0.00     0.000 C 
HETATM   18  C14 UNL     1     -32.131  33.253   3.169  1.00  0.00     0.001 C 
HETATM   19  C15 UNL     1     -32.972  32.244   2.527  1.00  0.00     0.013 C 
HETATM   20  C16 UNL     1     -32.674  31.913   1.056  1.00  0.00    -0.001 C 
HETATM   21  C18 UNL     1     -33.840  31.102   0.634  1.00  0.00     0.118 C 
ENDROOT
BRANCH  20  22
HETATM   22  C17 UNL     1     -31.468  31.007   1.137  1.00  0.00     0.175 C 
BRANCH  22  23
HETATM   23  O3  UNL     1     -31.705  29.932   2.044  1.00  0.00    -0.400 OA
ATOM     24  H3  UNL     1     -32.312  30.195   2.725  1.00  0.00     0.209 HD
ENDBRANCH  22  23
ENDBRANCH  20  22
TORSDOF 2
ENDMDL
MODEL 4
REMARK VINA RESULT: -6.141248315      2.188      6.057
REMARK  2 active torsions:
REMARK  status: ('A' for Active; 'I' for Inactive)
REMARK    1  A    between atoms: C16_20  and  C17_21 
REMARK    2  A    between atoms: C17_21  and  O3_22 
ROOT
HETATM    1  O1  UNL     1     -35.309  32.344  -2.552  1.00  0.00    -0.273 OA
HETATM    2  C1  UNL     1     -35.802  32.276  -1.427  1.00  0.00     0.227 C 
HETATM    3  N1  UNL     1     -36.989  33.099  -1.217  1.00  0.00    -0.329 N 
ATOM      4  H1  UNL     1     -37.465  33.497  -2.027  1.00  0.00     0.165 HD
HETATM    5  C2  UNL     1     -37.505  33.362   0.094  1.00  0.00     0.137 C 
HETATM    6  C3  UNL     1     -37.923  34.841   0.096  1.00  0.00     0.061 C 
HETATM    7  C4  UNL     1     -38.379  35.252   1.476  1.00  0.00     0.005 C 
HETATM    8  C5  UNL     1     -39.641  34.469   1.782  1.00  0.00     0.000 C 
HETATM    9  C6  UNL     1     -39.319  33.008   1.693  1.00  0.00     0.005 C 
HETATM   10  C7  UNL     1     -38.816  32.595   0.333  1.00  0.00     0.061 C 
HETATM   11  O2  UNL     1     -36.681  33.062   1.124  1.00  0.00    -0.355 OA
HETATM   12  C8  UNL     1     -35.454  32.581   0.877  1.00  0.00     0.138 C 
HETATM   13  C9  UNL     1     -34.415  33.570   0.407  1.00  0.00     0.033 C 
HETATM   14  C10 UNL     1     -33.100  32.919   0.564  1.00  0.00     0.008 C 
HETATM   15  C11 UNL     1     -32.963  31.478   0.233  1.00  0.00    -0.003 C 
HETATM   16  C12 UNL     1     -32.212  30.880   1.378  1.00  0.00     0.005 C 
HETATM   17  C13 UNL     1     -32.082  29.417   1.433  1.00  0.00     0.000 C 
HETATM   18  C14 UNL     1     -33.379  28.753   1.194  1.00  0.00     0.001 C 
HETATM   19  C15 UNL     1     -34.499  29.580   0.751  1.00  0.00     0.013 C 
HETATM   20  C16 UNL     1     -34.183  30.736  -0.213  1.00  0.00    -0.001 C 
HETATM   21  C18 UNL     1     -35.435  31.527  -0.237  1.00  0.00     0.118 C 
ENDROOT
BRANCH  20  22
HETATM   22  C17 UNL     1     -34.029  30.046  -1.548  1.00  0.00     0.175 C 
BRANCH  22  23
HETATM   23  O3  UNL     1     -32.988  30.653  -2.311  1.00  0.00    -0.400 OA
ATOM     24  H3  UNL     1     -33.325  30.988  -3.133  1.00  0.00     0.209 HD
ENDBRANCH  22  23
ENDBRANCH  20  22
TORSDOF 2
ENDMDL
MODEL 5
REMARK VINA RESULT: -6.127153968      2.018      5.783
REMARK  2 active torsions:
REMARK  status: ('A' for Active; 'I' for Inactive)
REMARK    1  A    between atoms: C16_20  and  C17_21 
REMARK    2  A    between atoms: C17_21  and  O3_22 
ROOT
HETATM    1  O1  UNL     1     -36.411  29.330   0.424  1.00  0.00    -0.273 OA
HETATM    2  C1  UNL     1     -35.916  30.361  -0.029  1.00  0.00     0.227 C 
HETATM    3  N1  UNL     1     -36.796  31.151  -0.883  1.00  0.00    -0.329 N 
ATOM      4  H1  UNL     1     -37.796  30.948  -0.886  1.00  0.00     0.165 HD
HETATM    5  C2  UNL     1     -36.296  32.206  -1.716  1.00  0.00     0.137 C 
HETATM    6  C3  UNL     1     -37.055  32.089  -3.047  1.00  0.00     0.061 C 
HETATM    7  C4  UNL     1     -36.518  33.091  -4.042  1.00  0.00     0.005 C 
HETATM    8  C5  UNL     1     -36.842  34.472  -3.505  1.00  0.00     0.000 C 
HETATM    9  C6  UNL     1     -36.211  34.609  -2.152  1.00  0.00     0.005 C 
HETATM   10  C7  UNL     1     -36.703  33.582  -1.164  1.00  0.00     0.061 C 
HETATM   11  O2  UNL     1     -34.955  32.233  -1.891  1.00  0.00    -0.355 OA
HETATM   12  C8  UNL     1     -34.189  31.289  -1.325  1.00  0.00     0.138 C 
HETATM   13  C9  UNL     1     -34.191  29.928  -1.978  1.00  0.00     0.033 C 
HETATM   14  C10 UNL     1     -33.030  29.192  -1.438  1.00  0.00     0.008 C 
HETATM   15  C11 UNL     1     -32.692  29.331   0.002  1.00  0.00    -0.003 C 
HETATM   16  C12 UNL     1     -31.217  29.569   0.039  1.00  0.00     0.005 C 
HETATM   17  C13 UNL     1     -30.608  29.935   1.326  1.00  0.00     0.000 C 
HETATM   18  C14 UNL     1     -31.374  31.002   1.999  1.00  0.00     0.001 C 
HETATM   19  C15 UNL     1     -32.669  31.375   1.434  1.00  0.00     0.013 C 
HETATM   20  C16 UNL     1     -33.528  30.247   0.839  1.00  0.00    -0.001 C 
HETATM   21  C18 UNL     1     -34.602  30.965   0.116  1.00  0.00     0.118 C 
ENDROOT
BRANCH  20  22
HETATM   22  C17 UNL     1     -34.131  29.586   2.056  1.00  0.00     0.175 C 
BRANCH  22  23
HETATM   23  O3  UNL     1     -34.211  28.174   1.876  1.00  0.00    -0.400 OA
ATOM     24  H3  UNL     1     -34.839  27.793   2.478  1.00  0.00     0.209 HD
ENDBRANCH  22  23
ENDBRANCH  20  22
TORSDOF 2
ENDMDL
