MODEL 1
REMARK VINA RESULT: -6.617926727      0.000      0.000
REMARK  4 active torsions:
REMARK  status: ('A' for Active; 'I' for Inactive)
REMARK    1  A    between atoms: O1_2  and  C2_3 
REMARK    2  A    between atoms: C15_16  and  O2_17 
REMARK    3  A    between atoms: C17_20  and  C19_22 
REMARK    4  A    between atoms: C19_22  and  O3_23 
ROOT
HETATM    1  C2  UNL     1     -35.041  31.492  -0.775  1.00  0.00     0.128 C 
HETATM    2  C3  UNL     1     -34.875  33.033  -0.691  1.00  0.00     0.038 C 
HETATM    3  C4  UNL     1     -33.984  33.436   0.425  1.00  0.00     0.004 C 
HETATM    4  C5  UNL     1     -33.304  34.738  -0.002  1.00  0.00    -0.043 C 
HETATM    5  C6  UNL     1     -32.491  34.668  -1.225  1.00  0.00     0.015 C 
HETATM    6  C7  UNL     1     -34.479  35.686  -0.315  1.00  0.00     0.015 C 
HETATM    7  C8  UNL     1     -32.575  35.375   1.156  1.00  0.00     0.009 C 
HETATM    8  C9  UNL     1     -31.770  34.390   1.937  1.00  0.00     0.002 C 
HETATM    9  C10 UNL     1     -31.690  33.027   1.369  1.00  0.00     0.010 C 
HETATM   10  C11 UNL     1     -33.053  32.410   0.985  1.00  0.00    -0.035 C 
HETATM   11  C12 UNL     1     -33.589  32.102   2.402  1.00  0.00     0.016 C 
HETATM   12  C13 UNL     1     -32.772  31.224   0.174  1.00  0.00     0.013 C 
HETATM   13  C14 UNL     1     -33.669  31.036  -1.062  1.00  0.00     0.049 C 
HETATM   14  C15 UNL     1     -33.454  29.664  -1.557  1.00  0.00     0.126 C 
HETATM   15  C16 UNL     1     -32.428  29.084  -0.592  1.00  0.00     0.044 C 
HETATM   16  C17 UNL     1     -32.646  29.881   0.724  1.00  0.00    -0.015 C 
HETATM   17  C18 UNL     1     -31.349  29.630   1.500  1.00  0.00     0.018 C 
ENDROOT
BRANCH  16  18
HETATM   18  C19 UNL     1     -33.724  29.151   1.374  1.00  0.00     0.173 C 
BRANCH  18  19
HETATM   19  O3  UNL     1     -33.706  27.840   0.809  1.00  0.00    -0.400 OA
ATOM     20  H3  UNL     1     -34.141  27.279   1.439  1.00  0.00     0.209 HD
ENDBRANCH  18  19
ENDBRANCH  16  18
BRANCH  14  21
HETATM   21  O2  UNL     1     -34.553  28.867  -1.710  1.00  0.00    -0.395 OA
ATOM     22  H2  UNL     1     -34.414  27.928  -1.757  1.00  0.00     0.210 HD
ENDBRANCH  14  21
BRANCH   1  23
HETATM   23  O1  UNL     1     -35.986  31.143  -1.677  1.00  0.00    -0.390 OA
HETATM   24  C1  UNL     1     -36.409  32.111  -2.542  1.00  0.00     0.202 C 
ENDBRANCH   1  23
TORSDOF 4
ENDMDL
MODEL 2
REMARK VINA RESULT: -6.435632820      2.460      5.679
REMARK  4 active torsions:
REMARK  status: ('A' for Active; 'I' for Inactive)
REMARK    1  A    between atoms: O1_2  and  C2_3 
REMARK    2  A    between atoms: C15_16  and  O2_17 
REMARK    3  A    between atoms: C17_20  and  C19_22 
REMARK    4  A    between atoms: C19_22  and  O3_23 
ROOT
HETATM    1  C2  UNL     1     -33.515  32.863   1.448  1.00  0.00     0.128 C 
HETATM    2  C3  UNL     1     -33.418  31.317   1.354  1.00  0.00     0.038 C 
HETATM    3  C4  UNL     1     -34.498  30.742   0.513  1.00  0.00     0.004 C 
HETATM    4  C5  UNL     1     -33.934  29.469  -0.121  1.00  0.00    -0.043 C 
HETATM    5  C6  UNL     1     -32.747  29.645  -0.971  1.00  0.00     0.015 C 
HETATM    6  C7  UNL     1     -33.483  28.623   1.087  1.00  0.00     0.015 C 
HETATM    7  C8  UNL     1     -35.025  28.666  -0.787  1.00  0.00     0.009 C 
HETATM    8  C9  UNL     1     -35.936  29.512  -1.612  1.00  0.00     0.002 C 
HETATM    9  C10 UNL     1     -35.537  30.927  -1.768  1.00  0.00     0.010 C 
HETATM   10  C11 UNL     1     -35.198  31.649  -0.446  1.00  0.00    -0.035 C 
HETATM   11  C12 UNL     1     -36.629  31.813   0.117  1.00  0.00     0.016 C 
HETATM   12  C13 UNL     1     -34.541  32.908  -0.803  1.00  0.00     0.013 C 
HETATM   13  C14 UNL     1     -33.316  33.284   0.050  1.00  0.00     0.049 C 
HETATM   14  C15 UNL     1     -32.994  34.694  -0.240  1.00  0.00     0.126 C 
HETATM   15  C16 UNL     1     -34.046  35.106  -1.263  1.00  0.00     0.044 C 
HETATM   16  C17 UNL     1     -35.251  34.170  -0.972  1.00  0.00    -0.015 C 
HETATM   17  C18 UNL     1     -36.081  34.266  -2.256  1.00  0.00     0.018 C 
ENDROOT
BRANCH  16  18
HETATM   18  C19 UNL     1     -35.959  34.867   0.091  1.00  0.00     0.173 C 
BRANCH  18  19
HETATM   19  O3  UNL     1     -35.797  36.260  -0.180  1.00  0.00    -0.400 OA
ATOM     20  H3  UNL     1     -34.883  36.377  -0.409  1.00  0.00     0.209 HD
ENDBRANCH  18  19
ENDBRANCH  16  18
BRANCH  14  21
HETATM   21  O2  UNL     1     -32.913  35.554   0.818  1.00  0.00    -0.395 OA
ATOM     22  H2  UNL     1     -32.375  35.293   1.557  1.00  0.00     0.210 HD
ENDBRANCH  14  21
BRANCH   1  23
HETATM   23  O1  UNL     1     -32.640  33.361   2.350  1.00  0.00    -0.390 OA
HETATM   24  C1  UNL     1     -31.436  32.726   2.467  1.00  0.00     0.202 C 
ENDBRANCH   1  23
TORSDOF 4
ENDMDL
MODEL 3
REMARK VINA RESULT: -6.430533430      1.684      4.451
REMARK  4 active torsions:
REMARK  status: ('A' for Active; 'I' for Inactive)
REMARK    1  A    between atoms: O1_2  and  C2_3 
REMARK    2  A    between atoms: C15_16  and  O2_17 
REMARK    3  A    between atoms: C17_20  and  C19_22 
REMARK    4  A    between atoms: C19_22  and  O3_23 
ROOT
HETATM    1  C2  UNL     1     -34.042  29.669  -1.896  1.00  0.00     0.128 C 
HETATM    2  C3  UNL     1     -32.931  29.401  -0.846  1.00  0.00     0.038 C 
HETATM    3  C4  UNL     1     -32.631  30.606  -0.034  1.00  0.00     0.004 C 
HETATM    4  C5  UNL     1     -32.173  30.111   1.340  1.00  0.00    -0.043 C 
HETATM    5  C6  UNL     1     -33.144  29.296   2.085  1.00  0.00     0.015 C 
HETATM    6  C7  UNL     1     -30.981  29.186   1.022  1.00  0.00     0.015 C 
HETATM    7  C8  UNL     1     -31.595  31.240   2.159  1.00  0.00     0.009 C 
HETATM    8  C9  UNL     1     -32.434  32.473   2.105  1.00  0.00     0.002 C 
HETATM    9  C10 UNL     1     -33.734  32.340   1.414  1.00  0.00     0.010 C 
HETATM   10  C11 UNL     1     -33.655  31.693   0.014  1.00  0.00    -0.035 C 
HETATM   11  C12 UNL     1     -33.033  32.875  -0.766  1.00  0.00     0.016 C 
HETATM   12  C13 UNL     1     -35.025  31.362  -0.382  1.00  0.00     0.013 C 
HETATM   13  C14 UNL     1     -35.209  29.989  -1.054  1.00  0.00     0.049 C 
HETATM   14  C15 UNL     1     -36.556  29.971  -1.654  1.00  0.00     0.126 C 
HETATM   15  C16 UNL     1     -37.128  31.341  -1.311  1.00  0.00     0.044 C 
HETATM   16  C17 UNL     1     -35.878  32.251  -1.160  1.00  0.00    -0.015 C 
HETATM   17  C18 UNL     1     -36.418  33.455  -0.383  1.00  0.00     0.018 C 
ENDROOT
BRANCH  16  18
HETATM   18  C19 UNL     1     -35.608  32.666  -2.529  1.00  0.00     0.173 C 
BRANCH  18  19
HETATM   19  O3  UNL     1     -35.727  34.089  -2.537  1.00  0.00    -0.400 OA
ATOM     20  H3  UNL     1     -34.860  34.422  -2.734  1.00  0.00     0.209 HD
ENDBRANCH  18  19
ENDBRANCH  16  18
BRANCH  14  21
HETATM   21  O2  UNL     1     -36.654  29.669  -2.983  1.00  0.00    -0.395 OA
ATOM     22  H2  UNL     1     -37.516  29.700  -3.379  1.00  0.00     0.210 HD
ENDBRANCH  14  21
BRANCH   1  23
HETATM   23  O1  UNL     1     -34.187  28.625  -2.743  1.00  0.00    -0.390 OA
HETATM   24  C1  UNL     1     -33.855  27.388  -2.269  1.00  0.00     0.202 C 
ENDBRANCH   1  23
TORSDOF 4
ENDMDL
MODEL 4
REMARK VINA RESULT: -6.379343768      2.154      4.345
REMARK  4 active torsions:
REMARK  status: ('A' for Active; 'I' for Inactive)
REMARK    1  A    between atoms: O1_2  and  C2_3 
REMARK    2  A    between atoms: C15_16  and  O2_17 
REMARK    3  A    between atoms: C17_20  and  C19_22 
REMARK    4  A    between atoms: C19_22  and  O3_23 
ROOT
HETATM    1  C2  UNL     1     -33.127  32.927  -0.875  1.00  0.00     0.128 C 
HETATM    2  C3  UNL     1     -34.435  33.020  -1.706  1.00  0.00     0.038 C 
HETATM    3  C4  UNL     1     -35.098  31.700  -1.848  1.00  0.00     0.004 C 
HETATM    4  C5  UNL     1     -36.600  31.969  -1.962  1.00  0.00    -0.043 C 
HETATM    5  C6  UNL     1     -37.217  32.662  -0.822  1.00  0.00     0.015 C 
HETATM    6  C7  UNL     1     -36.714  32.925  -3.167  1.00  0.00     0.015 C 
HETATM    7  C8  UNL     1     -37.346  30.722  -2.371  1.00  0.00     0.009 C 
HETATM    8  C9  UNL     1     -36.909  29.518  -1.604  1.00  0.00     0.002 C 
HETATM    9  C10 UNL     1     -35.964  29.766  -0.495  1.00  0.00     0.010 C 
HETATM   10  C11 UNL     1     -34.738  30.626  -0.874  1.00  0.00    -0.035 C 
HETATM   11  C12 UNL     1     -33.950  29.577  -1.695  1.00  0.00     0.016 C 
HETATM   12  C13 UNL     1     -34.091  31.024   0.377  1.00  0.00     0.013 C 
HETATM   13  C14 UNL     1     -33.615  32.486   0.444  1.00  0.00     0.049 C 
HETATM   14  C15 UNL     1     -32.730  32.608   1.617  1.00  0.00     0.126 C 
HETATM   15  C16 UNL     1     -32.715  31.204   2.210  1.00  0.00     0.044 C 
HETATM   16  C17 UNL     1     -33.009  30.274   1.001  1.00  0.00    -0.015 C 
HETATM   17  C18 UNL     1     -33.443  28.965   1.669  1.00  0.00     0.018 C 
ENDROOT
BRANCH  16  18
HETATM   18  C19 UNL     1     -31.693  30.078   0.411  1.00  0.00     0.173 C 
BRANCH  18  19
HETATM   19  O3  UNL     1     -30.782  29.989   1.506  1.00  0.00    -0.400 OA
ATOM     20  H3  UNL     1     -30.727  29.066   1.725  1.00  0.00     0.209 HD
ENDBRANCH  18  19
ENDBRANCH  16  18
BRANCH  14  21
HETATM   21  O2  UNL     1     -31.478  33.116   1.415  1.00  0.00    -0.395 OA
ATOM     22  H2  UNL     1     -30.898  32.639   0.833  1.00  0.00     0.210 HD
ENDBRANCH  14  21
BRANCH   1  23
HETATM   23  O1  UNL     1     -32.442  34.093  -0.897  1.00  0.00    -0.390 OA
HETATM   24  C1  UNL     1     -33.174  35.245  -0.956  1.00  0.00     0.202 C 
ENDBRANCH   1  23
TORSDOF 4
ENDMDL
MODEL 5
REMARK VINA RESULT: -6.360525764      2.114      5.330
REMARK  4 active torsions:
REMARK  status: ('A' for Active; 'I' for Inactive)
REMARK    1  A    between atoms: O1_2  and  C2_3 
REMARK    2  A    between atoms: C15_16  and  O2_17 
REMARK    3  A    between atoms: C17_20  and  C19_22 
REMARK    4  A    between atoms: C19_22  and  O3_23 
ROOT
HETATM    1  C2  UNL     1     -33.120  32.097   1.500  1.00  0.00     0.128 C 
HETATM    2  C3  UNL     1     -32.168  30.873   1.563  1.00  0.00     0.038 C 
HETATM    3  C4  UNL     1     -32.762  29.672   0.926  1.00  0.00     0.004 C 
HETATM    4  C5  UNL     1     -31.601  28.845   0.371  1.00  0.00    -0.043 C 
HETATM    5  C6  UNL     1     -30.756  29.513  -0.630  1.00  0.00     0.015 C 
HETATM    6  C7  UNL     1     -30.704  28.594   1.600  1.00  0.00     0.015 C 
HETATM    7  C8  UNL     1     -32.069  27.478  -0.067  1.00  0.00     0.009 C 
HETATM    8  C9  UNL     1     -33.330  27.533  -0.865  1.00  0.00     0.002 C 
HETATM    9  C10 UNL     1     -33.809  28.886  -1.220  1.00  0.00     0.010 C 
HETATM   10  C11 UNL     1     -33.889  29.873  -0.035  1.00  0.00    -0.035 C 
HETATM   11  C12 UNL     1     -35.138  29.300   0.675  1.00  0.00     0.016 C 
HETATM   12  C13 UNL     1     -34.076  31.209  -0.603  1.00  0.00     0.013 C 
HETATM   13  C14 UNL     1     -33.247  32.330   0.050  1.00  0.00     0.049 C 
HETATM   14  C15 UNL     1     -33.793  33.614  -0.428  1.00  0.00     0.126 C 
HETATM   15  C16 UNL     1     -34.930  33.206  -1.355  1.00  0.00     0.044 C 
HETATM   16  C17 UNL     1     -35.381  31.818  -0.822  1.00  0.00    -0.015 C 
HETATM   17  C18 UNL     1     -36.167  31.233  -1.999  1.00  0.00     0.018 C 
ENDROOT
BRANCH  16  18
HETATM   18  C19 UNL     1     -36.319  32.163   0.237  1.00  0.00     0.173 C 
BRANCH  18  19
HETATM   19  O3  UNL     1     -37.016  33.322  -0.221  1.00  0.00    -0.400 OA
ATOM     20  H3  UNL     1     -37.820  33.358   0.284  1.00  0.00     0.209 HD
ENDBRANCH  18  19
ENDBRANCH  16  18
BRANCH  14  21
HETATM   21  O2  UNL     1     -34.173  34.529   0.513  1.00  0.00    -0.395 OA
ATOM     22  H2  UNL     1     -34.050  34.299   1.426  1.00  0.00     0.210 HD
ENDBRANCH  14  21
BRANCH   1  23
HETATM   23  O1  UNL     1     -32.647  33.131   2.230  1.00  0.00    -0.390 OA
HETATM   24  C1  UNL     1     -31.291  33.276   2.301  1.00  0.00     0.202 C 
ENDBRANCH   1  23
TORSDOF 4
ENDMDL
