MODEL 1
REMARK VINA RESULT: -7.863598233      0.000      0.000
REMARK  4 active torsions:
REMARK  status: ('A' for Active; 'I' for Inactive)
REMARK    1  A    between atoms: C6_6  and  N1_7 
REMARK    2  A    between atoms: N1_7  and  C7_9 
REMARK    3  A    between atoms: C9_15  and  N4_16 
REMARK    4  A    between atoms: N4_16  and  N5_18 
ROOT
HETATM    1  C7  UNL     1     -32.942  31.815   0.285  1.00  0.00     0.693 A 
HETATM    2  N2  UNL     1     -34.200  32.166  -0.049  1.00  0.00    -0.187 N 
ATOM      3  H2  UNL     1     -34.836  31.457  -0.415  1.00  0.00     0.185 HD
HETATM    4  C8  UNL     1     -34.634  33.431   0.091  1.00  0.00     0.215 A 
HETATM    5  N3  UNL     1     -33.836  34.402   0.568  1.00  0.00    -0.185 N 
ATOM      6  H3  UNL     1     -34.174  35.360   0.671  1.00  0.00     0.185 HD
HETATM    7  C9  UNL     1     -32.577  34.067   0.904  1.00  0.00     0.712 A 
HETATM    8  N6  UNL     1     -32.155  32.798   0.761  1.00  0.00    -0.021 N 
ATOM      9  H6  UNL     1     -31.197  32.572   1.024  1.00  0.00     0.203 HD
ENDROOT
BRANCH   7  10
HETATM   10  N4  UNL     1     -31.779  34.990   1.370  1.00  0.00    -0.132 N 
ATOM     11  H4  UNL     1     -31.487  35.760   0.770  1.00  0.00     0.205 HD
BRANCH  10  12
HETATM   12  N5  UNL     1     -31.326  34.923   2.683  1.00  0.00    -0.295 N 
HETATM   13  C10 UNL     1     -31.117  35.996   3.376  1.00  0.00     0.004 C 
HETATM   14  C11 UNL     1     -31.366  37.312   2.756  1.00  0.00     0.054 C 
HETATM   15  C15 UNL     1     -30.634  35.815   4.768  1.00  0.00     0.054 C 
HETATM   16  C12 UNL     1     -31.843  38.352   3.717  1.00  0.00     0.006 C 
HETATM   17  C13 UNL     1     -31.621  38.004   5.157  1.00  0.00     0.001 C 
HETATM   18  C14 UNL     1     -30.345  37.203   5.315  1.00  0.00     0.006 C 
ATOM     19  H5  UNL     1     -31.154  34.012   3.108  1.00  0.00     0.186 HD
ENDBRANCH  10  12
ENDBRANCH   7  10
BRANCH   1  20
HETATM   20  N1  UNL     1     -32.485  30.613   0.166  1.00  0.00    -0.221 N 
ATOM     21  H1  UNL     1     -32.249  30.223  -0.746  1.00  0.00     0.178 HD
BRANCH  20  22
HETATM   22  C6  UNL     1     -32.323  29.841   1.381  1.00  0.00     0.099 C 
HETATM   23  C5  UNL     1     -33.541  28.944   1.597  1.00  0.00     0.026 C 
HETATM   24  C4  UNL     1     -33.858  28.318   0.267  1.00  0.00     0.002 C 
HETATM   25  C3  UNL     1     -32.660  27.871  -0.503  1.00  0.00     0.004 C 
HETATM   26  C2  UNL     1     -31.389  27.794   0.271  1.00  0.00    -0.017 C 
HETATM   27  C1  UNL     1     -30.226  27.808  -0.726  1.00  0.00     0.010 C 
HETATM   28  C16 UNL     1     -31.158  28.879   1.247  1.00  0.00     0.030 C 
ENDBRANCH  20  22
ENDBRANCH   1  20
TORSDOF 4
ENDMDL
MODEL 2
REMARK VINA RESULT: -7.794990036      0.791      1.300
REMARK  4 active torsions:
REMARK  status: ('A' for Active; 'I' for Inactive)
REMARK    1  A    between atoms: C6_6  and  N1_7 
REMARK    2  A    between atoms: N1_7  and  C7_9 
REMARK    3  A    between atoms: C9_15  and  N4_16 
REMARK    4  A    between atoms: N4_16  and  N5_18 
ROOT
HETATM    1  C7  UNL     1     -33.343  32.309  -0.064  1.00  0.00     0.693 A 
HETATM    2  N2  UNL     1     -34.522  32.838  -0.448  1.00  0.00    -0.187 N 
ATOM      3  H2  UNL     1     -35.240  32.227  -0.839  1.00  0.00     0.185 HD
HETATM    4  C8  UNL     1     -34.771  34.154  -0.327  1.00  0.00     0.215 A 
HETATM    5  N3  UNL     1     -33.860  35.001   0.181  1.00  0.00    -0.185 N 
ATOM      6  H3  UNL     1     -34.058  35.998   0.270  1.00  0.00     0.185 HD
HETATM    7  C9  UNL     1     -32.678  34.488   0.569  1.00  0.00     0.712 A 
HETATM    8  N6  UNL     1     -32.441  33.170   0.443  1.00  0.00    -0.021 N 
ATOM      9  H6  UNL     1     -31.537  32.808   0.745  1.00  0.00     0.203 HD
ENDROOT
BRANCH   7  10
HETATM   10  N4  UNL     1     -31.773  35.287   1.066  1.00  0.00    -0.132 N 
ATOM     11  H4  UNL     1     -31.431  36.074   0.515  1.00  0.00     0.205 HD
BRANCH  10  12
HETATM   12  N5  UNL     1     -31.273  35.066   2.345  1.00  0.00    -0.295 N 
HETATM   13  C10 UNL     1     -31.082  36.046   3.169  1.00  0.00     0.004 C 
HETATM   14  C11 UNL     1     -31.401  37.421   2.737  1.00  0.00     0.054 C 
HETATM   15  C15 UNL     1     -30.546  35.703   4.509  1.00  0.00     0.054 C 
HETATM   16  C12 UNL     1     -31.883  38.304   3.841  1.00  0.00     0.006 C 
HETATM   17  C13 UNL     1     -31.600  37.779   5.215  1.00  0.00     0.001 C 
HETATM   18  C14 UNL     1     -30.291  37.017   5.229  1.00  0.00     0.006 C 
ATOM     19  H5  UNL     1     -31.053  34.115   2.640  1.00  0.00     0.186 HD
ENDBRANCH  10  12
ENDBRANCH   7  10
BRANCH   1  20
HETATM   20  N1  UNL     1     -33.063  31.053  -0.163  1.00  0.00    -0.221 N 
ATOM     21  H1  UNL     1     -32.609  30.675  -0.994  1.00  0.00     0.178 HD
BRANCH  20  22
HETATM   22  C6  UNL     1     -33.421  30.202   0.954  1.00  0.00     0.099 C 
HETATM   23  C5  UNL     1     -33.499  28.746   0.497  1.00  0.00     0.026 C 
HETATM   24  C4  UNL     1     -32.293  28.498  -0.366  1.00  0.00     0.002 C 
HETATM   25  C3  UNL     1     -31.033  29.109   0.148  1.00  0.00     0.004 C 
HETATM   26  C2  UNL     1     -31.071  29.567   1.566  1.00  0.00    -0.017 C 
HETATM   27  C1  UNL     1     -29.932  30.571   1.770  1.00  0.00     0.010 C 
HETATM   28  C16 UNL     1     -32.326  30.215   2.003  1.00  0.00     0.030 C 
ENDBRANCH  20  22
ENDBRANCH   1  20
TORSDOF 4
ENDMDL
MODEL 3
REMARK VINA RESULT: -7.791191332      0.489      1.176
REMARK  4 active torsions:
REMARK  status: ('A' for Active; 'I' for Inactive)
REMARK    1  A    between atoms: C6_6  and  N1_7 
REMARK    2  A    between atoms: N1_7  and  C7_9 
REMARK    3  A    between atoms: C9_15  and  N4_16 
REMARK    4  A    between atoms: N4_16  and  N5_18 
ROOT
HETATM    1  C7  UNL     1     -32.896  31.875   0.294  1.00  0.00     0.693 A 
HETATM    2  N2  UNL     1     -34.045  32.397  -0.182  1.00  0.00    -0.187 N 
ATOM      3  H2  UNL     1     -34.703  31.792  -0.673  1.00  0.00     0.185 HD
HETATM    4  C8  UNL     1     -34.340  33.699  -0.022  1.00  0.00     0.215 A 
HETATM    5  N3  UNL     1     -33.508  34.539   0.616  1.00  0.00    -0.185 N 
ATOM      6  H3  UNL     1     -33.740  35.526   0.733  1.00  0.00     0.185 HD
HETATM    7  C9  UNL     1     -32.357  34.033   1.095  1.00  0.00     0.712 A 
HETATM    8  N6  UNL     1     -32.073  32.729   0.930  1.00  0.00    -0.021 N 
ATOM      9  H6  UNL     1     -31.195  32.371   1.305  1.00  0.00     0.203 HD
ENDROOT
BRANCH   7  10
HETATM   10  N4  UNL     1     -31.528  34.825   1.720  1.00  0.00    -0.132 N 
ATOM     11  H4  UNL     1     -30.591  34.497   1.956  1.00  0.00     0.205 HD
BRANCH  10  12
HETATM   12  N5  UNL     1     -31.918  36.114   2.065  1.00  0.00    -0.295 N 
HETATM   13  C10 UNL     1     -31.680  36.595   3.243  1.00  0.00     0.004 C 
HETATM   14  C11 UNL     1     -30.982  35.755   4.235  1.00  0.00     0.054 C 
HETATM   15  C15 UNL     1     -32.138  37.982   3.509  1.00  0.00     0.054 C 
HETATM   16  C12 UNL     1     -30.111  36.526   5.172  1.00  0.00     0.006 C 
HETATM   17  C13 UNL     1     -30.388  37.997   5.197  1.00  0.00     0.001 C 
HETATM   18  C14 UNL     1     -31.863  38.260   4.976  1.00  0.00     0.006 C 
ATOM     19  H5  UNL     1     -32.402  36.692   1.377  1.00  0.00     0.186 HD
ENDBRANCH  10  12
ENDBRANCH   7  10
BRANCH   1  20
HETATM   20  N1  UNL     1     -32.574  30.632   0.162  1.00  0.00    -0.221 N 
ATOM     21  H1  UNL     1     -32.446  30.212  -0.758  1.00  0.00     0.178 HD
BRANCH  20  22
HETATM   22  C6  UNL     1     -32.400  29.859   1.376  1.00  0.00     0.099 C 
HETATM   23  C5  UNL     1     -33.599  28.934   1.581  1.00  0.00     0.026 C 
HETATM   24  C4  UNL     1     -33.896  28.307   0.247  1.00  0.00     0.002 C 
HETATM   25  C3  UNL     1     -32.685  27.890  -0.518  1.00  0.00     0.004 C 
HETATM   26  C2  UNL     1     -31.416  27.837   0.262  1.00  0.00    -0.017 C 
HETATM   27  C1  UNL     1     -30.249  27.881  -0.729  1.00  0.00     0.010 C 
HETATM   28  C16 UNL     1     -31.214  28.923   1.244  1.00  0.00     0.030 C 
ENDBRANCH  20  22
ENDBRANCH   1  20
TORSDOF 4
ENDMDL
MODEL 4
REMARK VINA RESULT: -7.605621941      2.108      6.616
REMARK  4 active torsions:
REMARK  status: ('A' for Active; 'I' for Inactive)
REMARK    1  A    between atoms: C6_6  and  N1_7 
REMARK    2  A    between atoms: N1_7  and  C7_9 
REMARK    3  A    between atoms: C9_15  and  N4_16 
REMARK    4  A    between atoms: N4_16  and  N5_18 
ROOT
HETATM    1  C7  UNL     1     -33.182  33.825   0.342  1.00  0.00     0.693 A 
HETATM    2  N2  UNL     1     -32.723  34.909   1.000  1.00  0.00    -0.187 N 
ATOM      3  H2  UNL     1     -33.001  35.838   0.686  1.00  0.00     0.185 HD
HETATM    4  C8  UNL     1     -31.905  34.788   2.061  1.00  0.00     0.215 A 
HETATM    5  N3  UNL     1     -31.508  33.587   2.513  1.00  0.00    -0.185 N 
ATOM      6  H3  UNL     1     -30.887  33.505   3.319  1.00  0.00     0.185 HD
HETATM    7  C9  UNL     1     -31.957  32.496   1.866  1.00  0.00     0.712 A 
HETATM    8  N6  UNL     1     -32.775  32.629   0.807  1.00  0.00    -0.021 N 
ATOM      9  H6  UNL     1     -33.101  31.786   0.336  1.00  0.00     0.203 HD
ENDROOT
BRANCH   7  10
HETATM   10  N4  UNL     1     -31.588  31.315   2.283  1.00  0.00    -0.132 N 
ATOM     11  H4  UNL     1     -31.826  31.011   3.228  1.00  0.00     0.205 HD
BRANCH  10  12
HETATM   12  N5  UNL     1     -30.870  30.470   1.443  1.00  0.00    -0.295 N 
HETATM   13  C10 UNL     1     -31.392  29.378   0.985  1.00  0.00     0.004 C 
HETATM   14  C11 UNL     1     -32.775  29.027   1.365  1.00  0.00     0.054 C 
HETATM   15  C15 UNL     1     -30.542  28.547   0.096  1.00  0.00     0.054 C 
HETATM   16  C12 UNL     1     -33.523  28.290   0.303  1.00  0.00     0.006 C 
HETATM   17  C13 UNL     1     -32.655  27.712  -0.771  1.00  0.00     0.001 C 
HETATM   18  C14 UNL     1     -31.323  27.277  -0.196  1.00  0.00     0.006 C 
ATOM     19  H5  UNL     1     -29.915  30.715   1.184  1.00  0.00     0.186 HD
ENDBRANCH  10  12
ENDBRANCH   7  10
BRANCH   1  20
HETATM   20  N1  UNL     1     -33.967  33.895  -0.680  1.00  0.00    -0.221 N 
ATOM     21  H1  UNL     1     -33.662  33.594  -1.605  1.00  0.00     0.178 HD
BRANCH  20  22
HETATM   22  C6  UNL     1     -35.299  34.421  -0.459  1.00  0.00     0.099 C 
HETATM   23  C5  UNL     1     -36.019  34.599  -1.795  1.00  0.00     0.026 C 
HETATM   24  C4  UNL     1     -35.753  33.356  -2.599  1.00  0.00     0.002 C 
HETATM   25  C3  UNL     1     -35.825  32.089  -1.813  1.00  0.00     0.004 C 
HETATM   26  C2  UNL     1     -36.465  32.199  -0.472  1.00  0.00    -0.017 C 
HETATM   27  C1  UNL     1     -36.028  30.990   0.361  1.00  0.00     0.010 C 
HETATM   28  C16 UNL     1     -36.146  33.418   0.300  1.00  0.00     0.030 C 
ENDBRANCH  20  22
ENDBRANCH   1  20
TORSDOF 4
ENDMDL
MODEL 5
REMARK VINA RESULT: -7.483594000      3.130      8.964
REMARK  4 active torsions:
REMARK  status: ('A' for Active; 'I' for Inactive)
REMARK    1  A    between atoms: C6_6  and  N1_7 
REMARK    2  A    between atoms: N1_7  and  C7_9 
REMARK    3  A    between atoms: C9_15  and  N4_16 
REMARK    4  A    between atoms: N4_16  and  N5_18 
ROOT
HETATM    1  C7  UNL     1     -31.794  29.966   0.646  1.00  0.00     0.693 A 
HETATM    2  N2  UNL     1     -30.669  29.259   0.876  1.00  0.00    -0.187 N 
ATOM      3  H2  UNL     1     -29.898  29.699   1.379  1.00  0.00     0.185 HD
HETATM    4  C8  UNL     1     -30.543  27.988   0.456  1.00  0.00     0.215 A 
HETATM    5  N3  UNL     1     -31.528  27.363  -0.211  1.00  0.00    -0.185 N 
ATOM      6  H3  UNL     1     -31.425  26.399  -0.526  1.00  0.00     0.185 HD
HETATM    7  C9  UNL     1     -32.657  28.056  -0.449  1.00  0.00     0.712 A 
HETATM    8  N6  UNL     1     -32.772  29.326  -0.024  1.00  0.00    -0.021 N 
ATOM      9  H6  UNL     1     -33.639  29.827  -0.217  1.00  0.00     0.203 HD
ENDROOT
BRANCH   7  10
HETATM   10  N4  UNL     1     -33.632  27.475  -1.095  1.00  0.00    -0.132 N 
ATOM     11  H4  UNL     1     -34.319  26.918  -0.587  1.00  0.00     0.205 HD
BRANCH  10  12
HETATM   12  N5  UNL     1     -33.737  27.615  -2.475  1.00  0.00    -0.295 N 
HETATM   13  C10 UNL     1     -34.608  26.939  -3.153  1.00  0.00     0.004 C 
HETATM   14  C11 UNL     1     -35.503  26.003  -2.445  1.00  0.00     0.054 C 
HETATM   15  C15 UNL     1     -34.638  27.162  -4.620  1.00  0.00     0.054 C 
HETATM   16  C12 UNL     1     -36.857  25.879  -3.062  1.00  0.00     0.006 C 
HETATM   17  C13 UNL     1     -36.943  26.403  -4.462  1.00  0.00     0.001 C 
HETATM   18  C14 UNL     1     -35.637  26.172  -5.194  1.00  0.00     0.006 C 
ATOM     19  H5  UNL     1     -33.117  28.261  -2.961  1.00  0.00     0.186 HD
ENDBRANCH  10  12
ENDBRANCH   7  10
BRANCH   1  20
HETATM   20  N1  UNL     1     -31.957  31.187   1.030  1.00  0.00    -0.221 N 
ATOM     21  H1  UNL     1     -31.213  31.877   0.932  1.00  0.00     0.178 HD
BRANCH  20  22
HETATM   22  C6  UNL     1     -33.239  31.537   1.607  1.00  0.00     0.099 C 
HETATM   23  C5  UNL     1     -33.035  32.241   2.947  1.00  0.00     0.026 C 
HETATM   24  C4  UNL     1     -31.929  33.239   2.747  1.00  0.00     0.002 C 
HETATM   25  C3  UNL     1     -31.998  33.982   1.455  1.00  0.00     0.004 C 
HETATM   26  C2  UNL     1     -33.294  33.885   0.725  1.00  0.00    -0.017 C 
HETATM   27  C1  UNL     1     -33.042  34.263  -0.738  1.00  0.00     0.010 C 
HETATM   28  C16 UNL     1     -33.949  32.561   0.742  1.00  0.00     0.030 C 
ENDBRANCH  20  22
ENDBRANCH   1  20
TORSDOF 4
ENDMDL
