MODEL 1
REMARK VINA RESULT: -6.504405761      0.000      0.000
REMARK  2 active torsions:
REMARK  status: ('A' for Active; 'I' for Inactive)
REMARK    1  A    between atoms: C3_3  and  N1_5 
REMARK    2  A    between atoms: N1_5  and  C4_7 
ROOT
HETATM    1  C1  UNL     1       3.894  68.664  65.701  1.00  0.00     0.020 C 
HETATM    2  C2  UNL     1       3.066  68.009  66.278  1.00  0.00    -0.048 C 
HETATM    3  C3  UNL     1       2.067  67.242  66.979  1.00  0.00     0.156 C 
HETATM    4  S1  UNL     1       2.093  67.305  68.616  1.00  0.00    -0.050 SA
ENDROOT
BRANCH   3   5
HETATM    5  N1  UNL     1       1.092  66.460  66.351  1.00  0.00    -0.319 N 
ATOM      6  H1  UNL     1       1.228  65.450  66.293  1.00  0.00     0.169 HD
BRANCH   5   7
HETATM    7  C4  UNL     1       0.004  66.988  65.833  1.00  0.00     0.168 A 
HETATM    8  N2  UNL     1      -0.154  67.513  64.617  1.00  0.00    -0.278 N 
HETATM    9  N3  UNL     1      -1.310  67.983  64.298  1.00  0.00    -0.278 N 
ATOM     10  H2  UNL     1       0.622  67.542  63.956  1.00  0.00     0.189 HD
HETATM   11  C5  UNL     1      -2.296  67.926  65.190  1.00  0.00     0.160 A 
ATOM     12  H3  UNL     1      -1.467  68.392  63.377  1.00  0.00     0.189 HD
HETATM   13  N4  UNL     1      -3.533  68.347  65.053  1.00  0.00    -0.379 N 
HETATM   14  S2  UNL     1      -1.542  67.177  66.521  1.00  0.00    -0.015 SA
ATOM     15  H42 UNL     1      -3.984  68.795  64.256  1.00  0.00     0.158 HD
ATOM     16  H41 UNL     1      -4.288  68.303  65.737  1.00  0.00     0.158 HD
ENDBRANCH   5   7
ENDBRANCH   3   5
TORSDOF 2
ENDMDL
MODEL 2
REMARK VINA RESULT: -6.343481130      2.106      2.268
REMARK  2 active torsions:
REMARK  status: ('A' for Active; 'I' for Inactive)
REMARK    1  A    between atoms: C3_3  and  N1_5 
REMARK    2  A    between atoms: N1_5  and  C4_7 
ROOT
HETATM    1  C1  UNL     1       4.511  68.868  64.870  1.00  0.00     0.020 C 
HETATM    2  C2  UNL     1       3.961  68.329  65.794  1.00  0.00    -0.048 C 
HETATM    3  C3  UNL     1       3.321  67.680  66.910  1.00  0.00     0.156 C 
HETATM    4  S1  UNL     1       3.731  66.120  67.199  1.00  0.00    -0.050 SA
ENDROOT
BRANCH   3   5
HETATM    5  N1  UNL     1       2.385  68.295  67.747  1.00  0.00    -0.319 N 
ATOM      6  H1  UNL     1       2.669  68.579  68.685  1.00  0.00     0.169 HD
BRANCH   5   7
HETATM    7  C4  UNL     1       1.146  68.519  67.360  1.00  0.00     0.168 A 
HETATM    8  N2  UNL     1       0.329  69.497  67.752  1.00  0.00    -0.278 N 
HETATM    9  N3  UNL     1      -0.856  69.543  67.250  1.00  0.00    -0.278 N 
ATOM     10  H2  UNL     1       0.635  70.193  68.432  1.00  0.00     0.189 HD
HETATM   11  C5  UNL     1      -1.215  68.616  66.364  1.00  0.00     0.160 A 
ATOM     12  H3  UNL     1      -1.509  70.277  67.526  1.00  0.00     0.189 HD
HETATM   13  N4  UNL     1      -2.369  68.495  65.746  1.00  0.00    -0.379 N 
HETATM   14  S2  UNL     1       0.186  67.655  66.251  1.00  0.00    -0.015 SA
ATOM     15  H42 UNL     1      -3.208  69.071  65.814  1.00  0.00     0.158 HD
ATOM     16  H41 UNL     1      -2.644  67.785  65.068  1.00  0.00     0.158 HD
ENDBRANCH   5   7
ENDBRANCH   3   5
TORSDOF 2
ENDMDL
MODEL 3
REMARK VINA RESULT: -6.306718676      1.459      1.459
REMARK  2 active torsions:
REMARK  status: ('A' for Active; 'I' for Inactive)
REMARK    1  A    between atoms: C3_3  and  N1_5 
REMARK    2  A    between atoms: N1_5  and  C4_7 
ROOT
HETATM    1  C1  UNL     1       2.079  69.428  68.071  1.00  0.00     0.020 C 
HETATM    2  C2  UNL     1       1.631  68.316  67.970  1.00  0.00    -0.048 C 
HETATM    3  C3  UNL     1       1.080  66.989  67.865  1.00  0.00     0.156 C 
HETATM    4  S1  UNL     1       1.118  66.058  69.213  1.00  0.00    -0.050 SA
ENDROOT
BRANCH   3   5
HETATM    5  N1  UNL     1       0.523  66.458  66.696  1.00  0.00    -0.319 N 
ATOM      6  H1  UNL     1       1.001  65.690  66.224  1.00  0.00     0.169 HD
BRANCH   5   7
HETATM    7  C4  UNL     1      -0.599  66.921  66.188  1.00  0.00     0.168 A 
HETATM    8  N2  UNL     1      -0.762  67.628  65.068  1.00  0.00    -0.278 N 
HETATM    9  N3  UNL     1      -1.953  67.990  64.740  1.00  0.00    -0.278 N 
ATOM     10  H2  UNL     1       0.038  67.875  64.485  1.00  0.00     0.189 HD
HETATM   11  C5  UNL     1      -2.970  67.646  65.528  1.00  0.00     0.160 A 
ATOM     12  H3  UNL     1      -2.116  68.531  63.891  1.00  0.00     0.189 HD
HETATM   13  N4  UNL     1      -4.245  67.918  65.364  1.00  0.00    -0.379 N 
HETATM   14  S2  UNL     1      -2.192  66.780  66.771  1.00  0.00    -0.015 SA
ATOM     15  H42 UNL     1      -4.710  68.436  64.619  1.00  0.00     0.158 HD
ATOM     16  H41 UNL     1      -5.024  67.655  65.968  1.00  0.00     0.158 HD
ENDBRANCH   5   7
ENDBRANCH   3   5
TORSDOF 2
ENDMDL
MODEL 4
REMARK VINA RESULT: -6.301042811      1.518      1.518
REMARK  2 active torsions:
REMARK  status: ('A' for Active; 'I' for Inactive)
REMARK    1  A    between atoms: C3_3  and  N1_5 
REMARK    2  A    between atoms: N1_5  and  C4_7 
ROOT
HETATM    1  C1  UNL     1       4.019  68.687  65.417  1.00  0.00     0.020 C 
HETATM    2  C2  UNL     1       3.289  67.732  65.423  1.00  0.00    -0.048 C 
HETATM    3  C3  UNL     1       2.430  66.575  65.439  1.00  0.00     0.156 C 
HETATM    4  S1  UNL     1       2.903  65.284  64.547  1.00  0.00    -0.050 SA
ENDROOT
BRANCH   3   5
HETATM    5  N1  UNL     1       1.233  66.493  66.159  1.00  0.00    -0.319 N 
ATOM      6  H1  UNL     1       1.230  66.019  67.063  1.00  0.00     0.169 HD
BRANCH   5   7
HETATM    7  C4  UNL     1       0.111  67.009  65.705  1.00  0.00     0.168 A 
HETATM    8  N2  UNL     1      -0.118  67.550  64.507  1.00  0.00    -0.278 N 
HETATM    9  N3  UNL     1      -1.296  68.003  64.254  1.00  0.00    -0.278 N 
ATOM     10  H2  UNL     1       0.623  67.603  63.808  1.00  0.00     0.189 HD
HETATM   11  C5  UNL     1      -2.235  67.914  65.195  1.00  0.00     0.160 A 
ATOM     12  H3  UNL     1      -1.508  68.423  63.350  1.00  0.00     0.189 HD
HETATM   13  N4  UNL     1      -3.484  68.315  65.127  1.00  0.00    -0.379 N 
HETATM   14  S2  UNL     1      -1.401  67.160  66.474  1.00  0.00    -0.015 SA
ATOM     15  H42 UNL     1      -3.983  68.767  64.361  1.00  0.00     0.158 HD
ATOM     16  H41 UNL     1      -4.203  68.247  65.848  1.00  0.00     0.158 HD
ENDBRANCH   5   7
ENDBRANCH   3   5
TORSDOF 2
ENDMDL
MODEL 5
REMARK VINA RESULT: -6.260462614      1.392      1.740
REMARK  2 active torsions:
REMARK  status: ('A' for Active; 'I' for Inactive)
REMARK    1  A    between atoms: C3_3  and  N1_5 
REMARK    2  A    between atoms: N1_5  and  C4_7 
ROOT
HETATM    1  C1  UNL     1       3.199  65.920  69.150  1.00  0.00     0.020 C 
HETATM    2  C2  UNL     1       2.455  66.464  68.377  1.00  0.00    -0.048 C 
HETATM    3  C3  UNL     1       1.580  67.128  67.443  1.00  0.00     0.156 C 
HETATM    4  S1  UNL     1       1.439  68.754  67.582  1.00  0.00    -0.050 SA
ENDROOT
BRANCH   3   5
HETATM    5  N1  UNL     1       0.856  66.473  66.441  1.00  0.00    -0.319 N 
ATOM      6  H1  UNL     1       1.241  65.625  66.025  1.00  0.00     0.169 HD
BRANCH   5   7
HETATM    7  C4  UNL     1      -0.308  66.920  66.020  1.00  0.00     0.168 A 
HETATM    8  N2  UNL     1      -0.570  67.598  64.902  1.00  0.00    -0.278 N 
HETATM    9  N3  UNL     1      -1.787  67.948  64.668  1.00  0.00    -0.278 N 
ATOM     10  H2  UNL     1       0.176  67.835  64.247  1.00  0.00     0.189 HD
HETATM   11  C5  UNL     1      -2.731  67.619  65.548  1.00  0.00     0.160 A 
ATOM     12  H3  UNL     1      -2.025  68.468  63.824  1.00  0.00     0.189 HD
HETATM   13  N4  UNL     1      -4.017  67.882  65.488  1.00  0.00    -0.379 N 
HETATM   14  S2  UNL     1      -1.845  66.786  66.741  1.00  0.00    -0.015 SA
ATOM     15  H42 UNL     1      -4.547  68.381  64.773  1.00  0.00     0.158 HD
ATOM     16  H41 UNL     1      -4.739  67.631  66.162  1.00  0.00     0.158 HD
ENDBRANCH   5   7
ENDBRANCH   3   5
TORSDOF 2
ENDMDL
