MODEL 1
REMARK VINA RESULT: -6.856753280      0.000      0.000
REMARK  1 active torsions:
REMARK  status: ('A' for Active; 'I' for Inactive)
REMARK    1  A    between atoms: C2_2  and  N1_5 
REMARK       I    between atoms: N1_5  and  C5_7 
REMARK       I    between atoms: C5_7  and  N3_11 
ROOT
HETATM    1  N1  UNL     1       2.829  68.353  66.718  1.00  0.00    -0.218 N 
ATOM      2  H1  UNL     1       3.408  69.180  66.573  1.00  0.00     0.178 HD
HETATM    3  C5  UNL     1       2.968  67.244  65.821  1.00  0.00     0.670 C 
HETATM    4  N2  UNL     1       2.308  66.163  66.048  1.00  0.00    -0.235 N 
ATOM      5  H21 UNL     1       2.407  65.374  65.409  1.00  0.00     0.174 HD
ATOM      6  H22 UNL     1       1.703  66.133  66.869  1.00  0.00     0.174 HD
HETATM    7  N3  UNL     1       3.805  67.285  64.686  1.00  0.00    -0.217 N 
HETATM    8  C6  UNL     1       3.230  66.964  63.390  1.00  0.00     0.143 C 
HETATM    9  C7  UNL     1       3.524  68.083  62.441  1.00  0.00     0.048 C 
HETATM   10  C8  UNL     1       4.999  68.035  62.097  1.00  0.00     0.234 C 
HETATM   11  N4  UNL     1       5.770  68.968  62.868  1.00  0.00    -0.074 N 
ATOM     12  H41 UNL     1       5.691  69.905  62.473  1.00  0.00     0.277 HD
ATOM     13  H42 UNL     1       6.767  68.803  62.732  1.00  0.00     0.277 HD
HETATM   14  C9  UNL     1       5.456  68.989  64.264  1.00  0.00     0.252 C 
HETATM   15  C10 UNL     1       5.203  67.649  64.866  1.00  0.00     0.168 C 
ENDROOT
BRANCH   1  16
HETATM   16  C2  UNL     1       1.910  68.339  67.804  1.00  0.00     0.036 C 
HETATM   17  C1  UNL     1       2.231  67.261  68.825  1.00  0.00     0.038 C 
HETATM   18  C3  UNL     1       0.462  68.214  67.341  1.00  0.00     0.038 C 
HETATM   19  C4  UNL     1       1.990  69.666  68.532  1.00  0.00     0.038 C 
ENDBRANCH   1  16
TORSDOF 1
ENDMDL
MODEL 2
REMARK VINA RESULT: -6.729817024      1.711      1.839
REMARK  1 active torsions:
REMARK  status: ('A' for Active; 'I' for Inactive)
REMARK    1  A    between atoms: C2_2  and  N1_5 
REMARK       I    between atoms: N1_5  and  C5_7 
REMARK       I    between atoms: C5_7  and  N3_11 
ROOT
HETATM    1  N1  UNL     1       1.140  68.030  65.883  1.00  0.00    -0.218 N 
ATOM      2  H1  UNL     1       1.673  68.861  66.138  1.00  0.00     0.178 HD
HETATM    3  C5  UNL     1       1.761  67.033  65.062  1.00  0.00     0.670 C 
HETATM    4  N2  UNL     1       1.129  65.941  64.810  1.00  0.00    -0.235 N 
ATOM      5  H21 UNL     1       1.572  65.232  64.226  1.00  0.00     0.174 HD
ATOM      6  H22 UNL     1       0.198  65.822  65.210  1.00  0.00     0.174 HD
HETATM    7  N3  UNL     1       3.048  67.198  64.510  1.00  0.00    -0.217 N 
HETATM    8  C6  UNL     1       3.212  67.039  63.074  1.00  0.00     0.143 C 
HETATM    9  C7  UNL     1       3.884  68.259  62.528  1.00  0.00     0.048 C 
HETATM   10  C8  UNL     1       5.335  68.234  62.964  1.00  0.00     0.234 C 
HETATM   11  N4  UNL     1       5.573  69.060  64.113  1.00  0.00    -0.074 N 
ATOM     12  H41 UNL     1       5.656  70.038  63.835  1.00  0.00     0.277 HD
ATOM     13  H42 UNL     1       6.512  68.900  64.477  1.00  0.00     0.277 HD
HETATM   14  C9  UNL     1       4.605  68.920  65.158  1.00  0.00     0.252 C 
HETATM   15  C10 UNL     1       4.151  67.521  65.404  1.00  0.00     0.168 C 
ENDROOT
BRANCH   1  16
HETATM   16  C2  UNL     1      -0.196  67.899  66.355  1.00  0.00     0.036 C 
HETATM   17  C1  UNL     1      -0.384  66.679  67.239  1.00  0.00     0.038 C 
HETATM   18  C3  UNL     1      -1.217  67.893  65.222  1.00  0.00     0.038 C 
HETATM   19  C4  UNL     1      -0.539  69.108  67.202  1.00  0.00     0.038 C 
ENDBRANCH   1  16
TORSDOF 1
ENDMDL
MODEL 3
REMARK VINA RESULT: -6.578613997      2.519      3.980
REMARK  1 active torsions:
REMARK  status: ('A' for Active; 'I' for Inactive)
REMARK    1  A    between atoms: C2_2  and  N1_5 
REMARK       I    between atoms: N1_5  and  C5_7 
REMARK       I    between atoms: C5_7  and  N3_11 
ROOT
HETATM    1  N1  UNL     1       3.198  64.811  67.709  1.00  0.00    -0.218 N 
ATOM      2  H1  UNL     1       3.307  64.346  66.808  1.00  0.00     0.178 HD
HETATM    3  C5  UNL     1       2.821  66.193  67.736  1.00  0.00     0.670 C 
HETATM    4  N2  UNL     1       2.594  66.763  68.866  1.00  0.00    -0.235 N 
ATOM      5  H21 UNL     1       2.326  67.748  68.884  1.00  0.00     0.174 HD
ATOM      6  H22 UNL     1       2.690  66.204  69.713  1.00  0.00     0.174 HD
HETATM    7  N3  UNL     1       2.689  66.966  66.563  1.00  0.00    -0.217 N 
HETATM    8  C6  UNL     1       3.432  68.212  66.467  1.00  0.00     0.143 C 
HETATM    9  C7  UNL     1       4.230  68.200  65.201  1.00  0.00     0.048 C 
HETATM   10  C8  UNL     1       3.273  68.372  64.039  1.00  0.00     0.234 C 
HETATM   11  N4  UNL     1       2.943  67.122  63.415  1.00  0.00    -0.074 N 
ATOM     12  H41 UNL     1       3.688  66.835  62.781  1.00  0.00     0.277 HD
ATOM     13  H42 UNL     1       2.183  67.249  62.747  1.00  0.00     0.277 HD
HETATM   14  C9  UNL     1       2.630  66.066  64.328  1.00  0.00     0.252 C 
HETATM   15  C10 UNL     1       1.814  66.480  65.505  1.00  0.00     0.168 C 
ENDROOT
BRANCH   1  16
HETATM   16  C2  UNL     1       3.425  64.064  68.899  1.00  0.00     0.036 C 
HETATM   17  C1  UNL     1       2.305  64.226  69.911  1.00  0.00     0.038 C 
HETATM   18  C3  UNL     1       4.770  64.389  69.543  1.00  0.00     0.038 C 
HETATM   19  C4  UNL     1       3.488  62.591  68.550  1.00  0.00     0.038 C 
ENDBRANCH   1  16
TORSDOF 1
ENDMDL
MODEL 4
REMARK VINA RESULT: -6.561888148      2.876      4.231
REMARK  1 active torsions:
REMARK  status: ('A' for Active; 'I' for Inactive)
REMARK    1  A    between atoms: C2_2  and  N1_5 
REMARK       I    between atoms: N1_5  and  C5_7 
REMARK       I    between atoms: C5_7  and  N3_11 
ROOT
HETATM    1  N1  UNL     1       3.457  64.143  67.759  1.00  0.00    -0.218 N 
ATOM      2  H1  UNL     1       3.501  63.586  66.906  1.00  0.00     0.178 HD
HETATM    3  C5  UNL     1       3.394  65.570  67.653  1.00  0.00     0.670 C 
HETATM    4  N2  UNL     1       3.249  66.276  68.717  1.00  0.00    -0.235 N 
ATOM      5  H21 UNL     1       3.204  67.293  68.641  1.00  0.00     0.174 HD
ATOM      6  H22 UNL     1       3.180  65.789  69.611  1.00  0.00     0.174 HD
HETATM    7  N3  UNL     1       3.489  66.244  66.416  1.00  0.00    -0.217 N 
HETATM    8  C6  UNL     1       4.493  67.285  66.270  1.00  0.00     0.143 C 
HETATM    9  C7  UNL     1       5.324  66.986  65.063  1.00  0.00     0.048 C 
HETATM   10  C8  UNL     1       4.483  67.254  63.832  1.00  0.00     0.234 C 
HETATM   11  N4  UNL     1       3.912  66.055  63.289  1.00  0.00    -0.074 N 
ATOM     12  H41 UNL     1       4.603  65.556  62.729  1.00  0.00     0.277 HD
ATOM     13  H42 UNL     1       3.230  66.282  62.566  1.00  0.00     0.277 HD
HETATM   14  C9  UNL     1       3.333  65.179  64.261  1.00  0.00     0.252 C 
HETATM   15  C10 UNL     1       2.577  65.864  65.347  1.00  0.00     0.168 C 
ENDROOT
BRANCH   1  16
HETATM   16  C2  UNL     1       3.460  63.476  69.016  1.00  0.00     0.036 C 
HETATM   17  C1  UNL     1       2.276  63.866  69.885  1.00  0.00     0.038 C 
HETATM   18  C3  UNL     1       4.765  63.677  69.780  1.00  0.00     0.038 C 
HETATM   19  C4  UNL     1       3.355  61.982  68.780  1.00  0.00     0.038 C 
ENDBRANCH   1  16
TORSDOF 1
ENDMDL
MODEL 5
REMARK VINA RESULT: -6.458179076      2.153      3.111
REMARK  1 active torsions:
REMARK  status: ('A' for Active; 'I' for Inactive)
REMARK    1  A    between atoms: C2_2  and  N1_5 
REMARK       I    between atoms: N1_5  and  C5_7 
REMARK       I    between atoms: C5_7  and  N3_11 
ROOT
HETATM    1  N1  UNL     1       1.042  67.062  65.570  1.00  0.00    -0.218 N 
ATOM      2  H1  UNL     1       1.073  67.252  64.568  1.00  0.00     0.178 HD
HETATM    3  C5  UNL     1       2.119  66.332  66.171  1.00  0.00     0.670 C 
HETATM    4  N2  UNL     1       2.134  66.166  67.446  1.00  0.00    -0.235 N 
ATOM      5  H21 UNL     1       2.901  65.647  67.873  1.00  0.00     0.174 HD
ATOM      6  H22 UNL     1       1.370  66.565  67.991  1.00  0.00     0.174 HD
HETATM    7  N3  UNL     1       3.177  65.781  65.416  1.00  0.00    -0.217 N 
HETATM    8  C6  UNL     1       3.470  64.365  65.568  1.00  0.00     0.143 C 
HETATM    9  C7  UNL     1       3.466  63.725  64.215  1.00  0.00     0.048 C 
HETATM   10  C8  UNL     1       4.710  64.176  63.476  1.00  0.00     0.234 C 
HETATM   11  N4  UNL     1       4.444  65.255  62.568  1.00  0.00    -0.074 N 
ATOM     12  H41 UNL     1       4.039  64.898  61.703  1.00  0.00     0.277 HD
ATOM     13  H42 UNL     1       5.317  65.640  62.208  1.00  0.00     0.277 HD
HETATM   14  C9  UNL     1       3.626  66.298  63.107  1.00  0.00     0.252 C 
HETATM   15  C10 UNL     1       3.923  66.655  64.523  1.00  0.00     0.168 C 
ENDROOT
BRANCH   1  16
HETATM   16  C2  UNL     1      -0.070  67.530  66.324  1.00  0.00     0.036 C 
HETATM   17  C1  UNL     1       0.307  68.641  67.289  1.00  0.00     0.038 C 
HETATM   18  C3  UNL     1      -0.786  66.406  67.065  1.00  0.00     0.038 C 
HETATM   19  C4  UNL     1      -1.099  68.109  65.373  1.00  0.00     0.038 C 
ENDBRANCH   1  16
TORSDOF 1
ENDMDL
