MODEL 1
REMARK VINA RESULT: -7.194527170      0.000      0.000
REMARK  5 active torsions:
REMARK  status: ('A' for Active; 'I' for Inactive)
REMARK    1  A    between atoms: C4_4  and  C5_5 
REMARK    2  A    between atoms: C6_6  and  C7_7 
REMARK    3  A    between atoms: C7_7  and  N3_13 
REMARK    4  A    between atoms: N1_8  and  N2_10 
REMARK    5  A    between atoms: N3_13  and  C8_15 
ROOT
HETATM    1  C1  UNL     1       4.508  68.448  61.871  1.00  0.00     0.017 C 
HETATM    2  C2  UNL     1       4.788  68.700  63.024  1.00  0.00    -0.089 C 
HETATM    3  C3  UNL     1       5.129  69.017  64.378  1.00  0.00     0.072 C 
HETATM    4  C4  UNL     1       4.296  68.824  65.378  1.00  0.00     0.073 C 
ENDROOT
BRANCH   4   5
HETATM    5  C5  UNL     1       3.003  68.275  65.087  1.00  0.00    -0.070 C 
HETATM    6  C6  UNL     1       1.894  67.818  64.856  1.00  0.00    -0.025 C 
BRANCH   6   7
HETATM    7  C7  UNL     1       0.583  67.289  64.607  1.00  0.00     0.172 C 
HETATM    8  N1  UNL     1      -0.040  67.583  63.499  1.00  0.00    -0.285 N 
ATOM      9  H1  UNL     1      -0.970  67.194  63.345  1.00  0.00     0.188 HD
BRANCH   8  10
HETATM   10  N2  UNL     1       0.502  68.398  62.528  1.00  0.00    -0.343 N 
ATOM     11  H22 UNL     1       1.509  68.552  62.551  1.00  0.00     0.176 HD
ATOM     12  H21 UNL     1      -0.058  68.842  61.800  1.00  0.00     0.176 HD
ENDBRANCH   8  10
BRANCH   7  13
HETATM   13  N3  UNL     1       0.005  66.452  65.586  1.00  0.00    -0.360 N 
ATOM     14  H3  UNL     1       0.019  65.441  65.450  1.00  0.00     0.162 HD
BRANCH  13  15
HETATM   15  C8  UNL     1      -0.601  66.996  66.770  1.00  0.00     0.021 C 
HETATM   16  C9  UNL     1       0.367  66.810  67.939  1.00  0.00     0.037 C 
HETATM   17  C10 UNL     1      -0.844  68.478  66.620  1.00  0.00     0.037 C 
HETATM   18  C11 UNL     1      -1.896  66.247  67.002  1.00  0.00     0.037 C 
ENDBRANCH  13  15
ENDBRANCH   7  13
ENDBRANCH   6   7
ENDBRANCH   4   5
TORSDOF 5
ENDMDL
MODEL 2
REMARK VINA RESULT: -7.159691541      2.283      3.261
REMARK  5 active torsions:
REMARK  status: ('A' for Active; 'I' for Inactive)
REMARK    1  A    between atoms: C4_4  and  C5_5 
REMARK    2  A    between atoms: C6_6  and  C7_7 
REMARK    3  A    between atoms: C7_7  and  N3_13 
REMARK    4  A    between atoms: N1_8  and  N2_10 
REMARK    5  A    between atoms: N3_13  and  C8_15 
ROOT
HETATM    1  C1  UNL     1       5.465  65.703  66.381  1.00  0.00     0.017 C 
HETATM    2  C2  UNL     1       5.514  66.714  65.713  1.00  0.00    -0.089 C 
HETATM    3  C3  UNL     1       5.579  67.894  64.905  1.00  0.00     0.072 C 
HETATM    4  C4  UNL     1       4.629  68.804  64.909  1.00  0.00     0.073 C 
ENDROOT
BRANCH   4   5
HETATM    5  C5  UNL     1       3.492  68.593  65.758  1.00  0.00    -0.070 C 
HETATM    6  C6  UNL     1       2.527  68.392  66.479  1.00  0.00    -0.025 C 
BRANCH   6   7
HETATM    7  C7  UNL     1       1.394  68.132  67.321  1.00  0.00     0.172 C 
HETATM    8  N1  UNL     1       1.275  68.749  68.464  1.00  0.00    -0.285 N 
ATOM      9  H1  UNL     1       0.460  68.548  69.044  1.00  0.00     0.188 HD
BRANCH   8  10
HETATM   10  N2  UNL     1       2.201  69.661  68.924  1.00  0.00    -0.343 N 
ATOM     11  H22 UNL     1       2.536  70.363  68.265  1.00  0.00     0.176 HD
ATOM     12  H21 UNL     1       2.555  69.659  69.880  1.00  0.00     0.176 HD
ENDBRANCH   8  10
BRANCH   7  13
HETATM   13  N3  UNL     1       0.431  67.201  66.873  1.00  0.00    -0.360 N 
ATOM     14  H3  UNL     1       0.579  66.207  67.045  1.00  0.00     0.162 HD
BRANCH  13  15
HETATM   15  C8  UNL     1      -0.754  67.627  66.180  1.00  0.00     0.021 C 
HETATM   16  C9  UNL     1      -1.869  66.620  66.463  1.00  0.00     0.037 C 
HETATM   17  C10 UNL     1      -1.222  68.970  66.688  1.00  0.00     0.037 C 
HETATM   18  C11 UNL     1      -0.422  67.682  64.704  1.00  0.00     0.037 C 
ENDBRANCH  13  15
ENDBRANCH   7  13
ENDBRANCH   6   7
ENDBRANCH   4   5
TORSDOF 5
ENDMDL
MODEL 3
REMARK VINA RESULT: -7.155828016      1.069      1.788
REMARK  5 active torsions:
REMARK  status: ('A' for Active; 'I' for Inactive)
REMARK    1  A    between atoms: C4_4  and  C5_5 
REMARK    2  A    between atoms: C6_6  and  C7_7 
REMARK    3  A    between atoms: C7_7  and  N3_13 
REMARK    4  A    between atoms: N1_8  and  N2_10 
REMARK    5  A    between atoms: N3_13  and  C8_15 
ROOT
HETATM    1  C1  UNL     1       4.426  66.331  66.795  1.00  0.00     0.017 C 
HETATM    2  C2  UNL     1       4.723  67.163  65.964  1.00  0.00    -0.089 C 
HETATM    3  C3  UNL     1       5.093  68.133  64.978  1.00  0.00     0.072 C 
HETATM    4  C4  UNL     1       4.218  68.674  64.157  1.00  0.00     0.073 C 
ENDROOT
BRANCH   4   5
HETATM    5  C5  UNL     1       2.846  68.267  64.267  1.00  0.00    -0.070 C 
HETATM    6  C6  UNL     1       1.679  67.914  64.339  1.00  0.00    -0.025 C 
BRANCH   6   7
HETATM    7  C7  UNL     1       0.308  67.495  64.400  1.00  0.00     0.172 C 
HETATM    8  N1  UNL     1      -0.545  67.921  63.509  1.00  0.00    -0.285 N 
ATOM      9  H1  UNL     1      -1.514  67.608  63.573  1.00  0.00     0.188 HD
BRANCH   8  10
HETATM   10  N2  UNL     1      -0.196  68.775  62.484  1.00  0.00    -0.343 N 
ATOM     11  H22 UNL     1      -0.332  69.774  62.637  1.00  0.00     0.176 HD
ATOM     12  H21 UNL     1       0.186  68.450  61.597  1.00  0.00     0.176 HD
ENDBRANCH   8  10
BRANCH   7  13
HETATM   13  N3  UNL     1      -0.076  66.621  65.440  1.00  0.00    -0.360 N 
ATOM     14  H3  UNL     1       0.015  65.614  65.305  1.00  0.00     0.162 HD
BRANCH  13  15
HETATM   15  C8  UNL     1      -0.594  67.122  66.684  1.00  0.00     0.021 C 
HETATM   16  C9  UNL     1       0.465  66.914  67.767  1.00  0.00     0.037 C 
HETATM   17  C10 UNL     1      -0.864  68.604  66.598  1.00  0.00     0.037 C 
HETATM   18  C11 UNL     1      -1.858  66.348  66.994  1.00  0.00     0.037 C 
ENDBRANCH  13  15
ENDBRANCH   7  13
ENDBRANCH   6   7
ENDBRANCH   4   5
TORSDOF 5
ENDMDL
MODEL 4
REMARK VINA RESULT: -7.143616666      4.097      6.192
REMARK  5 active torsions:
REMARK  status: ('A' for Active; 'I' for Inactive)
REMARK    1  A    between atoms: C4_4  and  C5_5 
REMARK    2  A    between atoms: C6_6  and  C7_7 
REMARK    3  A    between atoms: C7_7  and  N3_13 
REMARK    4  A    between atoms: N1_8  and  N2_10 
REMARK    5  A    between atoms: N3_13  and  C8_15 
ROOT
HETATM    1  C1  UNL     1       2.983  61.927  68.364  1.00  0.00     0.017 C 
HETATM    2  C2  UNL     1       3.667  62.632  69.075  1.00  0.00    -0.089 C 
HETATM    3  C3  UNL     1       4.486  63.443  69.924  1.00  0.00     0.072 C 
HETATM    4  C4  UNL     1       5.051  64.555  69.505  1.00  0.00     0.073 C 
ENDROOT
BRANCH   4   5
HETATM    5  C5  UNL     1       4.830  64.956  68.145  1.00  0.00    -0.070 C 
HETATM    6  C6  UNL     1       4.661  65.290  66.982  1.00  0.00    -0.025 C 
BRANCH   6   7
HETATM    7  C7  UNL     1       4.485  65.675  65.611  1.00  0.00     0.172 C 
HETATM    8  N1  UNL     1       3.786  64.924  64.806  1.00  0.00    -0.285 N 
ATOM      9  H1  UNL     1       3.674  65.220  63.837  1.00  0.00     0.188 HD
BRANCH   8  10
HETATM   10  N2  UNL     1       3.189  63.747  65.207  1.00  0.00    -0.343 N 
ATOM     11  H22 UNL     1       3.400  62.906  64.671  1.00  0.00     0.176 HD
ATOM     12  H21 UNL     1       2.556  63.689  66.004  1.00  0.00     0.176 HD
ENDBRANCH   8  10
BRANCH   7  13
HETATM   13  N3  UNL     1       5.086  66.876  65.174  1.00  0.00    -0.360 N 
ATOM     14  H3  UNL     1       6.095  66.906  65.029  1.00  0.00     0.162 HD
BRANCH  13  15
HETATM   15  C8  UNL     1       4.304  68.058  64.932  1.00  0.00     0.021 C 
HETATM   16  C9  UNL     1       5.257  69.211  64.614  1.00  0.00     0.037 C 
HETATM   17  C10 UNL     1       3.407  67.873  63.732  1.00  0.00     0.037 C 
HETATM   18  C11 UNL     1       3.500  68.335  66.184  1.00  0.00     0.037 C 
ENDBRANCH  13  15
ENDBRANCH   7  13
ENDBRANCH   6   7
ENDBRANCH   4   5
TORSDOF 5
ENDMDL
MODEL 5
REMARK VINA RESULT: -7.135420345      1.160      2.060
REMARK  5 active torsions:
REMARK  status: ('A' for Active; 'I' for Inactive)
REMARK    1  A    between atoms: C4_4  and  C5_5 
REMARK    2  A    between atoms: C6_6  and  C7_7 
REMARK    3  A    between atoms: C7_7  and  N3_13 
REMARK    4  A    between atoms: N1_8  and  N2_10 
REMARK    5  A    between atoms: N3_13  and  C8_15 
ROOT
HETATM    1  C1  UNL     1       4.567  68.302  61.904  1.00  0.00     0.017 C 
HETATM    2  C2  UNL     1       4.853  68.667  63.025  1.00  0.00    -0.089 C 
HETATM    3  C3  UNL     1       5.199  69.117  64.339  1.00  0.00     0.072 C 
HETATM    4  C4  UNL     1       4.411  68.936  65.377  1.00  0.00     0.073 C 
ENDROOT
BRANCH   4   5
HETATM    5  C5  UNL     1       3.162  68.259  65.169  1.00  0.00    -0.070 C 
HETATM    6  C6  UNL     1       2.110  67.665  64.994  1.00  0.00    -0.025 C 
BRANCH   6   7
HETATM    7  C7  UNL     1       0.884  66.946  64.788  1.00  0.00     0.172 C 
HETATM    8  N1  UNL     1       0.905  65.648  64.652  1.00  0.00    -0.285 N 
ATOM      9  H1  UNL     1       0.021  65.160  64.508  1.00  0.00     0.188 HD
BRANCH   8  10
HETATM   10  N2  UNL     1       2.067  64.907  64.695  1.00  0.00    -0.343 N 
ATOM     11  H22 UNL     1       2.690  65.055  65.488  1.00  0.00     0.176 HD
ATOM     12  H21 UNL     1       2.320  64.230  63.976  1.00  0.00     0.176 HD
ENDBRANCH   8  10
BRANCH   7  13
HETATM   13  N3  UNL     1      -0.320  67.681  64.740  1.00  0.00    -0.360 N 
ATOM     14  H3  UNL     1      -0.573  68.168  63.881  1.00  0.00     0.162 HD
BRANCH  13  15
HETATM   15  C8  UNL     1      -1.195  67.756  65.878  1.00  0.00     0.021 C 
HETATM   16  C9  UNL     1      -2.624  67.966  65.375  1.00  0.00     0.037 C 
HETATM   17  C10 UNL     1      -1.179  66.463  66.657  1.00  0.00     0.037 C 
HETATM   18  C11 UNL     1      -0.733  68.919  66.730  1.00  0.00     0.037 C 
ENDBRANCH  13  15
ENDBRANCH   7  13
ENDBRANCH   6   7
ENDBRANCH   4   5
TORSDOF 5
ENDMDL
