MODEL 1
REMARK VINA RESULT: -7.406552546      0.000      0.000
REMARK  0 active torsions:
REMARK  status: ('A' for Active; 'I' for Inactive)
ROOT
HETATM    1  C1  UNL     1       5.845  68.034  62.800  1.00  0.00     0.004 C 
HETATM    2  C2  UNL     1       5.232  69.087  63.648  1.00  0.00     0.033 C 
HETATM    3  C3  UNL     1       3.956  68.594  64.375  1.00  0.00     0.192 C 
HETATM    4  N1  UNL     1       3.177  68.231  63.167  1.00  0.00    -0.064 N 
ATOM      5  H11 UNL     1       3.239  68.949  62.445  1.00  0.00     0.278 HD
ATOM      6  H12 UNL     1       2.173  68.273  63.336  1.00  0.00     0.278 HD
HETATM    7  C4  UNL     1       3.596  66.909  62.665  1.00  0.00     0.219 C 
HETATM    8  C5  UNL     1       4.917  67.119  62.042  1.00  0.00     0.035 C 
HETATM    9  C6  UNL     1       3.338  65.787  63.568  1.00  0.00     0.249 C 
HETATM   10  N2  UNL     1       4.429  65.057  64.188  1.00  0.00    -0.038 N 
ATOM     11  H21 UNL     1       5.329  65.513  64.044  1.00  0.00     0.280 HD
ATOM     12  H22 UNL     1       4.631  64.181  63.706  1.00  0.00     0.280 HD
HETATM   13  C7  UNL     1       4.140  64.856  65.573  1.00  0.00     0.384 C 
HETATM   14  C8  UNL     1       4.907  65.691  66.583  1.00  0.00     0.063 C 
HETATM   15  C9  UNL     1       4.469  67.186  66.526  1.00  0.00     0.012 C 
HETATM   16  C10 UNL     1       4.150  67.348  65.104  1.00  0.00     0.049 C 
HETATM   17  C11 UNL     1       2.911  66.501  64.873  1.00  0.00     0.227 C 
HETATM   18  N3  UNL     1       2.766  65.378  65.733  1.00  0.00    -0.039 N 
ATOM     19  H31 UNL     1       2.443  65.558  66.683  1.00  0.00     0.280 HD
ATOM     20  H32 UNL     1       1.998  64.736  65.533  1.00  0.00     0.280 HD
ENDROOT
TORSDOF 0
ENDMDL
MODEL 2
REMARK VINA RESULT: -7.371256234      2.111      4.073
REMARK  0 active torsions:
REMARK  status: ('A' for Active; 'I' for Inactive)
ROOT
HETATM    1  C1  UNL     1       2.258  68.442  68.487  1.00  0.00     0.004 C 
HETATM    2  C2  UNL     1       2.475  67.019  68.851  1.00  0.00     0.033 C 
HETATM    3  C3  UNL     1       2.558  66.097  67.610  1.00  0.00     0.192 C 
HETATM    4  N1  UNL     1       1.218  66.403  67.056  1.00  0.00    -0.064 N 
ATOM      5  H11 UNL     1       0.498  66.403  67.778  1.00  0.00     0.278 HD
ATOM      6  H12 UNL     1       0.859  65.638  66.486  1.00  0.00     0.278 HD
HETATM    7  C4  UNL     1       1.250  67.675  66.311  1.00  0.00     0.219 C 
HETATM    8  C5  UNL     1       1.331  68.734  67.335  1.00  0.00     0.035 C 
HETATM    9  C6  UNL     1       2.103  67.683  65.122  1.00  0.00     0.249 C 
HETATM   10  N2  UNL     1       3.306  68.494  65.068  1.00  0.00    -0.038 N 
ATOM     11  H21 UNL     1       3.540  68.898  65.974  1.00  0.00     0.280 HD
ATOM     12  H22 UNL     1       3.163  69.364  64.554  1.00  0.00     0.280 HD
HETATM   13  C7  UNL     1       4.378  67.719  64.528  1.00  0.00     0.384 C 
HETATM   14  C8  UNL     1       5.454  67.239  65.485  1.00  0.00     0.063 C 
HETATM   15  C9  UNL     1       4.906  66.139  66.444  1.00  0.00     0.012 C 
HETATM   16  C10 UNL     1       3.510  66.557  66.608  1.00  0.00     0.049 C 
HETATM   17  C11 UNL     1       2.865  66.343  65.251  1.00  0.00     0.227 C 
HETATM   18  N3  UNL     1       3.737  66.447  64.132  1.00  0.00    -0.039 N 
ATOM     19  H31 UNL     1       4.351  65.654  63.946  1.00  0.00     0.280 HD
ATOM     20  H32 UNL     1       3.312  66.408  63.206  1.00  0.00     0.280 HD
ENDROOT
TORSDOF 0
ENDMDL
MODEL 3
REMARK VINA RESULT: -7.360174642      1.722      3.133
REMARK  0 active torsions:
REMARK  status: ('A' for Active; 'I' for Inactive)
ROOT
HETATM    1  C1  UNL     1       4.597  68.864  64.939  1.00  0.00     0.004 C 
HETATM    2  C2  UNL     1       4.439  68.655  63.477  1.00  0.00     0.033 C 
HETATM    3  C3  UNL     1       3.593  67.400  63.147  1.00  0.00     0.192 C 
HETATM    4  N1  UNL     1       4.452  66.406  63.832  1.00  0.00    -0.064 N 
ATOM      5  H11 UNL     1       5.441  66.555  63.631  1.00  0.00     0.278 HD
ATOM      6  H12 UNL     1       4.354  65.475  63.426  1.00  0.00     0.278 HD
HETATM    7  C4  UNL     1       4.180  66.404  65.281  1.00  0.00     0.219 C 
HETATM    8  C5  UNL     1       4.789  67.643  65.802  1.00  0.00     0.035 C 
HETATM    9  C6  UNL     1       2.831  65.987  65.664  1.00  0.00     0.249 C 
HETATM   10  N2  UNL     1       1.894  66.925  66.255  1.00  0.00    -0.038 N 
ATOM     11  H21 UNL     1       2.233  67.886  66.213  1.00  0.00     0.280 HD
ATOM     12  H22 UNL     1       1.844  66.833  67.270  1.00  0.00     0.280 HD
HETATM   13  C7  UNL     1       0.616  66.776  65.635  1.00  0.00     0.384 C 
HETATM   14  C8  UNL     1       0.172  67.854  64.663  1.00  0.00     0.063 C 
HETATM   15  C9  UNL     1       1.011  67.809  63.350  1.00  0.00     0.012 C 
HETATM   16  C10 UNL     1       2.316  67.361  63.846  1.00  0.00     0.049 C 
HETATM   17  C11 UNL     1       2.102  65.928  64.300  1.00  0.00     0.227 C 
HETATM   18  N3  UNL     1       0.786  65.613  64.738  1.00  0.00    -0.039 N 
ATOM     19  H31 UNL     1       0.077  65.472  64.018  1.00  0.00     0.280 HD
ATOM     20  H32 UNL     1       0.639  64.688  65.143  1.00  0.00     0.280 HD
ENDROOT
TORSDOF 0
ENDMDL
MODEL 4
REMARK VINA RESULT: -7.299429943      2.205      4.162
REMARK  0 active torsions:
REMARK  status: ('A' for Active; 'I' for Inactive)
ROOT
HETATM    1  C1  UNL     1       1.080  68.946  67.628  1.00  0.00     0.004 C 
HETATM    2  C2  UNL     1       2.169  68.227  68.337  1.00  0.00     0.033 C 
HETATM    3  C3  UNL     1       2.793  67.100  67.477  1.00  0.00     0.192 C 
HETATM    4  N1  UNL     1       1.554  66.312  67.270  1.00  0.00    -0.064 N 
ATOM      5  H11 UNL     1       1.021  66.208  68.133  1.00  0.00     0.278 HD
ATOM      6  H12 UNL     1       1.755  65.327  67.097  1.00  0.00     0.278 HD
HETATM    7  C4  UNL     1       0.743  66.905  66.191  1.00  0.00     0.219 C 
HETATM    8  C5  UNL     1       0.152  68.129  66.764  1.00  0.00     0.035 C 
HETATM    9  C6  UNL     1       1.362  66.893  64.865  1.00  0.00     0.249 C 
HETATM   10  N2  UNL     1       1.763  68.127  64.213  1.00  0.00    -0.038 N 
ATOM     11  H21 UNL     1       1.707  68.930  64.839  1.00  0.00     0.280 HD
ATOM     12  H22 UNL     1       1.081  68.436  63.519  1.00  0.00     0.280 HD
HETATM   13  C7  UNL     1       3.068  67.967  63.654  1.00  0.00     0.384 C 
HETATM   14  C8  UNL     1       4.225  68.654  64.357  1.00  0.00     0.063 C 
HETATM   15  C9  UNL     1       4.535  67.977  65.726  1.00  0.00     0.012 C 
HETATM   16  C10 UNL     1       3.202  67.541  66.151  1.00  0.00     0.049 C 
HETATM   17  C11 UNL     1       2.809  66.444  65.177  1.00  0.00     0.227 C 
HETATM   18  N3  UNL     1       3.383  66.541  63.879  1.00  0.00    -0.039 N 
ATOM     19  H31 UNL     1       4.357  66.257  63.779  1.00  0.00     0.280 HD
ATOM     20  H32 UNL     1       3.058  65.876  63.177  1.00  0.00     0.280 HD
ENDROOT
TORSDOF 0
ENDMDL
MODEL 5
REMARK VINA RESULT: -7.213777031      1.901      2.559
REMARK  0 active torsions:
REMARK  status: ('A' for Active; 'I' for Inactive)
ROOT
HETATM    1  C1  UNL     1       5.551  67.002  65.370  1.00  0.00     0.004 C 
HETATM    2  C2  UNL     1       5.178  68.387  64.985  1.00  0.00     0.033 C 
HETATM    3  C3  UNL     1       3.644  68.589  64.912  1.00  0.00     0.192 C 
HETATM    4  N1  UNL     1       3.365  67.557  63.885  1.00  0.00    -0.064 N 
ATOM      5  H11 UNL     1       4.031  67.598  63.114  1.00  0.00     0.278 HD
ATOM      6  H12 UNL     1       2.515  67.762  63.361  1.00  0.00     0.278 HD
HETATM    7  C4  UNL     1       3.320  66.218  64.502  1.00  0.00     0.219 C 
HETATM    8  C5  UNL     1       4.722  65.875  64.809  1.00  0.00     0.035 C 
HETATM    9  C6  UNL     1       2.244  66.011  65.471  1.00  0.00     0.249 C 
HETATM   10  N2  UNL     1       2.531  65.822  66.882  1.00  0.00    -0.038 N 
ATOM     11  H21 UNL     1       3.509  66.008  67.105  1.00  0.00     0.280 HD
ATOM     12  H22 UNL     1       2.504  64.839  67.153  1.00  0.00     0.280 HD
HETATM   13  C7  UNL     1       1.638  66.621  67.660  1.00  0.00     0.384 C 
HETATM   14  C8  UNL     1       2.199  67.869  68.318  1.00  0.00     0.063 C 
HETATM   15  C9  UNL     1       2.536  68.962  67.259  1.00  0.00     0.012 C 
HETATM   16  C10 UNL     1       2.943  68.147  66.110  1.00  0.00     0.049 C 
HETATM   17  C11 UNL     1       1.680  67.440  65.652  1.00  0.00     0.227 C 
HETATM   18  N3  UNL     1       0.710  67.197  66.663  1.00  0.00    -0.039 N 
ATOM     19  H31 UNL     1       0.140  67.988  66.960  1.00  0.00     0.280 HD
ATOM     20  H32 UNL     1      -0.101  66.636  66.404  1.00  0.00     0.280 HD
ENDROOT
TORSDOF 0
ENDMDL
