MODEL 1
REMARK VINA RESULT: -6.372865440      0.000      0.000
REMARK  4 active torsions:
REMARK  status: ('A' for Active; 'I' for Inactive)
REMARK    1  A    between atoms: C2_2  and  O2_4 
REMARK    2  A    between atoms: O2_4  and  C3_5 
REMARK    3  A    between atoms: C3_5  and  C5_7 
REMARK    4  A    between atoms: C13_15  and  O3_16 
ROOT
HETATM    1  C5  UNL     1     -22.631  82.947  13.787  1.00  0.00     0.023 C 
HETATM    2  C6  UNL     1     -22.254  82.095  12.560  1.00  0.00     0.009 C 
HETATM    3  C7  UNL     1     -22.776  82.748  11.346  1.00  0.00     0.011 C 
HETATM    4  C8  UNL     1     -22.066  84.056  11.042  1.00  0.00    -0.027 C 
HETATM    5  C9  UNL     1     -23.159  84.887  10.335  1.00  0.00     0.017 C 
HETATM    6  C10 UNL     1     -20.999  83.894  10.044  1.00  0.00    -0.014 C 
HETATM    7  C11 UNL     1     -20.931  82.493   9.404  1.00  0.00     0.018 C 
HETATM    8  C12 UNL     1     -21.177  84.783   8.795  1.00  0.00     0.018 C 
HETATM    9  C13 UNL     1     -19.587  84.104  10.460  1.00  0.00     0.126 C 
HETATM   10  C14 UNL     1     -19.364  85.166  11.471  1.00  0.00     0.033 C 
HETATM   11  C15 UNL     1     -20.245  84.788  12.620  1.00  0.00     0.013 C 
HETATM   12  C16 UNL     1     -21.746  84.823  12.288  1.00  0.00    -0.029 C 
HETATM   13  C17 UNL     1     -21.995  86.304  12.083  1.00  0.00     0.016 C 
HETATM   14  C18 UNL     1     -22.467  84.410  13.550  1.00  0.00    -0.034 C 
HETATM   15  C19 UNL     1     -23.679  85.248  13.860  1.00  0.00     0.016 C 
HETATM   16  C20 UNL     1     -21.576  84.877  14.745  1.00  0.00     0.016 C 
ENDROOT
BRANCH   1  17
HETATM   17  C3  UNL     1     -23.812  82.392  14.458  1.00  0.00     0.132 C 
HETATM   18  C4  UNL     1     -23.811  82.113  15.908  1.00  0.00     0.040 C 
BRANCH  17  19
HETATM   19  O2  UNL     1     -24.379  81.242  13.868  1.00  0.00    -0.316 OA
BRANCH  19  20
HETATM   20  C2  UNL     1     -25.718  81.092  13.556  1.00  0.00     0.255 C 
HETATM   21  C1  UNL     1     -26.470  79.831  13.828  1.00  0.00     0.126 C 
HETATM   22  O1  UNL     1     -26.294  82.080  13.025  1.00  0.00    -0.266 OA
ENDBRANCH  19  20
ENDBRANCH  17  19
ENDBRANCH   1  17
BRANCH   9  23
HETATM   23  O3  UNL     1     -19.083  82.910  10.983  1.00  0.00    -0.395 OA
ATOM     24  H3  UNL     1     -19.780  82.452  11.439  1.00  0.00     0.210 HD
ENDBRANCH   9  23
TORSDOF 4
ENDMDL
MODEL 2
REMARK VINA RESULT: -6.137828118      2.182      4.023
REMARK  4 active torsions:
REMARK  status: ('A' for Active; 'I' for Inactive)
REMARK    1  A    between atoms: C2_2  and  O2_4 
REMARK    2  A    between atoms: O2_4  and  C3_5 
REMARK    3  A    between atoms: C3_5  and  C5_7 
REMARK    4  A    between atoms: C13_15  and  O3_16 
ROOT
HETATM    1  C5  UNL     1     -24.006  83.413  13.735  1.00  0.00     0.023 C 
HETATM    2  C6  UNL     1     -24.016  84.941  13.934  1.00  0.00     0.009 C 
HETATM    3  C7  UNL     1     -22.639  85.449  13.796  1.00  0.00     0.011 C 
HETATM    4  C8  UNL     1     -22.116  85.328  12.376  1.00  0.00    -0.027 C 
HETATM    5  C9  UNL     1     -20.597  85.145  12.580  1.00  0.00     0.017 C 
HETATM    6  C10 UNL     1     -22.257  86.581  11.620  1.00  0.00    -0.014 C 
HETATM    7  C11 UNL     1     -22.742  87.780  12.456  1.00  0.00     0.018 C 
HETATM    8  C12 UNL     1     -20.922  87.125  11.067  1.00  0.00     0.018 C 
HETATM    9  C13 UNL     1     -23.190  86.623  10.463  1.00  0.00     0.126 C 
HETATM   10  C14 UNL     1     -23.282  85.377   9.664  1.00  0.00     0.033 C 
HETATM   11  C15 UNL     1     -23.650  84.316  10.653  1.00  0.00     0.013 C 
HETATM   12  C16 UNL     1     -22.570  84.061  11.718  1.00  0.00    -0.029 C 
HETATM   13  C17 UNL     1     -21.450  83.452  10.899  1.00  0.00     0.016 C 
HETATM   14  C18 UNL     1     -23.116  82.979  12.620  1.00  0.00    -0.034 C 
HETATM   15  C19 UNL     1     -22.106  81.922  12.982  1.00  0.00     0.016 C 
HETATM   16  C20 UNL     1     -24.045  82.088  11.735  1.00  0.00     0.016 C 
ENDROOT
BRANCH   1  17
HETATM   17  C3  UNL     1     -24.029  82.724  15.030  1.00  0.00     0.132 C 
HETATM   18  C4  UNL     1     -24.582  81.361  15.165  1.00  0.00     0.040 C 
BRANCH  17  19
HETATM   19  O2  UNL     1     -24.579  83.447  16.110  1.00  0.00    -0.316 OA
BRANCH  19  20
HETATM   20  C2  UNL     1     -23.915  83.733  17.289  1.00  0.00     0.255 C 
HETATM   21  C1  UNL     1     -22.428  83.839  17.368  1.00  0.00     0.126 C 
HETATM   22  O1  UNL     1     -24.625  83.907  18.316  1.00  0.00    -0.266 OA
ENDBRANCH  19  20
ENDBRANCH  17  19
ENDBRANCH   1  17
BRANCH   9  23
HETATM   23  O3  UNL     1     -24.475  86.925  10.925  1.00  0.00    -0.395 OA
ATOM     24  H3  UNL     1     -24.487  87.818  11.247  1.00  0.00     0.210 HD
ENDBRANCH   9  23
TORSDOF 4
ENDMDL
MODEL 3
REMARK VINA RESULT: -5.984225404      3.332      5.205
REMARK  4 active torsions:
REMARK  status: ('A' for Active; 'I' for Inactive)
REMARK    1  A    between atoms: C2_2  and  O2_4 
REMARK    2  A    between atoms: O2_4  and  C3_5 
REMARK    3  A    between atoms: C3_5  and  C5_7 
REMARK    4  A    between atoms: C13_15  and  O3_16 
ROOT
HETATM    1  C5  UNL     1     -22.891  85.844  11.627  1.00  0.00     0.023 C 
HETATM    2  C6  UNL     1     -23.670  87.131  11.295  1.00  0.00     0.009 C 
HETATM    3  C7  UNL     1     -22.759  88.285  11.409  1.00  0.00     0.011 C 
HETATM    4  C8  UNL     1     -21.689  88.287  10.333  1.00  0.00    -0.027 C 
HETATM    5  C9  UNL     1     -20.501  88.988  11.026  1.00  0.00     0.017 C 
HETATM    6  C10 UNL     1     -22.040  89.152   9.197  1.00  0.00    -0.014 C 
HETATM    7  C11 UNL     1     -23.317  89.989   9.404  1.00  0.00     0.018 C 
HETATM    8  C12 UNL     1     -21.001  90.259   8.917  1.00  0.00     0.018 C 
HETATM    9  C13 UNL     1     -22.298  88.531   7.872  1.00  0.00     0.126 C 
HETATM   10  C14 UNL     1     -21.470  87.346   7.542  1.00  0.00     0.033 C 
HETATM   11  C15 UNL     1     -21.702  86.393   8.672  1.00  0.00     0.013 C 
HETATM   12  C16 UNL     1     -21.195  86.905  10.030  1.00  0.00    -0.029 C 
HETATM   13  C17 UNL     1     -19.693  86.905   9.831  1.00  0.00     0.016 C 
HETATM   14  C18 UNL     1     -21.521  85.826  11.037  1.00  0.00    -0.034 C 
HETATM   15  C19 UNL     1     -20.408  85.546  12.010  1.00  0.00     0.016 C 
HETATM   16  C20 UNL     1     -21.473  84.469  10.265  1.00  0.00     0.016 C 
ENDROOT
BRANCH   1  17
HETATM   17  C3  UNL     1     -23.151  85.426  13.009  1.00  0.00     0.132 C 
HETATM   18  C4  UNL     1     -23.233  83.998  13.377  1.00  0.00     0.040 C 
BRANCH  17  19
HETATM   19  O2  UNL     1     -24.259  86.027  13.643  1.00  0.00    -0.316 OA
BRANCH  19  20
HETATM   20  C2  UNL     1     -24.207  86.711  14.844  1.00  0.00     0.255 C 
HETATM   21  C1  UNL     1     -23.800  88.145  14.935  1.00  0.00     0.126 C 
HETATM   22  O1  UNL     1     -24.525  86.068  15.881  1.00  0.00    -0.266 OA
ENDBRANCH  19  20
ENDBRANCH  17  19
ENDBRANCH   1  17
BRANCH   9  23
HETATM   23  O3  UNL     1     -23.639  88.141   7.804  1.00  0.00    -0.395 OA
ATOM     24  H3  UNL     1     -24.190  88.890   8.001  1.00  0.00     0.210 HD
ENDBRANCH   9  23
TORSDOF 4
ENDMDL
MODEL 4
REMARK VINA RESULT: -5.928637128      5.491      7.178
REMARK  4 active torsions:
REMARK  status: ('A' for Active; 'I' for Inactive)
REMARK    1  A    between atoms: C2_2  and  O2_4 
REMARK    2  A    between atoms: O2_4  and  C3_5 
REMARK    3  A    between atoms: C3_5  and  C5_7 
REMARK    4  A    between atoms: C13_15  and  O3_16 
ROOT
HETATM    1  C5  UNL     1     -27.297  82.824   8.181  1.00  0.00     0.023 C 
HETATM    2  C6  UNL     1     -27.988  83.739   7.153  1.00  0.00     0.009 C 
HETATM    3  C7  UNL     1     -27.327  85.057   7.166  1.00  0.00     0.011 C 
HETATM    4  C8  UNL     1     -25.911  85.000   6.622  1.00  0.00    -0.027 C 
HETATM    5  C9  UNL     1     -25.197  86.130   7.395  1.00  0.00     0.017 C 
HETATM    6  C10 UNL     1     -25.838  85.394   5.208  1.00  0.00    -0.014 C 
HETATM    7  C11 UNL     1     -27.161  85.931   4.626  1.00  0.00     0.018 C 
HETATM    8  C12 UNL     1     -24.892  86.585   4.943  1.00  0.00     0.018 C 
HETATM    9  C13 UNL     1     -25.456  84.374   4.195  1.00  0.00     0.126 C 
HETATM   10  C14 UNL     1     -24.454  83.374   4.635  1.00  0.00     0.033 C 
HETATM   11  C15 UNL     1     -25.042  82.760   5.866  1.00  0.00     0.013 C 
HETATM   12  C16 UNL     1     -25.202  83.746   7.035  1.00  0.00    -0.029 C 
HETATM   13  C17 UNL     1     -23.763  84.042   7.404  1.00  0.00     0.016 C 
HETATM   14  C18 UNL     1     -25.811  82.959   8.171  1.00  0.00    -0.034 C 
HETATM   15  C19 UNL     1     -25.186  83.241   9.511  1.00  0.00     0.016 C 
HETATM   16  C20 UNL     1     -25.311  81.487   8.011  1.00  0.00     0.016 C 
ENDROOT
BRANCH   1  17
HETATM   17  C3  UNL     1     -28.068  82.773   9.428  1.00  0.00     0.132 C 
HETATM   18  C4  UNL     1     -28.220  81.515  10.186  1.00  0.00     0.040 C 
BRANCH  17  19
HETATM   19  O2  UNL     1     -29.366  83.326   9.379  1.00  0.00    -0.316 OA
BRANCH  19  20
HETATM   20  C2  UNL     1     -30.536  82.591   9.317  1.00  0.00     0.255 C 
HETATM   21  C1  UNL     1     -31.128  82.131   8.026  1.00  0.00     0.126 C 
HETATM   22  O1  UNL     1     -31.096  82.316  10.412  1.00  0.00    -0.266 OA
ENDBRANCH  19  20
ENDBRANCH  17  19
ENDBRANCH   1  17
BRANCH   9  23
HETATM   23  O3  UNL     1     -26.600  83.678   3.795  1.00  0.00    -0.395 OA
ATOM     24  H3  UNL     1     -26.509  82.764   4.038  1.00  0.00     0.210 HD
ENDBRANCH   9  23
TORSDOF 4
ENDMDL
MODEL 5
REMARK VINA RESULT: -5.845746377      2.593      4.426
REMARK  4 active torsions:
REMARK  status: ('A' for Active; 'I' for Inactive)
REMARK    1  A    between atoms: C2_2  and  O2_4 
REMARK    2  A    between atoms: O2_4  and  C3_5 
REMARK    3  A    between atoms: C3_5  and  C5_7 
REMARK    4  A    between atoms: C13_15  and  O3_16 
ROOT
HETATM    1  C5  UNL     1     -23.803  84.442  14.477  1.00  0.00     0.023 C 
HETATM    2  C6  UNL     1     -23.443  85.711  13.682  1.00  0.00     0.009 C 
HETATM    3  C7  UNL     1     -22.095  85.548  13.106  1.00  0.00     0.011 C 
HETATM    4  C8  UNL     1     -22.053  84.485  12.023  1.00  0.00    -0.027 C 
HETATM    5  C9  UNL     1     -20.612  83.942  12.126  1.00  0.00     0.017 C 
HETATM    6  C10 UNL     1     -22.154  85.058  10.673  1.00  0.00    -0.014 C 
HETATM    7  C11 UNL     1     -22.116  86.598  10.629  1.00  0.00     0.018 C 
HETATM    8  C12 UNL     1     -20.961  84.706   9.759  1.00  0.00     0.018 C 
HETATM    9  C13 UNL     1     -23.359  84.763   9.854  1.00  0.00     0.126 C 
HETATM   10  C14 UNL     1     -23.935  83.407  10.019  1.00  0.00     0.033 C 
HETATM   11  C15 UNL     1     -24.200  83.282  11.487  1.00  0.00     0.013 C 
HETATM   12  C16 UNL     1     -22.929  83.315  12.352  1.00  0.00    -0.029 C 
HETATM   13  C17 UNL     1     -22.249  82.015  11.972  1.00  0.00     0.016 C 
HETATM   14  C18 UNL     1     -23.390  83.187  13.785  1.00  0.00    -0.034 C 
HETATM   15  C19 UNL     1     -22.555  82.245  14.610  1.00  0.00     0.016 C 
HETATM   16  C20 UNL     1     -24.700  82.337  13.756  1.00  0.00     0.016 C 
ENDROOT
BRANCH   1  17
HETATM   17  C3  UNL     1     -23.580  84.651  15.912  1.00  0.00     0.132 C 
HETATM   18  C4  UNL     1     -24.584  84.238  16.914  1.00  0.00     0.040 C 
BRANCH  17  19
HETATM   19  O2  UNL     1     -23.197  85.953  16.299  1.00  0.00    -0.316 OA
BRANCH  19  20
HETATM   20  C2  UNL     1     -22.080  86.256  17.056  1.00  0.00     0.255 C 
HETATM   21  C1  UNL     1     -20.906  85.339  17.159  1.00  0.00     0.126 C 
HETATM   22  O1  UNL     1     -22.087  87.358  17.667  1.00  0.00    -0.266 OA
ENDBRANCH  19  20
ENDBRANCH  17  19
ENDBRANCH   1  17
BRANCH   9  23
HETATM   23  O3  UNL     1     -24.360  85.688  10.166  1.00  0.00    -0.395 OA
ATOM     24  H3  UNL     1     -24.939  85.783   9.419  1.00  0.00     0.210 HD
ENDBRANCH   9  23
TORSDOF 4
ENDMDL
