MODEL 1
REMARK VINA RESULT: -6.385297933      0.000      0.000
REMARK  4 active torsions:
REMARK  status: ('A' for Active; 'I' for Inactive)
REMARK    1  A    between atoms: O1_2  and  C2_3 
REMARK    2  A    between atoms: C2_3  and  C3_5 
REMARK    3  A    between atoms: C3_5  and  C4_6 
REMARK    4  A    between atoms: C4_6  and  C5_7 
ROOT
HETATM    1  C3  UNL     1     -25.859  83.725   7.453  1.00  0.00     0.060 C 
HETATM    2  C9  UNL     1     -24.494  83.050   7.221  1.00  0.00     0.013 C 
HETATM    3  C10 UNL     1     -24.772  81.735   6.517  1.00  0.00     0.007 C 
HETATM    4  C11 UNL     1     -24.982  82.077   5.038  1.00  0.00     0.011 C 
HETATM    5  C12 UNL     1     -25.187  83.601   5.178  1.00  0.00    -0.023 C 
HETATM    6  C13 UNL     1     -25.171  84.308   3.915  1.00  0.00     0.062 C 
HETATM    7  C14 UNL     1     -26.307  85.169   3.592  1.00  0.00    -0.019 C 
HETATM    8  N1  UNL     1     -26.737  85.380   2.407  1.00  0.00    -0.406 N 
ATOM      9  H11 UNL     1     -27.530  85.981   2.181  1.00  0.00     0.155 HD
ATOM     10  H12 UNL     1     -26.276  84.929   1.617  1.00  0.00     0.155 HD
HETATM   11  C15 UNL     1     -26.988  85.835   4.758  1.00  0.00     0.056 C 
HETATM   12  C16 UNL     1     -27.403  84.735   5.677  1.00  0.00    -0.007 C 
HETATM   13  C17 UNL     1     -28.581  84.079   4.909  1.00  0.00     0.011 C 
HETATM   14  C18 UNL     1     -26.378  83.754   6.090  1.00  0.00     0.018 C 
HETATM   15  C19 UNL     1     -23.934  83.818   6.052  1.00  0.00    -0.035 C 
HETATM   16  C20 UNL     1     -22.761  83.035   5.440  1.00  0.00     0.016 C 
HETATM   17  C21 UNL     1     -23.465  85.170   6.209  1.00  0.00     0.016 C 
ENDROOT
BRANCH   1  18
HETATM   18  C2  UNL     1     -25.576  84.935   8.211  1.00  0.00     0.268 C 
HETATM   19  O2  UNL     1     -25.849  86.123   7.972  1.00  0.00    -0.264 OA
BRANCH  18  20
HETATM   20  O1  UNL     1     -24.885  84.733   9.407  1.00  0.00    -0.326 OA
HETATM   21  C1  UNL     1     -23.902  85.628   9.863  1.00  0.00     0.213 C 
ENDBRANCH  18  20
ENDBRANCH   1  18
BRANCH   1  22
HETATM   22  C4  UNL     1     -26.697  82.876   8.439  1.00  0.00     0.048 C 
BRANCH  22  23
HETATM   23  C5  UNL     1     -28.132  83.191   8.313  1.00  0.00    -0.023 C 
HETATM   24  C6  UNL     1     -29.020  82.621   9.085  1.00  0.00    -0.091 C 
HETATM   25  C7  UNL     1     -30.457  82.946   8.947  1.00  0.00     0.042 C 
HETATM   26  C8  UNL     1     -28.596  81.648  10.119  1.00  0.00     0.042 C 
ENDBRANCH  22  23
ENDBRANCH   1  22
TORSDOF 4
ENDMDL
MODEL 2
REMARK VINA RESULT: -6.184119818      5.435      7.734
REMARK  4 active torsions:
REMARK  status: ('A' for Active; 'I' for Inactive)
REMARK    1  A    between atoms: O1_2  and  C2_3 
REMARK    2  A    between atoms: C2_3  and  C3_5 
REMARK    3  A    between atoms: C3_5  and  C4_6 
REMARK    4  A    between atoms: C4_6  and  C5_7 
ROOT
HETATM    1  C3  UNL     1     -21.247  87.254  10.167  1.00  0.00     0.060 C 
HETATM    2  C9  UNL     1     -20.884  88.274  11.263  1.00  0.00     0.013 C 
HETATM    3  C10 UNL     1     -19.920  89.264  10.635  1.00  0.00     0.007 C 
HETATM    4  C11 UNL     1     -20.780  90.253   9.840  1.00  0.00     0.011 C 
HETATM    5  C12 UNL     1     -22.094  89.444   9.805  1.00  0.00    -0.023 C 
HETATM    6  C13 UNL     1     -23.231  90.203   9.328  1.00  0.00     0.062 C 
HETATM    7  C14 UNL     1     -24.006  89.658   8.215  1.00  0.00    -0.019 C 
HETATM    8  N1  UNL     1     -24.605  90.368   7.338  1.00  0.00    -0.406 N 
ATOM      9  H11 UNL     1     -25.146  89.988   6.561  1.00  0.00     0.155 HD
ATOM     10  H12 UNL     1     -24.553  91.385   7.394  1.00  0.00     0.155 HD
HETATM   11  C15 UNL     1     -24.082  88.156   8.132  1.00  0.00     0.056 C 
HETATM   12  C16 UNL     1     -22.671  87.673   8.080  1.00  0.00    -0.007 C 
HETATM   13  C17 UNL     1     -22.227  88.083   6.651  1.00  0.00     0.011 C 
HETATM   14  C18 UNL     1     -21.738  88.147   9.123  1.00  0.00     0.018 C 
HETATM   15  C19 UNL     1     -22.106  89.154  11.321  1.00  0.00    -0.035 C 
HETATM   16  C20 UNL     1     -21.767  90.450  12.076  1.00  0.00     0.016 C 
HETATM   17  C21 UNL     1     -23.338  88.677  11.892  1.00  0.00     0.016 C 
ENDROOT
BRANCH   1  18
HETATM   18  C2  UNL     1     -22.095  86.265  10.815  1.00  0.00     0.268 C 
HETATM   19  O2  UNL     1     -23.197  85.798  10.482  1.00  0.00    -0.264 OA
BRANCH  18  20
HETATM   20  O1  UNL     1     -21.590  85.749  12.011  1.00  0.00    -0.326 OA
HETATM   21  C1  UNL     1     -22.426  85.219  13.008  1.00  0.00     0.213 C 
ENDBRANCH  18  20
ENDBRANCH   1  18
BRANCH   1  22
HETATM   22  C4  UNL     1     -19.989  86.443   9.775  1.00  0.00     0.048 C 
BRANCH  22  23
HETATM   23  C5  UNL     1     -20.329  85.380   8.813  1.00  0.00    -0.023 C 
HETATM   24  C6  UNL     1     -19.814  85.363   7.612  1.00  0.00    -0.091 C 
HETATM   25  C7  UNL     1     -20.166  84.289   6.657  1.00  0.00     0.042 C 
HETATM   26  C8  UNL     1     -18.859  86.417   7.194  1.00  0.00     0.042 C 
ENDBRANCH  22  23
ENDBRANCH   1  22
TORSDOF 4
ENDMDL
MODEL 3
REMARK VINA RESULT: -6.130856497      5.540      7.463
REMARK  4 active torsions:
REMARK  status: ('A' for Active; 'I' for Inactive)
REMARK    1  A    between atoms: O1_2  and  C2_3 
REMARK    2  A    between atoms: C2_3  and  C3_5 
REMARK    3  A    between atoms: C3_5  and  C4_6 
REMARK    4  A    between atoms: C4_6  and  C5_7 
ROOT
HETATM    1  C3  UNL     1     -22.491  87.147  10.231  1.00  0.00     0.060 C 
HETATM    2  C9  UNL     1     -23.350  86.950   8.967  1.00  0.00     0.013 C 
HETATM    3  C10 UNL     1     -24.580  87.822   9.136  1.00  0.00     0.007 C 
HETATM    4  C11 UNL     1     -24.153  89.245   8.762  1.00  0.00     0.011 C 
HETATM    5  C12 UNL     1     -22.622  89.049   8.814  1.00  0.00    -0.023 C 
HETATM    6  C13 UNL     1     -21.875  90.160   8.262  1.00  0.00     0.062 C 
HETATM    7  C14 UNL     1     -20.844  90.779   9.093  1.00  0.00    -0.019 C 
HETATM    8  N1  UNL     1     -20.526  92.016   9.044  1.00  0.00    -0.406 N 
ATOM      9  H11 UNL     1     -19.806  92.448   9.624  1.00  0.00     0.155 HD
ATOM     10  H12 UNL     1     -21.008  92.634   8.391  1.00  0.00     0.155 HD
HETATM   11  C15 UNL     1     -20.133  89.867  10.057  1.00  0.00     0.056 C 
HETATM   12  C16 UNL     1     -21.195  89.251  10.904  1.00  0.00    -0.007 C 
HETATM   13  C17 UNL     1     -21.639  90.435  11.802  1.00  0.00     0.011 C 
HETATM   14  C18 UNL     1     -22.332  88.597  10.223  1.00  0.00     0.018 C 
HETATM   15  C19 UNL     1     -22.626  87.779   7.937  1.00  0.00    -0.035 C 
HETATM   16  C20 UNL     1     -23.549  88.014   6.730  1.00  0.00     0.016 C 
HETATM   17  C21 UNL     1     -21.365  87.350   7.391  1.00  0.00     0.016 C 
ENDROOT
BRANCH   1  18
HETATM   18  C2  UNL     1     -21.367  86.234  10.089  1.00  0.00     0.268 C 
HETATM   19  O2  UNL     1     -20.147  86.421  10.234  1.00  0.00    -0.264 OA
BRANCH  18  20
HETATM   20  O1  UNL     1     -21.710  84.929   9.730  1.00  0.00    -0.326 OA
HETATM   21  C1  UNL     1     -20.772  84.030   9.193  1.00  0.00     0.213 C 
ENDBRANCH  18  20
ENDBRANCH   1  18
BRANCH   1  22
HETATM   22  C4  UNL     1     -23.245  86.593  11.462  1.00  0.00     0.048 C 
BRANCH  22  23
HETATM   23  C5  UNL     1     -23.604  87.680  12.391  1.00  0.00    -0.023 C 
HETATM   24  C6  UNL     1     -23.719  87.464  13.675  1.00  0.00    -0.091 C 
HETATM   25  C7  UNL     1     -24.081  88.565  14.594  1.00  0.00     0.042 C 
HETATM   26  C8  UNL     1     -23.477  86.111  14.229  1.00  0.00     0.042 C 
ENDBRANCH  22  23
ENDBRANCH   1  22
TORSDOF 4
ENDMDL
MODEL 4
REMARK VINA RESULT: -6.071992176      3.703      6.659
REMARK  4 active torsions:
REMARK  status: ('A' for Active; 'I' for Inactive)
REMARK    1  A    between atoms: O1_2  and  C2_3 
REMARK    2  A    between atoms: C2_3  and  C3_5 
REMARK    3  A    between atoms: C3_5  and  C4_6 
REMARK    4  A    between atoms: C4_6  and  C5_7 
ROOT
HETATM    1  C3  UNL     1     -23.570  87.242   8.930  1.00  0.00     0.060 C 
HETATM    2  C9  UNL     1     -24.176  88.382   8.088  1.00  0.00     0.013 C 
HETATM    3  C10 UNL     1     -23.645  89.680   8.668  1.00  0.00     0.007 C 
HETATM    4  C11 UNL     1     -22.233  89.858   8.099  1.00  0.00     0.011 C 
HETATM    5  C12 UNL     1     -22.007  88.420   7.584  1.00  0.00    -0.023 C 
HETATM    6  C13 UNL     1     -20.836  88.282   6.745  1.00  0.00     0.062 C 
HETATM    7  C14 UNL     1     -19.848  87.265   7.102  1.00  0.00    -0.019 C 
HETATM    8  N1  UNL     1     -18.593  87.372   6.885  1.00  0.00    -0.406 N 
ATOM      9  H11 UNL     1     -17.903  86.663   7.134  1.00  0.00     0.155 HD
ATOM     10  H12 UNL     1     -18.231  88.212   6.433  1.00  0.00     0.155 HD
HETATM   11  C15 UNL     1     -20.383  86.025   7.769  1.00  0.00     0.056 C 
HETATM   12  C16 UNL     1     -21.122  86.493   8.978  1.00  0.00    -0.007 C 
HETATM   13  C17 UNL     1     -19.976  86.935   9.925  1.00  0.00     0.011 C 
HETATM   14  C18 UNL     1     -22.148  87.540   8.800  1.00  0.00     0.018 C 
HETATM   15  C19 UNL     1     -23.351  88.343   6.828  1.00  0.00    -0.035 C 
HETATM   16  C20 UNL     1     -23.554  89.651   6.044  1.00  0.00     0.016 C 
HETATM   17  C21 UNL     1     -23.509  87.281   5.869  1.00  0.00     0.016 C 
ENDROOT
BRANCH   1  18
HETATM   18  C2  UNL     1     -24.165  86.016   8.417  1.00  0.00     0.268 C 
HETATM   19  O2  UNL     1     -23.641  84.942   8.078  1.00  0.00    -0.264 OA
BRANCH  18  20
HETATM   20  O1  UNL     1     -25.554  86.046   8.284  1.00  0.00    -0.326 OA
HETATM   21  C1  UNL     1     -26.233  85.248   7.348  1.00  0.00     0.213 C 
ENDBRANCH  18  20
ENDBRANCH   1  18
BRANCH   1  22
HETATM   22  C4  UNL     1     -24.111  87.321  10.377  1.00  0.00     0.048 C 
BRANCH  22  23
HETATM   23  C5  UNL     1     -23.438  86.337  11.244  1.00  0.00    -0.023 C 
HETATM   24  C6  UNL     1     -23.277  86.559  12.521  1.00  0.00    -0.091 C 
HETATM   25  C7  UNL     1     -22.598  85.562  13.379  1.00  0.00     0.042 C 
HETATM   26  C8  UNL     1     -23.784  87.810  13.133  1.00  0.00     0.042 C 
ENDBRANCH  22  23
ENDBRANCH   1  22
TORSDOF 4
ENDMDL
MODEL 5
REMARK VINA RESULT: -6.015538730      3.918      6.259
REMARK  4 active torsions:
REMARK  status: ('A' for Active; 'I' for Inactive)
REMARK    1  A    between atoms: O1_2  and  C2_3 
REMARK    2  A    between atoms: C2_3  and  C3_5 
REMARK    3  A    between atoms: C3_5  and  C4_6 
REMARK    4  A    between atoms: C4_6  and  C5_7 
ROOT
HETATM    1  C3  UNL     1     -22.425  86.282  10.932  1.00  0.00     0.060 C 
HETATM    2  C9  UNL     1     -21.143  87.042  11.323  1.00  0.00     0.013 C 
HETATM    3  C10 UNL     1     -20.099  86.702  10.276  1.00  0.00     0.007 C 
HETATM    4  C11 UNL     1     -20.397  87.597   9.068  1.00  0.00     0.011 C 
HETATM    5  C12 UNL     1     -21.825  88.042   9.454  1.00  0.00    -0.023 C 
HETATM    6  C13 UNL     1     -22.339  89.119   8.635  1.00  0.00     0.062 C 
HETATM    7  C14 UNL     1     -23.628  88.928   7.974  1.00  0.00    -0.019 C 
HETATM    8  N1  UNL     1     -23.943  89.441   6.847  1.00  0.00    -0.406 N 
ATOM      9  H11 UNL     1     -24.844  89.308   6.385  1.00  0.00     0.155 HD
ATOM     10  H12 UNL     1     -23.268  90.027   6.355  1.00  0.00     0.155 HD
HETATM   11  C15 UNL     1     -24.625  88.063   8.700  1.00  0.00     0.056 C 
HETATM   12  C16 UNL     1     -23.947  86.753   8.927  1.00  0.00    -0.007 C 
HETATM   13  C17 UNL     1     -23.918  86.137   7.504  1.00  0.00     0.011 C 
HETATM   14  C18 UNL     1     -22.616  86.764   9.569  1.00  0.00     0.018 C 
HETATM   15  C19 UNL     1     -21.445  88.454  10.892  1.00  0.00    -0.035 C 
HETATM   16  C20 UNL     1     -20.139  89.264  10.847  1.00  0.00     0.016 C 
HETATM   17  C21 UNL     1     -22.387  89.266  11.617  1.00  0.00     0.016 C 
ENDROOT
BRANCH   1  18
HETATM   18  C2  UNL     1     -23.380  86.547  11.998  1.00  0.00     0.268 C 
HETATM   19  O2  UNL     1     -24.545  86.976  11.955  1.00  0.00    -0.264 OA
BRANCH  18  20
HETATM   20  O1  UNL     1     -22.915  86.275  13.287  1.00  0.00    -0.326 OA
HETATM   21  C1  UNL     1     -23.760  86.308  14.409  1.00  0.00     0.213 C 
ENDBRANCH  18  20
ENDBRANCH   1  18
BRANCH   1  22
HETATM   22  C4  UNL     1     -22.181  84.759  11.045  1.00  0.00     0.048 C 
BRANCH  22  23
HETATM   23  C5  UNL     1     -23.376  84.004  10.626  1.00  0.00    -0.023 C 
HETATM   24  C6  UNL     1     -23.324  83.145   9.642  1.00  0.00    -0.091 C 
HETATM   25  C7  UNL     1     -24.532  82.395   9.232  1.00  0.00     0.042 C 
HETATM   26  C8  UNL     1     -22.048  82.903   8.928  1.00  0.00     0.042 C 
ENDBRANCH  22  23
ENDBRANCH   1  22
TORSDOF 4
ENDMDL
