MODEL 1
REMARK VINA RESULT: -8.564758475      0.000      0.000
REMARK  1 active torsions:
REMARK  status: ('A' for Active; 'I' for Inactive)
REMARK    1  A    between atoms: C14_16  and  C15_17 
ROOT
HETATM    1  C1  UNL     1     -24.764  82.949   7.047  1.00  0.00     0.018 C 
HETATM    2  C2  UNL     1     -25.488  83.186   8.368  1.00  0.00    -0.015 C 
HETATM    3  C3  UNL     1     -25.142  84.594   8.807  1.00  0.00     0.012 C 
HETATM    4  C4  UNL     1     -23.666  84.843   8.866  1.00  0.00     0.010 C 
HETATM    5  C5  UNL     1     -23.209  85.251  10.256  1.00  0.00     0.048 C 
HETATM    6  C6  UNL     1     -21.883  85.955  10.086  1.00  0.00     0.195 C 
HETATM    7  C7  UNL     1     -21.416  86.597  11.372  1.00  0.00     0.066 C 
HETATM    8  C8  UNL     1     -20.539  85.395  11.539  1.00  0.00     0.188 C 
HETATM    9  C9  UNL     1     -21.068  84.381  12.501  1.00  0.00     0.036 C 
HETATM   10  C10 UNL     1     -22.566  84.240  12.456  1.00  0.00     0.037 C 
HETATM   11  C11 UNL     1     -22.969  83.973  11.030  1.00  0.00     0.166 C 
HETATM   12  O1  UNL     1     -24.115  83.189  11.062  1.00  0.00    -0.235 OA
HETATM   13  O2  UNL     1     -24.034  82.315  10.088  1.00  0.00    -0.234 OA
HETATM   14  C12 UNL     1     -25.196  82.150   9.389  1.00  0.00     0.168 C 
HETATM   15  C13 UNL     1     -26.437  82.248  10.291  1.00  0.00     0.041 C 
HETATM   16  C14 UNL     1     -27.505  82.167   9.263  1.00  0.00    -0.007 C 
HETATM   17  C21 UNL     1     -26.987  83.101   8.177  1.00  0.00     0.017 C 
HETATM   18  N1  UNL     1     -20.762  85.063  10.163  1.00  0.00    -0.066 N 
ATOM     19  H11 UNL     1     -19.997  85.163   9.495  1.00  0.00     0.278 HD
ATOM     20  H12 UNL     1     -20.883  84.085   9.899  1.00  0.00     0.278 HD
ENDROOT
BRANCH  16  21
HETATM   21  C15 UNL     1     -28.877  82.517   9.713  1.00  0.00    -0.010 C 
HETATM   22  C16 UNL     1     -29.712  81.400  10.201  1.00  0.00     0.005 C 
HETATM   23  C17 UNL     1     -31.200  81.645  10.065  1.00  0.00     0.000 C 
HETATM   24  C18 UNL     1     -31.600  81.855   8.623  1.00  0.00     0.000 C 
HETATM   25  C19 UNL     1     -30.505  82.445   7.797  1.00  0.00     0.000 C 
HETATM   26  C20 UNL     1     -29.573  83.301   8.625  1.00  0.00     0.005 C 
ENDBRANCH  16  21
TORSDOF 1
ENDMDL
MODEL 2
REMARK VINA RESULT: -8.339744335      1.140      1.302
REMARK  1 active torsions:
REMARK  status: ('A' for Active; 'I' for Inactive)
REMARK    1  A    between atoms: C14_16  and  C15_17 
ROOT
HETATM    1  C1  UNL     1     -24.993  84.387   6.283  1.00  0.00     0.018 C 
HETATM    2  C2  UNL     1     -25.503  83.978   7.661  1.00  0.00    -0.015 C 
HETATM    3  C3  UNL     1     -24.886  84.939   8.656  1.00  0.00     0.012 C 
HETATM    4  C4  UNL     1     -23.394  85.011   8.554  1.00  0.00     0.010 C 
HETATM    5  C5  UNL     1     -22.710  84.623   9.853  1.00  0.00     0.048 C 
HETATM    6  C6  UNL     1     -21.320  85.213   9.805  1.00  0.00     0.195 C 
HETATM    7  C7  UNL     1     -20.603  85.079  11.128  1.00  0.00     0.066 C 
HETATM    8  C8  UNL     1     -19.914  83.895  10.524  1.00  0.00     0.188 C 
HETATM    9  C9  UNL     1     -20.477  82.578  10.950  1.00  0.00     0.036 C 
HETATM   10  C10 UNL     1     -21.972  82.593  11.122  1.00  0.00     0.037 C 
HETATM   11  C11 UNL     1     -22.584  83.116   9.850  1.00  0.00     0.166 C 
HETATM   12  O1  UNL     1     -23.827  82.513   9.708  1.00  0.00    -0.235 OA
HETATM   13  O2  UNL     1     -24.007  82.249   8.437  1.00  0.00    -0.234 OA
HETATM   14  C12 UNL     1     -25.257  82.549   7.975  1.00  0.00     0.168 C 
HETATM   15  C13 UNL     1     -26.346  82.272   9.024  1.00  0.00     0.041 C 
HETATM   16  C14 UNL     1     -27.532  82.803   8.305  1.00  0.00    -0.007 C 
HETATM   17  C21 UNL     1     -27.008  84.115   7.735  1.00  0.00     0.017 C 
HETATM   18  N1  UNL     1     -20.354  84.322   9.229  1.00  0.00    -0.066 N 
ATOM     19  H11 UNL     1     -19.671  84.688   8.565  1.00  0.00     0.278 HD
ATOM     20  H12 UNL     1     -20.661  83.625   8.550  1.00  0.00     0.278 HD
ENDROOT
BRANCH  16  21
HETATM   21  C15 UNL     1     -28.765  82.981   9.115  1.00  0.00    -0.010 C 
HETATM   22  C16 UNL     1     -29.210  81.810   9.897  1.00  0.00     0.005 C 
HETATM   23  C17 UNL     1     -30.696  81.799  10.189  1.00  0.00     0.000 C 
HETATM   24  C18 UNL     1     -31.512  81.775   8.918  1.00  0.00     0.000 C 
HETATM   25  C19 UNL     1     -30.818  82.431   7.770  1.00  0.00     0.000 C 
HETATM   26  C20 UNL     1     -29.868  83.514   8.230  1.00  0.00     0.005 C 
ENDBRANCH  16  21
TORSDOF 1
ENDMDL
MODEL 3
REMARK VINA RESULT: -8.299246604      2.819      7.696
REMARK  1 active torsions:
REMARK  status: ('A' for Active; 'I' for Inactive)
REMARK    1  A    between atoms: C14_16  and  C15_17 
ROOT
HETATM    1  C1  UNL     1     -26.314  79.439  10.943  1.00  0.00     0.018 C 
HETATM    2  C2  UNL     1     -26.084  80.946  10.979  1.00  0.00    -0.015 C 
HETATM    3  C3  UNL     1     -27.358  81.567  11.516  1.00  0.00     0.012 C 
HETATM    4  C4  UNL     1     -28.579  81.152  10.753  1.00  0.00     0.010 C 
HETATM    5  C5  UNL     1     -29.308  82.339  10.150  1.00  0.00     0.048 C 
HETATM    6  C6  UNL     1     -30.724  81.886   9.879  1.00  0.00     0.195 C 
HETATM    7  C7  UNL     1     -31.617  83.034   9.471  1.00  0.00     0.066 C 
HETATM    8  C8  UNL     1     -31.404  82.572   8.063  1.00  0.00     0.188 C 
HETATM    9  C9  UNL     1     -30.399  83.375   7.301  1.00  0.00     0.036 C 
HETATM   10  C10 UNL     1     -29.241  83.838   8.144  1.00  0.00     0.037 C 
HETATM   11  C11 UNL     1     -28.645  82.633   8.822  1.00  0.00     0.166 C 
HETATM   12  O1  UNL     1     -27.288  82.878   8.988  1.00  0.00    -0.235 OA
HETATM   13  O2  UNL     1     -26.645  81.756   8.774  1.00  0.00    -0.234 OA
HETATM   14  C12 UNL     1     -25.649  81.503   9.675  1.00  0.00     0.168 C 
HETATM   15  C13 UNL     1     -24.923  82.785  10.113  1.00  0.00     0.041 C 
HETATM   16  C14 UNL     1     -24.023  82.223  11.153  1.00  0.00    -0.007 C 
HETATM   17  C21 UNL     1     -24.952  81.291  11.921  1.00  0.00     0.017 C 
HETATM   18  N1  UNL     1     -30.893  81.331   8.567  1.00  0.00    -0.066 N 
ATOM     19  H11 UNL     1     -31.444  80.480   8.451  1.00  0.00     0.278 HD
ATOM     20  H12 UNL     1     -30.096  80.894   8.103  1.00  0.00     0.278 HD
ENDROOT
BRANCH  16  21
HETATM   21  C15 UNL     1     -23.342  83.207  12.033  1.00  0.00    -0.010 C 
HETATM   22  C16 UNL     1     -23.050  84.527  11.438  1.00  0.00     0.005 C 
HETATM   23  C17 UNL     1     -21.880  85.242  12.080  1.00  0.00     0.000 C 
HETATM   24  C18 UNL     1     -20.603  84.445  11.953  1.00  0.00     0.000 C 
HETATM   25  C19 UNL     1     -20.842  82.972  11.889  1.00  0.00     0.000 C 
HETATM   26  C20 UNL     1     -22.103  82.573  12.622  1.00  0.00     0.005 C 
ENDBRANCH  16  21
TORSDOF 1
ENDMDL
MODEL 4
REMARK VINA RESULT: -8.269447191      1.582      2.001
REMARK  1 active torsions:
REMARK  status: ('A' for Active; 'I' for Inactive)
REMARK    1  A    between atoms: C14_16  and  C15_17 
ROOT
HETATM    1  C1  UNL     1     -25.920  83.966   5.551  1.00  0.00     0.018 C 
HETATM    2  C2  UNL     1     -26.292  84.085   7.025  1.00  0.00    -0.015 C 
HETATM    3  C3  UNL     1     -26.016  85.519   7.429  1.00  0.00     0.012 C 
HETATM    4  C4  UNL     1     -24.618  85.957   7.113  1.00  0.00     0.010 C 
HETATM    5  C5  UNL     1     -23.862  86.399   8.354  1.00  0.00     0.048 C 
HETATM    6  C6  UNL     1     -22.724  87.273   7.880  1.00  0.00     0.195 C 
HETATM    7  C7  UNL     1     -22.015  87.950   9.030  1.00  0.00     0.066 C 
HETATM    8  C8  UNL     1     -20.986  86.870   8.902  1.00  0.00     0.188 C 
HETATM    9  C9  UNL     1     -21.114  85.780   9.917  1.00  0.00     0.036 C 
HETATM   10  C10 UNL     1     -22.542  85.446  10.258  1.00  0.00     0.037 C 
HETATM   11  C11 UNL     1     -23.272  85.152   8.975  1.00  0.00     0.166 C 
HETATM   12  O1  UNL     1     -24.265  84.224   9.265  1.00  0.00    -0.235 OA
HETATM   13  O2  UNL     1     -24.339  83.384   8.261  1.00  0.00    -0.234 OA
HETATM   14  C12 UNL     1     -25.616  83.080   7.882  1.00  0.00     0.168 C 
HETATM   15  C13 UNL     1     -26.576  83.001   9.080  1.00  0.00     0.041 C 
HETATM   16  C14 UNL     1     -27.860  82.797   8.364  1.00  0.00    -0.007 C 
HETATM   17  C21 UNL     1     -27.765  83.808   7.228  1.00  0.00     0.017 C 
HETATM   18  N1  UNL     1     -21.523  86.534   7.617  1.00  0.00    -0.066 N 
ATOM     19  H11 UNL     1     -20.981  86.744   6.779  1.00  0.00     0.278 HD
ATOM     20  H12 UNL     1     -21.590  85.553   7.345  1.00  0.00     0.278 HD
ENDROOT
BRANCH  16  21
HETATM   21  C15 UNL     1     -29.096  82.958   9.173  1.00  0.00    -0.010 C 
HETATM   22  C16 UNL     1     -29.462  81.822  10.042  1.00  0.00     0.005 C 
HETATM   23  C17 UNL     1     -30.942  81.741  10.352  1.00  0.00     0.000 C 
HETATM   24  C18 UNL     1     -31.765  81.576   9.095  1.00  0.00     0.000 C 
HETATM   25  C19 UNL     1     -31.121  82.189   7.896  1.00  0.00     0.000 C 
HETATM   26  C20 UNL     1     -30.236  83.358   8.265  1.00  0.00     0.005 C 
ENDBRANCH  16  21
TORSDOF 1
ENDMDL
MODEL 5
REMARK VINA RESULT: -8.196387853      1.715      2.090
REMARK  1 active torsions:
REMARK  status: ('A' for Active; 'I' for Inactive)
REMARK    1  A    between atoms: C14_16  and  C15_17 
ROOT
HETATM    1  C1  UNL     1     -25.350  85.285   5.695  1.00  0.00     0.018 C 
HETATM    2  C2  UNL     1     -25.687  84.644   7.037  1.00  0.00    -0.015 C 
HETATM    3  C3  UNL     1     -24.936  85.427   8.094  1.00  0.00     0.012 C 
HETATM    4  C4  UNL     1     -23.468  85.527   7.816  1.00  0.00     0.010 C 
HETATM    5  C5  UNL     1     -22.631  84.931   8.934  1.00  0.00     0.048 C 
HETATM    6  C6  UNL     1     -21.250  85.531   8.809  1.00  0.00     0.195 C 
HETATM    7  C7  UNL     1     -20.373  85.181   9.989  1.00  0.00     0.066 C 
HETATM    8  C8  UNL     1     -19.783  84.122   9.110  1.00  0.00     0.188 C 
HETATM    9  C9  UNL     1     -20.304  82.746   9.375  1.00  0.00     0.036 C 
HETATM   10  C10 UNL     1     -21.765  82.721   9.737  1.00  0.00     0.037 C 
HETATM   11  C11 UNL     1     -22.526  83.447   8.659  1.00  0.00     0.166 C 
HETATM   12  O1  UNL     1     -23.786  82.867   8.577  1.00  0.00    -0.235 OA
HETATM   13  O2  UNL     1     -24.129  82.821   7.312  1.00  0.00    -0.234 OA
HETATM   14  C12 UNL     1     -25.423  83.185   7.071  1.00  0.00     0.168 C 
HETATM   15  C13 UNL     1     -26.374  82.725   8.188  1.00  0.00     0.041 C 
HETATM   16  C14 UNL     1     -27.634  83.361   7.726  1.00  0.00    -0.007 C 
HETATM   17  C21 UNL     1     -27.169  84.755   7.324  1.00  0.00     0.017 C 
HETATM   18  N1  UNL     1     -20.377  84.759   7.973  1.00  0.00    -0.066 N 
ATOM     19  H11 UNL     1     -19.779  85.237   7.299  1.00  0.00     0.278 HD
ATOM     20  H12 UNL     1     -20.777  84.184   7.231  1.00  0.00     0.278 HD
ENDROOT
BRANCH  16  21
HETATM   21  C15 UNL     1     -28.752  83.389   8.704  1.00  0.00    -0.010 C 
HETATM   22  C16 UNL     1     -28.888  82.207   9.579  1.00  0.00     0.005 C 
HETATM   23  C17 UNL     1     -30.295  81.982  10.089  1.00  0.00     0.000 C 
HETATM   24  C18 UNL     1     -31.269  81.764   8.954  1.00  0.00     0.000 C 
HETATM   25  C19 UNL     1     -30.860  82.457   7.696  1.00  0.00     0.000 C 
HETATM   26  C20 UNL     1     -30.041  83.697   7.977  1.00  0.00     0.005 C 
ENDBRANCH  16  21
TORSDOF 1
ENDMDL
