MODEL 1
REMARK VINA RESULT: -7.322962243      0.000      0.000
REMARK  4 active torsions:
REMARK  status: ('A' for Active; 'I' for Inactive)
REMARK    1  A    between atoms: C3_3  and  C4_4 
REMARK    2  A    between atoms: C4_4  and  O2_6 
REMARK    3  A    between atoms: O2_6  and  C5_7 
REMARK    4  A    between atoms: C10_12  and  O3_13 
ROOT
HETATM    1  C5  UNL     1     -26.700  82.165  10.087  1.00  0.00     0.136 C 
HETATM    2  C6  UNL     1     -26.072  80.945  10.736  1.00  0.00     0.034 C 
HETATM    3  C7  UNL     1     -25.972  81.066  12.229  1.00  0.00     0.014 C 
HETATM    4  C8  UNL     1     -24.530  80.976  12.723  1.00  0.00    -0.014 C 
HETATM    5  C9  UNL     1     -24.146  79.497  12.563  1.00  0.00     0.018 C 
HETATM    6  C10 UNL     1     -24.557  81.256  14.192  1.00  0.00     0.126 C 
HETATM    7  C11 UNL     1     -23.952  82.602  14.530  1.00  0.00     0.033 C 
HETATM    8  C12 UNL     1     -22.499  82.519  14.100  1.00  0.00     0.011 C 
HETATM    9  C13 UNL     1     -22.326  82.127  12.676  1.00  0.00    -0.043 C 
HETATM   10  C14 UNL     1     -21.525  83.231  11.996  1.00  0.00     0.015 C 
HETATM   11  C15 UNL     1     -21.378  80.916  12.636  1.00  0.00     0.015 C 
HETATM   12  C16 UNL     1     -23.584  81.798  11.938  1.00  0.00     0.004 C 
HETATM   13  C17 UNL     1     -24.234  83.031  11.295  1.00  0.00     0.007 C 
HETATM   14  C18 UNL     1     -24.323  82.935   9.817  1.00  0.00     0.007 C 
HETATM   15  C19 UNL     1     -25.670  82.796   9.214  1.00  0.00     0.011 C 
HETATM   16  C20 UNL     1     -25.572  81.960   7.951  1.00  0.00     0.012 C 
ENDROOT
BRANCH   1  17
HETATM   17  O2  UNL     1     -27.866  81.765   9.500  1.00  0.00    -0.312 OA
BRANCH  17  18
HETATM   18  C4  UNL     1     -29.064  82.415   9.416  1.00  0.00     0.282 C 
HETATM   19  O1  UNL     1     -29.627  82.471  10.522  1.00  0.00    -0.260 OA
BRANCH  18  20
HETATM   20  C3  UNL     1     -29.615  82.973   8.186  1.00  0.00     0.077 C 
HETATM   21  C2  UNL     1     -30.776  82.518   7.745  1.00  0.00    -0.025 C 
HETATM   22  C1  UNL     1     -31.409  83.027   6.507  1.00  0.00     0.036 C 
ENDBRANCH  18  20
ENDBRANCH  17  18
ENDBRANCH   1  17
BRANCH   6  23
HETATM   23  O3  UNL     1     -25.851  81.121  14.739  1.00  0.00    -0.395 OA
ATOM     24  H3  UNL     1     -25.848  81.177  15.688  1.00  0.00     0.210 HD
ENDBRANCH   6  23
TORSDOF 4
ENDMDL
MODEL 2
REMARK VINA RESULT: -7.142921494      3.879      7.698
REMARK  4 active torsions:
REMARK  status: ('A' for Active; 'I' for Inactive)
REMARK    1  A    between atoms: C3_3  and  C4_4 
REMARK    2  A    between atoms: C4_4  and  O2_6 
REMARK    3  A    between atoms: O2_6  and  C5_7 
REMARK    4  A    between atoms: C10_12  and  O3_13 
ROOT
HETATM    1  C5  UNL     1     -26.954  83.205   7.841  1.00  0.00     0.136 C 
HETATM    2  C6  UNL     1     -27.131  84.482   7.040  1.00  0.00     0.034 C 
HETATM    3  C7  UNL     1     -27.981  84.290   5.817  1.00  0.00     0.014 C 
HETATM    4  C8  UNL     1     -27.232  84.634   4.531  1.00  0.00    -0.014 C 
HETATM    5  C9  UNL     1     -27.129  86.167   4.528  1.00  0.00     0.018 C 
HETATM    6  C10 UNL     1     -28.131  84.262   3.394  1.00  0.00     0.126 C 
HETATM    7  C11 UNL     1     -27.632  83.045   2.645  1.00  0.00     0.033 C 
HETATM    8  C12 UNL     1     -26.288  83.443   2.063  1.00  0.00     0.011 C 
HETATM    9  C13 UNL     1     -25.331  83.950   3.081  1.00  0.00    -0.043 C 
HETATM   10  C14 UNL     1     -24.087  83.072   3.011  1.00  0.00     0.015 C 
HETATM   11  C15 UNL     1     -24.830  85.325   2.608  1.00  0.00     0.015 C 
HETATM   12  C16 UNL     1     -25.867  84.068   4.472  1.00  0.00     0.004 C 
HETATM   13  C17 UNL     1     -25.707  82.774   5.281  1.00  0.00     0.007 C 
HETATM   14  C18 UNL     1     -24.855  82.943   6.484  1.00  0.00     0.007 C 
HETATM   15  C19 UNL     1     -25.507  82.849   7.811  1.00  0.00     0.011 C 
HETATM   16  C20 UNL     1     -24.793  83.765   8.788  1.00  0.00     0.012 C 
ENDROOT
BRANCH   1  17
HETATM   17  O2  UNL     1     -27.530  83.401   9.062  1.00  0.00    -0.312 OA
BRANCH  17  18
HETATM   18  C4  UNL     1     -28.415  82.613   9.742  1.00  0.00     0.282 C 
HETATM   19  O1  UNL     1     -27.979  82.306  10.863  1.00  0.00    -0.260 OA
BRANCH  18  20
HETATM   20  C3  UNL     1     -29.709  82.186   9.219  1.00  0.00     0.077 C 
HETATM   21  C2  UNL     1     -30.641  81.793  10.070  1.00  0.00    -0.025 C 
HETATM   22  C1  UNL     1     -31.981  81.344   9.629  1.00  0.00     0.036 C 
ENDBRANCH  18  20
ENDBRANCH  17  18
ENDBRANCH   1  17
BRANCH   6  23
HETATM   23  O3  UNL     1     -29.472  84.101   3.802  1.00  0.00    -0.395 OA
ATOM     24  H3  UNL     1     -29.988  83.623   3.164  1.00  0.00     0.210 HD
ENDBRANCH   6  23
TORSDOF 4
ENDMDL
MODEL 3
REMARK VINA RESULT: -6.959758588      2.958      5.655
REMARK  4 active torsions:
REMARK  status: ('A' for Active; 'I' for Inactive)
REMARK    1  A    between atoms: C3_3  and  C4_4 
REMARK    2  A    between atoms: C4_4  and  O2_6 
REMARK    3  A    between atoms: O2_6  and  C5_7 
REMARK    4  A    between atoms: C10_12  and  O3_13 
ROOT
HETATM    1  C5  UNL     1     -27.766  81.875   9.343  1.00  0.00     0.136 C 
HETATM    2  C6  UNL     1     -27.436  83.312   8.983  1.00  0.00     0.034 C 
HETATM    3  C7  UNL     1     -27.546  83.585   7.512  1.00  0.00     0.014 C 
HETATM    4  C8  UNL     1     -26.226  84.062   6.910  1.00  0.00    -0.014 C 
HETATM    5  C9  UNL     1     -26.051  85.500   7.420  1.00  0.00     0.018 C 
HETATM    6  C10 UNL     1     -26.432  84.154   5.431  1.00  0.00     0.126 C 
HETATM    7  C11 UNL     1     -25.688  83.070   4.680  1.00  0.00     0.033 C 
HETATM    8  C12 UNL     1     -24.216  83.313   4.959  1.00  0.00     0.011 C 
HETATM    9  C13 UNL     1     -23.891  83.366   6.409  1.00  0.00    -0.043 C 
HETATM   10  C14 UNL     1     -22.839  82.297   6.677  1.00  0.00     0.015 C 
HETATM   11  C15 UNL     1     -23.143  84.684   6.673  1.00  0.00     0.015 C 
HETATM   12  C16 UNL     1     -25.058  83.262   7.338  1.00  0.00     0.004 C 
HETATM   13  C17 UNL     1     -25.408  81.810   7.690  1.00  0.00     0.007 C 
HETATM   14  C18 UNL     1     -25.287  81.519   9.140  1.00  0.00     0.007 C 
HETATM   15  C19 UNL     1     -26.531  81.251   9.898  1.00  0.00     0.011 C 
HETATM   16  C20 UNL     1     -26.371  81.751  11.322  1.00  0.00     0.012 C 
ENDROOT
BRANCH   1  17
HETATM   17  O2  UNL     1     -28.876  81.893  10.136  1.00  0.00    -0.312 OA
BRANCH  17  18
HETATM   18  C4  UNL     1     -30.190  81.731   9.797  1.00  0.00     0.282 C 
HETATM   19  O1  UNL     1     -30.685  80.745  10.364  1.00  0.00    -0.260 OA
BRANCH  18  20
HETATM   20  C3  UNL     1     -30.918  82.606   8.885  1.00  0.00     0.077 C 
HETATM   21  C2  UNL     1     -30.878  82.348   7.588  1.00  0.00    -0.025 C 
HETATM   22  C1  UNL     1     -31.587  83.181   6.591  1.00  0.00     0.036 C 
ENDBRANCH  18  20
ENDBRANCH  17  18
ENDBRANCH   1  17
BRANCH   6  23
HETATM   23  O3  UNL     1     -27.799  84.176   5.081  1.00  0.00    -0.395 OA
ATOM     24  H3  UNL     1     -27.931  84.149   4.141  1.00  0.00     0.210 HD
ENDBRANCH   6  23
TORSDOF 4
ENDMDL
MODEL 4
REMARK VINA RESULT: -6.867807213      2.921      6.462
REMARK  4 active torsions:
REMARK  status: ('A' for Active; 'I' for Inactive)
REMARK    1  A    between atoms: C3_3  and  C4_4 
REMARK    2  A    between atoms: C4_4  and  O2_6 
REMARK    3  A    between atoms: O2_6  and  C5_7 
REMARK    4  A    between atoms: C10_12  and  O3_13 
ROOT
HETATM    1  C5  UNL     1     -28.116  82.870   9.702  1.00  0.00     0.136 C 
HETATM    2  C6  UNL     1     -27.108  82.146   8.828  1.00  0.00     0.034 C 
HETATM    3  C7  UNL     1     -25.811  82.888   8.695  1.00  0.00     0.014 C 
HETATM    4  C8  UNL     1     -25.490  83.241   7.244  1.00  0.00    -0.014 C 
HETATM    5  C9  UNL     1     -25.086  81.910   6.592  1.00  0.00     0.018 C 
HETATM    6  C10 UNL     1     -24.263  84.096   7.267  1.00  0.00     0.126 C 
HETATM    7  C11 UNL     1     -24.564  85.538   6.918  1.00  0.00     0.033 C 
HETATM    8  C12 UNL     1     -25.087  85.515   5.493  1.00  0.00     0.011 C 
HETATM    9  C13 UNL     1     -26.244  84.601   5.303  1.00  0.00    -0.043 C 
HETATM   10  C14 UNL     1     -27.396  85.435   4.755  1.00  0.00     0.015 C 
HETATM   11  C15 UNL     1     -25.903  83.649   4.144  1.00  0.00     0.015 C 
HETATM   12  C16 UNL     1     -26.641  83.801   6.504  1.00  0.00     0.004 C 
HETATM   13  C17 UNL     1     -27.645  84.536   7.401  1.00  0.00     0.007 C 
HETATM   14  C18 UNL     1     -28.940  83.823   7.527  1.00  0.00     0.007 C 
HETATM   15  C19 UNL     1     -29.279  83.236   8.845  1.00  0.00     0.011 C 
HETATM   16  C20 UNL     1     -30.104  81.979   8.638  1.00  0.00     0.012 C 
ENDROOT
BRANCH   1  17
HETATM   17  O2  UNL     1     -28.357  82.084  10.791  1.00  0.00    -0.312 OA
BRANCH  17  18
HETATM   18  C4  UNL     1     -27.473  81.502  11.655  1.00  0.00     0.282 C 
HETATM   19  O1  UNL     1     -26.995  82.334  12.442  1.00  0.00    -0.260 OA
BRANCH  18  20
HETATM   20  C3  UNL     1     -27.133  80.083  11.653  1.00  0.00     0.077 C 
HETATM   21  C2  UNL     1     -26.329  79.620  12.596  1.00  0.00    -0.025 C 
HETATM   22  C1  UNL     1     -25.932  78.196  12.671  1.00  0.00     0.036 C 
ENDBRANCH  18  20
ENDBRANCH  17  18
ENDBRANCH   1  17
BRANCH   6  23
HETATM   23  O3  UNL     1     -23.565  83.999   8.490  1.00  0.00    -0.395 OA
ATOM     24  H3  UNL     1     -22.634  84.157   8.387  1.00  0.00     0.210 HD
ENDBRANCH   6  23
TORSDOF 4
ENDMDL
MODEL 5
REMARK VINA RESULT: -6.752452507      1.613      2.373
REMARK  4 active torsions:
REMARK  status: ('A' for Active; 'I' for Inactive)
REMARK    1  A    between atoms: C3_3  and  C4_4 
REMARK    2  A    between atoms: C4_4  and  O2_6 
REMARK    3  A    between atoms: O2_6  and  C5_7 
REMARK    4  A    between atoms: C10_12  and  O3_13 
ROOT
HETATM    1  C5  UNL     1     -25.539  82.618  10.227  1.00  0.00     0.136 C 
HETATM    2  C6  UNL     1     -24.450  81.816  10.917  1.00  0.00     0.034 C 
HETATM    3  C7  UNL     1     -24.078  82.374  12.260  1.00  0.00     0.014 C 
HETATM    4  C8  UNL     1     -22.605  82.772  12.334  1.00  0.00    -0.014 C 
HETATM    5  C9  UNL     1     -21.836  81.443  12.392  1.00  0.00     0.018 C 
HETATM    6  C10 UNL     1     -22.403  83.441  13.657  1.00  0.00     0.126 C 
HETATM    7  C11 UNL     1     -22.175  84.931  13.516  1.00  0.00     0.033 C 
HETATM    8  C12 UNL     1     -20.889  85.076  12.721  1.00  0.00     0.011 C 
HETATM    9  C13 UNL     1     -20.912  84.350  11.424  1.00  0.00    -0.043 C 
HETATM   10  C14 UNL     1     -20.644  85.374  10.327  1.00  0.00     0.015 C 
HETATM   11  C15 UNL     1     -19.675  83.438  11.377  1.00  0.00     0.015 C 
HETATM   12  C16 UNL     1     -22.139  83.538  11.158  1.00  0.00     0.004 C 
HETATM   13  C17 UNL     1     -23.250  84.348  10.477  1.00  0.00     0.007 C 
HETATM   14  C18 UNL     1     -23.618  83.819   9.141  1.00  0.00     0.007 C 
HETATM   15  C19 UNL     1     -24.955  83.201   8.986  1.00  0.00     0.011 C 
HETATM   16  C20 UNL     1     -24.880  82.090   7.954  1.00  0.00     0.012 C 
ENDROOT
BRANCH   1  17
HETATM   17  O2  UNL     1     -26.626  81.804  10.091  1.00  0.00    -0.312 OA
BRANCH  17  18
HETATM   18  C4  UNL     1     -27.858  81.895  10.676  1.00  0.00     0.282 C 
HETATM   19  O1  UNL     1     -27.768  82.204  11.875  1.00  0.00    -0.260 OA
BRANCH  18  20
HETATM   20  C3  UNL     1     -29.119  81.660   9.981  1.00  0.00     0.077 C 
HETATM   21  C2  UNL     1     -29.482  82.495   9.022  1.00  0.00    -0.025 C 
HETATM   22  C1  UNL     1     -30.744  82.333   8.265  1.00  0.00     0.036 C 
ENDBRANCH  18  20
ENDBRANCH  17  18
ENDBRANCH   1  17
BRANCH   6  23
HETATM   23  O3  UNL     1     -23.450  83.165  14.562  1.00  0.00    -0.395 OA
ATOM     24  H3  UNL     1     -23.212  82.498  15.195  1.00  0.00     0.210 HD
ENDBRANCH   6  23
TORSDOF 4
ENDMDL
