MODEL 1
REMARK VINA RESULT: -7.638032059      0.000      0.000
REMARK  9 active torsions:
REMARK  status: ('A' for Active; 'I' for Inactive)
REMARK    1  A    between atoms: C2_2  and  O2_4 
REMARK    2  A    between atoms: O2_4  and  C3_5 
REMARK    3  A    between atoms: C8_10  and  C9_11 
REMARK    4  A    between atoms: C9_11  and  C10_12 
REMARK    5  A    between atoms: C10_12  and  C11_13 
REMARK    6  A    between atoms: N1_14  and  N2_16 
REMARK       I    between atoms: N2_16  and  C12_18 
REMARK    7  A    between atoms: C12_18  and  O4_20 
REMARK    8  A    between atoms: O4_20  and  C13_21 
REMARK    9  A    between atoms: C13_21  and  C14_23 
ROOT
HETATM    1  C10 UNL     1      21.285  86.207   5.650  1.00  0.00     0.051 C 
ENDROOT
BRANCH   1   2
HETATM    2  C9  UNL     1      19.932  86.115   4.968  1.00  0.00     0.047 C 
BRANCH   2   3
HETATM    3  C8  UNL     1      19.324  84.782   5.119  1.00  0.00    -0.021 A 
HETATM    4  C3  UNL     1      19.117  84.028   3.983  1.00  0.00     0.088 A 
HETATM    5  C4  UNL     1      18.549  82.779   4.133  1.00  0.00     0.077 A 
HETATM    6  C5  UNL     1      18.194  82.295   5.386  1.00  0.00     0.107 A 
HETATM    7  C6  UNL     1      18.400  83.048   6.525  1.00  0.00     0.105 A 
HETATM    8  O7  UNL     1      17.621  81.110   5.825  1.00  0.00    -0.323 OA
HETATM    9  C7  UNL     1      18.969  84.297   6.382  1.00  0.00     0.049 A 
HETATM   10  O6  UNL     1      17.947  82.304   7.627  1.00  0.00    -0.323 OA
HETATM   11  C18 UNL     1      17.079  81.289   7.137  1.00  0.00     0.352 C 
BRANCH   4  12
HETATM   12  O2  UNL     1      19.459  84.477   2.710  1.00  0.00    -0.279 OA
BRANCH  12  13
HETATM   13  C2  UNL     1      20.129  83.665   1.807  1.00  0.00     0.260 C 
HETATM   14  C1  UNL     1      19.494  83.123   0.584  1.00  0.00     0.126 C 
HETATM   15  O1  UNL     1      21.342  83.389   2.064  1.00  0.00    -0.265 OA
ENDBRANCH  12  13
ENDBRANCH   4  12
ENDBRANCH   2   3
ENDBRANCH   1   2
BRANCH   1  16
HETATM   16  C11 UNL     1      22.340  85.679   4.770  1.00  0.00     0.080 C 
HETATM   17  N1  UNL     1      22.381  85.965   3.531  1.00  0.00    -0.311 N 
ATOM     18  H1  UNL     1      21.656  86.577   3.160  1.00  0.00     0.185 HD
BRANCH  17  19
HETATM   19  N2  UNL     1      23.353  85.496   2.645  1.00  0.00    -0.246 N 
HETATM   20  C12 UNL     1      24.723  85.370   2.976  1.00  0.00     0.387 C 
HETATM   21  O3  UNL     1      25.176  85.677   4.120  1.00  0.00    -0.236 OA
ATOM     22  H2  UNL     1      23.059  85.229   1.706  1.00  0.00     0.192 HD
BRANCH  20  23
HETATM   23  O4  UNL     1      25.623  84.896   2.035  1.00  0.00    -0.225 OA
BRANCH  23  24
HETATM   24  C13 UNL     1      25.197  84.334   0.847  1.00  0.00     0.275 C 
HETATM   25  O5  UNL     1      24.283  83.480   0.887  1.00  0.00    -0.264 OA
BRANCH  24  26
HETATM   26  C14 UNL     1      25.787  84.708  -0.465  1.00  0.00     0.037 C 
HETATM   27  C15 UNL     1      26.750  83.627  -0.947  1.00  0.00     0.025 C 
HETATM   28  C16 UNL     1      24.669  84.908  -1.468  1.00  0.00     0.025 C 
HETATM   29  C17 UNL     1      26.599  85.976  -0.330  1.00  0.00     0.025 C 
ENDBRANCH  24  26
ENDBRANCH  23  24
ENDBRANCH  20  23
ENDBRANCH  17  19
ENDBRANCH   1  16
TORSDOF 9
ENDMDL
MODEL 2
REMARK VINA RESULT: -7.627265518      3.232      4.686
REMARK  9 active torsions:
REMARK  status: ('A' for Active; 'I' for Inactive)
REMARK    1  A    between atoms: C2_2  and  O2_4 
REMARK    2  A    between atoms: O2_4  and  C3_5 
REMARK    3  A    between atoms: C8_10  and  C9_11 
REMARK    4  A    between atoms: C9_11  and  C10_12 
REMARK    5  A    between atoms: C10_12  and  C11_13 
REMARK    6  A    between atoms: N1_14  and  N2_16 
REMARK       I    between atoms: N2_16  and  C12_18 
REMARK    7  A    between atoms: C12_18  and  O4_20 
REMARK    8  A    between atoms: O4_20  and  C13_21 
REMARK    9  A    between atoms: C13_21  and  C14_23 
ROOT
HETATM    1  C10 UNL     1      19.499  83.117   1.536  1.00  0.00     0.051 C 
ENDROOT
BRANCH   1   2
HETATM    2  C9  UNL     1      19.532  84.283   2.507  1.00  0.00     0.047 C 
BRANCH   2   3
HETATM    3  C8  UNL     1      19.131  83.885   3.867  1.00  0.00    -0.021 A 
HETATM    4  C3  UNL     1      19.446  84.727   4.912  1.00  0.00     0.088 A 
HETATM    5  C4  UNL     1      19.065  84.347   6.183  1.00  0.00     0.077 A 
HETATM    6  C5  UNL     1      18.387  83.154   6.406  1.00  0.00     0.107 A 
HETATM    7  C6  UNL     1      18.071  82.309   5.360  1.00  0.00     0.105 A 
HETATM    8  O7  UNL     1      17.895  82.534   7.545  1.00  0.00    -0.323 OA
HETATM    9  C7  UNL     1      18.448  82.683   4.087  1.00  0.00     0.049 A 
HETATM   10  O6  UNL     1      17.395  81.196   5.889  1.00  0.00    -0.323 OA
HETATM   11  C18 UNL     1      17.670  81.145   7.284  1.00  0.00     0.352 C 
BRANCH   4  12
HETATM   12  O2  UNL     1      20.123  85.930   4.730  1.00  0.00    -0.279 OA
BRANCH  12  13
HETATM   13  C2  UNL     1      21.477  86.051   5.009  1.00  0.00     0.260 C 
HETATM   14  C1  UNL     1      22.529  85.897   3.979  1.00  0.00     0.126 C 
HETATM   15  O1  UNL     1      21.801  86.306   6.210  1.00  0.00    -0.265 OA
ENDBRANCH  12  13
ENDBRANCH   4  12
ENDBRANCH   2   3
ENDBRANCH   1   2
BRANCH   1  16
HETATM   16  C11 UNL     1      20.855  82.817   1.048  1.00  0.00     0.080 C 
HETATM   17  N1  UNL     1      21.268  81.621   0.918  1.00  0.00    -0.311 N 
ATOM     18  H1  UNL     1      20.627  80.867   1.163  1.00  0.00     0.185 HD
BRANCH  17  19
HETATM   19  N2  UNL     1      22.541  81.271   0.463  1.00  0.00    -0.246 N 
HETATM   20  C12 UNL     1      22.804  80.786  -0.839  1.00  0.00     0.387 C 
HETATM   21  O3  UNL     1      21.890  80.633  -1.705  1.00  0.00    -0.236 OA
ATOM     22  H2  UNL     1      23.325  81.371   1.107  1.00  0.00     0.192 HD
BRANCH  20  23
HETATM   23  O4  UNL     1      24.099  80.461  -1.209  1.00  0.00    -0.225 OA
BRANCH  23  24
HETATM   24  C13 UNL     1      24.714  79.310  -0.753  1.00  0.00     0.275 C 
HETATM   25  O5  UNL     1      24.212  78.716   0.227  1.00  0.00    -0.264 OA
BRANCH  24  26
HETATM   26  C14 UNL     1      25.941  78.761  -1.387  1.00  0.00     0.037 C 
HETATM   27  C15 UNL     1      25.789  78.723  -2.905  1.00  0.00     0.025 C 
HETATM   28  C16 UNL     1      27.124  79.623  -0.993  1.00  0.00     0.025 C 
HETATM   29  C17 UNL     1      26.165  77.333  -0.942  1.00  0.00     0.025 C 
ENDBRANCH  24  26
ENDBRANCH  23  24
ENDBRANCH  20  23
ENDBRANCH  17  19
ENDBRANCH   1  16
TORSDOF 9
ENDMDL
MODEL 3
REMARK VINA RESULT: -7.593475602      2.412      3.161
REMARK  9 active torsions:
REMARK  status: ('A' for Active; 'I' for Inactive)
REMARK    1  A    between atoms: C2_2  and  O2_4 
REMARK    2  A    between atoms: O2_4  and  C3_5 
REMARK    3  A    between atoms: C8_10  and  C9_11 
REMARK    4  A    between atoms: C9_11  and  C10_12 
REMARK    5  A    between atoms: C10_12  and  C11_13 
REMARK    6  A    between atoms: N1_14  and  N2_16 
REMARK       I    between atoms: N2_16  and  C12_18 
REMARK    7  A    between atoms: C12_18  and  O4_20 
REMARK    8  A    between atoms: O4_20  and  C13_21 
REMARK    9  A    between atoms: C13_21  and  C14_23 
ROOT
HETATM    1  C10 UNL     1      22.228  85.982   3.527  1.00  0.00     0.051 C 
ENDROOT
BRANCH   1   2
HETATM    2  C9  UNL     1      20.767  85.794   3.165  1.00  0.00     0.047 C 
BRANCH   2   3
HETATM    3  C8  UNL     1      20.031  85.044   4.196  1.00  0.00    -0.021 A 
HETATM    4  C3  UNL     1      19.352  83.905   3.815  1.00  0.00     0.088 A 
HETATM    5  C4  UNL     1      18.666  83.207   4.789  1.00  0.00     0.077 A 
HETATM    6  C5  UNL     1      18.657  83.635   6.111  1.00  0.00     0.107 A 
HETATM    7  C6  UNL     1      19.336  84.775   6.495  1.00  0.00     0.105 A 
HETATM    8  O7  UNL     1      18.070  83.146   7.269  1.00  0.00    -0.323 OA
HETATM    9  C7  UNL     1      20.024  85.477   5.527  1.00  0.00     0.049 A 
HETATM   10  O6  UNL     1      19.145  84.951   7.876  1.00  0.00    -0.323 OA
HETATM   11  C18 UNL     1      18.013  84.178   8.258  1.00  0.00     0.352 C 
BRANCH   4  12
HETATM   12  O2  UNL     1      19.337  83.444   2.501  1.00  0.00    -0.279 OA
BRANCH  12  13
HETATM   13  C2  UNL     1      19.616  82.121   2.191  1.00  0.00     0.260 C 
HETATM   14  C1  UNL     1      18.564  81.131   1.864  1.00  0.00     0.126 C 
HETATM   15  O1  UNL     1      20.836  81.769   2.196  1.00  0.00    -0.265 OA
ENDBRANCH  12  13
ENDBRANCH   4  12
ENDBRANCH   2   3
ENDBRANCH   1   2
BRANCH   1  16
HETATM   16  C11 UNL     1      23.049  84.924   2.915  1.00  0.00     0.080 C 
HETATM   17  N1  UNL     1      22.616  84.217   1.950  1.00  0.00    -0.311 N 
ATOM     18  H1  UNL     1      21.675  84.407   1.606  1.00  0.00     0.185 HD
BRANCH  17  19
HETATM   19  N2  UNL     1      23.343  83.200   1.329  1.00  0.00    -0.246 N 
HETATM   20  C12 UNL     1      24.295  83.425   0.307  1.00  0.00     0.387 C 
HETATM   21  O3  UNL     1      24.564  84.586  -0.127  1.00  0.00    -0.236 OA
ATOM     22  H2  UNL     1      23.179  82.240   1.630  1.00  0.00     0.192 HD
BRANCH  20  23
HETATM   23  O4  UNL     1      24.973  82.357  -0.258  1.00  0.00    -0.225 OA
BRANCH  23  24
HETATM   24  C13 UNL     1      24.307  81.224  -0.688  1.00  0.00     0.275 C 
HETATM   25  O5  UNL     1      23.059  81.264  -0.770  1.00  0.00    -0.264 OA
BRANCH  24  26
HETATM   26  C14 UNL     1      25.022  79.974  -1.051  1.00  0.00     0.037 C 
HETATM   27  C15 UNL     1      24.774  79.621  -2.515  1.00  0.00     0.025 C 
HETATM   28  C16 UNL     1      26.504  80.162  -0.794  1.00  0.00     0.025 C 
HETATM   29  C17 UNL     1      24.495  78.814  -0.237  1.00  0.00     0.025 C 
ENDBRANCH  24  26
ENDBRANCH  23  24
ENDBRANCH  20  23
ENDBRANCH  17  19
ENDBRANCH   1  16
TORSDOF 9
ENDMDL
MODEL 4
REMARK VINA RESULT: -7.536597265      2.505      3.304
REMARK  9 active torsions:
REMARK  status: ('A' for Active; 'I' for Inactive)
REMARK    1  A    between atoms: C2_2  and  O2_4 
REMARK    2  A    between atoms: O2_4  and  C3_5 
REMARK    3  A    between atoms: C8_10  and  C9_11 
REMARK    4  A    between atoms: C9_11  and  C10_12 
REMARK    5  A    between atoms: C10_12  and  C11_13 
REMARK    6  A    between atoms: N1_14  and  N2_16 
REMARK       I    between atoms: N2_16  and  C12_18 
REMARK    7  A    between atoms: C12_18  and  O4_20 
REMARK    8  A    between atoms: O4_20  and  C13_21 
REMARK    9  A    between atoms: C13_21  and  C14_23 
ROOT
HETATM    1  C10 UNL     1      21.927  85.804   3.387  1.00  0.00     0.051 C 
ENDROOT
BRANCH   1   2
HETATM    2  C9  UNL     1      20.455  85.540   3.131  1.00  0.00     0.047 C 
BRANCH   2   3
HETATM    3  C8  UNL     1      19.803  84.877   4.272  1.00  0.00    -0.021 A 
HETATM    4  C3  UNL     1      19.020  83.769   4.023  1.00  0.00     0.088 A 
HETATM    5  C4  UNL     1      18.413  83.153   5.099  1.00  0.00     0.077 A 
HETATM    6  C5  UNL     1      18.583  83.631   6.393  1.00  0.00     0.107 A 
HETATM    7  C6  UNL     1      19.367  84.740   6.645  1.00  0.00     0.105 A 
HETATM    8  O7  UNL     1      18.108  83.224   7.631  1.00  0.00    -0.323 OA
HETATM    9  C7  UNL     1      19.976  85.360   5.574  1.00  0.00     0.049 A 
HETATM   10  O6  UNL     1      19.348  84.981   8.029  1.00  0.00    -0.323 OA
HETATM   11  C18 UNL     1      18.226  84.295   8.573  1.00  0.00     0.352 C 
BRANCH   4  12
HETATM   12  O2  UNL     1      18.825  83.260   2.742  1.00  0.00    -0.279 OA
BRANCH  12  13
HETATM   13  C2  UNL     1      19.163  81.955   2.419  1.00  0.00     0.260 C 
HETATM   14  C1  UNL     1      18.156  80.911   2.117  1.00  0.00     0.126 C 
HETATM   15  O1  UNL     1      20.400  81.667   2.387  1.00  0.00    -0.265 OA
ENDBRANCH  12  13
ENDBRANCH   4  12
ENDBRANCH   2   3
ENDBRANCH   1   2
BRANCH   1  16
HETATM   16  C11 UNL     1      22.752  84.744   2.784  1.00  0.00     0.080 C 
HETATM   17  N1  UNL     1      22.280  83.947   1.912  1.00  0.00    -0.311 N 
ATOM     18  H1  UNL     1      21.305  84.064   1.638  1.00  0.00     0.185 HD
BRANCH  17  19
HETATM   19  N2  UNL     1      23.009  82.923   1.304  1.00  0.00    -0.246 N 
HETATM   20  C12 UNL     1      22.671  82.352   0.055  1.00  0.00     0.387 C 
HETATM   21  O3  UNL     1      21.667  82.735  -0.618  1.00  0.00    -0.236 OA
ATOM     22  H2  UNL     1      23.832  82.566   1.789  1.00  0.00     0.192 HD
BRANCH  20  23
HETATM   23  O4  UNL     1      23.450  81.337  -0.477  1.00  0.00    -0.225 OA
BRANCH  23  24
HETATM   24  C13 UNL     1      24.791  81.524  -0.754  1.00  0.00     0.275 C 
HETATM   25  O5  UNL     1      25.259  82.681  -0.673  1.00  0.00    -0.264 OA
BRANCH  24  26
HETATM   26  C14 UNL     1      25.685  80.402  -1.143  1.00  0.00     0.037 C 
HETATM   27  C15 UNL     1      27.094  80.627  -0.601  1.00  0.00     0.025 C 
HETATM   28  C16 UNL     1      25.110  79.106  -0.605  1.00  0.00     0.025 C 
HETATM   29  C17 UNL     1      25.811  80.331  -2.648  1.00  0.00     0.025 C 
ENDBRANCH  24  26
ENDBRANCH  23  24
ENDBRANCH  20  23
ENDBRANCH  17  19
ENDBRANCH   1  16
TORSDOF 9
ENDMDL
MODEL 5
REMARK VINA RESULT: -7.517710043      2.088      2.967
REMARK  9 active torsions:
REMARK  status: ('A' for Active; 'I' for Inactive)
REMARK    1  A    between atoms: C2_2  and  O2_4 
REMARK    2  A    between atoms: O2_4  and  C3_5 
REMARK    3  A    between atoms: C8_10  and  C9_11 
REMARK    4  A    between atoms: C9_11  and  C10_12 
REMARK    5  A    between atoms: C10_12  and  C11_13 
REMARK    6  A    between atoms: N1_14  and  N2_16 
REMARK       I    between atoms: N2_16  and  C12_18 
REMARK    7  A    between atoms: C12_18  and  O4_20 
REMARK    8  A    between atoms: O4_20  and  C13_21 
REMARK    9  A    between atoms: C13_21  and  C14_23 
ROOT
HETATM    1  C10 UNL     1      22.731  85.766   3.638  1.00  0.00     0.051 C 
ENDROOT
BRANCH   1   2
HETATM    2  C9  UNL     1      21.262  85.844   3.267  1.00  0.00     0.047 C 
BRANCH   2   3
HETATM    3  C8  UNL     1      20.409  85.113   4.219  1.00  0.00    -0.021 A 
HETATM    4  C3  UNL     1      19.658  84.058   3.746  1.00  0.00     0.088 A 
HETATM    5  C4  UNL     1      18.863  83.377   4.645  1.00  0.00     0.077 A 
HETATM    6  C5  UNL     1      18.816  83.742   5.986  1.00  0.00     0.107 A 
HETATM    7  C6  UNL     1      19.567  84.798   6.462  1.00  0.00     0.105 A 
HETATM    8  O7  UNL     1      18.126  83.252   7.085  1.00  0.00    -0.323 OA
HETATM    9  C7  UNL     1      20.365  85.482   5.568  1.00  0.00     0.049 A 
HETATM   10  O6  UNL     1      19.315  84.926   7.839  1.00  0.00    -0.323 OA
HETATM   11  C18 UNL     1      18.102  84.238   8.122  1.00  0.00     0.352 C 
BRANCH   4  12
HETATM   12  O2  UNL     1      19.677  83.662   2.411  1.00  0.00    -0.279 OA
BRANCH  12  13
HETATM   13  C2  UNL     1      19.893  82.342   2.046  1.00  0.00     0.260 C 
HETATM   14  C1  UNL     1      18.801  81.431   1.629  1.00  0.00     0.126 C 
HETATM   15  O1  UNL     1      21.090  81.918   2.081  1.00  0.00    -0.265 OA
ENDBRANCH  12  13
ENDBRANCH   4  12
ENDBRANCH   2   3
ENDBRANCH   1   2
BRANCH   1  16
HETATM   16  C11 UNL     1      23.413  84.748   2.822  1.00  0.00     0.080 C 
HETATM   17  N1  UNL     1      22.913  84.320   1.733  1.00  0.00    -0.311 N 
ATOM     18  H1  UNL     1      22.017  84.707   1.437  1.00  0.00     0.185 HD
BRANCH  17  19
HETATM   19  N2  UNL     1      23.509  83.357   0.916  1.00  0.00    -0.246 N 
HETATM   20  C12 UNL     1      24.353  83.666  -0.176  1.00  0.00     0.387 C 
HETATM   21  O3  UNL     1      24.637  84.859  -0.498  1.00  0.00    -0.236 OA
ATOM     22  H2  UNL     1      23.325  82.375   1.119  1.00  0.00     0.192 HD
BRANCH  20  23
HETATM   23  O4  UNL     1      24.903  82.647  -0.937  1.00  0.00    -0.225 OA
BRANCH  23  24
HETATM   24  C13 UNL     1      25.974  81.902  -0.481  1.00  0.00     0.275 C 
HETATM   25  O5  UNL     1      26.616  82.325   0.506  1.00  0.00    -0.264 OA
BRANCH  24  26
HETATM   26  C14 UNL     1      26.381  80.624  -1.122  1.00  0.00     0.037 C 
HETATM   27  C15 UNL     1      27.802  80.248  -0.710  1.00  0.00     0.025 C 
HETATM   28  C16 UNL     1      25.405  79.538  -0.718  1.00  0.00     0.025 C 
HETATM   29  C17 UNL     1      26.398  80.777  -2.626  1.00  0.00     0.025 C 
ENDBRANCH  24  26
ENDBRANCH  23  24
ENDBRANCH  20  23
ENDBRANCH  17  19
ENDBRANCH   1  16
TORSDOF 9
ENDMDL
