MODEL 1
REMARK VINA RESULT: -7.171755142      0.000      0.000
REMARK  7 active torsions:
REMARK  status: ('A' for Active; 'I' for Inactive)
REMARK    1  A    between atoms: O1_2  and  C2_3 
REMARK    2  A    between atoms: C2_3  and  O2_4 
REMARK    3  A    between atoms: O2_4  and  C3_5 
REMARK    4  A    between atoms: C3_5  and  C4_7 
REMARK    5  A    between atoms: C4_7  and  O4_8 
REMARK    6  A    between atoms: C9_14  and  O5_15 
REMARK    7  A    between atoms: C11_17  and  O6_18 
ROOT
HETATM    1  C4  UNL     1      17.855  82.078   0.425  1.00  0.00     0.176 C 
HETATM    2  C5  UNL     1      18.212  82.939   1.613  1.00  0.00     0.066 C 
HETATM    3  C6  UNL     1      19.624  82.693   1.995  1.00  0.00     0.081 C 
HETATM    4  C7  UNL     1      20.284  83.761   2.778  1.00  0.00    -0.013 A 
HETATM    5  C8  UNL     1      19.915  84.643   3.769  1.00  0.00     0.050 A 
HETATM    6  C9  UNL     1      20.787  85.555   4.338  1.00  0.00     0.102 A 
HETATM    7  C11 UNL     1      22.101  85.589   3.897  1.00  0.00     0.104 A 
HETATM    8  C13 UNL     1      22.461  84.702   2.906  1.00  0.00     0.077 A 
HETATM    9  C14 UNL     1      21.589  83.786   2.332  1.00  0.00     0.081 A 
HETATM   10  O7  UNL     1      21.744  82.805   1.322  1.00  0.00    -0.319 OA
HETATM   11  C15 UNL     1      20.460  82.766   0.731  1.00  0.00     0.276 C 
HETATM   12  O8  UNL     1      20.196  81.779  -0.146  1.00  0.00    -0.346 OA
HETATM   13  C16 UNL     1      18.904  81.995  -0.631  1.00  0.00     0.097 C 
HETATM   14  C17 UNL     1      18.515  80.901  -1.597  1.00  0.00     0.049 C 
HETATM   15  C18 UNL     1      18.866  83.318  -1.406  1.00  0.00     0.049 C 
ENDROOT
BRANCH   1  16
HETATM   16  C3  UNL     1      17.542  80.675   0.866  1.00  0.00     0.298 C 
HETATM   17  O3  UNL     1      18.076  80.181   1.886  1.00  0.00    -0.262 OA
BRANCH  16  18
HETATM   18  O2  UNL     1      16.651  79.887   0.152  1.00  0.00    -0.293 OA
BRANCH  18  19
HETATM   19  C2  UNL     1      16.589  78.483   0.348  1.00  0.00     0.347 C 
BRANCH  19  20
HETATM   20  O1  UNL     1      17.564  77.810  -0.344  1.00  0.00    -0.371 OA
HETATM   21  C1  UNL     1      17.276  76.463  -0.530  1.00  0.00     0.204 C 
ENDBRANCH  19  20
ENDBRANCH  18  19
ENDBRANCH  16  18
ENDBRANCH   1  16
BRANCH   1  22
HETATM   22  O4  UNL     1      16.699  82.600  -0.205  1.00  0.00    -0.377 OA
ATOM     23  H4  UNL     1      16.902  82.725  -1.125  1.00  0.00     0.211 HD
ENDBRANCH   1  22
BRANCH   6  24
HETATM   24  O5  UNL     1      20.399  86.434   5.331  1.00  0.00    -0.353 OA
HETATM   25  C10 UNL     1      19.334  86.207   6.203  1.00  0.00     0.210 C 
ENDBRANCH   6  24
BRANCH   7  26
HETATM   26  O6  UNL     1      22.979  86.492   4.457  1.00  0.00    -0.353 OA
HETATM   27  C12 UNL     1      24.359  86.133   4.526  1.00  0.00     0.210 C 
ENDBRANCH   7  26
TORSDOF 7
ENDMDL
MODEL 2
REMARK VINA RESULT: -7.063253341      2.140      2.795
REMARK  7 active torsions:
REMARK  status: ('A' for Active; 'I' for Inactive)
REMARK    1  A    between atoms: O1_2  and  C2_3 
REMARK    2  A    between atoms: C2_3  and  O2_4 
REMARK    3  A    between atoms: O2_4  and  C3_5 
REMARK    4  A    between atoms: C3_5  and  C4_7 
REMARK    5  A    between atoms: C4_7  and  O4_8 
REMARK    6  A    between atoms: C9_14  and  O5_15 
REMARK    7  A    between atoms: C11_17  and  O6_18 
ROOT
HETATM    1  C4  UNL     1      17.536  81.345  -0.235  1.00  0.00     0.176 C 
HETATM    2  C5  UNL     1      17.567  81.362   1.275  1.00  0.00     0.066 C 
HETATM    3  C6  UNL     1      18.792  82.059   1.736  1.00  0.00     0.081 C 
HETATM    4  C7  UNL     1      18.755  82.602   3.113  1.00  0.00    -0.013 A 
HETATM    5  C8  UNL     1      18.227  82.212   4.323  1.00  0.00     0.050 A 
HETATM    6  C9  UNL     1      18.369  82.949   5.487  1.00  0.00     0.102 A 
HETATM    7  C11 UNL     1      19.078  84.140   5.442  1.00  0.00     0.104 A 
HETATM    8  C13 UNL     1      19.603  84.520   4.226  1.00  0.00     0.077 A 
HETATM    9  C14 UNL     1      19.463  83.784   3.058  1.00  0.00     0.081 A 
HETATM   10  O7  UNL     1      19.910  83.986   1.728  1.00  0.00    -0.319 OA
HETATM   11  C15 UNL     1      18.896  83.362   0.965  1.00  0.00     0.276 C 
HETATM   12  O8  UNL     1      19.112  83.189  -0.354  1.00  0.00    -0.346 OA
HETATM   13  C16 UNL     1      17.954  82.619  -0.888  1.00  0.00     0.097 C 
HETATM   14  C17 UNL     1      18.130  82.356  -2.364  1.00  0.00     0.049 C 
HETATM   15  C18 UNL     1      16.786  83.603  -0.739  1.00  0.00     0.049 C 
ENDROOT
BRANCH   1  16
HETATM   16  C3  UNL     1      18.419  80.251  -0.768  1.00  0.00     0.298 C 
HETATM   17  O3  UNL     1      19.658  80.405  -0.864  1.00  0.00    -0.262 OA
BRANCH  16  18
HETATM   18  O2  UNL     1      17.882  79.036  -1.170  1.00  0.00    -0.293 OA
BRANCH  18  19
HETATM   19  C2  UNL     1      17.463  78.066  -0.223  1.00  0.00     0.347 C 
BRANCH  19  20
HETATM   20  O1  UNL     1      17.767  76.786  -0.612  1.00  0.00    -0.371 OA
HETATM   21  C1  UNL     1      17.192  76.430  -1.826  1.00  0.00     0.204 C 
ENDBRANCH  19  20
ENDBRANCH  18  19
ENDBRANCH  16  18
ENDBRANCH   1  16
BRANCH   1  22
HETATM   22  O4  UNL     1      16.216  81.088  -0.676  1.00  0.00    -0.377 OA
ATOM     23  H4  UNL     1      15.909  80.308  -0.229  1.00  0.00     0.211 HD
ENDBRANCH   1  22
BRANCH   6  24
HETATM   24  O5  UNL     1      17.831  82.544   6.693  1.00  0.00    -0.353 OA
HETATM   25  C10 UNL     1      17.641  81.210   7.055  1.00  0.00     0.210 C 
ENDBRANCH   6  24
BRANCH   7  26
HETATM   26  O6  UNL     1      19.227  84.882   6.595  1.00  0.00    -0.353 OA
HETATM   27  C12 UNL     1      20.479  84.817   7.277  1.00  0.00     0.210 C 
ENDBRANCH   7  26
TORSDOF 7
ENDMDL
MODEL 3
REMARK VINA RESULT: -6.980674105      2.253      7.286
REMARK  7 active torsions:
REMARK  status: ('A' for Active; 'I' for Inactive)
REMARK    1  A    between atoms: O1_2  and  C2_3 
REMARK    2  A    between atoms: C2_3  and  O2_4 
REMARK    3  A    between atoms: O2_4  and  C3_5 
REMARK    4  A    between atoms: C3_5  and  C4_7 
REMARK    5  A    between atoms: C4_7  and  O4_8 
REMARK    6  A    between atoms: C9_14  and  O5_15 
REMARK    7  A    between atoms: C11_17  and  O6_18 
ROOT
HETATM    1  C4  UNL     1      20.152  84.884   6.330  1.00  0.00     0.176 C 
HETATM    2  C5  UNL     1      19.534  83.746   5.553  1.00  0.00     0.066 C 
HETATM    3  C6  UNL     1      19.001  84.258   4.267  1.00  0.00     0.081 C 
HETATM    4  C7  UNL     1      18.820  83.257   3.191  1.00  0.00    -0.013 A 
HETATM    5  C8  UNL     1      18.424  81.941   3.111  1.00  0.00     0.050 A 
HETATM    6  C9  UNL     1      18.338  81.245   1.918  1.00  0.00     0.102 A 
HETATM    7  C11 UNL     1      18.663  81.897   0.738  1.00  0.00     0.104 A 
HETATM    8  C13 UNL     1      19.057  83.214   0.828  1.00  0.00     0.077 A 
HETATM    9  C14 UNL     1      19.145  83.915   2.023  1.00  0.00     0.081 A 
HETATM   10  O7  UNL     1      19.520  85.245   2.338  1.00  0.00    -0.319 OA
HETATM   11  C15 UNL     1      20.084  85.108   3.628  1.00  0.00     0.276 C 
HETATM   12  O8  UNL     1      20.364  86.229   4.319  1.00  0.00    -0.346 OA
HETATM   13  C16 UNL     1      20.964  85.835   5.517  1.00  0.00     0.097 C 
HETATM   14  C17 UNL     1      21.275  87.039   6.372  1.00  0.00     0.049 C 
HETATM   15  C18 UNL     1      22.297  85.138   5.213  1.00  0.00     0.049 C 
ENDROOT
BRANCH   1  16
HETATM   16  C3  UNL     1      19.087  85.682   7.031  1.00  0.00     0.298 C 
HETATM   17  O3  UNL     1      18.583  86.699   6.501  1.00  0.00    -0.262 OA
BRANCH  16  18
HETATM   18  O2  UNL     1      18.635  85.313   8.290  1.00  0.00    -0.293 OA
BRANCH  18  19
HETATM   19  C2  UNL     1      17.723  84.239   8.460  1.00  0.00     0.347 C 
BRANCH  19  20
HETATM   20  O1  UNL     1      18.332  83.013   8.371  1.00  0.00    -0.371 OA
HETATM   21  C1  UNL     1      17.726  82.164   7.452  1.00  0.00     0.204 C 
ENDBRANCH  19  20
ENDBRANCH  18  19
ENDBRANCH  16  18
ENDBRANCH   1  16
BRANCH   1  22
HETATM   22  O4  UNL     1      21.021  84.363   7.317  1.00  0.00    -0.377 OA
ATOM     23  H4  UNL     1      21.208  83.459   7.091  1.00  0.00     0.211 HD
ENDBRANCH   1  22
BRANCH   6  24
HETATM   24  O5  UNL     1      17.940  79.923   1.856  1.00  0.00    -0.353 OA
HETATM   25  C10 UNL     1      16.617  79.512   1.689  1.00  0.00     0.210 C 
ENDBRANCH   6  24
BRANCH   7  26
HETATM   26  O6  UNL     1      18.580  81.213  -0.457  1.00  0.00    -0.353 OA
HETATM   27  C12 UNL     1      17.586  81.623  -1.397  1.00  0.00     0.210 C 
ENDBRANCH   7  26
TORSDOF 7
ENDMDL
MODEL 4
REMARK VINA RESULT: -6.966410455      2.427      4.419
REMARK  7 active torsions:
REMARK  status: ('A' for Active; 'I' for Inactive)
REMARK    1  A    between atoms: O1_2  and  C2_3 
REMARK    2  A    between atoms: C2_3  and  O2_4 
REMARK    3  A    between atoms: O2_4  and  C3_5 
REMARK    4  A    between atoms: C3_5  and  C4_7 
REMARK    5  A    between atoms: C4_7  and  O4_8 
REMARK    6  A    between atoms: C9_14  and  O5_15 
REMARK    7  A    between atoms: C11_17  and  O6_18 
ROOT
HETATM    1  C4  UNL     1      19.265  83.109  -0.233  1.00  0.00     0.176 C 
HETATM    2  C5  UNL     1      19.281  83.988   0.995  1.00  0.00     0.066 C 
HETATM    3  C6  UNL     1      18.401  83.401   2.035  1.00  0.00     0.081 C 
HETATM    4  C7  UNL     1      18.666  83.822   3.429  1.00  0.00    -0.013 A 
HETATM    5  C8  UNL     1      19.050  84.982   4.063  1.00  0.00     0.050 A 
HETATM    6  C9  UNL     1      19.213  85.080   5.434  1.00  0.00     0.102 A 
HETATM    7  C11 UNL     1      18.978  83.961   6.217  1.00  0.00     0.104 A 
HETATM    8  C13 UNL     1      18.594  82.805   5.574  1.00  0.00     0.077 A 
HETATM    9  C14 UNL     1      18.430  82.703   4.199  1.00  0.00     0.081 A 
HETATM   10  O7  UNL     1      18.051  81.635   3.347  1.00  0.00    -0.319 OA
HETATM   11  C15 UNL     1      18.752  81.929   2.155  1.00  0.00     0.276 C 
HETATM   12  O8  UNL     1      18.455  81.215   1.053  1.00  0.00    -0.346 OA
HETATM   13  C16 UNL     1      19.316  81.644   0.040  1.00  0.00     0.097 C 
HETATM   14  C17 UNL     1      19.019  80.915  -1.248  1.00  0.00     0.049 C 
HETATM   15  C18 UNL     1      20.763  81.310   0.427  1.00  0.00     0.049 C 
ENDROOT
BRANCH   1  16
HETATM   16  C3  UNL     1      18.034  83.375  -1.055  1.00  0.00     0.298 C 
HETATM   17  O3  UNL     1      16.926  83.593  -0.512  1.00  0.00    -0.262 OA
BRANCH  16  18
HETATM   18  O2  UNL     1      18.093  83.386  -2.441  1.00  0.00    -0.293 OA
BRANCH  18  19
HETATM   19  C2  UNL     1      18.102  84.604  -3.169  1.00  0.00     0.347 C 
BRANCH  19  20
HETATM   20  O1  UNL     1      19.361  85.136  -3.289  1.00  0.00    -0.371 OA
HETATM   21  C1  UNL     1      19.388  86.324  -4.009  1.00  0.00     0.204 C 
ENDBRANCH  19  20
ENDBRANCH  18  19
ENDBRANCH  16  18
ENDBRANCH   1  16
BRANCH   1  22
HETATM   22  O4  UNL     1      20.392  83.402  -1.037  1.00  0.00    -0.377 OA
ATOM     23  H4  UNL     1      20.743  82.579  -1.355  1.00  0.00     0.211 HD
ENDBRANCH   1  22
BRANCH   6  24
HETATM   24  O5  UNL     1      19.599  86.253   6.054  1.00  0.00    -0.353 OA
HETATM   25  C10 UNL     1      20.928  86.633   6.250  1.00  0.00     0.210 C 
ENDBRANCH   6  24
BRANCH   7  26
HETATM   26  O6  UNL     1      19.136  84.047   7.585  1.00  0.00    -0.353 OA
HETATM   27  C12 UNL     1      17.961  84.116   8.393  1.00  0.00     0.210 C 
ENDBRANCH   7  26
TORSDOF 7
ENDMDL
MODEL 5
REMARK VINA RESULT: -6.883622195      2.638      4.897
REMARK  7 active torsions:
REMARK  status: ('A' for Active; 'I' for Inactive)
REMARK    1  A    between atoms: O1_2  and  C2_3 
REMARK    2  A    between atoms: C2_3  and  O2_4 
REMARK    3  A    between atoms: O2_4  and  C3_5 
REMARK    4  A    between atoms: C3_5  and  C4_7 
REMARK    5  A    between atoms: C4_7  and  O4_8 
REMARK    6  A    between atoms: C9_14  and  O5_15 
REMARK    7  A    between atoms: C11_17  and  O6_18 
ROOT
HETATM    1  C4  UNL     1      19.496  83.136  -1.258  1.00  0.00     0.176 C 
HETATM    2  C5  UNL     1      19.346  83.742   0.117  1.00  0.00     0.066 C 
HETATM    3  C6  UNL     1      18.354  82.962   0.896  1.00  0.00     0.081 C 
HETATM    4  C7  UNL     1      18.437  83.084   2.369  1.00  0.00    -0.013 A 
HETATM    5  C8  UNL     1      18.720  84.085   3.271  1.00  0.00     0.050 A 
HETATM    6  C9  UNL     1      18.711  83.897   4.642  1.00  0.00     0.102 A 
HETATM    7  C11 UNL     1      18.399  82.642   5.143  1.00  0.00     0.104 A 
HETATM    8  C13 UNL     1      18.117  81.648   4.232  1.00  0.00     0.077 A 
HETATM    9  C14 UNL     1      18.126  81.832   2.856  1.00  0.00     0.081 A 
HETATM   10  O7  UNL     1      17.873  80.967   1.763  1.00  0.00    -0.319 OA
HETATM   11  C15 UNL     1      18.711  81.494   0.754  1.00  0.00     0.276 C 
HETATM   12  O8  UNL     1      18.565  81.025  -0.501  1.00  0.00    -0.346 OA
HETATM   13  C16 UNL     1      19.537  81.646  -1.288  1.00  0.00     0.097 C 
HETATM   14  C17 UNL     1      19.414  81.200  -2.725  1.00  0.00     0.049 C 
HETATM   15  C18 UNL     1      20.930  81.226  -0.801  1.00  0.00     0.049 C 
ENDROOT
BRANCH   1  16
HETATM   16  C3  UNL     1      18.372  83.578  -2.154  1.00  0.00     0.298 C 
HETATM   17  O3  UNL     1      17.198  83.669  -1.726  1.00  0.00    -0.262 OA
BRANCH  16  18
HETATM   18  O2  UNL     1      18.606  83.896  -3.484  1.00  0.00    -0.293 OA
BRANCH  18  19
HETATM   19  C2  UNL     1      18.579  85.240  -3.936  1.00  0.00     0.347 C 
BRANCH  19  20
HETATM   20  O1  UNL     1      19.568  86.006  -3.371  1.00  0.00    -0.371 OA
HETATM   21  C1  UNL     1      20.635  86.244  -4.230  1.00  0.00     0.204 C 
ENDBRANCH  19  20
ENDBRANCH  18  19
ENDBRANCH  16  18
ENDBRANCH   1  16
BRANCH   1  22
HETATM   22  O4  UNL     1      20.709  83.578  -1.837  1.00  0.00    -0.377 OA
ATOM     23  H4  UNL     1      20.752  84.522  -1.735  1.00  0.00     0.211 HD
ENDBRANCH   1  22
BRANCH   6  24
HETATM   24  O5  UNL     1      18.998  84.913   5.533  1.00  0.00    -0.353 OA
HETATM   25  C10 UNL     1      20.291  85.333   5.849  1.00  0.00     0.210 C 
ENDBRANCH   6  24
BRANCH   7  26
HETATM   26  O6  UNL     1      18.385  82.443   6.507  1.00  0.00    -0.353 OA
HETATM   27  C12 UNL     1      17.667  81.318   7.014  1.00  0.00     0.210 C 
ENDBRANCH   7  26
TORSDOF 7
ENDMDL
