MODEL 1
REMARK VINA RESULT: -7.353690757      0.000      0.000
REMARK  7 active torsions:
REMARK  status: ('A' for Active; 'I' for Inactive)
REMARK       I    between atoms: C2_2  and  N1_4 
REMARK    1  A    between atoms: N1_4  and  C3_6 
REMARK    2  A    between atoms: C5_8  and  C6_9 
REMARK    3  A    between atoms: C7_14  and  S1_15 
REMARK    4  A    between atoms: S1_15  and  C8_16 
REMARK    5  A    between atoms: C8_16  and  C9_17 
REMARK    6  A    between atoms: C9_17  and  O3_19 
REMARK    7  A    between atoms: O3_19  and  C10_20 
ROOT
HETATM    1  C10 UNL     1      21.419  85.702   6.959  1.00  0.00     0.151 C 
HETATM    2  C11 UNL     1      20.695  86.965   6.515  1.00  0.00     0.063 C 
HETATM    3  C12 UNL     1      21.715  85.802   8.460  1.00  0.00     0.063 C 
HETATM    4  C13 UNL     1      22.713  85.557   6.294  1.00  0.00     0.097 C 
HETATM    5  N4  UNL     1      23.737  85.431   5.764  1.00  0.00    -0.194 NA
ENDROOT
BRANCH   1   6
HETATM    6  O3  UNL     1      20.643  84.558   6.765  1.00  0.00    -0.295 OA
BRANCH   6   7
HETATM    7  C9  UNL     1      19.342  84.555   6.311  1.00  0.00     0.270 C 
HETATM    8  O2  UNL     1      18.491  85.145   7.032  1.00  0.00    -0.264 OA
BRANCH   7   9
HETATM    9  C8  UNL     1      19.015  83.886   5.048  1.00  0.00     0.194 C 
BRANCH   9  10
HETATM   10  S1  UNL     1      19.240  85.045   3.676  1.00  0.00    -0.075 SA
BRANCH  10  11
HETATM   11  C7  UNL     1      20.961  85.014   3.128  1.00  0.00     0.203 A 
HETATM   12  N3  UNL     1      21.791  86.068   3.065  1.00  0.00    -0.272 N 
HETATM   13  N2  UNL     1      22.957  85.646   2.619  1.00  0.00    -0.279 N 
ATOM     14  H3  UNL     1      21.560  87.029   3.319  1.00  0.00     0.189 HD
HETATM   15  C6  UNL     1      22.878  84.323   2.395  1.00  0.00     0.170 A 
ATOM     16  H2  UNL     1      23.782  86.227   2.468  1.00  0.00     0.189 HD
HETATM   17  O4  UNL     1      21.655  83.980   2.715  1.00  0.00    -0.269 OA
BRANCH  15  18
HETATM   18  C5  UNL     1      23.909  83.390   1.895  1.00  0.00     0.201 C 
HETATM   19  C4  UNL     1      23.580  82.933   0.505  1.00  0.00     0.068 C 
HETATM   20  C3  UNL     1      24.574  83.626  -0.362  1.00  0.00     0.121 C 
HETATM   21  C14 UNL     1      25.581  84.149   0.592  1.00  0.00     0.075 C 
HETATM   22  O5  UNL     1      25.138  84.015   1.875  1.00  0.00    -0.365 OA
HETATM   23  C15 UNL     1      25.924  85.614   0.365  1.00  0.00     0.048 C 
HETATM   24  C16 UNL     1      26.915  83.396   0.490  1.00  0.00     0.048 C 
BRANCH  20  25
HETATM   25  N1  UNL     1      24.025  84.583  -1.256  1.00  0.00    -0.354 N 
HETATM   26  C2  UNL     1      24.213  84.611  -2.655  1.00  0.00     0.214 C 
HETATM   27  C1  UNL     1      23.615  85.634  -3.543  1.00  0.00     0.117 C 
HETATM   28  O1  UNL     1      24.924  83.726  -3.197  1.00  0.00    -0.274 OA
ATOM     29  H1  UNL     1      23.442  85.316  -0.850  1.00  0.00     0.163 HD
ENDBRANCH  20  25
ENDBRANCH  15  18
ENDBRANCH  10  11
ENDBRANCH   9  10
ENDBRANCH   7   9
ENDBRANCH   6   7
ENDBRANCH   1   6
TORSDOF 7
ENDMDL
MODEL 2
REMARK VINA RESULT: -7.178980913      3.751      5.123
REMARK  7 active torsions:
REMARK  status: ('A' for Active; 'I' for Inactive)
REMARK       I    between atoms: C2_2  and  N1_4 
REMARK    1  A    between atoms: N1_4  and  C3_6 
REMARK    2  A    between atoms: C5_8  and  C6_9 
REMARK    3  A    between atoms: C7_14  and  S1_15 
REMARK    4  A    between atoms: S1_15  and  C8_16 
REMARK    5  A    between atoms: C8_16  and  C9_17 
REMARK    6  A    between atoms: C9_17  and  O3_19 
REMARK    7  A    between atoms: O3_19  and  C10_20 
ROOT
HETATM    1  C10 UNL     1      19.582  84.910   6.901  1.00  0.00     0.151 C 
HETATM    2  C11 UNL     1      19.052  85.092   8.316  1.00  0.00     0.063 C 
HETATM    3  C12 UNL     1      19.348  86.205   6.114  1.00  0.00     0.063 C 
HETATM    4  C13 UNL     1      18.862  83.858   6.184  1.00  0.00     0.097 C 
HETATM    5  N4  UNL     1      18.301  83.019   5.612  1.00  0.00    -0.194 NA
ENDROOT
BRANCH   1   6
HETATM    6  O3  UNL     1      20.954  84.656   6.884  1.00  0.00    -0.295 OA
BRANCH   6   7
HETATM    7  C9  UNL     1      21.932  85.617   6.737  1.00  0.00     0.270 C 
HETATM    8  O2  UNL     1      21.859  86.616   7.505  1.00  0.00    -0.264 OA
BRANCH   7   9
HETATM    9  C8  UNL     1      22.980  85.439   5.728  1.00  0.00     0.194 C 
BRANCH   9  10
HETATM   10  S1  UNL     1      22.448  86.187   4.168  1.00  0.00    -0.075 SA
BRANCH  10  11
HETATM   11  C7  UNL     1      21.675  84.933   3.123  1.00  0.00     0.203 A 
HETATM   12  N3  UNL     1      22.233  84.340   2.055  1.00  0.00    -0.272 N 
HETATM   13  N2  UNL     1      21.361  83.485   1.559  1.00  0.00    -0.279 N 
ATOM     14  H3  UNL     1      23.169  84.519   1.691  1.00  0.00     0.189 HD
HETATM   15  C6  UNL     1      20.244  83.527   2.306  1.00  0.00     0.170 A 
ATOM     16  H2  UNL     1      21.509  82.891   0.743  1.00  0.00     0.189 HD
HETATM   17  O4  UNL     1      20.475  84.415   3.241  1.00  0.00    -0.269 OA
BRANCH  15  18
HETATM   18  C5  UNL     1      18.987  82.766   2.163  1.00  0.00     0.201 C 
HETATM   19  C4  UNL     1      18.007  83.517   1.311  1.00  0.00     0.068 C 
HETATM   20  C3  UNL     1      17.966  82.758   0.030  1.00  0.00     0.121 C 
HETATM   21  C14 UNL     1      18.646  81.480   0.346  1.00  0.00     0.075 C 
HETATM   22  O5  UNL     1      19.241  81.546   1.572  1.00  0.00    -0.365 OA
HETATM   23  C15 UNL     1      19.711  81.094  -0.671  1.00  0.00     0.048 C 
HETATM   24  C16 UNL     1      17.666  80.300   0.379  1.00  0.00     0.048 C 
BRANCH  20  25
HETATM   25  N1  UNL     1      18.475  83.458  -1.097  1.00  0.00    -0.354 N 
HETATM   26  C2  UNL     1      17.710  83.967  -2.169  1.00  0.00     0.214 C 
HETATM   27  C1  UNL     1      18.293  84.691  -3.321  1.00  0.00     0.117 C 
HETATM   28  O1  UNL     1      16.463  83.807  -2.164  1.00  0.00    -0.274 OA
ATOM     29  H1  UNL     1      19.484  83.606  -1.134  1.00  0.00     0.163 HD
ENDBRANCH  20  25
ENDBRANCH  15  18
ENDBRANCH  10  11
ENDBRANCH   9  10
ENDBRANCH   7   9
ENDBRANCH   6   7
ENDBRANCH   1   6
TORSDOF 7
ENDMDL
MODEL 3
REMARK VINA RESULT: -7.100163478      3.946      5.334
REMARK  7 active torsions:
REMARK  status: ('A' for Active; 'I' for Inactive)
REMARK       I    between atoms: C2_2  and  N1_4 
REMARK    1  A    between atoms: N1_4  and  C3_6 
REMARK    2  A    between atoms: C5_8  and  C6_9 
REMARK    3  A    between atoms: C7_14  and  S1_15 
REMARK    4  A    between atoms: S1_15  and  C8_16 
REMARK    5  A    between atoms: C8_16  and  C9_17 
REMARK    6  A    between atoms: C9_17  and  O3_19 
REMARK    7  A    between atoms: O3_19  and  C10_20 
ROOT
HETATM    1  C10 UNL     1      19.652  84.716   6.581  1.00  0.00     0.151 C 
HETATM    2  C11 UNL     1      18.778  83.778   5.762  1.00  0.00     0.063 C 
HETATM    3  C12 UNL     1      19.613  84.274   8.049  1.00  0.00     0.063 C 
HETATM    4  C13 UNL     1      19.148  86.090   6.553  1.00  0.00     0.097 C 
HETATM    5  N4  UNL     1      18.759  87.182   6.528  1.00  0.00    -0.194 NA
ENDROOT
BRANCH   1   6
HETATM    6  O3  UNL     1      20.986  84.681   6.173  1.00  0.00    -0.295 OA
BRANCH   6   7
HETATM    7  C9  UNL     1      21.811  85.781   6.078  1.00  0.00     0.270 C 
HETATM    8  O2  UNL     1      22.431  86.113   7.126  1.00  0.00    -0.264 OA
BRANCH   7   9
HETATM    9  C8  UNL     1      21.927  86.494   4.803  1.00  0.00     0.194 C 
BRANCH   9  10
HETATM   10  S1  UNL     1      22.945  85.525   3.661  1.00  0.00    -0.075 SA
BRANCH  10  11
HETATM   11  C7  UNL     1      21.891  84.430   2.686  1.00  0.00     0.203 A 
HETATM   12  N3  UNL     1      22.237  83.801   1.551  1.00  0.00    -0.272 N 
HETATM   13  N2  UNL     1      21.202  83.097   1.139  1.00  0.00    -0.279 N 
ATOM     14  H3  UNL     1      23.145  83.857   1.088  1.00  0.00     0.189 HD
HETATM   15  C6  UNL     1      20.191  83.272   2.006  1.00  0.00     0.170 A 
ATOM     16  H2  UNL     1      21.173  82.516   0.301  1.00  0.00     0.189 HD
HETATM   17  O4  UNL     1      20.648  84.085   2.926  1.00  0.00    -0.269 OA
BRANCH  15  18
HETATM   18  C5  UNL     1      18.827  82.703   1.990  1.00  0.00     0.201 C 
HETATM   19  C4  UNL     1      17.905  83.562   1.177  1.00  0.00     0.068 C 
HETATM   20  C3  UNL     1      17.653  82.773  -0.061  1.00  0.00     0.121 C 
HETATM   21  C14 UNL     1      18.161  81.419   0.265  1.00  0.00     0.075 C 
HETATM   22  O5  UNL     1      18.853  81.439   1.440  1.00  0.00    -0.365 OA
HETATM   23  C15 UNL     1      19.075  80.842  -0.807  1.00  0.00     0.048 C 
HETATM   24  C16 UNL     1      17.024  80.401   0.424  1.00  0.00     0.048 C 
BRANCH  20  25
HETATM   25  N1  UNL     1      18.170  83.348  -1.253  1.00  0.00    -0.354 N 
HETATM   26  C2  UNL     1      17.405  83.898  -2.304  1.00  0.00     0.214 C 
HETATM   27  C1  UNL     1      17.996  84.487  -3.527  1.00  0.00     0.117 C 
HETATM   28  O1  UNL     1      16.150  83.898  -2.217  1.00  0.00    -0.274 OA
ATOM     29  H1  UNL     1      19.185  83.365  -1.358  1.00  0.00     0.163 HD
ENDBRANCH  20  25
ENDBRANCH  15  18
ENDBRANCH  10  11
ENDBRANCH   9  10
ENDBRANCH   7   9
ENDBRANCH   6   7
ENDBRANCH   1   6
TORSDOF 7
ENDMDL
MODEL 4
REMARK VINA RESULT: -7.098997442      2.947      7.154
REMARK  7 active torsions:
REMARK  status: ('A' for Active; 'I' for Inactive)
REMARK       I    between atoms: C2_2  and  N1_4 
REMARK    1  A    between atoms: N1_4  and  C3_6 
REMARK    2  A    between atoms: C5_8  and  C6_9 
REMARK    3  A    between atoms: C7_14  and  S1_15 
REMARK    4  A    between atoms: S1_15  and  C8_16 
REMARK    5  A    between atoms: C8_16  and  C9_17 
REMARK    6  A    between atoms: C9_17  and  O3_19 
REMARK    7  A    between atoms: O3_19  and  C10_20 
ROOT
HETATM    1  C10 UNL     1      18.729  82.307   1.722  1.00  0.00     0.151 C 
HETATM    2  C11 UNL     1      18.001  81.393   2.697  1.00  0.00     0.063 C 
HETATM    3  C12 UNL     1      19.538  83.338   2.517  1.00  0.00     0.063 C 
HETATM    4  C13 UNL     1      17.795  83.069   0.893  1.00  0.00     0.097 C 
HETATM    5  N4  UNL     1      17.061  83.670   0.227  1.00  0.00    -0.194 NA
ENDROOT
BRANCH   1   6
HETATM    6  O3  UNL     1      19.629  81.605   0.918  1.00  0.00    -0.295 OA
BRANCH   6   7
HETATM    7  C9  UNL     1      20.815  82.113   0.432  1.00  0.00     0.270 C 
HETATM    8  O2  UNL     1      20.740  82.817  -0.612  1.00  0.00    -0.264 OA
BRANCH   7   9
HETATM    9  C8  UNL     1      22.070  81.821   1.130  1.00  0.00     0.194 C 
BRANCH   9  10
HETATM   10  S1  UNL     1      23.281  83.116   0.761  1.00  0.00    -0.075 SA
BRANCH  10  11
HETATM   11  C7  UNL     1      23.688  84.017   2.272  1.00  0.00     0.203 A 
HETATM   12  N3  UNL     1      24.825  83.905   2.979  1.00  0.00    -0.272 N 
HETATM   13  N2  UNL     1      24.748  84.720   4.012  1.00  0.00    -0.279 N 
ATOM     14  H3  UNL     1      25.611  83.295   2.755  1.00  0.00     0.189 HD
HETATM   15  C6  UNL     1      23.565  85.356   3.971  1.00  0.00     0.170 A 
ATOM     16  H2  UNL     1      25.467  84.847   4.724  1.00  0.00     0.189 HD
HETATM   17  O4  UNL     1      22.954  84.902   2.904  1.00  0.00    -0.269 OA
BRANCH  15  18
HETATM   18  C5  UNL     1      23.005  86.363   4.895  1.00  0.00     0.201 C 
HETATM   19  C4  UNL     1      21.513  86.436   4.757  1.00  0.00     0.068 C 
HETATM   20  C3  UNL     1      20.990  85.808   6.002  1.00  0.00     0.121 C 
HETATM   21  C14 UNL     1      22.174  85.725   6.889  1.00  0.00     0.075 C 
HETATM   22  O5  UNL     1      23.311  86.027   6.197  1.00  0.00    -0.365 OA
HETATM   23  C15 UNL     1      22.361  84.354   7.521  1.00  0.00     0.048 C 
HETATM   24  C16 UNL     1      22.083  86.709   8.063  1.00  0.00     0.048 C 
BRANCH  20  25
HETATM   25  N1  UNL     1      20.286  84.589   5.807  1.00  0.00    -0.354 N 
HETATM   26  C2  UNL     1      19.033  84.260   6.367  1.00  0.00     0.214 C 
HETATM   27  C1  UNL     1      18.342  82.972   6.131  1.00  0.00     0.117 C 
HETATM   28  O1  UNL     1      18.454  85.093   7.111  1.00  0.00    -0.274 OA
ATOM     29  H1  UNL     1      20.727  83.890   5.210  1.00  0.00     0.163 HD
ENDBRANCH  20  25
ENDBRANCH  15  18
ENDBRANCH  10  11
ENDBRANCH   9  10
ENDBRANCH   7   9
ENDBRANCH   6   7
ENDBRANCH   1   6
TORSDOF 7
ENDMDL
MODEL 5
REMARK VINA RESULT: -7.081852274      3.912      5.255
REMARK  7 active torsions:
REMARK  status: ('A' for Active; 'I' for Inactive)
REMARK       I    between atoms: C2_2  and  N1_4 
REMARK    1  A    between atoms: N1_4  and  C3_6 
REMARK    2  A    between atoms: C5_8  and  C6_9 
REMARK    3  A    between atoms: C7_14  and  S1_15 
REMARK    4  A    between atoms: S1_15  and  C8_16 
REMARK    5  A    between atoms: C8_16  and  C9_17 
REMARK    6  A    between atoms: C9_17  and  O3_19 
REMARK    7  A    between atoms: O3_19  and  C10_20 
ROOT
HETATM    1  C10 UNL     1      21.875  85.736   6.803  1.00  0.00     0.151 C 
HETATM    2  C11 UNL     1      21.041  86.928   6.357  1.00  0.00     0.063 C 
HETATM    3  C12 UNL     1      22.205  85.890   8.292  1.00  0.00     0.063 C 
HETATM    4  C13 UNL     1      23.157  85.679   6.102  1.00  0.00     0.097 C 
HETATM    5  N4  UNL     1      24.173  85.624   5.544  1.00  0.00    -0.194 NA
ENDROOT
BRANCH   1   6
HETATM    6  O3  UNL     1      21.188  84.530   6.654  1.00  0.00    -0.295 OA
BRANCH   6   7
HETATM    7  C9  UNL     1      19.921  84.279   7.135  1.00  0.00     0.270 C 
HETATM    8  O2  UNL     1      19.844  83.835   8.315  1.00  0.00    -0.264 OA
BRANCH   7   9
HETATM    9  C8  UNL     1      18.756  84.530   6.282  1.00  0.00     0.194 C 
BRANCH   9  10
HETATM   10  S1  UNL     1      18.539  83.146   5.136  1.00  0.00    -0.075 SA
BRANCH  10  11
HETATM   11  C7  UNL     1      19.483  83.451   3.627  1.00  0.00     0.203 A 
HETATM   12  N3  UNL     1      20.430  84.389   3.461  1.00  0.00    -0.272 N 
HETATM   13  N2  UNL     1      20.886  84.299   2.228  1.00  0.00    -0.279 N 
ATOM     14  H3  UNL     1      20.743  85.055   4.168  1.00  0.00     0.189 HD
HETATM   15  C6  UNL     1      20.234  83.305   1.600  1.00  0.00     0.170 A 
ATOM     16  H2  UNL     1      21.612  84.886   1.818  1.00  0.00     0.189 HD
HETATM   17  O4  UNL     1      19.395  82.818   2.481  1.00  0.00    -0.269 OA
BRANCH  15  18
HETATM   18  C5  UNL     1      20.380  82.811   0.216  1.00  0.00     0.201 C 
HETATM   19  C4  UNL     1      20.063  81.347   0.140  1.00  0.00     0.068 C 
HETATM   20  C3  UNL     1      18.751  81.283  -0.561  1.00  0.00     0.121 C 
HETATM   21  C14 UNL     1      18.573  82.645  -1.118  1.00  0.00     0.075 C 
HETATM   22  O5  UNL     1      19.519  83.492  -0.619  1.00  0.00    -0.365 OA
HETATM   23  C15 UNL     1      17.205  83.244  -0.825  1.00  0.00     0.048 C 
HETATM   24  C16 UNL     1      18.709  82.663  -2.647  1.00  0.00     0.048 C 
BRANCH  20  25
HETATM   25  N1  UNL     1      17.673  80.801   0.229  1.00  0.00    -0.354 N 
HETATM   26  C2  UNL     1      17.250  79.457   0.318  1.00  0.00     0.214 C 
HETATM   27  C1  UNL     1      16.117  79.008   1.159  1.00  0.00     0.117 C 
HETATM   28  O1  UNL     1      17.854  78.577  -0.347  1.00  0.00    -0.274 OA
ATOM     29  H1  UNL     1      17.159  81.488   0.781  1.00  0.00     0.163 HD
ENDBRANCH  20  25
ENDBRANCH  15  18
ENDBRANCH  10  11
ENDBRANCH   9  10
ENDBRANCH   7   9
ENDBRANCH   6   7
ENDBRANCH   1   6
TORSDOF 7
ENDMDL
