MODEL 1
REMARK VINA RESULT: -9.718826210      0.000      0.000
REMARK  12 active torsions:
REMARK  status: ('A' for Active; 'I' for Inactive)
REMARK    1  A    between atoms: N1_1  and  C1_5 
REMARK    2  A    between atoms: N2_8  and  C4_9 
REMARK    3  A    between atoms: N4_13  and  C6_15 
REMARK    4  A    between atoms: C7_20  and  C8_21 
REMARK    5  A    between atoms: C8_21  and  O1_22 
REMARK    6  A    between atoms: O1_22  and  S1_23 
REMARK    7  A    between atoms: S1_23  and  N7_24 
REMARK    8  A    between atoms: S1_23  and  N8_28 
REMARK       I    between atoms: N8_28  and  C9_30 
REMARK       I    between atoms: C9_30  and  N9_32 
REMARK    9  A    between atoms: N9_32  and  N10_34 
REMARK   10  A    between atoms: N10_34  and  C10_36 
REMARK   11  A    between atoms: C13_47  and  N14_48 
REMARK   12  A    between atoms: C16_51  and  N15_52 
ROOT
HETATM    1  C6  UNL     1      13.985   9.490  21.894  1.00  0.00     0.259 A 
HETATM    2  N5  UNL     1      14.476   9.022  20.763  1.00  0.00    -0.263 N 
ATOM      3  H5  UNL     1      15.429   9.152  20.423  1.00  0.00     0.190 HD
HETATM    4  N6  UNL     1      13.501   8.346  20.139  1.00  0.00    -0.278 N 
ATOM      5  H6  UNL     1      13.589   7.871  19.241  1.00  0.00     0.189 HD
HETATM    6  C7  UNL     1      12.394   8.397  20.890  1.00  0.00     0.167 A 
HETATM    7  O4  UNL     1      12.735   9.109  21.961  1.00  0.00    -0.261 OA
ENDROOT
BRANCH   1   8
HETATM    8  N4  UNL     1      14.703  10.270  22.855  1.00  0.00    -0.152 N 
HETATM    9  C5  UNL     1      14.567  11.574  22.854  1.00  0.00     0.714 A 
HETATM   10  N3  UNL     1      13.755  12.139  21.946  1.00  0.00    -0.021 N 
HETATM   11  N13 UNL     1      15.192  12.378  23.724  1.00  0.00    -0.021 N 
HETATM   12  C4  UNL     1      13.527  13.462  21.854  1.00  0.00     0.709 A 
ATOM     13  H3  UNL     1      13.280  11.526  21.284  1.00  0.00     0.203 HD
HETATM   14  N16 UNL     1      14.180  14.231  22.754  1.00  0.00    -0.021 N 
HETATM   15  C13 UNL     1      15.015  13.705  23.696  1.00  0.00     0.709 A 
ATOM     16  H16 UNL     1      14.043  15.241  22.729  1.00  0.00     0.203 HD
ATOM     17  H13 UNL     1      15.814  11.972  24.423  1.00  0.00     0.203 HD
ATOM     18  H4  UNL     1      15.315   9.816  23.534  1.00  0.00     0.188 HD
BRANCH  12  19
HETATM   19  N2  UNL     1      12.658  14.056  20.896  1.00  0.00    -0.217 N 
HETATM   20  C3  UNL     1      12.534  15.490  20.690  1.00  0.00     0.143 C 
HETATM   21  C2  UNL     1      11.066  15.848  20.672  1.00  0.00     0.053 C 
HETATM   22  C1  UNL     1      10.212  14.749  21.257  1.00  0.00     0.186 C 
HETATM   23  C19 UNL     1      10.394  13.430  20.542  1.00  0.00     0.053 C 
HETATM   24  C18 UNL     1      11.799  13.234  20.034  1.00  0.00     0.143 C 
BRANCH  22  25
HETATM   25  N1  UNL     1       8.831  15.123  21.175  1.00  0.00    -0.075 N 
ATOM     26  H13 UNL     1       8.342  14.987  22.060  1.00  0.00     0.274 HD
ATOM     27  H12 UNL     1       8.709  16.133  21.096  1.00  0.00     0.274 HD
ATOM     28  H11 UNL     1       8.387  14.619  20.408  1.00  0.00     0.274 HD
ENDBRANCH  22  25
ENDBRANCH  12  19
BRANCH  15  29
HETATM   29  N14 UNL     1      15.615  14.613  24.581  1.00  0.00    -0.215 N 
HETATM   30  C14 UNL     1      16.793  15.410  24.226  1.00  0.00     0.143 C 
HETATM   31  C15 UNL     1      17.195  16.102  25.511  1.00  0.00     0.055 C 
HETATM   32  C16 UNL     1      15.838  16.248  26.191  1.00  0.00     0.203 C 
HETATM   33  C17 UNL     1      15.212  14.901  25.926  1.00  0.00     0.173 C 
BRANCH  32  34
HETATM   34  N15 UNL     1      15.080  17.248  25.499  1.00  0.00    -0.073 N 
ATOM     35 3H15 UNL     1      14.423  17.732  26.111  1.00  0.00     0.274 HD
ATOM     36 2H15 UNL     1      15.647  18.053  25.234  1.00  0.00     0.274 HD
ATOM     37 1H15 UNL     1      14.619  16.815  24.698  1.00  0.00     0.274 HD
ENDBRANCH  32  34
ENDBRANCH  15  29
ENDBRANCH   1   8
BRANCH   6  38
HETATM   38  C8  UNL     1      11.096   7.795  20.588  1.00  0.00     0.276 C 
BRANCH  38  39
HETATM   39  O1  UNL     1      10.993   6.535  20.213  1.00  0.00    -0.268 OA
BRANCH  39  40
HETATM   40  S1  UNL     1      11.115   5.828  18.641  1.00  0.00     0.237 S 
HETATM   41  O2  UNL     1      12.489   6.049  17.568  1.00  0.00    -0.198 OA
BRANCH  40  42
HETATM   42  N7  UNL     1      10.263   7.200  17.819  1.00  0.00    -0.323 N 
ATOM     43  H72 UNL     1      10.580   7.910  17.158  1.00  0.00     0.169 HD
ATOM     44  H71 UNL     1       9.365   6.999  18.259  1.00  0.00     0.169 HD
ENDBRANCH  40  42
BRANCH  40  45
HETATM   45  N8  UNL     1       9.690   4.647  18.005  1.00  0.00    -0.230 N 
HETATM   46  C9  UNL     1       8.363   4.873  18.331  1.00  0.00     0.348 C 
HETATM   47  O3  UNL     1       8.108   5.889  19.069  1.00  0.00    -0.245 OA
HETATM   48  N9  UNL     1       7.311   4.060  17.899  1.00  0.00    -0.249 N 
ATOM     49  H9  UNL     1       7.500   3.244  17.317  1.00  0.00     0.192 HD
ATOM     50  H8  UNL     1       9.930   3.846  17.420  1.00  0.00     0.184 HD
BRANCH  48  51
HETATM   51  N10 UNL     1       6.005   4.368  18.267  1.00  0.00    -0.284 N 
ATOM     52  H10 UNL     1       5.606   3.869  19.062  1.00  0.00     0.188 HD
BRANCH  51  53
HETATM   53  C10 UNL     1       5.197   5.319  17.620  1.00  0.00     0.119 C 
HETATM   54  N11 UNL     1       4.296   6.005  18.285  1.00  0.00    -0.354 N 
HETATM   55  C11 UNL     1       3.604   6.908  17.399  1.00  0.00     0.356 C 
ATOM     56  H11 UNL     1       4.112   5.912  19.285  1.00  0.00     0.162 HD
HETATM   57  N12 UNL     1       4.513   7.050  16.266  1.00  0.00    -0.053 N 
HETATM   58  C12 UNL     1       5.134   5.744  16.218  1.00  0.00     0.311 C 
ATOM     59 2H12 UNL     1       4.075   7.353  15.396  1.00  0.00     0.279 HD
ATOM     60 1H12 UNL     1       5.160   7.835  16.325  1.00  0.00     0.279 HD
ENDBRANCH  51  53
ENDBRANCH  48  51
ENDBRANCH  40  45
ENDBRANCH  39  40
ENDBRANCH  38  39
ENDBRANCH   6  38
TORSDOF 12
ENDMDL
MODEL 2
REMARK VINA RESULT: -9.594727482      3.744      9.567
REMARK  12 active torsions:
REMARK  status: ('A' for Active; 'I' for Inactive)
REMARK    1  A    between atoms: N1_1  and  C1_5 
REMARK    2  A    between atoms: N2_8  and  C4_9 
REMARK    3  A    between atoms: N4_13  and  C6_15 
REMARK    4  A    between atoms: C7_20  and  C8_21 
REMARK    5  A    between atoms: C8_21  and  O1_22 
REMARK    6  A    between atoms: O1_22  and  S1_23 
REMARK    7  A    between atoms: S1_23  and  N7_24 
REMARK    8  A    between atoms: S1_23  and  N8_28 
REMARK       I    between atoms: N8_28  and  C9_30 
REMARK       I    between atoms: C9_30  and  N9_32 
REMARK    9  A    between atoms: N9_32  and  N10_34 
REMARK   10  A    between atoms: N10_34  and  C10_36 
REMARK   11  A    between atoms: C13_47  and  N14_48 
REMARK   12  A    between atoms: C16_51  and  N15_52 
ROOT
HETATM    1  C6  UNL     1      14.240   8.797  23.147  1.00  0.00     0.259 A 
HETATM    2  N5  UNL     1      15.034   8.639  24.189  1.00  0.00    -0.263 N 
ATOM      3  H5  UNL     1      15.068   7.822  24.799  1.00  0.00     0.190 HD
HETATM    4  N6  UNL     1      15.786   9.742  24.304  1.00  0.00    -0.278 N 
ATOM      5  H6  UNL     1      16.494   9.906  25.020  1.00  0.00     0.189 HD
HETATM    6  C7  UNL     1      15.455  10.594  23.326  1.00  0.00     0.167 A 
HETATM    7  O4  UNL     1      14.501   9.973  22.636  1.00  0.00    -0.261 OA
ENDROOT
BRANCH   1   8
HETATM    8  N4  UNL     1      13.278   7.847  22.681  1.00  0.00    -0.152 N 
HETATM    9  C5  UNL     1      12.587   8.111  21.598  1.00  0.00     0.714 A 
HETATM   10  N3  UNL     1      12.805   9.271  20.958  1.00  0.00    -0.021 N 
HETATM   11  N13 UNL     1      11.676   7.273  21.085  1.00  0.00    -0.021 N 
HETATM   12  C4  UNL     1      12.167   9.647  19.835  1.00  0.00     0.709 A 
ATOM     13  H3  UNL     1      13.498   9.908  21.350  1.00  0.00     0.203 HD
HETATM   14  N16 UNL     1      11.258   8.768  19.357  1.00  0.00    -0.021 N 
HETATM   15  C13 UNL     1      11.002   7.577  19.970  1.00  0.00     0.709 A 
ATOM     16  H16 UNL     1      10.746   9.003  18.507  1.00  0.00     0.203 HD
ATOM     17  H13 UNL     1      11.493   6.385  21.554  1.00  0.00     0.203 HD
ATOM     18  H4  UNL     1      13.131   6.972  23.185  1.00  0.00     0.188 HD
BRANCH  12  19
HETATM   19  N2  UNL     1      12.408  10.874  19.155  1.00  0.00    -0.217 N 
HETATM   20  C3  UNL     1      13.285  11.006  18.003  1.00  0.00     0.143 C 
HETATM   21  C2  UNL     1      14.209  12.180  18.235  1.00  0.00     0.053 C 
HETATM   22  C1  UNL     1      14.239  12.595  19.686  1.00  0.00     0.186 C 
HETATM   23  C19 UNL     1      12.869  12.949  20.217  1.00  0.00     0.053 C 
HETATM   24  C18 UNL     1      11.773  12.125  19.592  1.00  0.00     0.143 C 
BRANCH  22  25
HETATM   25  N1  UNL     1      15.094  13.734  19.839  1.00  0.00    -0.075 N 
ATOM     26  H13 UNL     1      14.688  14.442  20.451  1.00  0.00     0.274 HD
ATOM     27  H12 UNL     1      15.923  13.522  20.394  1.00  0.00     0.274 HD
ATOM     28  H11 UNL     1      15.330  14.109  18.920  1.00  0.00     0.274 HD
ENDBRANCH  22  25
ENDBRANCH  12  19
BRANCH  15  29
HETATM   29  N14 UNL     1      10.048   6.748  19.359  1.00  0.00    -0.215 N 
HETATM   30  C14 UNL     1       9.320   7.134  18.146  1.00  0.00     0.143 C 
HETATM   31  C15 UNL     1       8.291   6.041  17.948  1.00  0.00     0.055 C 
HETATM   32  C16 UNL     1       9.025   4.848  18.548  1.00  0.00     0.203 C 
HETATM   33  C17 UNL     1       9.627   5.449  19.795  1.00  0.00     0.173 C 
BRANCH  32  34
HETATM   34  N15 UNL     1      10.089   4.467  17.666  1.00  0.00    -0.073 N 
ATOM     35 3H15 UNL     1       9.776   4.368  16.700  1.00  0.00     0.274 HD
ATOM     36 2H15 UNL     1      10.762   5.220  17.521  1.00  0.00     0.274 HD
ATOM     37 1H15 UNL     1      10.525   3.618  18.024  1.00  0.00     0.274 HD
ENDBRANCH  32  34
ENDBRANCH  15  29
ENDBRANCH   1   8
BRANCH   6  38
HETATM   38  C8  UNL     1      16.025  11.917  23.078  1.00  0.00     0.276 C 
BRANCH  38  39
HETATM   39  O1  UNL     1      15.263  12.989  22.990  1.00  0.00    -0.268 OA
BRANCH  39  40
HETATM   40  S1  UNL     1      15.400  14.521  23.777  1.00  0.00     0.237 S 
HETATM   41  O2  UNL     1      16.913  15.191  24.367  1.00  0.00    -0.198 OA
BRANCH  40  42
HETATM   42  N7  UNL     1      15.065  13.846  25.425  1.00  0.00    -0.323 N 
ATOM     43  H72 UNL     1      14.456  13.095  25.750  1.00  0.00     0.169 HD
ATOM     44  H71 UNL     1      15.703  14.488  25.896  1.00  0.00     0.169 HD
ENDBRANCH  40  42
BRANCH  40  45
HETATM   45  N8  UNL     1      13.809  15.642  23.983  1.00  0.00    -0.230 N 
HETATM   46  C9  UNL     1      13.098  16.099  22.884  1.00  0.00     0.348 C 
HETATM   47  O3  UNL     1      13.530  15.758  21.727  1.00  0.00    -0.245 OA
HETATM   48  N9  UNL     1      11.956  16.898  22.980  1.00  0.00    -0.249 N 
ATOM     49  H9  UNL     1      11.605  17.183  23.895  1.00  0.00     0.192 HD
ATOM     50  H8  UNL     1      13.494  15.894  24.919  1.00  0.00     0.184 HD
BRANCH  48  51
HETATM   51  N10 UNL     1      11.299  17.304  21.823  1.00  0.00    -0.284 N 
ATOM     52  H10 UNL     1      11.496  18.240  21.470  1.00  0.00     0.188 HD
BRANCH  51  53
HETATM   53  C10 UNL     1      10.382  16.515  21.107  1.00  0.00     0.119 C 
HETATM   54  N11 UNL     1      10.726  15.936  19.979  1.00  0.00    -0.354 N 
HETATM   55  C11 UNL     1       9.614  15.188  19.445  1.00  0.00     0.356 C 
ATOM     56  H11 UNL     1      11.646  16.004  19.544  1.00  0.00     0.162 HD
HETATM   57  N12 UNL     1       8.750  14.972  20.602  1.00  0.00    -0.053 N 
HETATM   58  C12 UNL     1       8.982  16.174  21.374  1.00  0.00     0.311 C 
ATOM     59 2H12 UNL     1       7.773  14.779  20.383  1.00  0.00     0.279 HD
ATOM     60 1H12 UNL     1       8.909  14.098  21.103  1.00  0.00     0.279 HD
ENDBRANCH  51  53
ENDBRANCH  48  51
ENDBRANCH  40  45
ENDBRANCH  39  40
ENDBRANCH  38  39
ENDBRANCH   6  38
TORSDOF 12
ENDMDL
MODEL 3
REMARK VINA RESULT: -9.552440707      1.223      1.430
REMARK  12 active torsions:
REMARK  status: ('A' for Active; 'I' for Inactive)
REMARK    1  A    between atoms: N1_1  and  C1_5 
REMARK    2  A    between atoms: N2_8  and  C4_9 
REMARK    3  A    between atoms: N4_13  and  C6_15 
REMARK    4  A    between atoms: C7_20  and  C8_21 
REMARK    5  A    between atoms: C8_21  and  O1_22 
REMARK    6  A    between atoms: O1_22  and  S1_23 
REMARK    7  A    between atoms: S1_23  and  N7_24 
REMARK    8  A    between atoms: S1_23  and  N8_28 
REMARK       I    between atoms: N8_28  and  C9_30 
REMARK       I    between atoms: C9_30  and  N9_32 
REMARK    9  A    between atoms: N9_32  and  N10_34 
REMARK   10  A    between atoms: N10_34  and  C10_36 
REMARK   11  A    between atoms: C13_47  and  N14_48 
REMARK   12  A    between atoms: C16_51  and  N15_52 
ROOT
HETATM    1  C6  UNL     1      13.699   9.379  21.587  1.00  0.00     0.259 A 
HETATM    2  N5  UNL     1      14.234   8.847  20.505  1.00  0.00    -0.263 N 
ATOM      3  H5  UNL     1      15.220   8.879  20.246  1.00  0.00     0.190 HD
HETATM    4  N6  UNL     1      13.253   8.258  19.806  1.00  0.00    -0.278 N 
ATOM      5  H6  UNL     1      13.369   7.763  18.923  1.00  0.00     0.189 HD
HETATM    6  C7  UNL     1      12.098   8.428  20.460  1.00  0.00     0.167 A 
HETATM    7  O4  UNL     1      12.416   9.122  21.551  1.00  0.00    -0.261 OA
ENDROOT
BRANCH   1   8
HETATM    8  N4  UNL     1      14.406  10.101  22.598  1.00  0.00    -0.152 N 
HETATM    9  C5  UNL     1      14.302  11.408  22.647  1.00  0.00     0.714 A 
HETATM   10  N3  UNL     1      13.531  12.029  21.740  1.00  0.00    -0.021 N 
HETATM   11  N13 UNL     1      14.920  12.160  23.566  1.00  0.00    -0.021 N 
HETATM   12  C4  UNL     1      13.338  13.360  21.695  1.00  0.00     0.709 A 
ATOM     13  H3  UNL     1      13.061  11.455  21.040  1.00  0.00     0.203 HD
HETATM   14  N16 UNL     1      13.982  14.076  22.644  1.00  0.00    -0.021 N 
HETATM   15  C13 UNL     1      14.776  13.491  23.587  1.00  0.00     0.709 A 
ATOM     16  H16 UNL     1      13.870  15.089  22.656  1.00  0.00     0.203 HD
ATOM     17  H13 UNL     1      15.512  11.711  24.265  1.00  0.00     0.203 HD
ATOM     18  H4  UNL     1      14.987   9.606  23.275  1.00  0.00     0.188 HD
BRANCH  12  19
HETATM   19  N2  UNL     1      12.512  14.014  20.738  1.00  0.00    -0.217 N 
HETATM   20  C3  UNL     1      12.444  15.456  20.573  1.00  0.00     0.143 C 
HETATM   21  C2  UNL     1      10.990  15.869  20.536  1.00  0.00     0.053 C 
HETATM   22  C1  UNL     1      10.085  14.785  21.069  1.00  0.00     0.186 C 
HETATM   23  C19 UNL     1      10.234  13.481  20.319  1.00  0.00     0.053 C 
HETATM   24  C18 UNL     1      11.642  13.249  19.834  1.00  0.00     0.143 C 
BRANCH  22  25
HETATM   25  N1  UNL     1       8.720  15.212  20.971  1.00  0.00    -0.075 N 
ATOM     26  H13 UNL     1       8.274  15.290  21.884  1.00  0.00     0.274 HD
ATOM     27  H12 UNL     1       8.641  16.188  20.687  1.00  0.00     0.274 HD
ATOM     28  H11 UNL     1       8.213  14.586  20.345  1.00  0.00     0.274 HD
ENDBRANCH  22  25
ENDBRANCH  12  19
BRANCH  15  29
HETATM   29  N14 UNL     1      15.371  14.347  24.525  1.00  0.00    -0.215 N 
HETATM   30  C14 UNL     1      16.586  15.118  24.241  1.00  0.00     0.143 C 
HETATM   31  C15 UNL     1      16.963  15.751  25.563  1.00  0.00     0.055 C 
HETATM   32  C16 UNL     1      15.587  15.917  26.200  1.00  0.00     0.203 C 
HETATM   33  C17 UNL     1      14.930  14.601  25.865  1.00  0.00     0.173 C 
BRANCH  32  34
HETATM   34  N15 UNL     1      14.885  16.964  25.519  1.00  0.00    -0.073 N 
ATOM     35 3H15 UNL     1      15.492  17.498  24.896  1.00  0.00     0.274 HD
ATOM     36 2H15 UNL     1      14.239  16.606  24.816  1.00  0.00     0.274 HD
ATOM     37 1H15 UNL     1      14.422  17.554  26.210  1.00  0.00     0.274 HD
ENDBRANCH  32  34
ENDBRANCH  15  29
ENDBRANCH   1   8
BRANCH   6  38
HETATM   38  C8  UNL     1      10.776   7.950  20.054  1.00  0.00     0.276 C 
BRANCH  38  39
HETATM   39  O1  UNL     1      10.412   6.697  20.241  1.00  0.00    -0.268 OA
BRANCH  39  40
HETATM   40  S1  UNL     1       9.616   5.598  19.171  1.00  0.00     0.237 S 
HETATM   41  O2  UNL     1       9.272   3.921  19.562  1.00  0.00    -0.198 OA
BRANCH  40  42
HETATM   42  N7  UNL     1      11.149   5.086  18.353  1.00  0.00    -0.323 N 
ATOM     43  H72 UNL     1      11.805   4.327  18.535  1.00  0.00     0.169 HD
ATOM     44  H71 UNL     1      11.109   5.828  17.655  1.00  0.00     0.169 HD
ENDBRANCH  40  42
BRANCH  40  45
HETATM   45  N8  UNL     1       8.979   6.240  17.435  1.00  0.00    -0.230 N 
HETATM   46  C9  UNL     1       7.790   5.785  16.887  1.00  0.00     0.348 C 
HETATM   47  O3  UNL     1       7.126   4.925  17.565  1.00  0.00    -0.245 OA
HETATM   48  N9  UNL     1       7.293   6.215  15.653  1.00  0.00    -0.249 N 
ATOM     49  H9  UNL     1       7.815   6.895  15.099  1.00  0.00     0.192 HD
ATOM     50  H8  UNL     1       9.534   6.924  16.922  1.00  0.00     0.184 HD
BRANCH  48  51
HETATM   51  N10 UNL     1       6.084   5.713  15.184  1.00  0.00    -0.284 N 
ATOM     52  H10 UNL     1       6.111   4.866  14.616  1.00  0.00     0.188 HD
BRANCH  51  53
HETATM   53  C10 UNL     1       4.828   6.291  15.436  1.00  0.00     0.119 C 
HETATM   54  N11 UNL     1       4.465   6.615  16.656  1.00  0.00    -0.354 N 
HETATM   55  C11 UNL     1       3.141   7.187  16.647  1.00  0.00     0.356 C 
ATOM     56  H11 UNL     1       5.038   6.483  17.490  1.00  0.00     0.162 HD
HETATM   57  N12 UNL     1       2.960   7.626  15.266  1.00  0.00    -0.053 N 
HETATM   58  C12 UNL     1       3.722   6.635  14.537  1.00  0.00     0.311 C 
ATOM     59 2H12 UNL     1       1.990   7.731  14.970  1.00  0.00     0.279 HD
ATOM     60 1H12 UNL     1       3.221   8.594  15.083  1.00  0.00     0.279 HD
ENDBRANCH  51  53
ENDBRANCH  48  51
ENDBRANCH  40  45
ENDBRANCH  39  40
ENDBRANCH  38  39
ENDBRANCH   6  38
TORSDOF 12
ENDMDL
MODEL 4
REMARK VINA RESULT: -9.530376893      3.808     11.154
REMARK  12 active torsions:
REMARK  status: ('A' for Active; 'I' for Inactive)
REMARK    1  A    between atoms: N1_1  and  C1_5 
REMARK    2  A    between atoms: N2_8  and  C4_9 
REMARK    3  A    between atoms: N4_13  and  C6_15 
REMARK    4  A    between atoms: C7_20  and  C8_21 
REMARK    5  A    between atoms: C8_21  and  O1_22 
REMARK    6  A    between atoms: O1_22  and  S1_23 
REMARK    7  A    between atoms: S1_23  and  N7_24 
REMARK    8  A    between atoms: S1_23  and  N8_28 
REMARK       I    between atoms: N8_28  and  C9_30 
REMARK       I    between atoms: C9_30  and  N9_32 
REMARK    9  A    between atoms: N9_32  and  N10_34 
REMARK   10  A    between atoms: N10_34  and  C10_36 
REMARK   11  A    between atoms: C13_47  and  N14_48 
REMARK   12  A    between atoms: C16_51  and  N15_52 
ROOT
HETATM    1  C6  UNL     1      14.080   8.628  23.202  1.00  0.00     0.259 A 
HETATM    2  N5  UNL     1      14.986   8.374  24.127  1.00  0.00    -0.263 N 
ATOM      3  H5  UNL     1      15.128   7.481  24.599  1.00  0.00     0.190 HD
HETATM    4  N6  UNL     1      15.687   9.497  24.337  1.00  0.00    -0.278 N 
ATOM      5  H6  UNL     1      16.457   9.602  24.998  1.00  0.00     0.189 HD
HETATM    6  C7  UNL     1      15.210  10.458  23.536  1.00  0.00     0.167 A 
HETATM    7  O4  UNL     1      14.223   9.881  22.854  1.00  0.00    -0.261 OA
ENDROOT
BRANCH   1   8
HETATM    8  N4  UNL     1      13.127   7.693  22.691  1.00  0.00    -0.152 N 
HETATM    9  C5  UNL     1      12.451   7.992  21.608  1.00  0.00     0.714 A 
HETATM   10  N3  UNL     1      12.675   9.173  21.011  1.00  0.00    -0.021 N 
HETATM   11  N13 UNL     1      11.548   7.171  21.055  1.00  0.00    -0.021 N 
HETATM   12  C4  UNL     1      12.052   9.587  19.892  1.00  0.00     0.709 A 
ATOM     13  H3  UNL     1      13.362   9.798  21.434  1.00  0.00     0.203 HD
HETATM   14  N16 UNL     1      11.151   8.723  19.372  1.00  0.00    -0.021 N 
HETATM   15  C13 UNL     1      10.888   7.511  19.942  1.00  0.00     0.709 A 
ATOM     16  H16 UNL     1      10.651   8.986  18.524  1.00  0.00     0.203 HD
ATOM     17  H13 UNL     1      11.360   6.268  21.491  1.00  0.00     0.203 HD
ATOM     18  H4  UNL     1      12.974   6.802  23.164  1.00  0.00     0.188 HD
BRANCH  12  19
HETATM   19  N2  UNL     1      12.300  10.836  19.258  1.00  0.00    -0.217 N 
HETATM   20  C3  UNL     1      12.989  10.978  17.985  1.00  0.00     0.143 C 
HETATM   21  C2  UNL     1      14.049  12.046  18.129  1.00  0.00     0.053 C 
HETATM   22  C1  UNL     1      14.355  12.344  19.576  1.00  0.00     0.186 C 
HETATM   23  C19 UNL     1      13.131  12.775  20.352  1.00  0.00     0.053 C 
HETATM   24  C18 UNL     1      11.872  12.101  19.871  1.00  0.00     0.143 C 
BRANCH  22  25
HETATM   25  N1  UNL     1      15.332  13.389  19.653  1.00  0.00    -0.075 N 
ATOM     26  H13 UNL     1      16.078  13.172  20.313  1.00  0.00     0.274 HD
ATOM     27  H12 UNL     1      15.900  13.448  18.807  1.00  0.00     0.274 HD
ATOM     28  H11 UNL     1      14.870  14.272  19.870  1.00  0.00     0.274 HD
ENDBRANCH  22  25
ENDBRANCH  12  19
BRANCH  15  29
HETATM   29  N14 UNL     1       9.945   6.703  19.290  1.00  0.00    -0.215 N 
HETATM   30  C14 UNL     1       9.225   7.133  18.087  1.00  0.00     0.143 C 
HETATM   31  C15 UNL     1       8.204   6.043  17.836  1.00  0.00     0.055 C 
HETATM   32  C16 UNL     1       8.940   4.830  18.395  1.00  0.00     0.203 C 
HETATM   33  C17 UNL     1       9.528   5.385  19.669  1.00  0.00     0.173 C 
BRANCH  32  34
HETATM   34  N15 UNL     1      10.013   4.491  17.508  1.00  0.00    -0.073 N 
ATOM     35 3H15 UNL     1       9.709   4.423  16.537  1.00  0.00     0.274 HD
ATOM     36 2H15 UNL     1      10.680   5.255  17.394  1.00  0.00     0.274 HD
ATOM     37 1H15 UNL     1      10.455   3.634  17.839  1.00  0.00     0.274 HD
ENDBRANCH  32  34
ENDBRANCH  15  29
ENDBRANCH   1   8
BRANCH   6  38
HETATM   38  C8  UNL     1      15.680  11.839  23.440  1.00  0.00     0.276 C 
BRANCH  38  39
HETATM   39  O1  UNL     1      14.898  12.854  23.748  1.00  0.00    -0.268 OA
BRANCH  39  40
HETATM   40  S1  UNL     1      15.202  14.230  24.749  1.00  0.00     0.237 S 
HETATM   41  O2  UNL     1      14.275  14.621  26.189  1.00  0.00    -0.198 OA
BRANCH  40  42
HETATM   42  N7  UNL     1      14.140  15.330  23.776  1.00  0.00    -0.323 N 
ATOM     43  H72 UNL     1      13.747  15.254  22.838  1.00  0.00     0.169 HD
ATOM     44  H71 UNL     1      14.084  16.039  24.507  1.00  0.00     0.169 HD
ENDBRANCH  40  42
BRANCH  40  45
HETATM   45  N8  UNL     1      16.704  15.412  24.327  1.00  0.00    -0.230 N 
HETATM   46  C9  UNL     1      17.330  15.375  23.092  1.00  0.00     0.348 C 
HETATM   47  O3  UNL     1      16.884  14.532  22.236  1.00  0.00    -0.245 OA
HETATM   48  N9  UNL     1      18.403  16.200  22.743  1.00  0.00    -0.249 N 
ATOM     49  H9  UNL     1      18.772  16.872  23.416  1.00  0.00     0.192 HD
ATOM     50  H8  UNL     1      17.033  16.071  25.033  1.00  0.00     0.184 HD
BRANCH  48  51
HETATM   51  N10 UNL     1      18.965  16.102  21.474  1.00  0.00    -0.284 N 
ATOM     52  H10 UNL     1      18.762  16.847  20.808  1.00  0.00     0.188 HD
BRANCH  51  53
HETATM   53  C10 UNL     1      19.791  15.050  21.046  1.00  0.00     0.119 C 
HETATM   54  N11 UNL     1      19.307  14.053  20.342  1.00  0.00    -0.354 N 
HETATM   55  C11 UNL     1      20.352  13.109  20.030  1.00  0.00     0.356 C 
ATOM     56  H11 UNL     1      18.331  13.959  20.057  1.00  0.00     0.162 HD
HETATM   57  N12 UNL     1      21.579  13.885  20.182  1.00  0.00    -0.053 N 
HETATM   58  C12 UNL     1      21.222  14.800  21.246  1.00  0.00     0.311 C 
ATOM     59 2H12 UNL     1      22.421  13.334  20.350  1.00  0.00     0.279 HD
ATOM     60 1H12 UNL     1      21.922  14.325  19.329  1.00  0.00     0.279 HD
ENDBRANCH  51  53
ENDBRANCH  48  51
ENDBRANCH  40  45
ENDBRANCH  39  40
ENDBRANCH  38  39
ENDBRANCH   6  38
TORSDOF 12
ENDMDL
MODEL 5
REMARK VINA RESULT: -9.485797600      3.328      4.330
REMARK  12 active torsions:
REMARK  status: ('A' for Active; 'I' for Inactive)
REMARK    1  A    between atoms: N1_1  and  C1_5 
REMARK    2  A    between atoms: N2_8  and  C4_9 
REMARK    3  A    between atoms: N4_13  and  C6_15 
REMARK    4  A    between atoms: C7_20  and  C8_21 
REMARK    5  A    between atoms: C8_21  and  O1_22 
REMARK    6  A    between atoms: O1_22  and  S1_23 
REMARK    7  A    between atoms: S1_23  and  N7_24 
REMARK    8  A    between atoms: S1_23  and  N8_28 
REMARK       I    between atoms: N8_28  and  C9_30 
REMARK       I    between atoms: C9_30  and  N9_32 
REMARK    9  A    between atoms: N9_32  and  N10_34 
REMARK   10  A    between atoms: N10_34  and  C10_36 
REMARK   11  A    between atoms: C13_47  and  N14_48 
REMARK   12  A    between atoms: C16_51  and  N15_52 
ROOT
HETATM    1  C6  UNL     1      15.529  10.056  23.264  1.00  0.00     0.259 A 
HETATM    2  N5  UNL     1      15.694   9.250  24.295  1.00  0.00    -0.263 N 
ATOM      3  H5  UNL     1      16.437   9.312  24.992  1.00  0.00     0.190 HD
HETATM    4  N6  UNL     1      14.714   8.336  24.265  1.00  0.00    -0.278 N 
ATOM      5  H6  UNL     1      14.584   7.582  24.940  1.00  0.00     0.189 HD
HETATM    6  C7  UNL     1      13.935   8.575  23.204  1.00  0.00     0.167 A 
HETATM    7  O4  UNL     1      14.470   9.642  22.615  1.00  0.00    -0.261 OA
ENDROOT
BRANCH   1   8
HETATM    8  N4  UNL     1      16.365  11.167  22.933  1.00  0.00    -0.152 N 
HETATM    9  C5  UNL     1      16.187  11.787  21.791  1.00  0.00     0.714 A 
HETATM   10  N3  UNL     1      15.221  11.356  20.964  1.00  0.00    -0.021 N 
HETATM   11  N13 UNL     1      16.916  12.843  21.407  1.00  0.00    -0.021 N 
HETATM   12  C4  UNL     1      14.937  11.916  19.774  1.00  0.00     0.709 A 
ATOM     13  H3  UNL     1      14.667  10.551  21.257  1.00  0.00     0.203 HD
HETATM   14  N16 UNL     1      15.700  12.979  19.432  1.00  0.00    -0.021 N 
HETATM   15  C13 UNL     1      16.692  13.454  20.237  1.00  0.00     0.709 A 
ATOM     16  H16 UNL     1      15.526  13.441  18.540  1.00  0.00     0.203 HD
ATOM     17  H13 UNL     1      17.656  13.189  22.018  1.00  0.00     0.203 HD
ATOM     18  H4  UNL     1      17.093  11.475  23.578  1.00  0.00     0.188 HD
BRANCH  12  19
HETATM   19  N2  UNL     1      13.906  11.461  18.905  1.00  0.00    -0.217 N 
HETATM   20  C3  UNL     1      13.469  10.076  18.817  1.00  0.00     0.143 C 
HETATM   21  C2  UNL     1      13.412   9.681  17.360  1.00  0.00     0.053 C 
HETATM   22  C1  UNL     1      14.180  10.643  16.486  1.00  0.00     0.186 C 
HETATM   23  C19 UNL     1      13.689  12.067  16.618  1.00  0.00     0.053 C 
HETATM   24  C18 UNL     1      13.201  12.386  18.008  1.00  0.00     0.143 C 
BRANCH  22  25
HETATM   25  N1  UNL     1      14.055  10.246  15.115  1.00  0.00    -0.075 N 
ATOM     26  H13 UNL     1      14.686   9.481  14.876  1.00  0.00     0.274 HD
ATOM     27  H12 UNL     1      13.173   9.769  14.930  1.00  0.00     0.274 HD
ATOM     28  H11 UNL     1      14.188  11.058  14.512  1.00  0.00     0.274 HD
ENDBRANCH  22  25
ENDBRANCH  12  19
BRANCH  15  29
HETATM   29  N14 UNL     1      17.396  14.575  19.771  1.00  0.00    -0.215 N 
HETATM   30  C14 UNL     1      18.854  14.589  19.612  1.00  0.00     0.143 C 
HETATM   31  C15 UNL     1      19.192  16.023  19.262  1.00  0.00     0.055 C 
HETATM   32  C16 UNL     1      17.925  16.442  18.524  1.00  0.00     0.203 C 
HETATM   33  C17 UNL     1      16.847  15.845  19.396  1.00  0.00     0.173 C 
BRANCH  32  34
HETATM   34  N15 UNL     1      17.894  15.787  17.250  1.00  0.00    -0.073 N 
ATOM     35 3H15 UNL     1      17.496  16.377  16.519  1.00  0.00     0.274 HD
ATOM     36 2H15 UNL     1      18.825  15.672  16.849  1.00  0.00     0.274 HD
ATOM     37 1H15 UNL     1      17.400  14.900  17.347  1.00  0.00     0.274 HD
ENDBRANCH  32  34
ENDBRANCH  15  29
ENDBRANCH   1   8
BRANCH   6  38
HETATM   38  C8  UNL     1      12.752   7.821  22.791  1.00  0.00     0.276 C 
BRANCH  38  39
HETATM   39  O1  UNL     1      12.110   8.105  21.675  1.00  0.00    -0.268 OA
BRANCH  39  40
HETATM   40  S1  UNL     1      11.615   7.072  20.381  1.00  0.00     0.237 S 
HETATM   41  O2  UNL     1      12.411   7.006  18.817  1.00  0.00    -0.198 OA
BRANCH  40  42
HETATM   42  N7  UNL     1      10.425   8.265  19.716  1.00  0.00    -0.323 N 
ATOM     43  H72 UNL     1      10.531   9.210  19.347  1.00  0.00     0.169 HD
ATOM     44  H71 UNL     1       9.624   7.648  19.848  1.00  0.00     0.169 HD
ENDBRANCH  40  42
BRANCH  40  45
HETATM   45  N8  UNL     1      10.124   5.834  20.657  1.00  0.00    -0.230 N 
HETATM   46  C9  UNL     1       9.432   5.286  19.589  1.00  0.00     0.348 C 
HETATM   47  O3  UNL     1       9.809   5.625  18.413  1.00  0.00    -0.245 OA
HETATM   48  N9  UNL     1       8.363   4.396  19.736  1.00  0.00    -0.249 N 
ATOM     49  H9  UNL     1       8.048   4.123  20.666  1.00  0.00     0.192 HD
ATOM     50  H8  UNL     1       9.850   5.587  21.608  1.00  0.00     0.184 HD
BRANCH  48  51
HETATM   51  N10 UNL     1       7.732   3.886  18.607  1.00  0.00    -0.284 N 
ATOM     52  H10 UNL     1       7.873   2.899  18.390  1.00  0.00     0.188 HD
BRANCH  51  53
HETATM   53  C10 UNL     1       6.913   4.633  17.743  1.00  0.00     0.119 C 
HETATM   54  N11 UNL     1       7.427   5.320  16.749  1.00  0.00    -0.354 N 
HETATM   55  C11 UNL     1       6.384   5.995  16.017  1.00  0.00     0.356 C 
ATOM     56  H11 UNL     1       8.422   5.369  16.527  1.00  0.00     0.162 HD
HETATM   57  N12 UNL     1       5.177   5.248  16.360  1.00  0.00    -0.053 N 
HETATM   58  C12 UNL     1       5.461   4.834  17.718  1.00  0.00     0.311 C 
ATOM     59 2H12 UNL     1       4.303   5.757  16.236  1.00  0.00     0.279 HD
ATOM     60 1H12 UNL     1       4.939   4.492  15.719  1.00  0.00     0.279 HD
ENDBRANCH  51  53
ENDBRANCH  48  51
ENDBRANCH  40  45
ENDBRANCH  39  40
ENDBRANCH  38  39
ENDBRANCH   6  38
TORSDOF 12
ENDMDL
