MODEL 1
REMARK VINA RESULT: -8.015884862      0.000      0.000
REMARK  18 active torsions:
REMARK  status: ('A' for Active; 'I' for Inactive)
REMARK    1  A    between atoms: O1_2  and  C2_3 
REMARK    2  A    between atoms: C2_3  and  O2_4 
REMARK    3  A    between atoms: O2_4  and  C3_5 
REMARK    4  A    between atoms: C4_7  and  O4_8 
REMARK    5  A    between atoms: C6_12  and  O6_13 
REMARK    6  A    between atoms: C6_12  and  C7_15 
REMARK    7  A    between atoms: C7_15  and  O7_16 
REMARK    8  A    between atoms: C9_20  and  O9_22 
REMARK    9  A    between atoms: C11_24  and  O10_25 
REMARK   10  A    between atoms: C12_27  and  C13_28 
REMARK   11  A    between atoms: C17_32  and  O11_33 
REMARK   12  A    between atoms: C18_35  and  O12_36 
REMARK   13  A    between atoms: C19_38  and  O13_39 
REMARK   14  A    between atoms: C22_43  and  O14_44 
REMARK   15  A    between atoms: O14_44  and  C23_45 
REMARK   16  A    between atoms: C23_45  and  C24_47 
REMARK   17  A    between atoms: C24_47  and  C26_49 
REMARK   18  A    between atoms: C26_49  and  O16_50 
ROOT
HETATM    1  C2  UNL     1      13.961  12.234  18.576  1.00  0.00     0.181 C 
HETATM    2  C8  UNL     1      14.561  12.716  17.256  1.00  0.00     0.109 C 
HETATM    3  C9  UNL     1      14.263  11.650  16.293  1.00  0.00     0.086 C 
HETATM    4  C10 UNL     1      12.949  11.831  15.564  1.00  0.00     0.049 C 
HETATM    5  C11 UNL     1      14.223  10.352  17.155  1.00  0.00     0.166 C 
HETATM    6  C12 UNL     1      13.451  10.812  18.299  1.00  0.00     0.116 C 
ENDROOT
BRANCH   6   7
HETATM    7  C13 UNL     1      13.287  10.072  19.525  1.00  0.00    -0.011 A 
HETATM    8  C14 UNL     1      14.335  10.068  20.437  1.00  0.00     0.023 A 
HETATM    9  C15 UNL     1      14.270   9.414  21.647  1.00  0.00    -0.020 A 
HETATM   10  C16 UNL     1      15.359   9.448  22.531  1.00  0.00     0.052 A 
HETATM   11  C20 UNL     1      13.149   8.715  22.037  1.00  0.00     0.013 A 
HETATM   12  C17 UNL     1      15.271   8.800  23.719  1.00  0.00     0.102 A 
HETATM   13  C18 UNL     1      14.162   8.103  24.114  1.00  0.00     0.133 A 
HETATM   14  C19 UNL     1      13.083   8.061  23.256  1.00  0.00     0.113 A 
HETATM   15  C21 UNL     1      12.090   8.699  21.157  1.00  0.00     0.053 A 
HETATM   16  C22 UNL     1      12.184   9.379  19.924  1.00  0.00     0.087 A 
BRANCH  12  17
HETATM   17  O11 UNL     1      16.391   8.871  24.557  1.00  0.00    -0.358 OA
ATOM     18  H11 UNL     1      16.416   8.263  25.288  1.00  0.00     0.217 HD
ENDBRANCH  12  17
BRANCH  13  19
HETATM   19  O12 UNL     1      14.126   7.449  25.360  1.00  0.00    -0.356 OA
ATOM     20  H12 UNL     1      14.705   6.719  25.543  1.00  0.00     0.218 HD
ENDBRANCH  13  19
BRANCH  14  21
HETATM   21  O13 UNL     1      11.964   7.362  23.644  1.00  0.00    -0.357 OA
ATOM     22  H13 UNL     1      11.119   7.641  23.312  1.00  0.00     0.217 HD
ENDBRANCH  14  21
BRANCH  16  23
HETATM   23  O14 UNL     1      11.024   9.272  19.156  1.00  0.00    -0.278 OA
BRANCH  23  24
HETATM   24  C23 UNL     1      10.552   7.991  18.926  1.00  0.00     0.270 C 
HETATM   25  O15 UNL     1       9.321   7.901  18.584  1.00  0.00    -0.264 OA
BRANCH  24  26
HETATM   26  C24 UNL     1      11.306   6.739  19.041  1.00  0.00     0.105 C 
HETATM   27  C25 UNL     1      12.271   6.493  17.937  1.00  0.00     0.022 C 
BRANCH  26  28
HETATM   28  C26 UNL     1      10.369   5.533  19.080  1.00  0.00     0.178 C 
BRANCH  28  29
HETATM   29  O16 UNL     1       9.651   5.553  20.249  1.00  0.00    -0.400 OA
ATOM     30  H16 UNL     1       8.890   6.112  20.142  1.00  0.00     0.209 HD
ENDBRANCH  28  29
ENDBRANCH  26  28
ENDBRANCH  24  26
ENDBRANCH  23  24
ENDBRANCH  16  23
ENDBRANCH   6   7
BRANCH   1  31
HETATM   31  O1  UNL     1      14.870  12.340  19.581  1.00  0.00    -0.359 OA
HETATM   32  C1  UNL     1      15.970  13.115  19.421  1.00  0.00     0.205 C 
ENDBRANCH   1  31
BRANCH   1  33
HETATM   33  O2  UNL     1      12.873  13.036  18.812  1.00  0.00    -0.301 OA
BRANCH  33  34
HETATM   34  C3  UNL     1      12.807  13.634  20.041  1.00  0.00     0.421 C 
HETATM   35  O3  UNL     1      11.890  12.970  20.819  1.00  0.00    -0.301 OA
HETATM   36  C4  UNL     1      10.611  13.556  20.743  1.00  0.00     0.339 C 
HETATM   37  C5  UNL     1      10.766  14.909  21.345  1.00  0.00     0.245 C 
HETATM   38  O5  UNL     1       9.859  15.394  21.954  1.00  0.00    -0.286 OA
HETATM   39  C6  UNL     1      12.081  15.562  21.130  1.00  0.00     0.255 C 
HETATM   40  O8  UNL     1      12.658  15.008  19.984  1.00  0.00    -0.292 OA
BRANCH  36  41
HETATM   41  O4  UNL     1      10.205  13.676  19.406  1.00  0.00    -0.364 OA
ATOM     42  H4  UNL     1       9.303  13.967  19.358  1.00  0.00     0.213 HD
ENDBRANCH  36  41
BRANCH  39  43
HETATM   43  O6  UNL     1      11.920  16.922  20.877  1.00  0.00    -0.358 OA
ATOM     44  H6  UNL     1      12.521  17.436  21.404  1.00  0.00     0.213 HD
ENDBRANCH  39  43
BRANCH  39  45
HETATM   45  C7  UNL     1      12.982  15.406  22.344  1.00  0.00     0.241 C 
BRANCH  45  46
HETATM   46  O7  UNL     1      12.530  16.109  23.449  1.00  0.00    -0.395 OA
ATOM     47  H7  UNL     1      12.021  15.575  24.047  1.00  0.00     0.209 HD
ENDBRANCH  45  46
ENDBRANCH  39  45
ENDBRANCH  33  34
ENDBRANCH   1  33
BRANCH   5  48
HETATM   48  O10 UNL     1      13.514   9.509  16.263  1.00  0.00    -0.392 OA
ATOM     49  H10 UNL     1      13.101   8.934  16.895  1.00  0.00     0.210 HD
ENDBRANCH   5  48
BRANCH   3  50
HETATM   50  O9  UNL     1      15.250  11.544  15.323  1.00  0.00    -0.387 OA
ATOM     51  H9  UNL     1      15.059  10.850  14.703  1.00  0.00     0.210 HD
ENDBRANCH   3  50
TORSDOF 18
ENDMDL
MODEL 2
REMARK VINA RESULT: -7.778434434      7.750     11.704
REMARK  18 active torsions:
REMARK  status: ('A' for Active; 'I' for Inactive)
REMARK    1  A    between atoms: O1_2  and  C2_3 
REMARK    2  A    between atoms: C2_3  and  O2_4 
REMARK    3  A    between atoms: O2_4  and  C3_5 
REMARK    4  A    between atoms: C4_7  and  O4_8 
REMARK    5  A    between atoms: C6_12  and  O6_13 
REMARK    6  A    between atoms: C6_12  and  C7_15 
REMARK    7  A    between atoms: C7_15  and  O7_16 
REMARK    8  A    between atoms: C9_20  and  O9_22 
REMARK    9  A    between atoms: C11_24  and  O10_25 
REMARK   10  A    between atoms: C12_27  and  C13_28 
REMARK   11  A    between atoms: C17_32  and  O11_33 
REMARK   12  A    between atoms: C18_35  and  O12_36 
REMARK   13  A    between atoms: C19_38  and  O13_39 
REMARK   14  A    between atoms: C22_43  and  O14_44 
REMARK   15  A    between atoms: O14_44  and  C23_45 
REMARK   16  A    between atoms: C23_45  and  C24_47 
REMARK   17  A    between atoms: C24_47  and  C26_49 
REMARK   18  A    between atoms: C26_49  and  O16_50 
ROOT
HETATM    1  C2  UNL     1       4.013   8.081  15.993  1.00  0.00     0.181 C 
HETATM    2  C8  UNL     1       2.750   7.326  16.403  1.00  0.00     0.109 C 
HETATM    3  C9  UNL     1       1.794   7.569  15.316  1.00  0.00     0.086 C 
HETATM    4  C10 UNL     1       1.847   6.535  14.211  1.00  0.00     0.049 C 
HETATM    5  C11 UNL     1       2.192   8.969  14.759  1.00  0.00     0.166 C 
HETATM    6  C12 UNL     1       3.640   8.839  14.711  1.00  0.00     0.116 C 
ENDROOT
BRANCH   6   7
HETATM    7  C13 UNL     1       4.551   9.929  14.469  1.00  0.00    -0.011 A 
HETATM    8  C14 UNL     1       4.209  11.191  14.942  1.00  0.00     0.023 A 
HETATM    9  C15 UNL     1       5.020  12.291  14.786  1.00  0.00    -0.020 A 
HETATM   10  C16 UNL     1       4.625  13.540  15.288  1.00  0.00     0.052 A 
HETATM   11  C20 UNL     1       6.237  12.215  14.145  1.00  0.00     0.013 A 
HETATM   12  C17 UNL     1       5.441  14.611  15.126  1.00  0.00     0.102 A 
HETATM   13  C18 UNL     1       6.652  14.544  14.492  1.00  0.00     0.133 A 
HETATM   14  C19 UNL     1       7.055  13.322  13.993  1.00  0.00     0.113 A 
HETATM   15  C21 UNL     1       6.608  10.978  13.666  1.00  0.00     0.053 A 
HETATM   16  C22 UNL     1       5.758   9.867  13.840  1.00  0.00     0.087 A 
BRANCH  12  17
HETATM   17  O11 UNL     1       4.991  15.830  15.650  1.00  0.00    -0.358 OA
ATOM     18  H11 UNL     1       5.369  16.104  16.477  1.00  0.00     0.217 HD
ENDBRANCH  12  17
BRANCH  13  19
HETATM   19  O12 UNL     1       7.459  15.688  14.353  1.00  0.00    -0.356 OA
ATOM     20  H12 UNL     1       8.401  15.635  14.460  1.00  0.00     0.218 HD
ENDBRANCH  13  19
BRANCH  14  21
HETATM   21  O13 UNL     1       8.269  13.244  13.352  1.00  0.00    -0.357 OA
ATOM     22  H13 UNL     1       8.358  13.656  12.501  1.00  0.00     0.217 HD
ENDBRANCH  14  21
BRANCH  16  23
HETATM   23  O14 UNL     1       6.286   8.691  13.305  1.00  0.00    -0.278 OA
BRANCH  23  24
HETATM   24  C23 UNL     1       6.155   8.522  11.937  1.00  0.00     0.270 C 
HETATM   25  O15 UNL     1       7.116   8.976  11.222  1.00  0.00    -0.264 OA
BRANCH  24  26
HETATM   26  C24 UNL     1       5.037   7.890  11.229  1.00  0.00     0.105 C 
HETATM   27  C25 UNL     1       3.929   8.813  10.869  1.00  0.00     0.022 C 
BRANCH  26  28
HETATM   28  C26 UNL     1       4.420   6.769  12.063  1.00  0.00     0.178 C 
BRANCH  28  29
HETATM   29  O16 UNL     1       5.397   6.177  12.823  1.00  0.00    -0.400 OA
ATOM     30  H16 UNL     1       5.445   5.252  12.609  1.00  0.00     0.209 HD
ENDBRANCH  28  29
ENDBRANCH  26  28
ENDBRANCH  24  26
ENDBRANCH  23  24
ENDBRANCH  16  23
ENDBRANCH   6   7
BRANCH   1  31
HETATM   31  O1  UNL     1       4.461   8.855  17.016  1.00  0.00    -0.359 OA
HETATM   32  C1  UNL     1       3.658   9.105  18.078  1.00  0.00     0.205 C 
ENDBRANCH   1  31
BRANCH   1  33
HETATM   33  O2  UNL     1       4.938   7.121  15.664  1.00  0.00    -0.301 OA
BRANCH  33  34
HETATM   34  C3  UNL     1       5.688   6.614  16.690  1.00  0.00     0.421 C 
HETATM   35  O3  UNL     1       6.927   7.208  16.680  1.00  0.00    -0.301 OA
HETATM   36  C4  UNL     1       7.868   6.453  15.952  1.00  0.00     0.339 C 
HETATM   37  C5  UNL     1       8.020   5.183  16.714  1.00  0.00     0.245 C 
HETATM   38  O5  UNL     1       9.080   4.629  16.736  1.00  0.00    -0.286 OA
HETATM   39  C6  UNL     1       6.801   4.696  17.404  1.00  0.00     0.255 C 
HETATM   40  O8  UNL     1       5.689   5.233  16.750  1.00  0.00    -0.292 OA
BRANCH  36  41
HETATM   41  O4  UNL     1       7.386   6.179  14.665  1.00  0.00    -0.364 OA
ATOM     42  H4  UNL     1       7.972   6.536  14.008  1.00  0.00     0.213 HD
ENDBRANCH  36  41
BRANCH  39  43
HETATM   43  O6  UNL     1       6.695   3.311  17.299  1.00  0.00    -0.358 OA
ATOM     44  H6  UNL     1       6.918   3.022  16.421  1.00  0.00     0.213 HD
ENDBRANCH  39  43
BRANCH  39  45
HETATM   45  C7  UNL     1       6.816   5.062  18.879  1.00  0.00     0.241 C 
BRANCH  45  46
HETATM   46  O7  UNL     1       8.000   5.660  19.278  1.00  0.00    -0.395 OA
ATOM     47  H7  UNL     1       8.426   5.202  19.992  1.00  0.00     0.209 HD
ENDBRANCH  45  46
ENDBRANCH  39  45
ENDBRANCH  33  34
ENDBRANCH   1  33
BRANCH   5  48
HETATM   48  O10 UNL     1       1.549   8.902  13.499  1.00  0.00    -0.392 OA
ATOM     49  H10 UNL     1       1.484   9.832  13.313  1.00  0.00     0.210 HD
ENDBRANCH   5  48
BRANCH   3  50
HETATM   50  O9  UNL     1       0.487   7.597  15.779  1.00  0.00    -0.387 OA
ATOM     51  H9  UNL     1       0.405   8.120  16.568  1.00  0.00     0.210 HD
ENDBRANCH   3  50
TORSDOF 18
ENDMDL
MODEL 3
REMARK VINA RESULT: -7.599302458      3.159      6.457
REMARK  18 active torsions:
REMARK  status: ('A' for Active; 'I' for Inactive)
REMARK    1  A    between atoms: O1_2  and  C2_3 
REMARK    2  A    between atoms: C2_3  and  O2_4 
REMARK    3  A    between atoms: O2_4  and  C3_5 
REMARK    4  A    between atoms: C4_7  and  O4_8 
REMARK    5  A    between atoms: C6_12  and  O6_13 
REMARK    6  A    between atoms: C6_12  and  C7_15 
REMARK    7  A    between atoms: C7_15  and  O7_16 
REMARK    8  A    between atoms: C9_20  and  O9_22 
REMARK    9  A    between atoms: C11_24  and  O10_25 
REMARK   10  A    between atoms: C12_27  and  C13_28 
REMARK   11  A    between atoms: C17_32  and  O11_33 
REMARK   12  A    between atoms: C18_35  and  O12_36 
REMARK   13  A    between atoms: C19_38  and  O13_39 
REMARK   14  A    between atoms: C22_43  and  O14_44 
REMARK   15  A    between atoms: O14_44  and  C23_45 
REMARK   16  A    between atoms: C23_45  and  C24_47 
REMARK   17  A    between atoms: C24_47  and  C26_49 
REMARK   18  A    between atoms: C26_49  and  O16_50 
ROOT
HETATM    1  C2  UNL     1      13.250  14.885  21.357  1.00  0.00     0.181 C 
HETATM    2  C8  UNL     1      11.787  15.215  21.065  1.00  0.00     0.109 C 
HETATM    3  C9  UNL     1      11.279  14.057  20.320  1.00  0.00     0.086 C 
HETATM    4  C10 UNL     1      10.682  12.977  21.198  1.00  0.00     0.049 C 
HETATM    5  C11 UNL     1      12.528  13.505  19.567  1.00  0.00     0.166 C 
HETATM    6  C12 UNL     1      13.527  13.564  20.622  1.00  0.00     0.116 C 
ENDROOT
BRANCH   6   7
HETATM    7  C13 UNL     1      14.941  13.370  20.420  1.00  0.00    -0.011 A 
HETATM    8  C14 UNL     1      15.594  14.188  19.507  1.00  0.00     0.023 A 
HETATM    9  C15 UNL     1      16.945  14.101  19.259  1.00  0.00    -0.020 A 
HETATM   10  C16 UNL     1      17.553  14.956  18.328  1.00  0.00     0.052 A 
HETATM   11  C20 UNL     1      17.747  13.189  19.909  1.00  0.00     0.013 A 
HETATM   12  C17 UNL     1      18.886  14.856  18.102  1.00  0.00     0.102 A 
HETATM   13  C18 UNL     1      19.690  13.953  18.744  1.00  0.00     0.133 A 
HETATM   14  C19 UNL     1      19.107  13.105  19.663  1.00  0.00     0.113 A 
HETATM   15  C21 UNL     1      17.132  12.363  20.823  1.00  0.00     0.053 A 
HETATM   16  C22 UNL     1      15.746  12.475  21.057  1.00  0.00     0.087 A 
BRANCH  12  17
HETATM   17  O11 UNL     1      19.433  15.738  17.162  1.00  0.00    -0.358 OA
ATOM     18  H11 UNL     1      19.660  16.606  17.473  1.00  0.00     0.217 HD
ENDBRANCH  12  17
BRANCH  13  19
HETATM   19  O12 UNL     1      21.069  13.892  18.470  1.00  0.00    -0.356 OA
ATOM     20  H12 UNL     1      21.668  14.526  18.847  1.00  0.00     0.218 HD
ENDBRANCH  13  19
BRANCH  14  21
HETATM   21  O13 UNL     1      19.907  12.193  20.311  1.00  0.00    -0.357 OA
ATOM     22  H13 UNL     1      20.806  12.433  20.499  1.00  0.00     0.217 HD
ENDBRANCH  14  21
BRANCH  16  23
HETATM   23  O14 UNL     1      15.283  11.574  22.017  1.00  0.00    -0.278 OA
BRANCH  23  24
HETATM   24  C23 UNL     1      14.855  10.341  21.552  1.00  0.00     0.270 C 
HETATM   25  O15 UNL     1      14.403  10.322  20.354  1.00  0.00    -0.264 OA
BRANCH  24  26
HETATM   26  C24 UNL     1      14.858   9.072  22.285  1.00  0.00     0.105 C 
HETATM   27  C25 UNL     1      13.561   8.719  22.920  1.00  0.00     0.022 C 
BRANCH  26  28
HETATM   28  C26 UNL     1      15.903   9.081  23.399  1.00  0.00     0.178 C 
BRANCH  28  29
HETATM   29  O16 UNL     1      15.656  10.132  24.245  1.00  0.00    -0.400 OA
ATOM     30  H16 UNL     1      15.823   9.862  25.140  1.00  0.00     0.209 HD
ENDBRANCH  28  29
ENDBRANCH  26  28
ENDBRANCH  24  26
ENDBRANCH  23  24
ENDBRANCH  16  23
ENDBRANCH   6   7
BRANCH   1  31
HETATM   31  O1  UNL     1      14.054  15.923  21.008  1.00  0.00    -0.359 OA
HETATM   32  C1  UNL     1      13.508  17.093  20.597  1.00  0.00     0.205 C 
ENDBRANCH   1  31
BRANCH   1  33
HETATM   33  O2  UNL     1      13.320  14.642  22.706  1.00  0.00    -0.301 OA
BRANCH  33  34
HETATM   34  C3  UNL     1      14.084  15.503  23.445  1.00  0.00     0.421 C 
HETATM   35  O3  UNL     1      15.400  15.114  23.377  1.00  0.00    -0.301 OA
HETATM   36  C4  UNL     1      15.758  14.273  24.449  1.00  0.00     0.339 C 
HETATM   37  C5  UNL     1      15.637  15.122  25.666  1.00  0.00     0.245 C 
HETATM   38  O5  UNL     1      16.382  14.948  26.586  1.00  0.00    -0.286 OA
HETATM   39  C6  UNL     1      14.565  16.147  25.632  1.00  0.00     0.255 C 
HETATM   40  O8  UNL     1      13.595  15.728  24.718  1.00  0.00    -0.292 OA
BRANCH  36  41
HETATM   41  O4  UNL     1      14.875  13.189  24.537  1.00  0.00    -0.364 OA
ATOM     42  H4  UNL     1      14.580  13.073  25.432  1.00  0.00     0.213 HD
ENDBRANCH  36  41
BRANCH  39  43
HETATM   43  O6  UNL     1      13.934  16.240  26.870  1.00  0.00    -0.358 OA
ATOM     44  H6  UNL     1      14.556  16.109  27.576  1.00  0.00     0.213 HD
ENDBRANCH  39  43
BRANCH  39  45
HETATM   45  C7  UNL     1      15.120  17.516  25.275  1.00  0.00     0.241 C 
BRANCH  45  46
HETATM   46  O7  UNL     1      16.490  17.510  25.067  1.00  0.00    -0.395 OA
ATOM     47  H7  UNL     1      16.866  18.381  25.037  1.00  0.00     0.209 HD
ENDBRANCH  45  46
ENDBRANCH  39  45
ENDBRANCH  33  34
ENDBRANCH   1  33
BRANCH   5  48
HETATM   48  O10 UNL     1      12.055  12.202  19.272  1.00  0.00    -0.392 OA
ATOM     49  H10 UNL     1      11.303  12.431  18.738  1.00  0.00     0.210 HD
ENDBRANCH   5  48
BRANCH   3  50
HETATM   50  O9  UNL     1      10.299  14.422  19.409  1.00  0.00    -0.387 OA
ATOM     51  H9  UNL     1      10.202  13.776  18.720  1.00  0.00     0.210 HD
ENDBRANCH   3  50
TORSDOF 18
ENDMDL
MODEL 4
REMARK VINA RESULT: -7.582952229      1.940      4.170
REMARK  18 active torsions:
REMARK  status: ('A' for Active; 'I' for Inactive)
REMARK    1  A    between atoms: O1_2  and  C2_3 
REMARK    2  A    between atoms: C2_3  and  O2_4 
REMARK    3  A    between atoms: O2_4  and  C3_5 
REMARK    4  A    between atoms: C4_7  and  O4_8 
REMARK    5  A    between atoms: C6_12  and  O6_13 
REMARK    6  A    between atoms: C6_12  and  C7_15 
REMARK    7  A    between atoms: C7_15  and  O7_16 
REMARK    8  A    between atoms: C9_20  and  O9_22 
REMARK    9  A    between atoms: C11_24  and  O10_25 
REMARK   10  A    between atoms: C12_27  and  C13_28 
REMARK   11  A    between atoms: C17_32  and  O11_33 
REMARK   12  A    between atoms: C18_35  and  O12_36 
REMARK   13  A    between atoms: C19_38  and  O13_39 
REMARK   14  A    between atoms: C22_43  and  O14_44 
REMARK   15  A    between atoms: O14_44  and  C23_45 
REMARK   16  A    between atoms: C23_45  and  C24_47 
REMARK   17  A    between atoms: C24_47  and  C26_49 
REMARK   18  A    between atoms: C26_49  and  O16_50 
ROOT
HETATM    1  C2  UNL     1      15.637  14.298  21.490  1.00  0.00     0.181 C 
HETATM    2  C8  UNL     1      16.851  15.203  21.686  1.00  0.00     0.109 C 
HETATM    3  C9  UNL     1      17.853  14.704  20.736  1.00  0.00     0.086 C 
HETATM    4  C10 UNL     1      17.793  15.366  19.376  1.00  0.00     0.049 C 
HETATM    5  C11 UNL     1      17.535  13.183  20.605  1.00  0.00     0.166 C 
HETATM    6  C12 UNL     1      16.085  13.219  20.492  1.00  0.00     0.116 C 
ENDROOT
BRANCH   6   7
HETATM    7  C13 UNL     1      15.231  12.060  20.563  1.00  0.00    -0.011 A 
HETATM    8  C14 UNL     1      15.183  11.349  21.755  1.00  0.00     0.023 A 
HETATM    9  C15 UNL     1      14.381  10.244  21.933  1.00  0.00    -0.020 A 
HETATM   10  C16 UNL     1      14.370   9.567  23.162  1.00  0.00     0.052 A 
HETATM   11  C20 UNL     1      13.565   9.767  20.931  1.00  0.00     0.013 A 
HETATM   12  C17 UNL     1      13.570   8.483  23.317  1.00  0.00     0.102 A 
HETATM   13  C18 UNL     1      12.756   8.003  22.327  1.00  0.00     0.133 A 
HETATM   14  C19 UNL     1      12.756   8.658  21.113  1.00  0.00     0.113 A 
HETATM   15  C21 UNL     1      13.588  10.450  19.736  1.00  0.00     0.053 A 
HETATM   16  C22 UNL     1      14.418  11.579  19.581  1.00  0.00     0.087 A 
BRANCH  12  17
HETATM   17  O11 UNL     1      13.603   7.851  24.566  1.00  0.00    -0.358 OA
ATOM     18  H11 UNL     1      12.909   7.228  24.747  1.00  0.00     0.217 HD
ENDBRANCH  12  17
BRANCH  13  19
HETATM   19  O12 UNL     1      11.946   6.873  22.544  1.00  0.00    -0.356 OA
ATOM     20  H12 UNL     1      12.292   5.996  22.428  1.00  0.00     0.218 HD
ENDBRANCH  13  19
BRANCH  14  21
HETATM   21  O13 UNL     1      11.943   8.182  20.112  1.00  0.00    -0.357 OA
ATOM     22  H13 UNL     1      11.010   8.115  20.280  1.00  0.00     0.217 HD
ENDBRANCH  14  21
BRANCH  16  23
HETATM   23  O14 UNL     1      14.315  12.159  18.316  1.00  0.00    -0.278 OA
BRANCH  23  24
HETATM   24  C23 UNL     1      13.350  11.634  17.473  1.00  0.00     0.270 C 
HETATM   25  O15 UNL     1      12.134  11.859  17.805  1.00  0.00    -0.264 OA
BRANCH  24  26
HETATM   26  C24 UNL     1      13.575  10.848  16.256  1.00  0.00     0.105 C 
HETATM   27  C25 UNL     1      13.755   9.390  16.483  1.00  0.00     0.022 C 
BRANCH  26  28
HETATM   28  C26 UNL     1      14.817  11.331  15.509  1.00  0.00     0.178 C 
BRANCH  28  29
HETATM   29  O16 UNL     1      14.738  12.688  15.327  1.00  0.00    -0.400 OA
ATOM     30  H16 UNL     1      15.317  13.123  15.942  1.00  0.00     0.209 HD
ENDBRANCH  28  29
ENDBRANCH  26  28
ENDBRANCH  24  26
ENDBRANCH  23  24
ENDBRANCH  16  23
ENDBRANCH   6   7
BRANCH   1  31
HETATM   31  O1  UNL     1      15.189  13.833  22.685  1.00  0.00    -0.359 OA
HETATM   32  C1  UNL     1      15.902  14.066  23.813  1.00  0.00     0.205 C 
ENDBRANCH   1  31
BRANCH   1  33
HETATM   33  O2  UNL     1      14.683  15.072  20.876  1.00  0.00    -0.301 OA
BRANCH  33  34
HETATM   34  C3  UNL     1      13.612  15.446  21.640  1.00  0.00     0.421 C 
HETATM   35  O3  UNL     1      12.883  14.330  21.975  1.00  0.00    -0.301 OA
HETATM   36  C4  UNL     1      11.833  14.094  21.066  1.00  0.00     0.339 C 
HETATM   37  C5  UNL     1      10.914  15.254  21.223  1.00  0.00     0.245 C 
HETATM   38  O5  UNL     1       9.736  15.100  21.084  1.00  0.00    -0.286 OA
HETATM   39  C6  UNL     1      11.562  16.549  21.549  1.00  0.00     0.255 C 
HETATM   40  O8  UNL     1      12.886  16.494  21.106  1.00  0.00    -0.292 OA
BRANCH  36  41
HETATM   41  O4  UNL     1      12.322  14.050  19.753  1.00  0.00    -0.364 OA
ATOM     42  H4  UNL     1      12.476  14.928  19.427  1.00  0.00     0.213 HD
ENDBRANCH  36  41
BRANCH  39  43
HETATM   43  O6  UNL     1      10.953  17.593  20.856  1.00  0.00    -0.358 OA
ATOM     44  H6  UNL     1      11.467  18.388  20.926  1.00  0.00     0.213 HD
ENDBRANCH  39  43
BRANCH  39  45
HETATM   45  C7  UNL     1      11.478  16.851  23.036  1.00  0.00     0.241 C 
BRANCH  45  46
HETATM   46  O7  UNL     1      10.368  16.286  23.643  1.00  0.00    -0.395 OA
ATOM     47  H7  UNL     1      10.294  16.509  24.563  1.00  0.00     0.209 HD
ENDBRANCH  45  46
ENDBRANCH  39  45
ENDBRANCH  33  34
ENDBRANCH   1  33
BRANCH   5  48
HETATM   48  O10 UNL     1      18.217  12.913  19.393  1.00  0.00    -0.392 OA
ATOM     49  H10 UNL     1      17.947  13.675  18.895  1.00  0.00     0.210 HD
ENDBRANCH   5  48
BRANCH   3  50
HETATM   50  O9  UNL     1      19.144  14.878  21.213  1.00  0.00    -0.387 OA
ATOM     51  H9  UNL     1      19.451  15.767  21.077  1.00  0.00     0.210 HD
ENDBRANCH   3  50
TORSDOF 18
ENDMDL
MODEL 5
REMARK VINA RESULT: -7.579368530      3.106      7.289
REMARK  18 active torsions:
REMARK  status: ('A' for Active; 'I' for Inactive)
REMARK    1  A    between atoms: O1_2  and  C2_3 
REMARK    2  A    between atoms: C2_3  and  O2_4 
REMARK    3  A    between atoms: O2_4  and  C3_5 
REMARK    4  A    between atoms: C4_7  and  O4_8 
REMARK    5  A    between atoms: C6_12  and  O6_13 
REMARK    6  A    between atoms: C6_12  and  C7_15 
REMARK    7  A    between atoms: C7_15  and  O7_16 
REMARK    8  A    between atoms: C9_20  and  O9_22 
REMARK    9  A    between atoms: C11_24  and  O10_25 
REMARK   10  A    between atoms: C12_27  and  C13_28 
REMARK   11  A    between atoms: C17_32  and  O11_33 
REMARK   12  A    between atoms: C18_35  and  O12_36 
REMARK   13  A    between atoms: C19_38  and  O13_39 
REMARK   14  A    between atoms: C22_43  and  O14_44 
REMARK   15  A    between atoms: O14_44  and  C23_45 
REMARK   16  A    between atoms: C23_45  and  C24_47 
REMARK   17  A    between atoms: C24_47  and  C26_49 
REMARK   18  A    between atoms: C26_49  and  O16_50 
ROOT
HETATM    1  C2  UNL     1      16.087  15.020  21.522  1.00  0.00     0.181 C 
HETATM    2  C8  UNL     1      16.075  16.140  22.561  1.00  0.00     0.109 C 
HETATM    3  C9  UNL     1      15.527  15.525  23.775  1.00  0.00     0.086 C 
HETATM    4  C10 UNL     1      16.576  14.924  24.686  1.00  0.00     0.049 C 
HETATM    5  C11 UNL     1      14.575  14.409  23.245  1.00  0.00     0.166 C 
HETATM    6  C12 UNL     1      15.400  13.825  22.199  1.00  0.00     0.116 C 
ENDROOT
BRANCH   6   7
HETATM    7  C13 UNL     1      14.930  12.875  21.223  1.00  0.00    -0.011 A 
HETATM    8  C14 UNL     1      14.991  13.226  19.880  1.00  0.00     0.023 A 
HETATM    9  C15 UNL     1      14.591  12.382  18.869  1.00  0.00    -0.020 A 
HETATM   10  C16 UNL     1      14.679  12.788  17.529  1.00  0.00     0.052 A 
HETATM   11  C20 UNL     1      14.100  11.121  19.124  1.00  0.00     0.013 A 
HETATM   12  C17 UNL     1      14.283  11.939  16.549  1.00  0.00     0.102 A 
HETATM   13  C18 UNL     1      13.795  10.685  16.794  1.00  0.00     0.133 A 
HETATM   14  C19 UNL     1      13.702  10.270  18.106  1.00  0.00     0.113 A 
HETATM   15  C21 UNL     1      14.027  10.740  20.446  1.00  0.00     0.053 A 
HETATM   16  C22 UNL     1      14.444  11.624  21.462  1.00  0.00     0.087 A 
BRANCH  12  17
HETATM   17  O11 UNL     1      14.396  12.403  15.232  1.00  0.00    -0.358 OA
ATOM     18  H11 UNL     1      14.819  11.822  14.610  1.00  0.00     0.217 HD
ENDBRANCH  12  17
BRANCH  13  19
HETATM   19  O12 UNL     1      13.398   9.845  15.736  1.00  0.00    -0.356 OA
ATOM     20  H12 UNL     1      14.025   9.554  15.085  1.00  0.00     0.218 HD
ENDBRANCH  13  19
BRANCH  14  21
HETATM   21  O13 UNL     1      13.211   9.012  18.363  1.00  0.00    -0.357 OA
ATOM     22  H13 UNL     1      12.437   8.931  18.908  1.00  0.00     0.217 HD
ENDBRANCH  14  21
BRANCH  16  23
HETATM   23  O14 UNL     1      14.315  11.082  22.741  1.00  0.00    -0.278 OA
BRANCH  23  24
HETATM   24  C23 UNL     1      15.129  10.002  23.039  1.00  0.00     0.270 C 
HETATM   25  O15 UNL     1      16.379  10.258  23.148  1.00  0.00    -0.264 OA
BRANCH  24  26
HETATM   26  C24 UNL     1      14.713   8.610  23.233  1.00  0.00     0.105 C 
HETATM   27  C25 UNL     1      13.350   8.294  22.729  1.00  0.00     0.022 C 
BRANCH  26  28
HETATM   28  C26 UNL     1      14.732   8.230  24.712  1.00  0.00     0.178 C 
BRANCH  28  29
HETATM   29  O16 UNL     1      15.905   8.660  25.277  1.00  0.00    -0.400 OA
ATOM     30  H16 UNL     1      16.010   8.257  26.132  1.00  0.00     0.209 HD
ENDBRANCH  28  29
ENDBRANCH  26  28
ENDBRANCH  24  26
ENDBRANCH  23  24
ENDBRANCH  16  23
ENDBRANCH   6   7
BRANCH   1  31
HETATM   31  O1  UNL     1      15.515  15.437  20.362  1.00  0.00    -0.359 OA
HETATM   32  C1  UNL     1      15.048  16.704  20.255  1.00  0.00     0.205 C 
ENDBRANCH   1  31
BRANCH   1  33
HETATM   33  O2  UNL     1      17.407  14.697  21.329  1.00  0.00    -0.301 OA
BRANCH  33  34
HETATM   34  C3  UNL     1      17.812  14.517  20.035  1.00  0.00     0.421 C 
HETATM   35  O3  UNL     1      18.492  13.327  19.935  1.00  0.00    -0.301 OA
HETATM   36  C4  UNL     1      19.883  13.500  20.082  1.00  0.00     0.339 C 
HETATM   37  C5  UNL     1      20.299  14.318  18.910  1.00  0.00     0.245 C 
HETATM   38  O5  UNL     1      21.378  14.149  18.422  1.00  0.00    -0.286 OA
HETATM   39  C6  UNL     1      19.304  15.309  18.430  1.00  0.00     0.255 C 
HETATM   40  O8  UNL     1      18.452  15.617  19.494  1.00  0.00    -0.292 OA
BRANCH  36  41
HETATM   41  O4  UNL     1      20.167  14.191  21.268  1.00  0.00    -0.364 OA
ATOM     42  H4  UNL     1      20.736  13.673  21.825  1.00  0.00     0.213 HD
ENDBRANCH  36  41
BRANCH  39  43
HETATM   43  O6  UNL     1      19.930  16.499  18.064  1.00  0.00    -0.358 OA
ATOM     44  H6  UNL     1      20.606  16.729  18.691  1.00  0.00     0.213 HD
ENDBRANCH  39  43
BRANCH  39  45
HETATM   45  C7  UNL     1      18.535  14.785  17.228  1.00  0.00     0.241 C 
BRANCH  45  46
HETATM   46  O7  UNL     1      19.028  13.581  16.752  1.00  0.00    -0.395 OA
ATOM     47  H7  UNL     1      18.914  13.477  15.815  1.00  0.00     0.209 HD
ENDBRANCH  45  46
ENDBRANCH  39  45
ENDBRANCH  33  34
ENDBRANCH   1  33
BRANCH   5  48
HETATM   48  O10 UNL     1      14.467  13.627  24.422  1.00  0.00    -0.392 OA
ATOM     49  H10 UNL     1      13.788  13.025  24.141  1.00  0.00     0.210 HD
ENDBRANCH   5  48
BRANCH   3  50
HETATM   50  O9  UNL     1      14.810  16.438  24.534  1.00  0.00    -0.387 OA
ATOM     51  H9  UNL     1      14.077  16.799  24.050  1.00  0.00     0.210 HD
ENDBRANCH   3  50
TORSDOF 18
ENDMDL
