MODEL 1
REMARK VINA RESULT: -5.687232351      0.000      0.000
REMARK  5 active torsions:
REMARK  status: ('A' for Active; 'I' for Inactive)
REMARK    1  A    between atoms: C2_2  and  C3_3 
REMARK    2  A    between atoms: C3_3  and  C4_4 
REMARK       I    between atoms: C4_4  and  N1_6 
REMARK    3  A    between atoms: N1_6  and  C5_8 
REMARK    4  A    between atoms: N4_14  and  C8_15 
REMARK    5  A    between atoms: C10_22  and  N8_23 
ROOT
HETATM    1  C5  UNL     1       7.479  10.890  11.656  1.00  0.00     0.121 C 
HETATM    2  C6  UNL     1       8.053  12.127  10.995  1.00  0.00     0.149 C 
HETATM    3  N2  UNL     1       8.135  11.839   9.577  1.00  0.00    -0.362 N 
ATOM      4  H2  UNL     1       7.932  12.577   8.903  1.00  0.00     0.162 HD
HETATM    5  C7  UNL     1       8.460  10.666   9.158  1.00  0.00     0.205 C 
HETATM    6  N3  UNL     1       8.540  10.384   7.741  1.00  0.00    -0.063 NA
HETATM    7  N4  UNL     1       8.747   9.624  10.089  1.00  0.00    -0.152 N 
HETATM    8  C12 UNL     1       8.499   9.810  11.530  1.00  0.00     0.177 C 
ENDROOT
BRANCH   7   9
HETATM    9  C8  UNL     1       9.280   8.386   9.614  1.00  0.00     0.704 A 
HETATM   10  N5  UNL     1      10.602   8.175   9.709  1.00  0.00    -0.162 N 
HETATM   11  C9  UNL     1      11.148   7.016   9.270  1.00  0.00     0.221 A 
ATOM     12  H5  UNL     1      11.201   8.894  10.115  1.00  0.00     0.187 HD
HETATM   13  N6  UNL     1      12.551   6.822   9.386  1.00  0.00    -0.062 NA
HETATM   14  N7  UNL     1      10.310   6.108   8.746  1.00  0.00    -0.162 N 
HETATM   15  C10 UNL     1       8.983   6.288   8.636  1.00  0.00     0.694 A 
ATOM     16  H7  UNL     1      10.704   5.229   8.411  1.00  0.00     0.187 HD
HETATM   17  N9  UNL     1       8.480   7.454   9.083  1.00  0.00    -0.022 N 
ATOM     18  H9  UNL     1       7.478   7.630   9.018  1.00  0.00     0.203 HD
BRANCH  15  19
HETATM   19  N8  UNL     1       8.226   5.373   8.119  1.00  0.00    -0.230 N 
HETATM   20  C11 UNL     1       7.294   5.748   7.074  1.00  0.00     0.165 C 
ATOM     21  H8  UNL     1       8.286   4.407   8.441  1.00  0.00     0.177 HD
ENDBRANCH  15  19
ENDBRANCH   7   9
BRANCH   1  22
HETATM   22  N1  UNL     1       7.033  11.128  13.001  1.00  0.00    -0.353 N 
HETATM   23  C4  UNL     1       5.848  10.582  13.551  1.00  0.00     0.217 C 
HETATM   24  O1  UNL     1       5.137   9.850  12.840  1.00  0.00    -0.274 OA
ATOM     25  H1  UNL     1       7.606  11.727  13.596  1.00  0.00     0.163 HD
BRANCH  23  26
HETATM   26  C3  UNL     1       5.481  10.893  14.950  1.00  0.00     0.102 C 
BRANCH  26  27
HETATM   27  C2  UNL     1       4.567   9.843  15.543  1.00  0.00     0.005 C 
HETATM   28  C1  UNL     1       4.258  10.122  16.991  1.00  0.00     0.005 C 
ENDBRANCH  26  27
ENDBRANCH  23  26
ENDBRANCH   1  22
TORSDOF 5
ENDMDL
MODEL 2
REMARK VINA RESULT: -5.261515226      0.630      2.243
REMARK  5 active torsions:
REMARK  status: ('A' for Active; 'I' for Inactive)
REMARK    1  A    between atoms: C2_2  and  C3_3 
REMARK    2  A    between atoms: C3_3  and  C4_4 
REMARK       I    between atoms: C4_4  and  N1_6 
REMARK    3  A    between atoms: N1_6  and  C5_8 
REMARK    4  A    between atoms: N4_14  and  C8_15 
REMARK    5  A    between atoms: C10_22  and  N8_23 
ROOT
HETATM    1  C5  UNL     1       7.232  10.971  11.918  1.00  0.00     0.121 C 
HETATM    2  C6  UNL     1       7.788  12.253  11.332  1.00  0.00     0.149 C 
HETATM    3  N2  UNL     1       7.894  12.043   9.902  1.00  0.00    -0.362 N 
ATOM      4  H2  UNL     1       7.684  12.811   9.264  1.00  0.00     0.162 HD
HETATM    5  C7  UNL     1       8.248  10.901   9.426  1.00  0.00     0.205 C 
HETATM    6  N3  UNL     1       8.352  10.696   7.997  1.00  0.00    -0.063 NA
HETATM    7  N4  UNL     1       8.544   9.816  10.304  1.00  0.00    -0.152 N 
HETATM    8  C12 UNL     1       8.275   9.921  11.749  1.00  0.00     0.177 C 
ENDROOT
BRANCH   7   9
HETATM    9  C8  UNL     1       9.109   8.616   9.771  1.00  0.00     0.704 A 
HETATM   10  N5  UNL     1       8.308   7.762   9.116  1.00  0.00    -0.162 N 
HETATM   11  C9  UNL     1       8.803   6.614   8.597  1.00  0.00     0.221 A 
ATOM     12  H5  UNL     1       7.317   7.980   9.008  1.00  0.00     0.187 HD
HETATM   13  N6  UNL     1       7.928   5.731   7.907  1.00  0.00    -0.062 NA
HETATM   14  N7  UNL     1      10.113   6.381   8.770  1.00  0.00    -0.162 N 
HETATM   15  C10 UNL     1      10.943   7.214   9.421  1.00  0.00     0.694 A 
ATOM     16  H7  UNL     1      10.503   5.521   8.385  1.00  0.00     0.187 HD
HETATM   17  N9  UNL     1      10.410   8.345   9.923  1.00  0.00    -0.022 N 
ATOM     18  H9  UNL     1      11.006   9.004  10.424  1.00  0.00     0.203 HD
BRANCH  15  19
HETATM   19  N8  UNL     1      12.199   6.934   9.557  1.00  0.00    -0.230 N 
HETATM   20  C11 UNL     1      13.163   7.631   8.730  1.00  0.00     0.165 C 
ATOM     21  H8  UNL     1      12.504   6.235  10.234  1.00  0.00     0.177 HD
ENDBRANCH  15  19
ENDBRANCH   7   9
BRANCH   1  22
HETATM   22  N1  UNL     1       6.764  11.129  13.268  1.00  0.00    -0.353 N 
HETATM   23  C4  UNL     1       5.573  10.548  13.767  1.00  0.00     0.217 C 
HETATM   24  O1  UNL     1       4.877   9.856  13.004  1.00  0.00    -0.274 OA
ATOM     25  H1  UNL     1       7.325  11.694  13.905  1.00  0.00     0.163 HD
BRANCH  23  26
HETATM   26  C3  UNL     1       5.183  10.774  15.176  1.00  0.00     0.102 C 
BRANCH  26  27
HETATM   27  C2  UNL     1       4.093   9.827  15.622  1.00  0.00     0.005 C 
HETATM   28  C1  UNL     1       3.642  10.113  17.031  1.00  0.00     0.005 C 
ENDBRANCH  26  27
ENDBRANCH  23  26
ENDBRANCH   1  22
TORSDOF 5
ENDMDL
MODEL 3
REMARK VINA RESULT: -5.238643111      4.857      7.156
REMARK  5 active torsions:
REMARK  status: ('A' for Active; 'I' for Inactive)
REMARK    1  A    between atoms: C2_2  and  C3_3 
REMARK    2  A    between atoms: C3_3  and  C4_4 
REMARK       I    between atoms: C4_4  and  N1_6 
REMARK    3  A    between atoms: N1_6  and  C5_8 
REMARK    4  A    between atoms: N4_14  and  C8_15 
REMARK    5  A    between atoms: C10_22  and  N8_23 
ROOT
HETATM    1  C5  UNL     1      11.061   7.773   8.835  1.00  0.00     0.121 C 
HETATM    2  C6  UNL     1      11.176   8.627  10.082  1.00  0.00     0.149 C 
HETATM    3  N2  UNL     1      12.205   9.612   9.817  1.00  0.00    -0.362 N 
ATOM      4  H2  UNL     1      12.095  10.562  10.172  1.00  0.00     0.162 HD
HETATM    5  C7  UNL     1      13.255   9.305   9.138  1.00  0.00     0.205 C 
HETATM    6  N3  UNL     1      14.280  10.291   8.876  1.00  0.00    -0.063 NA
HETATM    7  N4  UNL     1      13.423   7.981   8.634  1.00  0.00    -0.152 N 
HETATM    8  C12 UNL     1      12.328   6.998   8.715  1.00  0.00     0.177 C 
ENDROOT
BRANCH   7   9
HETATM    9  C8  UNL     1      14.671   7.608   8.043  1.00  0.00     0.704 A 
HETATM   10  N5  UNL     1      15.521   6.854   8.757  1.00  0.00    -0.162 N 
HETATM   11  C9  UNL     1      16.713   6.479   8.234  1.00  0.00     0.221 A 
ATOM     12  H5  UNL     1      15.268   6.560   9.700  1.00  0.00     0.187 HD
HETATM   13  N6  UNL     1      17.591   5.679   9.015  1.00  0.00    -0.062 NA
HETATM   14  N7  UNL     1      16.991   6.895   6.989  1.00  0.00    -0.162 N 
HETATM   15  C10 UNL     1      16.162   7.651   6.248  1.00  0.00     0.694 A 
ATOM     16  H7  UNL     1      17.884   6.622   6.580  1.00  0.00     0.187 HD
HETATM   17  N9  UNL     1      14.987   8.002   6.805  1.00  0.00    -0.022 N 
ATOM     18  H9  UNL     1      14.330   8.575   6.276  1.00  0.00     0.203 HD
BRANCH  15  19
HETATM   19  N8  UNL     1      16.488   8.022   5.052  1.00  0.00    -0.230 N 
HETATM   20  C11 UNL     1      15.440   8.433   4.140  1.00  0.00     0.165 C 
ATOM     21  H8  UNL     1      17.464   8.025   4.757  1.00  0.00     0.177 HD
ENDBRANCH  15  19
ENDBRANCH   7   9
BRANCH   1  22
HETATM   22  N1  UNL     1       9.871   6.969   8.814  1.00  0.00    -0.353 N 
HETATM   23  C4  UNL     1       9.173   6.616   7.632  1.00  0.00     0.217 C 
HETATM   24  O1  UNL     1       9.603   7.020   6.538  1.00  0.00    -0.274 OA
ATOM     25  H1  UNL     1       9.506   6.631   9.704  1.00  0.00     0.163 HD
BRANCH  23  26
HETATM   26  C3  UNL     1       7.955   5.782   7.724  1.00  0.00     0.102 C 
BRANCH  26  27
HETATM   27  C2  UNL     1       7.015   6.022   6.564  1.00  0.00     0.005 C 
HETATM   28  C1  UNL     1       5.864   5.049   6.563  1.00  0.00     0.005 C 
ENDBRANCH  26  27
ENDBRANCH  23  26
ENDBRANCH   1  22
TORSDOF 5
ENDMDL
MODEL 4
REMARK VINA RESULT: -5.153868686      1.124      1.150
REMARK  5 active torsions:
REMARK  status: ('A' for Active; 'I' for Inactive)
REMARK    1  A    between atoms: C2_2  and  C3_3 
REMARK    2  A    between atoms: C3_3  and  C4_4 
REMARK       I    between atoms: C4_4  and  N1_6 
REMARK    3  A    between atoms: N1_6  and  C5_8 
REMARK    4  A    between atoms: N4_14  and  C8_15 
REMARK    5  A    between atoms: C10_22  and  N8_23 
ROOT
HETATM    1  C5  UNL     1       7.154  10.735  12.170  1.00  0.00     0.121 C 
HETATM    2  C6  UNL     1       8.096  11.894  12.425  1.00  0.00     0.149 C 
HETATM    3  N2  UNL     1       8.714  12.213  11.154  1.00  0.00    -0.362 N 
ATOM      4  H2  UNL     1       8.897  13.188  10.915  1.00  0.00     0.162 HD
HETATM    5  C7  UNL     1       9.034  11.284  10.322  1.00  0.00     0.205 C 
HETATM    6  N3  UNL     1       9.651  11.608   9.055  1.00  0.00    -0.063 NA
HETATM    7  N4  UNL     1       8.783   9.917  10.641  1.00  0.00    -0.152 N 
HETATM    8  C12 UNL     1       7.994   9.552  11.831  1.00  0.00     0.177 C 
ENDROOT
BRANCH   7   9
HETATM    9  C8  UNL     1       9.307   8.891   9.794  1.00  0.00     0.704 A 
HETATM   10  N5  UNL     1      10.549   8.438  10.022  1.00  0.00    -0.162 N 
HETATM   11  C9  UNL     1      11.083   7.468   9.242  1.00  0.00     0.221 A 
ATOM     12  H5  UNL     1      11.097   8.828  10.789  1.00  0.00     0.187 HD
HETATM   13  N6  UNL     1      12.401   7.009   9.511  1.00  0.00    -0.062 NA
HETATM   14  N7  UNL     1      10.315   6.994   8.249  1.00  0.00    -0.162 N 
HETATM   15  C10 UNL     1       9.068   7.425   7.993  1.00  0.00     0.694 A 
ATOM     16  H7  UNL     1      10.701   6.262   7.652  1.00  0.00     0.187 HD
HETATM   17  N9  UNL     1       8.575   8.391   8.792  1.00  0.00    -0.022 N 
ATOM     18  H9  UNL     1       7.633   8.746   8.631  1.00  0.00     0.203 HD
BRANCH  15  19
HETATM   19  N8  UNL     1       8.377   6.928   7.018  1.00  0.00    -0.230 N 
HETATM   20  C11 UNL     1       7.550   5.765   7.271  1.00  0.00     0.165 C 
ATOM     21  H8  UNL     1       8.414   7.348   6.090  1.00  0.00     0.177 HD
ENDBRANCH  15  19
ENDBRANCH   7   9
BRANCH   1  22
HETATM   22  N1  UNL     1       6.230  10.515  13.248  1.00  0.00    -0.353 N 
HETATM   23  C4  UNL     1       4.834  10.737  13.154  1.00  0.00     0.217 C 
HETATM   24  O1  UNL     1       4.362  11.146  12.079  1.00  0.00    -0.274 OA
ATOM     25  H1  UNL     1       6.603  10.179  14.137  1.00  0.00     0.163 HD
BRANCH  23  26
HETATM   26  C3  UNL     1       3.971  10.478  14.328  1.00  0.00     0.102 C 
BRANCH  26  27
HETATM   27  C2  UNL     1       4.743   9.863  15.474  1.00  0.00     0.005 C 
HETATM   28  C1  UNL     1       4.164  10.248  16.810  1.00  0.00     0.005 C 
ENDBRANCH  26  27
ENDBRANCH  23  26
ENDBRANCH   1  22
TORSDOF 5
ENDMDL
MODEL 5
REMARK VINA RESULT: -5.130774492      4.870      7.402
REMARK  5 active torsions:
REMARK  status: ('A' for Active; 'I' for Inactive)
REMARK    1  A    between atoms: C2_2  and  C3_3 
REMARK    2  A    between atoms: C3_3  and  C4_4 
REMARK       I    between atoms: C4_4  and  N1_6 
REMARK    3  A    between atoms: N1_6  and  C5_8 
REMARK    4  A    between atoms: N4_14  and  C8_15 
REMARK    5  A    between atoms: C10_22  and  N8_23 
ROOT
HETATM    1  C5  UNL     1      11.087   7.772   8.841  1.00  0.00     0.121 C 
HETATM    2  C6  UNL     1      11.204   8.623  10.090  1.00  0.00     0.149 C 
HETATM    3  N2  UNL     1      12.232   9.608   9.825  1.00  0.00    -0.362 N 
ATOM      4  H2  UNL     1      12.122  10.557  10.183  1.00  0.00     0.162 HD
HETATM    5  C7  UNL     1      13.281   9.303   9.143  1.00  0.00     0.205 C 
HETATM    6  N3  UNL     1      14.305  10.291   8.882  1.00  0.00    -0.063 NA
HETATM    7  N4  UNL     1      13.448   7.981   8.635  1.00  0.00    -0.152 N 
HETATM    8  C12 UNL     1      12.354   6.997   8.716  1.00  0.00     0.177 C 
ENDROOT
BRANCH   7   9
HETATM    9  C8  UNL     1      14.695   7.610   8.041  1.00  0.00     0.704 A 
HETATM   10  N5  UNL     1      14.967   8.034   6.797  1.00  0.00    -0.162 N 
HETATM   11  C9  UNL     1      16.135   7.704   6.198  1.00  0.00     0.221 A 
ATOM     12  H5  UNL     1      14.288   8.609   6.299  1.00  0.00     0.187 HD
HETATM   13  N6  UNL     1      16.395   8.170   4.880  1.00  0.00    -0.062 NA
HETATM   14  N7  UNL     1      16.989   6.946   6.903  1.00  0.00    -0.162 N 
HETATM   15  C10 UNL     1      16.747   6.505   8.149  1.00  0.00     0.694 A 
ATOM     16  H7  UNL     1      17.875   6.688   6.467  1.00  0.00     0.187 HD
HETATM   17  N9  UNL     1      15.573   6.855   8.709  1.00  0.00    -0.022 N 
ATOM     18  H9  UNL     1      15.351   6.540   9.653  1.00  0.00     0.203 HD
BRANCH  15  19
HETATM   19  N8  UNL     1      17.611   5.774   8.778  1.00  0.00    -0.230 N 
HETATM   20  C11 UNL     1      18.728   6.424   9.435  1.00  0.00     0.165 C 
ATOM     21  H8  UNL     1      17.508   4.760   8.810  1.00  0.00     0.177 HD
ENDBRANCH  15  19
ENDBRANCH   7   9
BRANCH   1  22
HETATM   22  N1  UNL     1       9.897   6.967   8.820  1.00  0.00    -0.353 N 
HETATM   23  C4  UNL     1       9.199   6.612   7.639  1.00  0.00     0.217 C 
HETATM   24  O1  UNL     1       9.630   7.015   6.545  1.00  0.00    -0.274 OA
ATOM     25  H1  UNL     1       9.532   6.629   9.711  1.00  0.00     0.163 HD
BRANCH  23  26
HETATM   26  C3  UNL     1       7.982   5.778   7.731  1.00  0.00     0.102 C 
BRANCH  26  27
HETATM   27  C2  UNL     1       7.038   6.022   6.575  1.00  0.00     0.005 C 
HETATM   28  C1  UNL     1       5.889   5.048   6.573  1.00  0.00     0.005 C 
ENDBRANCH  26  27
ENDBRANCH  23  26
ENDBRANCH   1  22
TORSDOF 5
ENDMDL
