MODEL 1
REMARK VINA RESULT: -5.063909352      0.000      0.000
REMARK  5 active torsions:
REMARK  status: ('A' for Active; 'I' for Inactive)
REMARK    1  A    between atoms: N1_4  and  N2_6 
REMARK    2  A    between atoms: N2_6  and  C4_8 
REMARK    3  A    between atoms: C8_17  and  N5_18 
REMARK    4  A    between atoms: N6_20  and  N7_22 
REMARK    5  A    between atoms: N7_22  and  S1_24 
ROOT
HETATM    1  C4  UNL     1      10.240   6.995   8.522  1.00  0.00     0.154 A 
HETATM    2  N3  UNL     1       9.019   6.449   8.618  1.00  0.00    -0.291 N 
ATOM      3  H3  UNL     1       8.656   6.153   9.524  1.00  0.00     0.172 HD
HETATM    4  C5  UNL     1       8.282   6.297   7.508  1.00  0.00     0.326 A 
HETATM    5  O1  UNL     1       7.129   5.783   7.594  1.00  0.00    -0.247 OA
HETATM    6  N4  UNL     1       8.775   6.694   6.303  1.00  0.00    -0.310 N 
ATOM      7  H4  UNL     1       8.203   6.573   5.467  1.00  0.00     0.170 HD
HETATM    8  C6  UNL     1       9.995   7.242   6.189  1.00  0.00     0.042 A 
HETATM    9  C7  UNL     1      10.454   7.646   4.841  1.00  0.00     0.071 C 
HETATM   10  C8  UNL     1      10.773   7.410   7.313  1.00  0.00     0.117 A 
ENDROOT
BRANCH  10  11
HETATM   11  N5  UNL     1      12.068   7.982   7.250  1.00  0.00    -0.280 N 
HETATM   12  N6  UNL     1      12.261   9.232   7.157  1.00  0.00    -0.231 N 
ATOM     13  H6  UNL     1      11.442   9.840   7.127  1.00  0.00     0.209 HD
ATOM     14  H5  UNL     1      12.878   7.363   7.281  1.00  0.00     0.188 HD
BRANCH  12  15
HETATM   15  N7  UNL     1      13.504   9.822   7.093  1.00  0.00    -0.193 N 
ATOM     16  H7  UNL     1      13.613  10.787   6.779  1.00  0.00     0.204 HD
BRANCH  15  17
HETATM   17  S1  UNL     1      14.889   8.867   7.566  1.00  0.00     0.224 S 
HETATM   18  O2  UNL     1      15.300   7.967   6.433  1.00  0.00    -0.577 OA
HETATM   19  O3  UNL     1      16.066   9.765   7.863  1.00  0.00    -0.577 OA
HETATM   20  O4  UNL     1      14.548   7.970   8.920  1.00  0.00    -0.577 OA
ENDBRANCH  15  17
ENDBRANCH  12  15
ENDBRANCH  10  11
BRANCH   1  21
HETATM   21  N2  UNL     1      10.955   7.146   9.574  1.00  0.00    -0.284 N 
ATOM     22  H2  UNL     1      11.916   6.806   9.597  1.00  0.00     0.188 HD
BRANCH  21  23
HETATM   23  N1  UNL     1      10.409   7.780  10.682  1.00  0.00    -0.308 N 
HETATM   24  C2  UNL     1      10.791   8.903  11.143  1.00  0.00    -0.004 C 
HETATM   25  C1  UNL     1      11.899   9.634  10.485  1.00  0.00     0.064 C 
HETATM   26  C3  UNL     1      10.139   9.497  12.337  1.00  0.00     0.064 C 
ATOM     27  H1  UNL     1       9.642   7.309  11.164  1.00  0.00     0.186 HD
ENDBRANCH  21  23
ENDBRANCH   1  21
TORSDOF 5
ENDMDL
MODEL 2
REMARK VINA RESULT: -4.974705689      3.987      6.410
REMARK  5 active torsions:
REMARK  status: ('A' for Active; 'I' for Inactive)
REMARK    1  A    between atoms: N1_4  and  N2_6 
REMARK    2  A    between atoms: N2_6  and  C4_8 
REMARK    3  A    between atoms: C8_17  and  N5_18 
REMARK    4  A    between atoms: N6_20  and  N7_22 
REMARK    5  A    between atoms: N7_22  and  S1_24 
ROOT
HETATM    1  C4  UNL     1       9.369   7.535   7.193  1.00  0.00     0.154 A 
HETATM    2  N3  UNL     1      10.194   6.518   7.479  1.00  0.00    -0.291 N 
ATOM      3  H3  UNL     1      10.484   5.867   6.749  1.00  0.00     0.172 HD
HETATM    4  C5  UNL     1      10.633   6.366   8.738  1.00  0.00     0.326 A 
HETATM    5  O1  UNL     1      11.412   5.408   9.012  1.00  0.00    -0.247 OA
HETATM    6  N4  UNL     1      10.240   7.239   9.706  1.00  0.00    -0.310 N 
ATOM      7  H4  UNL     1      10.582   7.112  10.658  1.00  0.00     0.170 HD
HETATM    8  C6  UNL     1       9.415   8.262   9.436  1.00  0.00     0.042 A 
HETATM    9  C7  UNL     1       9.037   9.164  10.547  1.00  0.00     0.071 C 
HETATM   10  C8  UNL     1       8.949   8.441   8.153  1.00  0.00     0.117 A 
ENDROOT
BRANCH  10  11
HETATM   11  N5  UNL     1       8.075   9.504   7.813  1.00  0.00    -0.280 N 
HETATM   12  N6  UNL     1       8.482  10.584   7.287  1.00  0.00    -0.231 N 
ATOM     13  H6  UNL     1       9.481  10.679   7.107  1.00  0.00     0.209 HD
ATOM     14  H5  UNL     1       7.078   9.396   7.999  1.00  0.00     0.188 HD
BRANCH  12  15
HETATM   15  N7  UNL     1       7.662  11.637   6.945  1.00  0.00    -0.193 N 
ATOM     16  H7  UNL     1       7.826  12.176   6.095  1.00  0.00     0.204 HD
BRANCH  15  17
HETATM   17  S1  UNL     1       6.332  12.020   8.013  1.00  0.00     0.224 S 
HETATM   18  O2  UNL     1       5.137  11.174   7.663  1.00  0.00    -0.577 OA
HETATM   19  O3  UNL     1       6.698  11.693   9.441  1.00  0.00    -0.577 OA
HETATM   20  O4  UNL     1       5.947  13.631   7.916  1.00  0.00    -0.577 OA
ENDBRANCH  15  17
ENDBRANCH  12  15
ENDBRANCH  10  11
BRANCH   1  21
HETATM   21  N2  UNL     1       8.942   7.692   5.995  1.00  0.00    -0.284 N 
ATOM     22  H2  UNL     1       8.018   8.091   5.825  1.00  0.00     0.188 HD
BRANCH  21  23
HETATM   23  N1  UNL     1       9.750   7.315   4.931  1.00  0.00    -0.308 N 
HETATM   24  C2  UNL     1      10.022   8.047   3.926  1.00  0.00    -0.004 C 
HETATM   25  C1  UNL     1       9.461   9.416   3.834  1.00  0.00     0.064 C 
HETATM   26  C3  UNL     1      10.899   7.548   2.837  1.00  0.00     0.064 C 
ATOM     27  H1  UNL     1      10.156   6.379   4.956  1.00  0.00     0.186 HD
ENDBRANCH  21  23
ENDBRANCH   1  21
TORSDOF 5
ENDMDL
MODEL 3
REMARK VINA RESULT: -4.888662887      4.204      6.271
REMARK  5 active torsions:
REMARK  status: ('A' for Active; 'I' for Inactive)
REMARK    1  A    between atoms: N1_4  and  N2_6 
REMARK    2  A    between atoms: N2_6  and  C4_8 
REMARK    3  A    between atoms: C8_17  and  N5_18 
REMARK    4  A    between atoms: N6_20  and  N7_22 
REMARK    5  A    between atoms: N7_22  and  S1_24 
ROOT
HETATM    1  C4  UNL     1       9.738   8.120   7.170  1.00  0.00     0.154 A 
HETATM    2  N3  UNL     1      10.382   6.968   7.410  1.00  0.00    -0.291 N 
ATOM      3  H3  UNL     1      10.742   6.408   6.638  1.00  0.00     0.172 HD
HETATM    4  C5  UNL     1      10.547   6.564   8.679  1.00  0.00     0.326 A 
HETATM    5  O1  UNL     1      11.155   5.479   8.910  1.00  0.00    -0.247 OA
HETATM    6  N4  UNL     1      10.062   7.318   9.703  1.00  0.00    -0.310 N 
ATOM      7  H4  UNL     1      10.194   6.999  10.662  1.00  0.00     0.170 HD
HETATM    8  C6  UNL     1       9.414   8.473   9.480  1.00  0.00     0.042 A 
HETATM    9  C7  UNL     1       8.919   9.231  10.650  1.00  0.00     0.071 C 
HETATM   10  C8  UNL     1       9.232   8.912   8.187  1.00  0.00     0.117 A 
ENDROOT
BRANCH  10  11
HETATM   11  N5  UNL     1       8.555  10.122   7.895  1.00  0.00    -0.280 N 
HETATM   12  N6  UNL     1       7.293  10.236   7.967  1.00  0.00    -0.231 N 
ATOM     13  H6  UNL     1       6.756   9.416   8.248  1.00  0.00     0.209 HD
ATOM     14  H5  UNL     1       9.104  10.935   7.615  1.00  0.00     0.188 HD
BRANCH  12  15
HETATM   15  N7  UNL     1       6.603  11.395   7.690  1.00  0.00    -0.193 N 
ATOM     16  H7  UNL     1       5.698  11.584   8.121  1.00  0.00     0.204 HD
BRANCH  15  17
HETATM   17  S1  UNL     1       7.326  12.533   6.577  1.00  0.00     0.224 S 
HETATM   18  O2  UNL     1       8.306  13.409   7.308  1.00  0.00    -0.577 OA
HETATM   19  O3  UNL     1       8.103  11.798   5.511  1.00  0.00    -0.577 OA
HETATM   20  O4  UNL     1       6.160  13.459   5.844  1.00  0.00    -0.577 OA
ENDBRANCH  15  17
ENDBRANCH  12  15
ENDBRANCH  10  11
BRANCH   1  21
HETATM   21  N2  UNL     1       9.574   8.519   5.964  1.00  0.00    -0.284 N 
ATOM     22  H2  UNL     1       8.674   8.892   5.663  1.00  0.00     0.188 HD
BRANCH  21  23
HETATM   23  N1  UNL     1      10.634   8.437   5.071  1.00  0.00    -0.308 N 
HETATM   24  C2  UNL     1      10.559   7.967   3.891  1.00  0.00    -0.004 C 
HETATM   25  C1  UNL     1       9.266   7.456   3.378  1.00  0.00     0.064 C 
HETATM   26  C3  UNL     1      11.755   7.924   3.012  1.00  0.00     0.064 C 
ATOM     27  H1  UNL     1      11.542   8.781   5.385  1.00  0.00     0.186 HD
ENDBRANCH  21  23
ENDBRANCH   1  21
TORSDOF 5
ENDMDL
MODEL 4
REMARK VINA RESULT: -4.867341648      3.361      6.251
REMARK  5 active torsions:
REMARK  status: ('A' for Active; 'I' for Inactive)
REMARK    1  A    between atoms: N1_4  and  N2_6 
REMARK    2  A    between atoms: N2_6  and  C4_8 
REMARK    3  A    between atoms: C8_17  and  N5_18 
REMARK    4  A    between atoms: N6_20  and  N7_22 
REMARK    5  A    between atoms: N7_22  and  S1_24 
ROOT
HETATM    1  C4  UNL     1      13.486   8.793   9.038  1.00  0.00     0.154 A 
HETATM    2  N3  UNL     1      14.365   9.697   9.494  1.00  0.00    -0.291 N 
ATOM      3  H3  UNL     1      15.352   9.625   9.251  1.00  0.00     0.172 HD
HETATM    4  C5  UNL     1      13.928  10.698  10.274  1.00  0.00     0.326 A 
HETATM    5  O1  UNL     1      14.754  11.553  10.705  1.00  0.00    -0.247 OA
HETATM    6  N4  UNL     1      12.608  10.786  10.593  1.00  0.00    -0.310 N 
ATOM      7  H4  UNL     1      12.290  11.552  11.187  1.00  0.00     0.170 HD
HETATM    8  C6  UNL     1      11.715   9.889  10.146  1.00  0.00     0.042 A 
HETATM    9  C7  UNL     1      10.299  10.058  10.542  1.00  0.00     0.071 C 
HETATM   10  C8  UNL     1      12.136   8.852   9.344  1.00  0.00     0.117 A 
ENDROOT
BRANCH  10  11
HETATM   11  N5  UNL     1      11.236   7.877   8.844  1.00  0.00    -0.280 N 
HETATM   12  N6  UNL     1      10.890   6.858   9.515  1.00  0.00    -0.231 N 
ATOM     13  H6  UNL     1      11.281   6.747  10.450  1.00  0.00     0.209 HD
ATOM     14  H5  UNL     1      10.852   8.000   7.908  1.00  0.00     0.188 HD
BRANCH  12  15
HETATM   15  N7  UNL     1      10.020   5.891   9.062  1.00  0.00    -0.193 N 
ATOM     16  H7  UNL     1      10.063   4.936   9.417  1.00  0.00     0.204 HD
BRANCH  15  17
HETATM   17  S1  UNL     1       8.838   6.352   7.859  1.00  0.00     0.224 S 
HETATM   18  O2  UNL     1       8.171   7.638   8.265  1.00  0.00    -0.577 OA
HETATM   19  O3  UNL     1       9.515   6.608   6.533  1.00  0.00    -0.577 OA
HETATM   20  O4  UNL     1       7.707   5.155   7.658  1.00  0.00    -0.577 OA
ENDBRANCH  15  17
ENDBRANCH  12  15
ENDBRANCH  10  11
BRANCH   1  21
HETATM   21  N2  UNL     1      13.889   7.832   8.292  1.00  0.00    -0.284 N 
ATOM     22  H2  UNL     1      13.406   7.621   7.419  1.00  0.00     0.188 HD
BRANCH  21  23
HETATM   23  N1  UNL     1      14.989   7.082   8.685  1.00  0.00    -0.308 N 
HETATM   24  C2  UNL     1      16.074   6.979   8.027  1.00  0.00    -0.004 C 
HETATM   25  C1  UNL     1      16.228   7.694   6.738  1.00  0.00     0.064 C 
HETATM   26  C3  UNL     1      17.195   6.149   8.535  1.00  0.00     0.064 C 
ATOM     27  H1  UNL     1      14.923   6.575   9.568  1.00  0.00     0.186 HD
ENDBRANCH  21  23
ENDBRANCH   1  21
TORSDOF 5
ENDMDL
MODEL 5
REMARK VINA RESULT: -4.849690060      9.173     11.219
REMARK  5 active torsions:
REMARK  status: ('A' for Active; 'I' for Inactive)
REMARK    1  A    between atoms: N1_4  and  N2_6 
REMARK    2  A    between atoms: N2_6  and  C4_8 
REMARK    3  A    between atoms: C8_17  and  N5_18 
REMARK    4  A    between atoms: N6_20  and  N7_22 
REMARK    5  A    between atoms: N7_22  and  S1_24 
ROOT
HETATM    1  C4  UNL     1       1.909   9.478  14.854  1.00  0.00     0.154 A 
HETATM    2  N3  UNL     1       0.953   8.972  15.647  1.00  0.00    -0.291 N 
ATOM      3  H3  UNL     1       0.078   8.633  15.248  1.00  0.00     0.172 HD
HETATM    4  C5  UNL     1       1.164   8.917  16.970  1.00  0.00     0.326 A 
HETATM    5  O1  UNL     1       0.265   8.439  17.722  1.00  0.00    -0.247 OA
HETATM    6  N4  UNL     1       2.335   9.372  17.493  1.00  0.00    -0.310 N 
ATOM      7  H4  UNL     1       2.482   9.324  18.502  1.00  0.00     0.170 HD
HETATM    8  C6  UNL     1       3.302   9.882  16.714  1.00  0.00     0.042 A 
HETATM    9  C7  UNL     1       4.544  10.355  17.364  1.00  0.00     0.071 C 
HETATM   10  C8  UNL     1       3.112   9.950  15.352  1.00  0.00     0.117 A 
ENDROOT
BRANCH  10  11
HETATM   11  N5  UNL     1       4.099  10.480  14.483  1.00  0.00    -0.280 N 
HETATM   12  N6  UNL     1       4.922   9.748  13.854  1.00  0.00    -0.231 N 
ATOM     13  H6  UNL     1       4.861   8.739  13.988  1.00  0.00     0.209 HD
ATOM     14  H5  UNL     1       4.148  11.491  14.358  1.00  0.00     0.188 HD
BRANCH  12  15
HETATM   15  N7  UNL     1       5.893  10.228  13.003  1.00  0.00    -0.193 N 
ATOM     16  H7  UNL     1       6.212   9.677  12.206  1.00  0.00     0.204 HD
BRANCH  15  17
HETATM   17  S1  UNL     1       6.560  11.809  13.331  1.00  0.00     0.224 S 
HETATM   18  O2  UNL     1       7.808  12.016  12.515  1.00  0.00    -0.577 OA
HETATM   19  O3  UNL     1       5.583  12.884  12.920  1.00  0.00    -0.577 OA
HETATM   20  O4  UNL     1       6.895  11.982  14.947  1.00  0.00    -0.577 OA
ENDBRANCH  15  17
ENDBRANCH  12  15
ENDBRANCH  10  11
BRANCH   1  21
HETATM   21  N2  UNL     1       1.722   9.537  13.587  1.00  0.00    -0.284 N 
ATOM     22  H2  UNL     1       2.250   8.931  12.960  1.00  0.00     0.188 HD
BRANCH  21  23
HETATM   23  N1  UNL     1       0.792  10.433  13.078  1.00  0.00    -0.308 N 
HETATM   24  C2  UNL     1       1.032  11.301  12.179  1.00  0.00    -0.004 C 
HETATM   25  C1  UNL     1       2.390  11.406  11.595  1.00  0.00     0.064 C 
HETATM   26  C3  UNL     1      -0.035  12.217  11.702  1.00  0.00     0.064 C 
ATOM     27  H1  UNL     1      -0.156  10.393  13.454  1.00  0.00     0.186 HD
ENDBRANCH  21  23
ENDBRANCH   1  21
TORSDOF 5
ENDMDL
