MODEL 1
REMARK VINA RESULT: -8.055894871      0.000      0.000
REMARK  5 active torsions:
REMARK  status: ('A' for Active; 'I' for Inactive)
REMARK    1  A    between atoms: N2_6  and  C5_7 
REMARK    2  A    between atoms: C9_13  and  N4_14 
REMARK    3  A    between atoms: N4_14  and  O1_16 
REMARK    4  A    between atoms: C13_21  and  N5_22 
REMARK    5  A    between atoms: N5_22  and  C14_25 
ROOT
HETATM    1  C5  UNL     1       0.213  -7.415  19.949  1.00  0.00     0.133 A 
HETATM    2  N3  UNL     1       0.501  -6.123  19.604  1.00  0.00    -0.350 N 
ATOM      3  H3  UNL     1       0.196  -5.774  18.695  1.00  0.00     0.166 HD
HETATM    4  C6  UNL     1       1.170  -5.301  20.423  1.00  0.00     0.099 A 
HETATM    5  C7  UNL     1       1.591  -5.758  21.661  1.00  0.00    -0.004 A 
HETATM    6  C8  UNL     1       1.293  -7.067  21.991  1.00  0.00    -0.016 A 
HETATM    7  C9  UNL     1       0.603  -7.935  21.165  1.00  0.00     0.105 A 
HETATM    8  C10 UNL     1       1.756  -7.517  23.314  1.00  0.00     0.042 C 
HETATM    9  C11 UNL     1       1.306  -6.453  24.292  1.00  0.00     0.007 C 
HETATM   10  C12 UNL     1       1.959  -5.151  24.035  1.00  0.00     0.038 C 
HETATM   11  C13 UNL     1       2.323  -4.845  22.615  1.00  0.00     0.223 C 
ENDROOT
BRANCH  11  12
HETATM   12  N5  UNL     1       1.898  -3.506  22.226  1.00  0.00    -0.041 N 
ATOM     13  H52 UNL     1       1.332  -3.540  21.379  1.00  0.00     0.281 HD
ATOM     14  H51 UNL     1       1.205  -3.144  22.881  1.00  0.00     0.281 HD
BRANCH  12  15
HETATM   15  C14 UNL     1       2.984  -2.580  22.074  1.00  0.00     0.322 C 
HETATM   16  C15 UNL     1       4.209  -3.192  21.456  1.00  0.00     0.066 C 
HETATM   17  C16 UNL     1       5.377  -2.229  21.478  1.00  0.00    -0.008 C 
HETATM   18  C17 UNL     1       5.278  -1.110  20.506  1.00  0.00     0.005 C 
HETATM   19  C21 UNL     1       5.531  -1.602  22.868  1.00  0.00     0.037 C 
HETATM   20  C18 UNL     1       4.404   0.027  20.841  1.00  0.00     0.003 C 
HETATM   21  C19 UNL     1       3.826   0.107  22.198  1.00  0.00     0.032 C 
HETATM   22  C20 UNL     1       4.205  -0.958  23.169  1.00  0.00     0.124 C 
HETATM   23  O2  UNL     1       3.253  -1.978  23.290  1.00  0.00    -0.354 OA
ENDBRANCH  12  15
ENDBRANCH  11  12
BRANCH   7  24
HETATM   24  N4  UNL     1       0.296  -9.264  21.506  1.00  0.00    -0.265 N 
ATOM     25  H4  UNL     1      -0.654  -9.426  21.840  1.00  0.00     0.194 HD
BRANCH  24  26
HETATM   26  O1  UNL     1       1.015 -10.252  21.456  1.00  0.00    -0.289 OA
ATOM     27  H1  UNL     1       0.856 -11.121  21.807  1.00  0.00     0.244 HD
ENDBRANCH  24  26
ENDBRANCH   7  24
BRANCH   1  28
HETATM   28  N2  UNL     1      -0.526  -8.146  18.962  1.00  0.00    -0.364 N 
HETATM   29  C4  UNL     1      -1.862  -7.612  18.827  1.00  0.00     0.126 C 
HETATM   30  C3  UNL     1      -2.681  -8.160  17.725  1.00  0.00     0.050 C 
HETATM   31  C2  UNL     1      -1.959  -8.837  16.617  1.00  0.00     0.273 C 
HETATM   32  N1  UNL     1      -1.638 -10.186  16.948  1.00  0.00     0.085 N 
HETATM   33  C1  UNL     1      -1.002 -10.917  15.900  1.00  0.00     0.309 C 
HETATM   34  C23 UNL     1      -0.931 -10.349  18.178  1.00  0.00     0.291 C 
HETATM   35  C22 UNL     1       0.110  -9.233  18.274  1.00  0.00     0.154 C 
ENDBRANCH   1  28
TORSDOF 5
ENDMDL
MODEL 2
REMARK VINA RESULT: -7.877003097      0.741      1.425
REMARK  5 active torsions:
REMARK  status: ('A' for Active; 'I' for Inactive)
REMARK    1  A    between atoms: N2_6  and  C5_7 
REMARK    2  A    between atoms: C9_13  and  N4_14 
REMARK    3  A    between atoms: N4_14  and  O1_16 
REMARK    4  A    between atoms: C13_21  and  N5_22 
REMARK    5  A    between atoms: N5_22  and  C14_25 
ROOT
HETATM    1  C5  UNL     1       0.247  -7.491  20.254  1.00  0.00     0.133 A 
HETATM    2  N3  UNL     1       0.615  -6.203  19.972  1.00  0.00    -0.350 N 
ATOM      3  H3  UNL     1       0.339  -5.794  19.079  1.00  0.00     0.166 HD
HETATM    4  C6  UNL     1       1.325  -5.463  20.833  1.00  0.00     0.099 A 
HETATM    5  C7  UNL     1       1.707  -6.002  22.051  1.00  0.00    -0.004 A 
HETATM    6  C8  UNL     1       1.329  -7.304  22.316  1.00  0.00    -0.016 A 
HETATM    7  C9  UNL     1       0.596  -8.091  21.446  1.00  0.00     0.105 A 
HETATM    8  C10 UNL     1       1.752  -7.844  23.619  1.00  0.00     0.042 C 
HETATM    9  C11 UNL     1       1.357  -6.802  24.644  1.00  0.00     0.007 C 
HETATM   10  C12 UNL     1       2.088  -5.530  24.453  1.00  0.00     0.038 C 
HETATM   11  C13 UNL     1       2.483  -5.180  23.052  1.00  0.00     0.223 C 
ENDROOT
BRANCH  11  12
HETATM   12  N5  UNL     1       2.142  -3.801  22.724  1.00  0.00    -0.041 N 
ATOM     13  H52 UNL     1       1.567  -3.762  21.882  1.00  0.00     0.281 HD
ATOM     14  H51 UNL     1       1.478  -3.424  23.401  1.00  0.00     0.281 HD
BRANCH  12  15
HETATM   15  C14 UNL     1       3.283  -2.941  22.600  1.00  0.00     0.322 C 
HETATM   16  C15 UNL     1       2.938  -1.553  22.142  1.00  0.00     0.066 C 
HETATM   17  C16 UNL     1       4.183  -0.739  21.858  1.00  0.00    -0.008 C 
HETATM   18  C17 UNL     1       4.929  -0.303  23.067  1.00  0.00     0.005 C 
HETATM   19  C21 UNL     1       5.162  -1.540  20.993  1.00  0.00     0.037 C 
HETATM   20  C18 UNL     1       5.790  -1.285  23.746  1.00  0.00     0.003 C 
HETATM   21  C19 UNL     1       6.035  -2.589  23.094  1.00  0.00     0.032 C 
HETATM   22  C20 UNL     1       5.425  -2.811  21.754  1.00  0.00     0.124 C 
HETATM   23  O2  UNL     1       4.230  -3.541  21.790  1.00  0.00    -0.354 OA
ENDBRANCH  12  15
ENDBRANCH  11  12
BRANCH   7  24
HETATM   24  N4  UNL     1       0.207  -9.413  21.721  1.00  0.00    -0.265 N 
ATOM     25  H4  UNL     1      -0.728  -9.526  22.114  1.00  0.00     0.194 HD
BRANCH  24  26
HETATM   26  O1  UNL     1       0.839 -10.446  21.553  1.00  0.00    -0.289 OA
ATOM     27  H1  UNL     1       0.668 -11.312  21.907  1.00  0.00     0.244 HD
ENDBRANCH  24  26
ENDBRANCH   7  24
BRANCH   1  28
HETATM   28  N2  UNL     1      -0.524  -8.130  19.228  1.00  0.00    -0.364 N 
HETATM   29  C4  UNL     1      -1.831  -7.522  19.122  1.00  0.00     0.126 C 
HETATM   30  C3  UNL     1      -2.673  -7.967  17.992  1.00  0.00     0.050 C 
HETATM   31  C2  UNL     1      -1.983  -8.620  16.849  1.00  0.00     0.273 C 
HETATM   32  N1  UNL     1      -1.732 -10.000  17.107  1.00  0.00     0.085 N 
HETATM   33  C1  UNL     1      -1.132 -10.705  16.022  1.00  0.00     0.309 C 
HETATM   34  C23 UNL     1      -1.039 -10.264  18.328  1.00  0.00     0.291 C 
HETATM   35  C22 UNL     1       0.057  -9.210  18.484  1.00  0.00     0.154 C 
ENDBRANCH   1  28
TORSDOF 5
ENDMDL
MODEL 3
REMARK VINA RESULT: -7.834712718      0.864      1.384
REMARK  5 active torsions:
REMARK  status: ('A' for Active; 'I' for Inactive)
REMARK    1  A    between atoms: N2_6  and  C5_7 
REMARK    2  A    between atoms: C9_13  and  N4_14 
REMARK    3  A    between atoms: N4_14  and  O1_16 
REMARK    4  A    between atoms: C13_21  and  N5_22 
REMARK    5  A    between atoms: N5_22  and  C14_25 
ROOT
HETATM    1  C5  UNL     1       0.117  -7.747  20.232  1.00  0.00     0.133 A 
HETATM    2  N3  UNL     1       0.433  -6.423  20.083  1.00  0.00    -0.350 N 
ATOM      3  H3  UNL     1       0.152  -5.941  19.229  1.00  0.00     0.166 HD
HETATM    4  C6  UNL     1       1.099  -5.742  21.024  1.00  0.00     0.099 A 
HETATM    5  C7  UNL     1       1.487  -6.380  22.191  1.00  0.00    -0.004 A 
HETATM    6  C8  UNL     1       1.161  -7.717  22.322  1.00  0.00    -0.016 A 
HETATM    7  C9  UNL     1       0.475  -8.444  21.366  1.00  0.00     0.105 A 
HETATM    8  C10 UNL     1       1.589  -8.363  23.574  1.00  0.00     0.042 C 
HETATM    9  C11 UNL     1       1.136  -7.444  24.687  1.00  0.00     0.007 C 
HETATM   10  C12 UNL     1       1.815  -6.130  24.634  1.00  0.00     0.038 C 
HETATM   11  C13 UNL     1       2.213  -5.629  23.280  1.00  0.00     0.223 C 
ENDROOT
BRANCH  11  12
HETATM   12  N5  UNL     1       1.818  -4.240  23.082  1.00  0.00    -0.041 N 
ATOM     13  H52 UNL     1       1.025  -4.179  22.442  1.00  0.00     0.281 HD
ATOM     14  H51 UNL     1       1.384  -3.865  23.925  1.00  0.00     0.281 HD
BRANCH  12  15
HETATM   15  C14 UNL     1       2.890  -3.394  22.643  1.00  0.00     0.322 C 
HETATM   16  C15 UNL     1       3.681  -2.798  23.773  1.00  0.00     0.066 C 
HETATM   17  C16 UNL     1       4.683  -1.781  23.269  1.00  0.00    -0.008 C 
HETATM   18  C17 UNL     1       5.859  -2.361  22.571  1.00  0.00     0.005 C 
HETATM   19  C21 UNL     1       4.015  -0.809  22.290  1.00  0.00     0.037 C 
HETATM   20  C18 UNL     1       5.691  -2.806  21.177  1.00  0.00     0.003 C 
HETATM   21  C19 UNL     1       4.435  -2.479  20.471  1.00  0.00     0.032 C 
HETATM   22  C20 UNL     1       3.424  -1.670  21.207  1.00  0.00     0.124 C 
HETATM   23  O2  UNL     1       2.398  -2.431  21.781  1.00  0.00    -0.354 OA
ENDBRANCH  12  15
ENDBRANCH  11  12
BRANCH   7  24
HETATM   24  N4  UNL     1       0.140  -9.802  21.505  1.00  0.00    -0.265 N 
ATOM     25  H4  UNL     1      -0.819  -9.993  21.797  1.00  0.00     0.194 HD
BRANCH  24  26
HETATM   26  O1  UNL     1       0.843 -10.786  21.324  1.00  0.00    -0.289 OA
ATOM     27  H1  UNL     1       1.617 -10.871  20.779  1.00  0.00     0.244 HD
ENDBRANCH  24  26
ENDBRANCH   7  24
BRANCH   1  28
HETATM   28  N2  UNL     1      -0.612  -8.313  19.136  1.00  0.00    -0.364 N 
HETATM   29  C4  UNL     1      -1.858  -7.609  18.935  1.00  0.00     0.126 C 
HETATM   30  C3  UNL     1      -2.635  -7.976  17.732  1.00  0.00     0.050 C 
HETATM   31  C2  UNL     1      -1.902  -8.664  16.637  1.00  0.00     0.273 C 
HETATM   32  N1  UNL     1      -1.775 -10.062  16.890  1.00  0.00     0.085 N 
HETATM   33  C1  UNL     1      -1.141 -10.796  15.844  1.00  0.00     0.309 C 
HETATM   34  C23 UNL     1      -1.206 -10.392  18.157  1.00  0.00     0.291 C 
HETATM   35  C22 UNL     1      -0.052  -9.424  18.421  1.00  0.00     0.154 C 
ENDBRANCH   1  28
TORSDOF 5
ENDMDL
MODEL 4
REMARK VINA RESULT: -7.789956157      1.340      2.202
REMARK  5 active torsions:
REMARK  status: ('A' for Active; 'I' for Inactive)
REMARK    1  A    between atoms: N2_6  and  C5_7 
REMARK    2  A    between atoms: C9_13  and  N4_14 
REMARK    3  A    between atoms: N4_14  and  O1_16 
REMARK    4  A    between atoms: C13_21  and  N5_22 
REMARK    5  A    between atoms: N5_22  and  C14_25 
ROOT
HETATM    1  C5  UNL     1       0.330  -7.180  20.105  1.00  0.00     0.133 A 
HETATM    2  N3  UNL     1       0.673  -5.931  19.664  1.00  0.00    -0.350 N 
ATOM      3  H3  UNL     1       0.374  -5.634  18.734  1.00  0.00     0.166 HD
HETATM    4  C6  UNL     1       1.390  -5.085  20.415  1.00  0.00     0.099 A 
HETATM    5  C7  UNL     1       1.804  -5.470  21.680  1.00  0.00    -0.004 A 
HETATM    6  C8  UNL     1       1.449  -6.736  22.106  1.00  0.00    -0.016 A 
HETATM    7  C9  UNL     1       0.710  -7.628  21.352  1.00  0.00     0.105 A 
HETATM    8  C10 UNL     1       1.906  -7.111  23.455  1.00  0.00     0.042 C 
HETATM    9  C11 UNL     1       1.518  -5.959  24.357  1.00  0.00     0.007 C 
HETATM   10  C12 UNL     1       2.227  -4.710  24.000  1.00  0.00     0.038 C 
HETATM   11  C13 UNL     1       2.588  -4.526  22.558  1.00  0.00     0.223 C 
ENDROOT
BRANCH  11  12
HETATM   12  N5  UNL     1       2.222  -3.200  22.077  1.00  0.00    -0.041 N 
ATOM     13  H52 UNL     1       2.741  -2.968  21.230  1.00  0.00     0.281 HD
ATOM     14  H51 UNL     1       1.274  -3.203  21.700  1.00  0.00     0.281 HD
BRANCH  12  15
HETATM   15  C14 UNL     1       2.372  -2.168  23.063  1.00  0.00     0.322 C 
HETATM   16  C15 UNL     1       1.064  -1.645  23.584  1.00  0.00     0.066 C 
HETATM   17  C16 UNL     1       1.269  -0.446  24.485  1.00  0.00    -0.008 C 
HETATM   18  C17 UNL     1       1.833  -0.762  25.822  1.00  0.00     0.005 C 
HETATM   19  C21 UNL     1       2.217   0.564  23.827  1.00  0.00     0.037 C 
HETATM   20  C18 UNL     1       3.279  -1.019  25.925  1.00  0.00     0.003 C 
HETATM   21  C19 UNL     1       4.135  -0.757  24.749  1.00  0.00     0.032 C 
HETATM   22  C20 UNL     1       3.479  -0.200  23.534  1.00  0.00     0.124 C 
HETATM   23  O2  UNL     1       3.178  -1.162  22.561  1.00  0.00    -0.354 OA
ENDBRANCH  12  15
ENDBRANCH  11  12
BRANCH   7  24
HETATM   24  N4  UNL     1       0.346  -8.913  21.791  1.00  0.00    -0.265 N 
ATOM     25  H4  UNL     1      -0.547  -8.975  22.280  1.00  0.00     0.194 HD
BRANCH  24  26
HETATM   26  O1  UNL     1       0.955  -9.966  21.666  1.00  0.00    -0.289 OA
ATOM     27  H1  UNL     1       0.841 -10.645  21.012  1.00  0.00     0.244 HD
ENDBRANCH  24  26
ENDBRANCH   7  24
BRANCH   1  28
HETATM   28  N2  UNL     1      -0.454  -7.945  19.179  1.00  0.00    -0.364 N 
HETATM   29  C4  UNL     1      -1.823  -7.483  19.169  1.00  0.00     0.126 C 
HETATM   30  C3  UNL     1      -2.706  -8.068  18.138  1.00  0.00     0.050 C 
HETATM   31  C2  UNL     1      -2.050  -8.700  16.963  1.00  0.00     0.273 C 
HETATM   32  N1  UNL     1      -1.629 -10.032  17.252  1.00  0.00     0.085 N 
HETATM   33  C1  UNL     1      -1.051 -10.722  16.145  1.00  0.00     0.309 C 
HETATM   34  C23 UNL     1      -0.809 -10.163  18.413  1.00  0.00     0.291 C 
HETATM   35  C22 UNL     1       0.176  -8.993  18.428  1.00  0.00     0.154 C 
ENDBRANCH   1  28
TORSDOF 5
ENDMDL
MODEL 5
REMARK VINA RESULT: -7.621626677      1.557      8.640
REMARK  5 active torsions:
REMARK  status: ('A' for Active; 'I' for Inactive)
REMARK    1  A    between atoms: N2_6  and  C5_7 
REMARK    2  A    between atoms: C9_13  and  N4_14 
REMARK    3  A    between atoms: N4_14  and  O1_16 
REMARK    4  A    between atoms: C13_21  and  N5_22 
REMARK    5  A    between atoms: N5_22  and  C14_25 
ROOT
HETATM    1  C5  UNL     1       2.663  -3.496  21.376  1.00  0.00     0.133 A 
HETATM    2  N3  UNL     1       2.290  -3.899  20.122  1.00  0.00    -0.350 N 
ATOM      3  H3  UNL     1       2.516  -3.304  19.324  1.00  0.00     0.166 HD
HETATM    4  C6  UNL     1       1.638  -5.050  19.910  1.00  0.00     0.099 A 
HETATM    5  C7  UNL     1       1.324  -5.869  20.981  1.00  0.00    -0.004 A 
HETATM    6  C8  UNL     1       1.706  -5.445  22.240  1.00  0.00    -0.016 A 
HETATM    7  C9  UNL     1       2.380  -4.263  22.487  1.00  0.00     0.105 A 
HETATM    8  C10 UNL     1       1.356  -6.341  23.354  1.00  0.00     0.042 C 
HETATM    9  C11 UNL     1       1.819  -7.720  22.935  1.00  0.00     0.007 C 
HETATM   10  C12 UNL     1       1.088  -8.214  21.747  1.00  0.00     0.038 C 
HETATM   11  C13 UNL     1       0.615  -7.185  20.768  1.00  0.00     0.223 C 
ENDROOT
BRANCH  11  12
HETATM   12  N5  UNL     1       0.948  -7.552  19.397  1.00  0.00    -0.041 N 
ATOM     13  H52 UNL     1       1.372  -6.765  18.906  1.00  0.00     0.281 HD
ATOM     14  H51 UNL     1       1.731  -8.206  19.379  1.00  0.00     0.281 HD
BRANCH  12  15
HETATM   15  C14 UNL     1      -0.165  -8.074  18.655  1.00  0.00     0.322 C 
HETATM   16  C15 UNL     1      -1.446  -7.330  18.899  1.00  0.00     0.066 C 
HETATM   17  C16 UNL     1      -2.620  -8.019  18.236  1.00  0.00    -0.008 C 
HETATM   18  C17 UNL     1      -2.663  -7.887  16.757  1.00  0.00     0.005 C 
HETATM   19  C21 UNL     1      -2.608  -9.520  18.551  1.00  0.00     0.037 C 
HETATM   20  C18 UNL     1      -1.775  -8.744  15.954  1.00  0.00     0.003 C 
HETATM   21  C19 UNL     1      -1.032  -9.829  16.629  1.00  0.00     0.032 C 
HETATM   22  C20 UNL     1      -1.267 -10.018  18.087  1.00  0.00     0.124 C 
HETATM   23  O2  UNL     1      -0.289  -9.429  18.899  1.00  0.00    -0.354 OA
ENDBRANCH  12  15
ENDBRANCH  11  12
BRANCH   7  24
HETATM   24  N4  UNL     1       2.773  -3.837  23.768  1.00  0.00    -0.265 N 
ATOM     25  H4  UNL     1       2.065  -3.332  24.302  1.00  0.00     0.194 HD
BRANCH  24  26
HETATM   26  O1  UNL     1       3.849  -3.991  24.328  1.00  0.00    -0.289 OA
ATOM     27  H1  UNL     1       4.518  -3.343  24.518  1.00  0.00     0.244 HD
ENDBRANCH  24  26
ENDBRANCH   7  24
BRANCH   1  28
HETATM   28  N2  UNL     1       3.367  -2.249  21.418  1.00  0.00    -0.364 N 
HETATM   29  C4  UNL     1       4.503  -2.276  20.524  1.00  0.00     0.126 C 
HETATM   30  C3  UNL     1       5.223  -0.998  20.337  1.00  0.00     0.050 C 
HETATM   31  C2  UNL     1       4.494   0.247  20.692  1.00  0.00     0.273 C 
HETATM   32  N1  UNL     1       4.552   0.507  22.094  1.00  0.00     0.085 N 
HETATM   33  C1  UNL     1       3.930   1.726  22.495  1.00  0.00     0.309 C 
HETATM   34  C23 UNL     1       4.124  -0.576  22.921  1.00  0.00     0.291 C 
HETATM   35  C22 UNL     1       2.888  -1.202  22.275  1.00  0.00     0.154 C 
ENDBRANCH   1  28
TORSDOF 5
ENDMDL
