MODEL 1
REMARK VINA RESULT: -7.721623206      0.000      0.000
REMARK  4 active torsions:
REMARK  status: ('A' for Active; 'I' for Inactive)
REMARK    1  A    between atoms: C2_2  and  C3_3 
REMARK    2  A    between atoms: C6_6  and  N1_7 
REMARK       I    between atoms: N1_7  and  C7_8 
REMARK    3  A    between atoms: C7_8  and  C8_10 
REMARK    4  A    between atoms: C10_14  and  N3_15 
ROOT
HETATM    1  C8  UNL     1       0.846 -10.537  21.877  1.00  0.00     0.144 A 
HETATM    2  N2  UNL     1       0.505 -10.667  23.177  1.00  0.00    -0.345 N 
ATOM      3  H2  UNL     1       0.235  -9.801  23.645  1.00  0.00     0.166 HD
HETATM    4  C9  UNL     1       0.471 -11.743  23.925  1.00  0.00     0.094 A 
HETATM    5  C10 UNL     1       0.085 -11.557  25.271  1.00  0.00     0.132 A 
HETATM    6  N4  UNL     1       0.057 -12.652  26.053  1.00  0.00    -0.350 N 
ATOM      7  H4  UNL     1      -0.222 -12.512  27.024  1.00  0.00     0.166 HD
HETATM    8  C15 UNL     1       0.352 -13.886  25.696  1.00  0.00     0.091 A 
HETATM    9  C16 UNL     1       0.733 -14.084  24.378  1.00  0.00     0.038 A 
HETATM   10  C17 UNL     1       0.789 -13.016  23.508  1.00  0.00     0.038 A 
HETATM   11  S1  UNL     1       1.255 -13.108  21.879  1.00  0.00    -0.074 SA
HETATM   12  C18 UNL     1       1.228 -11.564  21.084  1.00  0.00     0.106 A 
HETATM   13  S2  UNL     1       1.605 -11.447  19.488  1.00  0.00    -0.070 SA
ENDROOT
BRANCH   1  14
HETATM   14  C7  UNL     1       0.744  -9.159  21.316  1.00  0.00     0.340 C 
HETATM   15  N1  UNL     1       0.092  -8.766  20.189  1.00  0.00    -0.404 NA
HETATM   16  O1  UNL     1       1.395  -8.327  22.057  1.00  0.00    -0.250 OA
BRANCH  15  17
HETATM   17  C6  UNL     1      -0.567  -8.368  19.049  1.00  0.00     0.167 C 
HETATM   18  C5  UNL     1      -1.071  -9.588  18.283  1.00  0.00     0.040 C 
HETATM   19  C4  UNL     1      -2.373  -9.295  17.596  1.00  0.00     0.007 C 
HETATM   20  C3  UNL     1      -2.226  -7.945  16.916  1.00  0.00    -0.015 C 
HETATM   21  C20 UNL     1      -2.305  -6.902  18.010  1.00  0.00     0.007 C 
HETATM   22  C19 UNL     1      -1.696  -7.396  19.314  1.00  0.00     0.040 C 
BRANCH  20  23
HETATM   23  C2  UNL     1      -3.390  -7.849  15.943  1.00  0.00     0.000 C 
HETATM   24  C1  UNL     1      -2.972  -7.732  14.516  1.00  0.00     0.005 C 
ENDBRANCH  20  23
ENDBRANCH  15  17
ENDBRANCH   1  14
BRANCH   5  25
HETATM   25  N3  UNL     1      -0.249 -10.268  25.743  1.00  0.00    -0.361 N 
HETATM   26  C11 UNL     1       0.734  -9.440  26.364  1.00  0.00     0.150 C 
HETATM   27  C12 UNL     1       0.824  -8.142  25.582  1.00  0.00     0.187 C 
HETATM   28  O2  UNL     1      -0.359  -7.850  24.936  1.00  0.00    -0.388 OA
HETATM   29  C13 UNL     1      -1.494  -8.246  25.624  1.00  0.00     0.187 C 
HETATM   30  C14 UNL     1      -1.587  -9.769  25.628  1.00  0.00     0.150 C 
ENDBRANCH   5  25
TORSDOF 4
ENDMDL
MODEL 2
REMARK VINA RESULT: -7.414475271      3.023      7.750
REMARK  4 active torsions:
REMARK  status: ('A' for Active; 'I' for Inactive)
REMARK    1  A    between atoms: C2_2  and  C3_3 
REMARK    2  A    between atoms: C6_6  and  N1_7 
REMARK       I    between atoms: N1_7  and  C7_8 
REMARK    3  A    between atoms: C7_8  and  C8_10 
REMARK    4  A    between atoms: C10_14  and  N3_15 
ROOT
HETATM    1  C8  UNL     1       0.797  -7.618  23.408  1.00  0.00     0.144 A 
HETATM    2  N2  UNL     1       0.526  -7.440  22.097  1.00  0.00    -0.345 N 
ATOM      3  H2  UNL     1      -0.077  -8.147  21.676  1.00  0.00     0.166 HD
HETATM    4  C9  UNL     1       0.924  -6.489  21.287  1.00  0.00     0.094 A 
HETATM    5  C10 UNL     1       0.484  -6.582  19.948  1.00  0.00     0.132 A 
HETATM    6  N4  UNL     1       0.896  -5.619  19.104  1.00  0.00    -0.350 N 
ATOM      7  H4  UNL     1       0.575  -5.691  18.138  1.00  0.00     0.166 HD
HETATM    8  C15 UNL     1       1.670  -4.592  19.393  1.00  0.00     0.091 A 
HETATM    9  C16 UNL     1       2.111  -4.488  20.703  1.00  0.00     0.038 A 
HETATM   10  C17 UNL     1       1.736  -5.433  21.634  1.00  0.00     0.038 A 
HETATM   11  S1  UNL     1       2.215  -5.441  23.262  1.00  0.00    -0.074 SA
HETATM   12  C18 UNL     1       1.571  -6.790  24.146  1.00  0.00     0.106 A 
HETATM   13  S2  UNL     1       1.883  -6.955  25.751  1.00  0.00    -0.070 SA
ENDROOT
BRANCH   1  14
HETATM   14  C7  UNL     1       0.149  -8.801  24.047  1.00  0.00     0.340 C 
HETATM   15  N1  UNL     1       0.480 -10.111  23.897  1.00  0.00    -0.404 NA
HETATM   16  O1  UNL     1      -0.831  -8.421  24.796  1.00  0.00    -0.250 OA
BRANCH  15  17
HETATM   17  C6  UNL     1       0.813 -11.437  23.746  1.00  0.00     0.167 C 
HETATM   18  C5  UNL     1      -0.093 -12.306  24.615  1.00  0.00     0.040 C 
HETATM   19  C4  UNL     1      -0.369 -13.626  23.956  1.00  0.00     0.007 C 
HETATM   20  C3  UNL     1       0.956 -14.150  23.431  1.00  0.00    -0.015 C 
HETATM   21  C20 UNL     1       1.279 -13.341  22.194  1.00  0.00     0.007 C 
HETATM   22  C19 UNL     1       0.787 -11.905  22.307  1.00  0.00     0.040 C 
BRANCH  20  23
HETATM   23  C2  UNL     1       0.718 -15.618  23.114  1.00  0.00     0.000 C 
HETATM   24  C1  UNL     1       0.630 -16.487  24.323  1.00  0.00     0.005 C 
ENDBRANCH  20  23
ENDBRANCH  15  17
ENDBRANCH   1  14
BRANCH   5  25
HETATM   25  N3  UNL     1      -0.349  -7.650  19.547  1.00  0.00    -0.361 N 
HETATM   26  C11 UNL     1      -1.758  -7.466  19.407  1.00  0.00     0.150 C 
HETATM   27  C12 UNL     1      -2.144  -7.823  17.983  1.00  0.00     0.187 C 
HETATM   28  O2  UNL     1      -1.268  -8.733  17.427  1.00  0.00    -0.388 OA
HETATM   29  C13 UNL     1      -0.756  -9.651  18.330  1.00  0.00     0.187 C 
HETATM   30  C14 UNL     1       0.199  -8.949  19.291  1.00  0.00     0.150 C 
ENDBRANCH   5  25
TORSDOF 4
ENDMDL
MODEL 3
REMARK VINA RESULT: -7.409972204      3.739      5.575
REMARK  4 active torsions:
REMARK  status: ('A' for Active; 'I' for Inactive)
REMARK    1  A    between atoms: C2_2  and  C3_3 
REMARK    2  A    between atoms: C6_6  and  N1_7 
REMARK       I    between atoms: N1_7  and  C7_8 
REMARK    3  A    between atoms: C7_8  and  C8_10 
REMARK    4  A    between atoms: C10_14  and  N3_15 
ROOT
HETATM    1  C8  UNL     1       1.103 -12.582  21.980  1.00  0.00     0.144 A 
HETATM    2  N2  UNL     1       1.429 -13.870  21.745  1.00  0.00    -0.345 N 
ATOM      3  H2  UNL     1       1.824 -14.059  20.822  1.00  0.00     0.166 HD
HETATM    4  C9  UNL     1       1.313 -14.915  22.528  1.00  0.00     0.094 A 
HETATM    5  C10 UNL     1       1.730 -16.152  21.988  1.00  0.00     0.132 A 
HETATM    6  N4  UNL     1       1.605 -17.234  22.778  1.00  0.00    -0.350 N 
ATOM      7  H4  UNL     1       1.907 -18.125  22.382  1.00  0.00     0.166 HD
HETATM    8  C15 UNL     1       1.132 -17.265  24.008  1.00  0.00     0.091 A 
HETATM    9  C16 UNL     1       0.719 -16.058  24.551  1.00  0.00     0.038 A 
HETATM   10  C17 UNL     1       0.812 -14.900  23.810  1.00  0.00     0.038 A 
HETATM   11  S1  UNL     1       0.327 -13.362  24.339  1.00  0.00    -0.074 SA
HETATM   12  C18 UNL     1       0.572 -12.130  23.140  1.00  0.00     0.106 A 
HETATM   13  S2  UNL     1       0.205 -10.564  23.473  1.00  0.00    -0.070 SA
ENDROOT
BRANCH   1  14
HETATM   14  C7  UNL     1       1.398 -11.627  20.873  1.00  0.00     0.340 C 
HETATM   15  N1  UNL     1       0.518 -11.067  20.001  1.00  0.00    -0.404 NA
HETATM   16  O1  UNL     1       2.665 -11.382  20.823  1.00  0.00    -0.250 OA
BRANCH  15  17
HETATM   17  C6  UNL     1      -0.371 -10.502  19.117  1.00  0.00     0.167 C 
HETATM   18  C5  UNL     1      -0.761  -9.104  19.590  1.00  0.00     0.040 C 
HETATM   19  C4  UNL     1      -0.997  -8.186  18.426  1.00  0.00     0.007 C 
HETATM   20  C3  UNL     1      -1.850  -8.943  17.424  1.00  0.00    -0.015 C 
HETATM   21  C20 UNL     1      -0.934  -9.939  16.747  1.00  0.00     0.007 C 
HETATM   22  C19 UNL     1       0.137 -10.463  17.692  1.00  0.00     0.040 C 
BRANCH  20  23
HETATM   23  C2  UNL     1      -2.374  -7.893  16.458  1.00  0.00     0.000 C 
HETATM   24  C1  UNL     1      -2.867  -8.457  15.168  1.00  0.00     0.005 C 
ENDBRANCH  20  23
ENDBRANCH  15  17
ENDBRANCH   1  14
BRANCH   5  25
HETATM   25  N3  UNL     1       2.249 -16.215  20.676  1.00  0.00    -0.361 N 
HETATM   26  C11 UNL     1       3.320 -15.364  20.271  1.00  0.00     0.150 C 
HETATM   27  C12 UNL     1       4.468 -16.238  19.796  1.00  0.00     0.187 C 
HETATM   28  O2  UNL     1       4.023 -17.455  19.324  1.00  0.00    -0.388 OA
HETATM   29  C13 UNL     1       2.793 -17.402  18.689  1.00  0.00     0.187 C 
HETATM   30  C14 UNL     1       1.697 -17.122  19.713  1.00  0.00     0.150 C 
ENDBRANCH   5  25
TORSDOF 4
ENDMDL
MODEL 4
REMARK VINA RESULT: -7.394122561      2.330      3.726
REMARK  4 active torsions:
REMARK  status: ('A' for Active; 'I' for Inactive)
REMARK    1  A    between atoms: C2_2  and  C3_3 
REMARK    2  A    between atoms: C6_6  and  N1_7 
REMARK       I    between atoms: N1_7  and  C7_8 
REMARK    3  A    between atoms: C7_8  and  C8_10 
REMARK    4  A    between atoms: C10_14  and  N3_15 
ROOT
HETATM    1  C8  UNL     1       0.777  -9.527  21.824  1.00  0.00     0.144 A 
HETATM    2  N2  UNL     1       0.790 -10.540  22.716  1.00  0.00    -0.345 N 
ATOM      3  H2  UNL     1       0.759 -11.477  22.313  1.00  0.00     0.166 HD
HETATM    4  C9  UNL     1       0.837 -10.495  24.026  1.00  0.00     0.094 A 
HETATM    5  C10 UNL     1       0.820 -11.738  24.696  1.00  0.00     0.132 A 
HETATM    6  N4  UNL     1       0.855 -11.705  26.040  1.00  0.00    -0.350 N 
ATOM      7  H4  UNL     1       0.842 -12.606  26.519  1.00  0.00     0.166 HD
HETATM    8  C15 UNL     1       0.904 -10.631  26.804  1.00  0.00     0.091 A 
HETATM    9  C16 UNL     1       0.920  -9.404  26.160  1.00  0.00     0.038 A 
HETATM   10  C17 UNL     1       0.886  -9.347  24.783  1.00  0.00     0.038 A 
HETATM   11  S1  UNL     1       0.882  -7.918  23.867  1.00  0.00    -0.074 SA
HETATM   12  C18 UNL     1       0.817  -8.217  22.157  1.00  0.00     0.106 A 
HETATM   13  S2  UNL     1       0.847  -6.963  21.095  1.00  0.00    -0.070 SA
ENDROOT
BRANCH   1  14
HETATM   14  C7  UNL     1       0.754  -9.931  20.387  1.00  0.00     0.340 C 
HETATM   15  N1  UNL     1      -0.219  -9.683  19.470  1.00  0.00    -0.404 NA
HETATM   16  O1  UNL     1       1.822 -10.594  20.094  1.00  0.00    -0.250 OA
BRANCH  15  17
HETATM   17  C6  UNL     1      -1.203  -9.434  18.542  1.00  0.00     0.167 C 
HETATM   18  C5  UNL     1      -1.831  -8.067  18.800  1.00  0.00     0.040 C 
HETATM   19  C4  UNL     1      -2.237  -7.408  17.514  1.00  0.00     0.007 C 
HETATM   20  C3  UNL     1      -2.951  -8.457  16.679  1.00  0.00    -0.015 C 
HETATM   21  C20 UNL     1      -1.878  -9.376  16.136  1.00  0.00     0.007 C 
HETATM   22  C19 UNL     1      -0.722  -9.543  17.111  1.00  0.00     0.040 C 
BRANCH  20  23
HETATM   23  C2  UNL     1      -3.663  -7.688  15.578  1.00  0.00     0.000 C 
HETATM   24  C1  UNL     1      -2.930  -7.684  14.278  1.00  0.00     0.005 C 
ENDBRANCH  20  23
ENDBRANCH  15  17
ENDBRANCH   1  14
BRANCH   5  25
HETATM   25  N3  UNL     1       0.767 -12.942  23.959  1.00  0.00    -0.361 N 
HETATM   26  C11 UNL     1       1.905 -13.404  23.230  1.00  0.00     0.150 C 
HETATM   27  C12 UNL     1       2.263 -14.789  23.739  1.00  0.00     0.187 C 
HETATM   28  O2  UNL     1       1.165 -15.445  24.256  1.00  0.00    -0.388 OA
HETATM   29  C13 UNL     1      -0.025 -15.156  23.608  1.00  0.00     0.187 C 
HETATM   30  C14 UNL     1      -0.437 -13.717  23.907  1.00  0.00     0.150 C 
ENDBRANCH   5  25
TORSDOF 4
ENDMDL
MODEL 5
REMARK VINA RESULT: -7.379341640      0.646      1.131
REMARK  4 active torsions:
REMARK  status: ('A' for Active; 'I' for Inactive)
REMARK    1  A    between atoms: C2_2  and  C3_3 
REMARK    2  A    between atoms: C6_6  and  N1_7 
REMARK       I    between atoms: N1_7  and  C7_8 
REMARK    3  A    between atoms: C7_8  and  C8_10 
REMARK    4  A    between atoms: C10_14  and  N3_15 
ROOT
HETATM    1  C8  UNL     1       0.999 -10.739  21.806  1.00  0.00     0.144 A 
HETATM    2  N2  UNL     1       0.739 -10.766  23.131  1.00  0.00    -0.345 N 
ATOM      3  H2  UNL     1       0.379  -9.895  23.522  1.00  0.00     0.166 HD
HETATM    4  C9  UNL     1       0.882 -11.748  23.987  1.00  0.00     0.094 A 
HETATM    5  C10 UNL     1       0.538 -11.465  25.328  1.00  0.00     0.132 A 
HETATM    6  N4  UNL     1       0.692 -12.461  26.219  1.00  0.00    -0.350 N 
ATOM      7  H4  UNL     1       0.443 -12.251  27.185  1.00  0.00     0.166 HD
HETATM    8  C15 UNL     1       1.132 -13.680  25.975  1.00  0.00     0.091 A 
HETATM    9  C16 UNL     1       1.474 -13.972  24.664  1.00  0.00     0.038 A 
HETATM   10  C17 UNL     1       1.347 -13.009  23.686  1.00  0.00     0.038 A 
HETATM   11  S1  UNL     1       1.745 -13.221  22.050  1.00  0.00    -0.074 SA
HETATM   12  C18 UNL     1       1.477 -11.791  21.102  1.00  0.00     0.106 A 
HETATM   13  S2  UNL     1       1.761 -11.804  19.483  1.00  0.00    -0.070 SA
ENDROOT
BRANCH   1  14
HETATM   14  C7  UNL     1       0.690  -9.456  21.112  1.00  0.00     0.340 C 
HETATM   15  N1  UNL     1      -0.211  -9.246  20.114  1.00  0.00    -0.404 NA
HETATM   16  O1  UNL     1       1.426  -8.506  21.583  1.00  0.00    -0.250 OA
BRANCH  15  17
HETATM   17  C6  UNL     1      -1.120  -9.033  19.105  1.00  0.00     0.167 C 
HETATM   18  C5  UNL     1      -1.665  -7.610  19.183  1.00  0.00     0.040 C 
HETATM   19  C4  UNL     1      -1.950  -7.064  17.814  1.00  0.00     0.007 C 
HETATM   20  C3  UNL     1      -2.687  -8.146  17.046  1.00  0.00    -0.015 C 
HETATM   21  C20 UNL     1      -1.652  -9.184  16.667  1.00  0.00     0.007 C 
HETATM   22  C19 UNL     1      -0.568  -9.321  17.725  1.00  0.00     0.040 C 
BRANCH  20  23
HETATM   23  C2  UNL     1      -3.279  -7.452  15.830  1.00  0.00     0.000 C 
HETATM   24  C1  UNL     1      -3.086  -5.973  15.830  1.00  0.00     0.005 C 
ENDBRANCH  20  23
ENDBRANCH  15  17
ENDBRANCH   1  14
BRANCH   5  25
HETATM   25  N3  UNL     1       0.059 -10.185  25.682  1.00  0.00    -0.361 N 
HETATM   26  C11 UNL     1       0.948  -9.181  26.174  1.00  0.00     0.150 C 
HETATM   27  C12 UNL     1       0.848  -7.971  25.262  1.00  0.00     0.187 C 
HETATM   28  O2  UNL     1      -0.382  -7.896  24.643  1.00  0.00    -0.388 OA
HETATM   29  C13 UNL     1      -1.435  -8.355  25.417  1.00  0.00     0.187 C 
HETATM   30  C14 UNL     1      -1.335  -9.869  25.577  1.00  0.00     0.150 C 
ENDBRANCH   5  25
TORSDOF 4
ENDMDL
