MODEL 1
REMARK VINA RESULT: -7.613123219      0.000      0.000
REMARK  7 active torsions:
REMARK  status: ('A' for Active; 'I' for Inactive)
REMARK    1  A    between atoms: C2_2  and  O2_4 
REMARK    2  A    between atoms: O2_4  and  C3_5 
REMARK    3  A    between atoms: C3_5  and  C4_6 
REMARK    4  A    between atoms: C9_11  and  O3_12 
REMARK    5  A    between atoms: C18_24  and  O6_25 
REMARK    6  A    between atoms: O6_25  and  C19_26 
REMARK    7  A    between atoms: C19_26  and  C20_28 
ROOT
HETATM    1  C4  UNL     1       2.458  -7.222  25.272  1.00  0.00     0.044 C 
HETATM    2  C5  UNL     1       3.856  -6.810  25.857  1.00  0.00     0.026 C 
HETATM    3  C6  UNL     1       1.862  -5.913  24.713  1.00  0.00     0.024 C 
HETATM    4  C7  UNL     1       2.567  -5.478  23.452  1.00  0.00     0.046 C 
HETATM    5  C8  UNL     1       1.847  -6.151  22.328  1.00  0.00     0.014 A 
HETATM    6  C9  UNL     1       1.135  -5.600  21.316  1.00  0.00     0.190 A 
HETATM    7  O4  UNL     1       0.633  -6.579  20.557  1.00  0.00    -0.288 OA
HETATM    8  C10 UNL     1       0.991  -7.760  21.035  1.00  0.00     0.097 A 
HETATM    9  C11 UNL     1       1.744  -7.532  22.131  1.00  0.00     0.018 A 
HETATM   10  C12 UNL     1       2.338  -8.622  22.916  1.00  0.00     0.010 C 
HETATM   11  C13 UNL     1       2.704  -8.249  24.306  1.00  0.00     0.167 C 
HETATM   12  O5  UNL     1       3.485  -9.127  24.753  1.00  0.00    -0.292 OA
HETATM   13  C14 UNL     1       1.644  -9.906  22.704  1.00  0.00    -0.013 C 
HETATM   14  C15 UNL     1       0.319 -10.088  23.324  1.00  0.00     0.020 C 
HETATM   15  C16 UNL     1       2.609 -11.021  23.148  1.00  0.00     0.020 C 
HETATM   16  C17 UNL     1       1.597 -10.120  21.169  1.00  0.00     0.053 C 
HETATM   17  C18 UNL     1       0.695  -9.129  20.566  1.00  0.00     0.191 C 
ENDROOT
BRANCH  17  18
HETATM   18  O6  UNL     1       0.586  -9.199  19.163  1.00  0.00    -0.306 OA
BRANCH  18  19
HETATM   19  C19 UNL     1      -0.510  -9.667  18.474  1.00  0.00     0.283 C 
HETATM   20  O7  UNL     1      -0.846 -10.848  18.826  1.00  0.00    -0.260 OA
BRANCH  19  21
HETATM   21  C20 UNL     1      -1.252  -8.974  17.457  1.00  0.00     0.084 C 
HETATM   22  C21 UNL     1      -2.061  -7.981  17.653  1.00  0.00    -0.082 C 
HETATM   23  C22 UNL     1      -2.276  -7.474  19.041  1.00  0.00     0.043 C 
HETATM   24  C23 UNL     1      -2.769  -7.354  16.495  1.00  0.00     0.043 C 
ENDBRANCH  19  21
ENDBRANCH  18  19
ENDBRANCH  17  18
BRANCH   6  25
HETATM   25  O3  UNL     1       0.967  -4.231  21.117  1.00  0.00    -0.340 OA
ATOM     26  H3  UNL     1       1.613  -3.569  21.339  1.00  0.00     0.220 HD
ENDBRANCH   6  25
BRANCH   1  27
HETATM   27  C3  UNL     1       1.628  -7.523  26.469  1.00  0.00     0.196 C 
BRANCH  27  28
HETATM   28  O2  UNL     1       0.815  -8.574  26.598  1.00  0.00    -0.321 OA
BRANCH  28  29
HETATM   29  C2  UNL     1      -0.487  -8.835  26.755  1.00  0.00     0.254 C 
HETATM   30  C1  UNL     1      -1.455  -8.144  25.839  1.00  0.00     0.126 C 
HETATM   31  O1  UNL     1      -0.942  -9.608  27.605  1.00  0.00    -0.266 OA
ENDBRANCH  28  29
ENDBRANCH  27  28
ENDBRANCH   1  27
TORSDOF 7
ENDMDL
MODEL 2
REMARK VINA RESULT: -7.392944518      1.952      2.496
REMARK  7 active torsions:
REMARK  status: ('A' for Active; 'I' for Inactive)
REMARK    1  A    between atoms: C2_2  and  O2_4 
REMARK    2  A    between atoms: O2_4  and  C3_5 
REMARK    3  A    between atoms: C3_5  and  C4_6 
REMARK    4  A    between atoms: C9_11  and  O3_12 
REMARK    5  A    between atoms: C18_24  and  O6_25 
REMARK    6  A    between atoms: O6_25  and  C19_26 
REMARK    7  A    between atoms: C19_26  and  C20_28 
ROOT
HETATM    1  C4  UNL     1       2.321  -9.597  23.729  1.00  0.00     0.044 C 
HETATM    2  C5  UNL     1       3.687  -9.214  24.401  1.00  0.00     0.026 C 
HETATM    3  C6  UNL     1       1.567  -8.261  23.574  1.00  0.00     0.024 C 
HETATM    4  C7  UNL     1       2.173  -7.406  22.488  1.00  0.00     0.046 C 
HETATM    5  C8  UNL     1       1.488  -7.807  21.222  1.00  0.00     0.014 A 
HETATM    6  C9  UNL     1       0.683  -7.075  20.415  1.00  0.00     0.190 A 
HETATM    7  O4  UNL     1       0.260  -7.847  19.408  1.00  0.00    -0.288 OA
HETATM    8  C10 UNL     1       0.761  -9.066  19.525  1.00  0.00     0.097 A 
HETATM    9  C11 UNL     1       1.526  -9.077  20.635  1.00  0.00     0.018 A 
HETATM   10  C12 UNL     1       2.263 -10.271  21.070  1.00  0.00     0.010 C 
HETATM   11  C13 UNL     1       2.639 -10.272  22.507  1.00  0.00     0.167 C 
HETATM   12  O5  UNL     1       3.526 -11.146  22.678  1.00  0.00    -0.292 OA
HETATM   13  C14 UNL     1       1.703 -11.511  20.502  1.00  0.00    -0.013 C 
HETATM   14  C15 UNL     1       0.429 -12.012  21.050  1.00  0.00     0.020 C 
HETATM   15  C16 UNL     1       2.797 -12.589  20.600  1.00  0.00     0.020 C 
HETATM   16  C17 UNL     1       1.620 -11.282  18.970  1.00  0.00     0.053 C 
HETATM   17  C18 UNL     1       0.595 -10.269  18.683  1.00  0.00     0.191 C 
ENDROOT
BRANCH  17  18
HETATM   18  O6  UNL     1       0.442  -9.947  17.320  1.00  0.00    -0.306 OA
BRANCH  18  19
HETATM   19  C19 UNL     1      -0.743 -10.000  16.620  1.00  0.00     0.283 C 
HETATM   20  O7  UNL     1      -1.151 -11.196  16.432  1.00  0.00    -0.260 OA
BRANCH  19  21
HETATM   21  C20 UNL     1      -1.502  -8.887  16.120  1.00  0.00     0.084 C 
HETATM   22  C21 UNL     1      -2.406  -8.231  16.775  1.00  0.00    -0.082 C 
HETATM   23  C22 UNL     1      -2.727  -8.626  18.178  1.00  0.00     0.043 C 
HETATM   24  C23 UNL     1      -3.119  -7.088  16.125  1.00  0.00     0.043 C 
ENDBRANCH  19  21
ENDBRANCH  18  19
ENDBRANCH  17  18
BRANCH   6  25
HETATM   25  O3  UNL     1       0.362  -5.734  20.620  1.00  0.00    -0.340 OA
ATOM     26  H3  UNL     1       0.207  -5.103  19.926  1.00  0.00     0.220 HD
ENDBRANCH   6  25
BRANCH   1  27
HETATM   27  C3  UNL     1       1.574 -10.320  24.793  1.00  0.00     0.196 C 
BRANCH  27  28
HETATM   28  O2  UNL     1       0.760 -11.359  24.593  1.00  0.00    -0.321 OA
BRANCH  28  29
HETATM   29  C2  UNL     1      -0.498 -11.727  24.857  1.00  0.00     0.254 C 
HETATM   30  C1  UNL     1      -1.431 -10.686  25.406  1.00  0.00     0.126 C 
HETATM   31  O1  UNL     1      -0.940 -12.866  24.678  1.00  0.00    -0.266 OA
ENDBRANCH  28  29
ENDBRANCH  27  28
ENDBRANCH   1  27
TORSDOF 7
ENDMDL
MODEL 3
REMARK VINA RESULT: -7.139220190      2.209      5.738
REMARK  7 active torsions:
REMARK  status: ('A' for Active; 'I' for Inactive)
REMARK    1  A    between atoms: C2_2  and  O2_4 
REMARK    2  A    between atoms: O2_4  and  C3_5 
REMARK    3  A    between atoms: C3_5  and  C4_6 
REMARK    4  A    between atoms: C9_11  and  O3_12 
REMARK    5  A    between atoms: C18_24  and  O6_25 
REMARK    6  A    between atoms: O6_25  and  C19_26 
REMARK    7  A    between atoms: C19_26  and  C20_28 
ROOT
HETATM    1  C4  UNL     1       1.302 -11.913  22.893  1.00  0.00     0.044 C 
HETATM    2  C5  UNL     1       0.173 -12.988  23.077  1.00  0.00     0.026 C 
HETATM    3  C6  UNL     1       1.555 -11.860  21.372  1.00  0.00     0.024 C 
HETATM    4  C7  UNL     1       0.417 -11.185  20.645  1.00  0.00     0.046 C 
HETATM    5  C8  UNL     1       0.746  -9.728  20.634  1.00  0.00     0.014 A 
HETATM    6  C9  UNL     1       1.008  -8.917  19.581  1.00  0.00     0.190 A 
HETATM    7  O4  UNL     1       1.289  -7.691  20.037  1.00  0.00    -0.288 OA
HETATM    8  C10 UNL     1       1.219  -7.667  21.358  1.00  0.00     0.097 A 
HETATM    9  C11 UNL     1       0.885  -8.910  21.761  1.00  0.00     0.018 A 
HETATM   10  C12 UNL     1       0.697  -9.252  23.177  1.00  0.00     0.010 C 
HETATM   11  C13 UNL     1       0.817 -10.701  23.480  1.00  0.00     0.167 C 
HETATM   12  O5  UNL     1       0.318 -10.905  24.616  1.00  0.00    -0.292 OA
HETATM   13  C14 UNL     1       1.375  -8.300  24.076  1.00  0.00    -0.013 C 
HETATM   14  C15 UNL     1       2.844  -8.370  24.183  1.00  0.00     0.020 C 
HETATM   15  C16 UNL     1       0.723  -8.446  25.464  1.00  0.00     0.020 C 
HETATM   16  C17 UNL     1       0.895  -6.889  23.648  1.00  0.00     0.053 C 
HETATM   17  C18 UNL     1       1.442  -6.570  22.322  1.00  0.00     0.191 C 
ENDROOT
BRANCH  17  18
HETATM   18  O6  UNL     1       1.054  -5.319  21.803  1.00  0.00    -0.306 OA
BRANCH  18  19
HETATM   19  C19 UNL     1       1.682  -4.121  22.064  1.00  0.00     0.283 C 
HETATM   20  O7  UNL     1       0.866  -3.201  22.406  1.00  0.00    -0.260 OA
BRANCH  19  21
HETATM   21  C20 UNL     1       3.092  -3.850  21.985  1.00  0.00     0.084 C 
HETATM   22  C21 UNL     1       3.751  -3.576  20.904  1.00  0.00    -0.082 C 
HETATM   23  C22 UNL     1       3.030  -3.526  19.598  1.00  0.00     0.043 C 
HETATM   24  C23 UNL     1       5.222  -3.314  20.972  1.00  0.00     0.043 C 
ENDBRANCH  19  21
ENDBRANCH  18  19
ENDBRANCH  17  18
BRANCH   6  25
HETATM   25  O3  UNL     1       0.983  -9.317  18.246  1.00  0.00    -0.340 OA
ATOM     26  H3  UNL     1       0.468 -10.042  17.909  1.00  0.00     0.220 HD
ENDBRANCH   6  25
BRANCH   1  27
HETATM   27  C3  UNL     1       2.523 -12.558  23.446  1.00  0.00     0.196 C 
BRANCH  27  28
HETATM   28  O2  UNL     1       3.613 -11.912  23.868  1.00  0.00    -0.321 OA
BRANCH  28  29
HETATM   29  C2  UNL     1       4.841 -11.606  23.437  1.00  0.00     0.254 C 
HETATM   30  C1  UNL     1       4.959 -10.716  22.233  1.00  0.00     0.126 C 
HETATM   31  O1  UNL     1       5.882 -12.009  23.965  1.00  0.00    -0.266 OA
ENDBRANCH  28  29
ENDBRANCH  27  28
ENDBRANCH   1  27
TORSDOF 7
ENDMDL
MODEL 4
REMARK VINA RESULT: -7.095012122      3.284      5.307
REMARK  7 active torsions:
REMARK  status: ('A' for Active; 'I' for Inactive)
REMARK    1  A    between atoms: C2_2  and  O2_4 
REMARK    2  A    between atoms: O2_4  and  C3_5 
REMARK    3  A    between atoms: C3_5  and  C4_6 
REMARK    4  A    between atoms: C9_11  and  O3_12 
REMARK    5  A    between atoms: C18_24  and  O6_25 
REMARK    6  A    between atoms: O6_25  and  C19_26 
REMARK    7  A    between atoms: C19_26  and  C20_28 
ROOT
HETATM    1  C4  UNL     1       4.325  -2.220  24.067  1.00  0.00     0.044 C 
HETATM    2  C5  UNL     1       5.808  -2.218  24.581  1.00  0.00     0.026 C 
HETATM    3  C6  UNL     1       4.352  -1.380  22.774  1.00  0.00     0.024 C 
HETATM    4  C7  UNL     1       5.030  -2.120  21.647  1.00  0.00     0.046 C 
HETATM    5  C8  UNL     1       3.956  -2.912  20.974  1.00  0.00     0.014 A 
HETATM    6  C9  UNL     1       3.475  -2.802  19.712  1.00  0.00     0.190 A 
HETATM    7  O4  UNL     1       2.490  -3.690  19.545  1.00  0.00    -0.288 OA
HETATM    8  C10 UNL     1       2.305  -4.384  20.656  1.00  0.00     0.097 A 
HETATM    9  C11 UNL     1       3.196  -3.928  21.561  1.00  0.00     0.018 A 
HETATM   10  C12 UNL     1       3.295  -4.488  22.916  1.00  0.00     0.010 C 
HETATM   11  C13 UNL     1       3.948  -3.592  23.904  1.00  0.00     0.167 C 
HETATM   12  O5  UNL     1       4.271  -4.283  24.903  1.00  0.00    -0.292 OA
HETATM   13  C14 UNL     1       2.061  -5.184  23.324  1.00  0.00    -0.013 C 
HETATM   14  C15 UNL     1       0.885  -4.366  23.673  1.00  0.00     0.020 C 
HETATM   15  C16 UNL     1       2.433  -6.121  24.488  1.00  0.00     0.020 C 
HETATM   16  C17 UNL     1       1.744  -6.195  22.192  1.00  0.00     0.053 C 
HETATM   17  C18 UNL     1       1.350  -5.463  20.981  1.00  0.00     0.191 C 
ENDROOT
BRANCH  17  18
HETATM   18  O6  UNL     1       1.062  -6.272  19.864  1.00  0.00    -0.306 OA
BRANCH  18  19
HETATM   19  C19 UNL     1       0.102  -7.258  19.823  1.00  0.00     0.283 C 
HETATM   20  O7  UNL     1      -0.933  -6.912  19.159  1.00  0.00    -0.260 OA
BRANCH  19  21
HETATM   21  C20 UNL     1       0.174  -8.559  20.431  1.00  0.00     0.084 C 
HETATM   22  C21 UNL     1       0.709  -9.613  19.904  1.00  0.00    -0.082 C 
HETATM   23  C22 UNL     1       1.319  -9.524  18.544  1.00  0.00     0.043 C 
HETATM   24  C23 UNL     1       0.711 -10.906  20.655  1.00  0.00     0.043 C 
ENDBRANCH  19  21
ENDBRANCH  18  19
ENDBRANCH  17  18
BRANCH   6  25
HETATM   25  O3  UNL     1       3.948  -1.902  18.758  1.00  0.00    -0.340 OA
ATOM     26  H3  UNL     1       4.838  -1.883  18.427  1.00  0.00     0.220 HD
ENDBRANCH   6  25
BRANCH   1  27
HETATM   27  C3  UNL     1       3.592  -1.370  25.044  1.00  0.00     0.196 C 
BRANCH  27  28
HETATM   28  O2  UNL     1       2.264  -1.293  25.155  1.00  0.00    -0.321 OA
BRANCH  28  29
HETATM   29  C2  UNL     1       1.228  -0.700  24.553  1.00  0.00     0.254 C 
HETATM   30  C1  UNL     1       0.435   0.298  25.348  1.00  0.00     0.126 C 
HETATM   31  O1  UNL     1       0.884  -0.919  23.388  1.00  0.00    -0.266 OA
ENDBRANCH  28  29
ENDBRANCH  27  28
ENDBRANCH   1  27
TORSDOF 7
ENDMDL
MODEL 5
REMARK VINA RESULT: -7.089876805      2.335      3.285
REMARK  7 active torsions:
REMARK  status: ('A' for Active; 'I' for Inactive)
REMARK    1  A    between atoms: C2_2  and  O2_4 
REMARK    2  A    between atoms: O2_4  and  C3_5 
REMARK    3  A    between atoms: C3_5  and  C4_6 
REMARK    4  A    between atoms: C9_11  and  O3_12 
REMARK    5  A    between atoms: C18_24  and  O6_25 
REMARK    6  A    between atoms: O6_25  and  C19_26 
REMARK    7  A    between atoms: C19_26  and  C20_28 
ROOT
HETATM    1  C4  UNL     1       3.043 -10.968  23.417  1.00  0.00     0.044 C 
HETATM    2  C5  UNL     1       4.580 -11.032  23.729  1.00  0.00     0.026 C 
HETATM    3  C6  UNL     1       2.520  -9.778  24.248  1.00  0.00     0.024 C 
HETATM    4  C7  UNL     1       2.970  -8.459  23.669  1.00  0.00     0.046 C 
HETATM    5  C8  UNL     1       1.927  -8.072  22.672  1.00  0.00     0.014 A 
HETATM    6  C9  UNL     1       1.084  -7.012  22.681  1.00  0.00     0.190 A 
HETATM    7  O4  UNL     1       0.291  -7.078  21.606  1.00  0.00    -0.288 OA
HETATM    8  C10 UNL     1       0.584  -8.149  20.886  1.00  0.00     0.097 A 
HETATM    9  C11 UNL     1       1.592  -8.787  21.516  1.00  0.00     0.018 A 
HETATM   10  C12 UNL     1       2.195 -10.018  20.987  1.00  0.00     0.010 C 
HETATM   11  C13 UNL     1       2.917 -10.832  21.997  1.00  0.00     0.167 C 
HETATM   12  O5  UNL     1       3.652 -11.650  21.387  1.00  0.00    -0.292 OA
HETATM   13  C14 UNL     1       1.301 -10.717  20.046  1.00  0.00    -0.013 C 
HETATM   14  C15 UNL     1       0.141 -11.441  20.598  1.00  0.00     0.020 C 
HETATM   15  C16 UNL     1       2.179 -11.663  19.205  1.00  0.00     0.020 C 
HETATM   16  C17 UNL     1       0.874  -9.661  18.993  1.00  0.00     0.053 C 
HETATM   17  C18 UNL     1       0.003  -8.664  19.630  1.00  0.00     0.191 C 
ENDROOT
BRANCH  17  18
HETATM   18  O6  UNL     1      -0.432  -7.627  18.781  1.00  0.00    -0.306 OA
BRANCH  18  19
HETATM   19  C19 UNL     1      -1.746  -7.358  18.465  1.00  0.00     0.283 C 
HETATM   20  O7  UNL     1      -2.486  -7.236  19.499  1.00  0.00    -0.260 OA
BRANCH  19  21
HETATM   21  C20 UNL     1      -2.306  -7.215  17.149  1.00  0.00     0.084 C 
HETATM   22  C21 UNL     1      -2.417  -8.157  16.267  1.00  0.00    -0.082 C 
HETATM   23  C22 UNL     1      -1.934  -9.530  16.596  1.00  0.00     0.043 C 
HETATM   24  C23 UNL     1      -3.023  -7.862  14.932  1.00  0.00     0.043 C 
ENDBRANCH  19  21
ENDBRANCH  18  19
ENDBRANCH  17  18
BRANCH   6  25
HETATM   25  O3  UNL     1       1.065  -6.022  23.662  1.00  0.00    -0.340 OA
ATOM     26  H3  UNL     1       0.534  -5.235  23.626  1.00  0.00     0.220 HD
ENDBRANCH   6  25
BRANCH   1  27
HETATM   27  C3  UNL     1       2.476 -12.166  24.092  1.00  0.00     0.196 C 
BRANCH  27  28
HETATM   28  O2  UNL     1       1.300 -12.728  23.804  1.00  0.00    -0.321 OA
BRANCH  28  29
HETATM   29  C2  UNL     1       0.021 -12.659  24.189  1.00  0.00     0.254 C 
HETATM   30  C1  UNL     1      -0.466 -11.361  24.769  1.00  0.00     0.126 C 
HETATM   31  O1  UNL     1      -0.783 -13.592  24.097  1.00  0.00    -0.266 OA
ENDBRANCH  28  29
ENDBRANCH  27  28
ENDBRANCH   1  27
TORSDOF 7
ENDMDL
