MODEL 1
REMARK VINA RESULT: -8.359512667      0.000      0.000
REMARK  5 active torsions:
REMARK  status: ('A' for Active; 'I' for Inactive)
REMARK    1  A    between atoms: C8_9  and  N1_10 
REMARK       I    between atoms: N1_10  and  C9_12 
REMARK    2  A    between atoms: C9_12  and  C10_14 
REMARK    3  A    between atoms: C10_14  and  N2_15 
REMARK       I    between atoms: N2_15  and  C11_17 
REMARK       I    between atoms: C11_17  and  N3_19 
REMARK    4  A    between atoms: N3_19  and  C12_21 
REMARK    5  A    between atoms: C16_25  and  N4_26 
ROOT
HETATM    1  C10 UNL     1      20.207  12.400   5.090  1.00  0.00     0.115 A 
HETATM    2  C17 UNL     1      21.295  12.836   6.165  1.00  0.00     0.044 A 
HETATM    3  C18 UNL     1      19.961  13.467   6.110  1.00  0.00     0.044 A 
ENDROOT
BRANCH   1   4
HETATM    4  C9  UNL     1      19.713  11.034   5.366  1.00  0.00     0.246 C 
HETATM    5  N1  UNL     1      18.845  10.648   6.368  1.00  0.00    -0.352 N 
ATOM      6  H1  UNL     1      18.522  11.419   6.953  1.00  0.00     0.163 HD
HETATM    7  O1  UNL     1      20.179  10.170   4.538  1.00  0.00    -0.271 OA
BRANCH   5   8
HETATM    8  C8  UNL     1      18.316   9.389   6.738  1.00  0.00     0.112 C 
HETATM    9  C2  UNL     1      18.932   8.587   7.808  1.00  0.00     0.058 C 
HETATM   10  C1  UNL     1      19.741   9.219   8.863  1.00  0.00     0.035 C 
HETATM   11 CL1  UNL     1      19.970   7.243   7.146  1.00  0.00    -0.117 Cl
HETATM   12  C3  UNL     1      17.720   7.839   8.369  1.00  0.00     0.011 C 
HETATM   13  C4  UNL     1      17.111   7.064   7.229  1.00  0.00     0.007 C 
HETATM   14  C7  UNL     1      16.722   9.003   8.449  1.00  0.00     0.013 C 
HETATM   15  C5  UNL     1      16.281   8.056   6.414  1.00  0.00     0.007 C 
HETATM   16  C6  UNL     1      16.834   9.377   6.978  1.00  0.00     0.011 C 
ENDBRANCH   5   8
ENDBRANCH   1   4
BRANCH   1  17
HETATM   17  N2  UNL     1      20.530  12.878   3.784  1.00  0.00    -0.325 N 
HETATM   18  C11 UNL     1      19.878  12.938   2.561  1.00  0.00     0.317 C 
HETATM   19  O2  UNL     1      18.719  12.550   2.365  1.00  0.00    -0.247 OA
HETATM   20  N3  UNL     1      20.663  13.491   1.472  1.00  0.00    -0.336 N 
ATOM     21  H3  UNL     1      21.616  13.804   1.655  1.00  0.00     0.164 HD
ATOM     22  H2  UNL     1      21.471  13.271   3.739  1.00  0.00     0.165 HD
BRANCH  20  23
HETATM   23  C12 UNL     1      20.133  13.605   0.156  1.00  0.00     0.116 C 
HETATM   24  C13 UNL     1      20.499  12.305  -0.579  1.00  0.00     0.027 C 
HETATM   25  C14 UNL     1      20.790  12.695  -1.978  1.00  0.00     0.004 C 
HETATM   26  C15 UNL     1      20.579  14.187  -2.083  1.00  0.00     0.035 C 
HETATM   27  C16 UNL     1      20.841  14.650  -0.664  1.00  0.00     0.206 C 
BRANCH  27  28
HETATM   28  N4  UNL     1      22.274  14.505  -0.439  1.00  0.00    -0.073 N 
ATOM     29  H43 UNL     1      22.495  14.179   0.502  1.00  0.00     0.274 HD
ATOM     30  H42 UNL     1      22.677  13.722  -0.953  1.00  0.00     0.274 HD
ATOM     31  H41 UNL     1      22.720  15.395  -0.662  1.00  0.00     0.274 HD
ENDBRANCH  27  28
ENDBRANCH  20  23
ENDBRANCH   1  17
TORSDOF 5
ENDMDL
MODEL 2
REMARK VINA RESULT: -8.210505706      1.679      2.106
REMARK  5 active torsions:
REMARK  status: ('A' for Active; 'I' for Inactive)
REMARK    1  A    between atoms: C8_9  and  N1_10 
REMARK       I    between atoms: N1_10  and  C9_12 
REMARK    2  A    between atoms: C9_12  and  C10_14 
REMARK    3  A    between atoms: C10_14  and  N2_15 
REMARK       I    between atoms: N2_15  and  C11_17 
REMARK       I    between atoms: C11_17  and  N3_19 
REMARK    4  A    between atoms: N3_19  and  C12_21 
REMARK    5  A    between atoms: C16_25  and  N4_26 
ROOT
HETATM    1  C10 UNL     1      19.928  11.346   3.242  1.00  0.00     0.115 A 
HETATM    2  C17 UNL     1      20.567  12.486   4.149  1.00  0.00     0.044 A 
HETATM    3  C18 UNL     1      19.269  12.671   3.471  1.00  0.00     0.044 A 
ENDROOT
BRANCH   1   4
HETATM    4  C9  UNL     1      19.502  10.196   4.067  1.00  0.00     0.246 C 
HETATM    5  N1  UNL     1      18.849  10.239   5.283  1.00  0.00    -0.352 N 
ATOM      6  H1  UNL     1      18.648  11.184   5.610  1.00  0.00     0.163 HD
HETATM    7  O1  UNL     1      19.796   9.071   3.524  1.00  0.00    -0.271 OA
BRANCH   5   8
HETATM    8  C8  UNL     1      18.407   9.223   6.163  1.00  0.00     0.112 C 
HETATM    9  C2  UNL     1      19.239   8.776   7.292  1.00  0.00     0.058 C 
HETATM   10  C1  UNL     1      20.266   9.654   7.876  1.00  0.00     0.035 C 
HETATM   11 CL1  UNL     1      20.095   7.207   6.933  1.00  0.00    -0.117 Cl
HETATM   12  C3  UNL     1      18.176   8.360   8.312  1.00  0.00     0.011 C 
HETATM   13  C4  UNL     1      17.324   7.302   7.659  1.00  0.00     0.007 C 
HETATM   14  C7  UNL     1      17.229   9.563   8.192  1.00  0.00     0.013 C 
HETATM   15  C5  UNL     1      16.341   8.032   6.743  1.00  0.00     0.007 C 
HETATM   16  C6  UNL     1      17.015   9.415   6.692  1.00  0.00     0.011 C 
ENDBRANCH   5   8
ENDBRANCH   1   4
BRANCH   1  17
HETATM   17  N2  UNL     1      20.608  11.219   1.993  1.00  0.00    -0.325 N 
HETATM   18  C11 UNL     1      20.226  11.120   0.663  1.00  0.00     0.317 C 
HETATM   19  O2  UNL     1      19.054  11.152   0.266  1.00  0.00    -0.247 OA
HETATM   20  N3  UNL     1      21.318  10.955  -0.279  1.00  0.00    -0.336 N 
ATOM     21  H3  UNL     1      22.277  10.930   0.069  1.00  0.00     0.164 HD
ATOM     22  H2  UNL     1      21.621  11.195   2.106  1.00  0.00     0.165 HD
BRANCH  20  23
HETATM   23  C12 UNL     1      21.082  10.827  -1.676  1.00  0.00     0.116 C 
HETATM   24  C13 UNL     1      22.368  10.247  -2.288  1.00  0.00     0.027 C 
HETATM   25  C14 UNL     1      22.519  10.894  -3.611  1.00  0.00     0.004 C 
HETATM   26  C15 UNL     1      21.340  11.819  -3.798  1.00  0.00     0.035 C 
HETATM   27  C16 UNL     1      20.968  12.159  -2.369  1.00  0.00     0.206 C 
BRANCH  27  28
HETATM   28  N4  UNL     1      22.025  13.024  -1.860  1.00  0.00    -0.073 N 
ATOM     29  H43 UNL     1      21.683  13.944  -1.583  1.00  0.00     0.274 HD
ATOM     30  H42 UNL     1      22.372  12.727  -0.948  1.00  0.00     0.274 HD
ATOM     31  H41 UNL     1      22.760  13.073  -2.565  1.00  0.00     0.274 HD
ENDBRANCH  27  28
ENDBRANCH  20  23
ENDBRANCH   1  17
TORSDOF 5
ENDMDL
MODEL 3
REMARK VINA RESULT: -8.200092297      4.133      4.978
REMARK  5 active torsions:
REMARK  status: ('A' for Active; 'I' for Inactive)
REMARK    1  A    between atoms: C8_9  and  N1_10 
REMARK       I    between atoms: N1_10  and  C9_12 
REMARK    2  A    between atoms: C9_12  and  C10_14 
REMARK    3  A    between atoms: C10_14  and  N2_15 
REMARK       I    between atoms: N2_15  and  C11_17 
REMARK       I    between atoms: C11_17  and  N3_19 
REMARK    4  A    between atoms: N3_19  and  C12_21 
REMARK    5  A    between atoms: C16_25  and  N4_26 
ROOT
HETATM    1  C10 UNL     1      19.109  11.196   2.326  1.00  0.00     0.115 A 
HETATM    2  C17 UNL     1      20.460  10.753   1.614  1.00  0.00     0.044 A 
HETATM    3  C18 UNL     1      20.074  12.173   1.732  1.00  0.00     0.044 A 
ENDROOT
BRANCH   1   4
HETATM    4  C9  UNL     1      19.172  10.938   3.780  1.00  0.00     0.246 C 
HETATM    5  N1  UNL     1      18.593   9.889   4.467  1.00  0.00    -0.352 N 
ATOM      6  H1  UNL     1      18.085   9.237   3.870  1.00  0.00     0.163 HD
HETATM    7  O1  UNL     1      19.864  11.822   4.403  1.00  0.00    -0.271 OA
BRANCH   5   8
HETATM    8  C8  UNL     1      18.571   9.546   5.840  1.00  0.00     0.112 C 
HETATM    9  C2  UNL     1      17.537   8.654   6.387  1.00  0.00     0.058 C 
HETATM   10  C1  UNL     1      16.831   7.689   5.528  1.00  0.00     0.035 C 
HETATM   11 CL1  UNL     1      16.224   9.577   7.252  1.00  0.00    -0.117 Cl
HETATM   12  C3  UNL     1      18.290   7.975   7.533  1.00  0.00     0.011 C 
HETATM   13  C4  UNL     1      18.775   9.066   8.453  1.00  0.00     0.007 C 
HETATM   14  C7  UNL     1      19.603   7.645   6.810  1.00  0.00     0.013 C 
HETATM   15  C5  UNL     1      20.031   9.658   7.810  1.00  0.00     0.007 C 
HETATM   16  C6  UNL     1      19.888   9.081   6.390  1.00  0.00     0.011 C 
ENDBRANCH   5   8
ENDBRANCH   1   4
BRANCH   1  17
HETATM   17  N2  UNL     1      17.966  10.911   1.519  1.00  0.00    -0.325 N 
HETATM   18  C11 UNL     1      16.750  11.530   1.270  1.00  0.00     0.317 C 
HETATM   19  O2  UNL     1      16.400  12.611   1.760  1.00  0.00    -0.247 OA
HETATM   20  N3  UNL     1      15.864  10.806   0.377  1.00  0.00    -0.336 N 
ATOM     21  H3  UNL     1      16.170   9.916  -0.016  1.00  0.00     0.164 HD
ATOM     22  H2  UNL     1      18.069  10.040   0.999  1.00  0.00     0.165 HD
BRANCH  20  23
HETATM   23  C12 UNL     1      14.576  11.310   0.037  1.00  0.00     0.116 C 
HETATM   24  C13 UNL     1      13.564  10.552   0.911  1.00  0.00     0.027 C 
HETATM   25  C14 UNL     1      12.364  10.353   0.066  1.00  0.00     0.004 C 
HETATM   26  C15 UNL     1      12.642  10.997  -1.272  1.00  0.00     0.035 C 
HETATM   27  C16 UNL     1      14.153  10.924  -1.356  1.00  0.00     0.206 C 
BRANCH  27  28
HETATM   28  N4  UNL     1      14.490   9.520  -1.557  1.00  0.00    -0.073 N 
ATOM     29  H43 UNL     1      13.952   8.895  -0.957  1.00  0.00     0.274 HD
ATOM     30  H42 UNL     1      14.166   9.162  -2.455  1.00  0.00     0.274 HD
ATOM     31  H41 UNL     1      15.497   9.416  -1.431  1.00  0.00     0.274 HD
ENDBRANCH  27  28
ENDBRANCH  20  23
ENDBRANCH   1  17
TORSDOF 5
ENDMDL
MODEL 4
REMARK VINA RESULT: -8.160586109      1.200      1.869
REMARK  5 active torsions:
REMARK  status: ('A' for Active; 'I' for Inactive)
REMARK    1  A    between atoms: C8_9  and  N1_10 
REMARK       I    between atoms: N1_10  and  C9_12 
REMARK    2  A    between atoms: C9_12  and  C10_14 
REMARK    3  A    between atoms: C10_14  and  N2_15 
REMARK       I    between atoms: N2_15  and  C11_17 
REMARK       I    between atoms: C11_17  and  N3_19 
REMARK    4  A    between atoms: N3_19  and  C12_21 
REMARK    5  A    between atoms: C16_25  and  N4_26 
ROOT
HETATM    1  C10 UNL     1      20.153  12.318   5.220  1.00  0.00     0.115 A 
HETATM    2  C17 UNL     1      21.268  12.826   6.234  1.00  0.00     0.044 A 
HETATM    3  C18 UNL     1      19.935  13.457   6.166  1.00  0.00     0.044 A 
ENDROOT
BRANCH   1   4
HETATM    4  C9  UNL     1      19.662  10.978   5.605  1.00  0.00     0.246 C 
HETATM    5  N1  UNL     1      18.685  10.684   6.535  1.00  0.00    -0.352 N 
ATOM      6  H1  UNL     1      18.273  11.507   6.975  1.00  0.00     0.163 HD
HETATM    7  O1  UNL     1      20.249  10.038   4.956  1.00  0.00    -0.271 OA
BRANCH   5   8
HETATM    8  C8  UNL     1      18.146   9.460   6.996  1.00  0.00     0.112 C 
HETATM    9  C2  UNL     1      17.251   8.653   6.149  1.00  0.00     0.058 C 
HETATM   10  C1  UNL     1      17.284   8.768   4.682  1.00  0.00     0.035 C 
HETATM   11 CL1  UNL     1      15.500   8.863   6.609  1.00  0.00    -0.117 Cl
HETATM   12  C3  UNL     1      17.565   7.235   6.632  1.00  0.00     0.011 C 
HETATM   13  C4  UNL     1      17.284   7.199   8.113  1.00  0.00     0.007 C 
HETATM   14  C7  UNL     1      19.098   7.314   6.663  1.00  0.00     0.013 C 
HETATM   15  C5  UNL     1      18.489   7.837   8.805  1.00  0.00     0.007 C 
HETATM   16  C6  UNL     1      19.151   8.518   7.594  1.00  0.00     0.011 C 
ENDBRANCH   5   8
ENDBRANCH   1   4
BRANCH   1  17
HETATM   17  N2  UNL     1      20.447  12.700   3.875  1.00  0.00    -0.325 N 
HETATM   18  C11 UNL     1      19.750  12.718   2.676  1.00  0.00     0.317 C 
HETATM   19  O2  UNL     1      18.567  12.378   2.548  1.00  0.00    -0.247 OA
HETATM   20  N3  UNL     1      20.516  13.164   1.527  1.00  0.00    -0.336 N 
ATOM     21  H3  UNL     1      21.490  13.440   1.654  1.00  0.00     0.164 HD
ATOM     22  H2  UNL     1      21.402  13.042   3.771  1.00  0.00     0.165 HD
BRANCH  20  23
HETATM   23  C12 UNL     1      19.940  13.225   0.227  1.00  0.00     0.116 C 
HETATM   24  C13 UNL     1      20.305  11.908  -0.477  1.00  0.00     0.027 C 
HETATM   25  C14 UNL     1      20.541  12.255  -1.897  1.00  0.00     0.004 C 
HETATM   26  C15 UNL     1      20.300  13.739  -2.045  1.00  0.00     0.035 C 
HETATM   27  C16 UNL     1      20.601  14.254  -0.652  1.00  0.00     0.206 C 
BRANCH  27  28
HETATM   28  N4  UNL     1      22.043  14.141  -0.471  1.00  0.00    -0.073 N 
ATOM     29  H43 UNL     1      22.403  14.781   0.237  1.00  0.00     0.274 HD
ATOM     30  H42 UNL     1      22.317  13.269  -0.020  1.00  0.00     0.274 HD
ATOM     31  H41 UNL     1      22.487  14.272  -1.381  1.00  0.00     0.274 HD
ENDBRANCH  27  28
ENDBRANCH  20  23
ENDBRANCH   1  17
TORSDOF 5
ENDMDL
MODEL 5
REMARK VINA RESULT: -8.059725098      3.969      4.372
REMARK  5 active torsions:
REMARK  status: ('A' for Active; 'I' for Inactive)
REMARK    1  A    between atoms: C8_9  and  N1_10 
REMARK       I    between atoms: N1_10  and  C9_12 
REMARK    2  A    between atoms: C9_12  and  C10_14 
REMARK    3  A    between atoms: C10_14  and  N2_15 
REMARK       I    between atoms: N2_15  and  C11_17 
REMARK       I    between atoms: C11_17  and  N3_19 
REMARK    4  A    between atoms: N3_19  and  C12_21 
REMARK    5  A    between atoms: C16_25  and  N4_26 
ROOT
HETATM    1  C10 UNL     1      18.794  10.286   2.908  1.00  0.00     0.115 A 
HETATM    2  C17 UNL     1      20.144   9.591   2.434  1.00  0.00     0.044 A 
HETATM    3  C18 UNL     1      20.056  11.050   2.647  1.00  0.00     0.044 A 
ENDROOT
BRANCH   1   4
HETATM    4  C9  UNL     1      18.472   9.913   4.302  1.00  0.00     0.246 C 
HETATM    5  N1  UNL     1      17.789   8.790   4.727  1.00  0.00    -0.352 N 
ATOM      6  H1  UNL     1      17.502   8.171   3.969  1.00  0.00     0.163 HD
HETATM    7  O1  UNL     1      18.915  10.768   5.151  1.00  0.00    -0.271 OA
BRANCH   5   8
HETATM    8  C8  UNL     1      17.412   8.335   6.013  1.00  0.00     0.112 C 
HETATM    9  C2  UNL     1      18.394   7.729   6.926  1.00  0.00     0.058 C 
HETATM   10  C1  UNL     1      19.831   8.023   6.804  1.00  0.00     0.035 C 
HETATM   11 CL1  UNL     1      18.276   5.910   6.948  1.00  0.00    -0.117 Cl
HETATM   12  C3  UNL     1      17.830   8.124   8.293  1.00  0.00     0.011 C 
HETATM   13  C4  UNL     1      16.428   7.575   8.369  1.00  0.00     0.007 C 
HETATM   14  C7  UNL     1      17.512   9.600   8.015  1.00  0.00     0.013 C 
HETATM   15  C5  UNL     1      15.535   8.535   7.582  1.00  0.00     0.007 C 
HETATM   16  C6  UNL     1      16.615   9.321   6.817  1.00  0.00     0.011 C 
ENDBRANCH   5   8
ENDBRANCH   1   4
BRANCH   1  17
HETATM   17  N2  UNL     1      17.829  10.341   1.858  1.00  0.00    -0.325 N 
HETATM   18  C11 UNL     1      16.890  11.264   1.422  1.00  0.00     0.317 C 
HETATM   19  O2  UNL     1      16.715  12.379   1.931  1.00  0.00    -0.247 OA
HETATM   20  N3  UNL     1      16.078  10.832   0.299  1.00  0.00    -0.336 N 
ATOM     21  H3  UNL     1      16.238   9.910  -0.105  1.00  0.00     0.164 HD
ATOM     22  H2  UNL     1      17.829   9.494   1.289  1.00  0.00     0.165 HD
BRANCH  20  23
HETATM   23  C12 UNL     1      15.064  11.666  -0.251  1.00  0.00     0.116 C 
HETATM   24  C13 UNL     1      13.727  11.164   0.316  1.00  0.00     0.027 C 
HETATM   25  C14 UNL     1      12.737  11.317  -0.775  1.00  0.00     0.004 C 
HETATM   26  C15 UNL     1      13.459  11.921  -1.957  1.00  0.00     0.035 C 
HETATM   27  C16 UNL     1      14.885  11.461  -1.731  1.00  0.00     0.206 C 
BRANCH  27  28
HETATM   28  N4  UNL     1      14.905  10.027  -1.993  1.00  0.00    -0.073 N 
ATOM     29  H43 UNL     1      14.121   9.720  -2.569  1.00  0.00     0.274 HD
ATOM     30  H42 UNL     1      15.656   9.752  -2.626  1.00  0.00     0.274 HD
ATOM     31  H41 UNL     1      14.947   9.543  -1.096  1.00  0.00     0.274 HD
ENDBRANCH  27  28
ENDBRANCH  20  23
ENDBRANCH   1  17
TORSDOF 5
ENDMDL
