MODEL 1
REMARK VINA RESULT: -8.966785634      0.000      0.000
REMARK  5 active torsions:
REMARK  status: ('A' for Active; 'I' for Inactive)
REMARK    1  A    between atoms: C7_8  and  C8_9 
REMARK    2  A    between atoms: C8_9  and  N1_10 
REMARK    3  A    between atoms: N1_10  and  C10_12 
REMARK    4  A    between atoms: C10_12  and  C11_13 
REMARK    5  A    between atoms: C15_23  and  N5_24 
REMARK       I    between atoms: N5_24  and  C16_26 
ROOT
HETATM    1  C1  UNL     1      16.966   7.725   8.394  1.00  0.00     0.015 C 
HETATM    2  C2  UNL     1      17.884   8.277   7.824  1.00  0.00    -0.073 C 
HETATM    3  C3  UNL     1      18.991   8.915   7.145  1.00  0.00     0.165 C 
HETATM    4  F1  UNL     1      20.199   8.389   7.537  1.00  0.00    -0.229 F 
HETATM    5  C4  UNL     1      18.959  10.409   7.507  1.00  0.00     0.057 C 
HETATM    6  C5  UNL     1      20.201  10.980   6.876  1.00  0.00     0.004 C 
HETATM    7  C6  UNL     1      20.149  10.906   5.351  1.00  0.00     0.006 C 
HETATM    8  C7  UNL     1      19.825   9.554   4.850  1.00  0.00     0.018 C 
HETATM    9  C18 UNL     1      18.758   8.844   5.675  1.00  0.00     0.063 C 
ENDROOT
BRANCH   8  10
HETATM   10  C8  UNL     1      19.375   9.481   3.438  1.00  0.00     0.277 C 
BRANCH  10  11
HETATM   11  N1  UNL     1      19.016  10.691   2.762  1.00  0.00     0.088 N 
HETATM   12  C9  UNL     1      17.612  10.778   2.465  1.00  0.00     0.310 C 
BRANCH  11  13
HETATM   13  C10 UNL     1      19.845  10.941   1.615  1.00  0.00     0.313 C 
BRANCH  13  14
HETATM   14  C11 UNL     1      20.371  12.302   1.515  1.00  0.00     0.002 A 
HETATM   15  C12 UNL     1      20.418  13.233   2.533  1.00  0.00     0.097 A 
HETATM   16  N2  UNL     1      20.950  14.470   2.395  1.00  0.00    -0.372 N 
HETATM   17  C13 UNL     1      21.487  14.905   1.247  1.00  0.00     0.119 A 
ATOM     18  H2  UNL     1      20.943  15.098   3.199  1.00  0.00     0.164 HD
HETATM   19  C14 UNL     1      21.476  14.019   0.179  1.00  0.00     0.078 A 
HETATM   20  N3  UNL     1      21.935  14.154  -1.084  1.00  0.00    -0.297 N 
HETATM   21  C17 UNL     1      20.937  12.765   0.313  1.00  0.00     0.048 A 
HETATM   22  N4  UNL     1      21.701  13.028  -1.741  1.00  0.00    -0.284 N 
ATOM     23  H3  UNL     1      22.387  14.984  -1.469  1.00  0.00     0.187 HD
HETATM   24  C15 UNL     1      21.088  12.160  -0.906  1.00  0.00     0.135 A 
ATOM     25  H4  UNL     1      21.942  12.845  -2.715  1.00  0.00     0.188 HD
BRANCH  24  26
HETATM   26  N5  UNL     1      20.690  10.959  -1.152  1.00  0.00    -0.315 N 
HETATM   27  C16 UNL     1      19.592  10.777  -2.024  1.00  0.00     0.187 C 
HETATM   28  N6  UNL     1      18.421  11.236  -1.787  1.00  0.00    -0.373 N 
HETATM   29  N7  UNL     1      19.779  10.050  -3.231  1.00  0.00    -0.064 NA
ATOM     30  H62 UNL     1      18.288  11.758  -0.920  1.00  0.00     0.158 HD
ATOM     31  H61 UNL     1      17.630  11.106  -2.416  1.00  0.00     0.158 HD
ATOM     32  H5  UNL     1      21.156  10.157  -0.727  1.00  0.00     0.170 HD
ENDBRANCH  24  26
ENDBRANCH  13  14
ENDBRANCH  11  13
ENDBRANCH  10  11
ENDBRANCH   8  10
TORSDOF 5
ENDMDL
MODEL 2
REMARK VINA RESULT: -8.596351131      1.135      1.231
REMARK  5 active torsions:
REMARK  status: ('A' for Active; 'I' for Inactive)
REMARK    1  A    between atoms: C7_8  and  C8_9 
REMARK    2  A    between atoms: C8_9  and  N1_10 
REMARK    3  A    between atoms: N1_10  and  C10_12 
REMARK    4  A    between atoms: C10_12  and  C11_13 
REMARK    5  A    between atoms: C15_23  and  N5_24 
REMARK       I    between atoms: N5_24  and  C16_26 
ROOT
HETATM    1  C1  UNL     1      14.900   8.337   6.711  1.00  0.00     0.015 C 
HETATM    2  C2  UNL     1      16.069   8.404   6.391  1.00  0.00    -0.073 C 
HETATM    3  C3  UNL     1      17.463   8.462   6.010  1.00  0.00     0.165 C 
HETATM    4  F1  UNL     1      18.169   7.391   6.503  1.00  0.00    -0.229 F 
HETATM    5  C4  UNL     1      18.052   9.756   6.594  1.00  0.00     0.057 C 
HETATM    6  C5  UNL     1      19.520   9.687   6.269  1.00  0.00     0.004 C 
HETATM    7  C6  UNL     1      19.774   9.741   4.764  1.00  0.00     0.006 C 
HETATM    8  C7  UNL     1      18.976   8.751   4.010  1.00  0.00     0.018 C 
HETATM    9  C18 UNL     1      17.550   8.603   4.529  1.00  0.00     0.063 C 
ENDROOT
BRANCH   8  10
HETATM   10  C8  UNL     1      18.863   8.993   2.550  1.00  0.00     0.277 C 
BRANCH  10  11
HETATM   11  N1  UNL     1      18.889  10.341   2.067  1.00  0.00     0.088 N 
HETATM   12  C9  UNL     1      17.721  10.689   1.303  1.00  0.00     0.310 C 
BRANCH  11  13
HETATM   13  C10 UNL     1      20.115  10.652   1.386  1.00  0.00     0.313 C 
BRANCH  13  14
HETATM   14  C11 UNL     1      20.465  12.072   1.360  1.00  0.00     0.002 A 
HETATM   15  C12 UNL     1      20.367  12.954   2.417  1.00  0.00     0.097 A 
HETATM   16  N2  UNL     1      20.742  14.254   2.347  1.00  0.00    -0.372 N 
HETATM   17  C13 UNL     1      21.248  14.805   1.236  1.00  0.00     0.119 A 
ATOM     18  H2  UNL     1      20.634  14.838   3.176  1.00  0.00     0.164 HD
HETATM   19  C14 UNL     1      21.377  13.974   0.133  1.00  0.00     0.078 A 
HETATM   20  N3  UNL     1      21.848  14.223  -1.109  1.00  0.00    -0.297 N 
HETATM   21  C17 UNL     1      20.999  12.657   0.197  1.00  0.00     0.048 A 
HETATM   22  N4  UNL     1      21.776  13.107  -1.819  1.00  0.00    -0.284 N 
ATOM     23  H3  UNL     1      22.200  15.120  -1.444  1.00  0.00     0.187 HD
HETATM   24  C15 UNL     1      21.258  12.132  -1.041  1.00  0.00     0.135 A 
ATOM     25  H4  UNL     1      22.064  13.001  -2.792  1.00  0.00     0.188 HD
BRANCH  24  26
HETATM   26  N5  UNL     1      21.022  10.903  -1.350  1.00  0.00    -0.315 N 
HETATM   27  C16 UNL     1      20.022  10.628  -2.311  1.00  0.00     0.187 C 
HETATM   28  N6  UNL     1      18.791  10.942  -2.155  1.00  0.00    -0.373 N 
HETATM   29  N7  UNL     1      20.383   9.970  -3.518  1.00  0.00    -0.064 NA
ATOM     30  H62 UNL     1      18.532  11.413  -1.289  1.00  0.00     0.158 HD
ATOM     31  H61 UNL     1      18.070  10.744  -2.848  1.00  0.00     0.158 HD
ATOM     32  H5  UNL     1      21.544  10.145  -0.911  1.00  0.00     0.170 HD
ENDBRANCH  24  26
ENDBRANCH  13  14
ENDBRANCH  11  13
ENDBRANCH  10  11
ENDBRANCH   8  10
TORSDOF 5
ENDMDL
MODEL 3
REMARK VINA RESULT: -8.456992131      1.217      1.793
REMARK  5 active torsions:
REMARK  status: ('A' for Active; 'I' for Inactive)
REMARK    1  A    between atoms: C7_8  and  C8_9 
REMARK    2  A    between atoms: C8_9  and  N1_10 
REMARK    3  A    between atoms: N1_10  and  C10_12 
REMARK    4  A    between atoms: C10_12  and  C11_13 
REMARK    5  A    between atoms: C15_23  and  N5_24 
REMARK       I    between atoms: N5_24  and  C16_26 
ROOT
HETATM    1  C1  UNL     1      20.569   6.690   7.963  1.00  0.00     0.015 C 
HETATM    2  C2  UNL     1      19.699   7.344   7.425  1.00  0.00    -0.073 C 
HETATM    3  C3  UNL     1      18.673   8.143   6.793  1.00  0.00     0.165 C 
HETATM    4  F1  UNL     1      18.402   9.283   7.511  1.00  0.00    -0.229 F 
HETATM    5  C4  UNL     1      17.398   7.288   6.718  1.00  0.00     0.057 C 
HETATM    6  C5  UNL     1      16.348   8.217   6.171  1.00  0.00     0.004 C 
HETATM    7  C6  UNL     1      16.660   8.649   4.739  1.00  0.00     0.006 C 
HETATM    8  C7  UNL     1      18.029   9.182   4.584  1.00  0.00     0.018 C 
HETATM    9  C18 UNL     1      19.072   8.408   5.381  1.00  0.00     0.063 C 
ENDROOT
BRANCH   8  10
HETATM   10  C8  UNL     1      18.539   9.251   3.191  1.00  0.00     0.277 C 
BRANCH  10  11
HETATM   11  N1  UNL     1      18.588  10.521   2.533  1.00  0.00     0.088 N 
HETATM   12  C9  UNL     1      17.388  10.825   1.800  1.00  0.00     0.310 C 
BRANCH  11  13
HETATM   13  C10 UNL     1      19.779  10.681   1.746  1.00  0.00     0.313 C 
BRANCH  13  14
HETATM   14  C11 UNL     1      20.332  12.036   1.728  1.00  0.00     0.002 A 
HETATM   15  C12 UNL     1      20.422  12.892   2.805  1.00  0.00     0.097 A 
HETATM   16  N2  UNL     1      20.978  14.125   2.740  1.00  0.00    -0.372 N 
HETATM   17  C13 UNL     1      21.499  14.628   1.612  1.00  0.00     0.119 A 
ATOM     18  H2  UNL     1      21.003  14.695   3.585  1.00  0.00     0.164 HD
HETATM   19  C14 UNL     1      21.444  13.818   0.487  1.00  0.00     0.078 A 
HETATM   20  N3  UNL     1      21.877  14.031  -0.775  1.00  0.00    -0.297 N 
HETATM   21  C17 UNL     1      20.881  12.569   0.547  1.00  0.00     0.048 A 
HETATM   22  N4  UNL     1      21.604  12.958  -1.502  1.00  0.00    -0.284 N 
ATOM     23  H3  UNL     1      22.339  14.877  -1.112  1.00  0.00     0.187 HD
HETATM   24  C15 UNL     1      20.992  12.046  -0.714  1.00  0.00     0.135 A 
ATOM     25  H4  UNL     1      21.820  12.839  -2.491  1.00  0.00     0.188 HD
BRANCH  24  26
HETATM   26  N5  UNL     1      20.562  10.874  -1.032  1.00  0.00    -0.315 N 
HETATM   27  C16 UNL     1      19.486  10.774  -1.945  1.00  0.00     0.187 C 
HETATM   28  N6  UNL     1      18.325  11.261  -1.719  1.00  0.00    -0.373 N 
HETATM   29  N7  UNL     1      19.687  10.102  -3.181  1.00  0.00    -0.064 NA
ATOM     30  H62 UNL     1      18.181  11.743  -0.832  1.00  0.00     0.158 HD
ATOM     31  H61 UNL     1      17.549  11.189  -2.377  1.00  0.00     0.158 HD
ATOM     32  H5  UNL     1      20.987  10.036  -0.635  1.00  0.00     0.170 HD
ENDBRANCH  24  26
ENDBRANCH  13  14
ENDBRANCH  11  13
ENDBRANCH  10  11
ENDBRANCH   8  10
TORSDOF 5
ENDMDL
MODEL 4
REMARK VINA RESULT: -8.445160640      2.030      2.446
REMARK  5 active torsions:
REMARK  status: ('A' for Active; 'I' for Inactive)
REMARK    1  A    between atoms: C7_8  and  C8_9 
REMARK    2  A    between atoms: C8_9  and  N1_10 
REMARK    3  A    between atoms: N1_10  and  C10_12 
REMARK    4  A    between atoms: C10_12  and  C11_13 
REMARK    5  A    between atoms: C15_23  and  N5_24 
REMARK       I    between atoms: N5_24  and  C16_26 
ROOT
HETATM    1  C1  UNL     1      14.414   8.147   4.812  1.00  0.00     0.015 C 
HETATM    2  C2  UNL     1      15.521   8.291   5.288  1.00  0.00    -0.073 C 
HETATM    3  C3  UNL     1      16.847   8.443   5.846  1.00  0.00     0.165 C 
HETATM    4  F1  UNL     1      17.378   7.234   6.229  1.00  0.00    -0.229 F 
HETATM    5  C4  UNL     1      16.731   9.348   7.083  1.00  0.00     0.057 C 
HETATM    6  C5  UNL     1      18.112   9.356   7.680  1.00  0.00     0.004 C 
HETATM    7  C6  UNL     1      19.128  10.024   6.755  1.00  0.00     0.006 C 
HETATM    8  C7  UNL     1      19.104   9.475   5.383  1.00  0.00     0.018 C 
HETATM    9  C18 UNL     1      17.696   9.186   4.873  1.00  0.00     0.063 C 
ENDROOT
BRANCH   8  10
HETATM   10  C8  UNL     1      19.757  10.310   4.344  1.00  0.00     0.277 C 
BRANCH  10  11
HETATM   11  N1  UNL     1      19.204  10.335   3.024  1.00  0.00     0.088 N 
HETATM   12  C9  UNL     1      20.120   9.868   2.019  1.00  0.00     0.310 C 
BRANCH  11  13
HETATM   13  C10 UNL     1      18.622  11.608   2.701  1.00  0.00     0.313 C 
BRANCH  13  14
HETATM   14  C11 UNL     1      19.574  12.635   2.278  1.00  0.00     0.002 A 
HETATM   15  C12 UNL     1      20.490  13.277   3.085  1.00  0.00     0.097 A 
HETATM   16  N2  UNL     1      21.376  14.196   2.632  1.00  0.00    -0.372 N 
HETATM   17  C13 UNL     1      21.443  14.567   1.346  1.00  0.00     0.119 A 
ATOM     18  H2  UNL     1      22.018  14.625   3.298  1.00  0.00     0.164 HD
HETATM   19  C14 UNL     1      20.551  13.959   0.476  1.00  0.00     0.078 A 
HETATM   20  N3  UNL     1      20.375  14.111  -0.855  1.00  0.00    -0.297 N 
HETATM   21  C17 UNL     1      19.652  13.028   0.929  1.00  0.00     0.048 A 
HETATM   22  N4  UNL     1      19.397  13.307  -1.246  1.00  0.00    -0.284 N 
ATOM     23  H3  UNL     1      20.905  14.739  -1.459  1.00  0.00     0.187 HD
HETATM   24  C15 UNL     1      18.936  12.631  -0.170  1.00  0.00     0.135 A 
ATOM     25  H4  UNL     1      19.050  13.212  -2.200  1.00  0.00     0.188 HD
BRANCH  24  26
HETATM   26  N5  UNL     1      17.991  11.756  -0.119  1.00  0.00    -0.315 N 
HETATM   27  C16 UNL     1      16.670  12.173  -0.401  1.00  0.00     0.187 C 
HETATM   28  N6  UNL     1      16.046  13.051   0.291  1.00  0.00    -0.373 N 
HETATM   29  N7  UNL     1      15.983  11.598  -1.505  1.00  0.00    -0.064 NA
ATOM     30  H62 UNL     1      16.539  13.463   1.083  1.00  0.00     0.158 HD
ATOM     31  H61 UNL     1      15.093  13.351   0.087  1.00  0.00     0.158 HD
ATOM     32  H5  UNL     1      18.191  10.785   0.120  1.00  0.00     0.170 HD
ENDBRANCH  24  26
ENDBRANCH  13  14
ENDBRANCH  11  13
ENDBRANCH  10  11
ENDBRANCH   8  10
TORSDOF 5
ENDMDL
MODEL 5
REMARK VINA RESULT: -8.399149620      1.862      3.062
REMARK  5 active torsions:
REMARK  status: ('A' for Active; 'I' for Inactive)
REMARK    1  A    between atoms: C7_8  and  C8_9 
REMARK    2  A    between atoms: C8_9  and  N1_10 
REMARK    3  A    between atoms: N1_10  and  C10_12 
REMARK    4  A    between atoms: C10_12  and  C11_13 
REMARK    5  A    between atoms: C15_23  and  N5_24 
REMARK       I    between atoms: N5_24  and  C16_26 
ROOT
HETATM    1  C1  UNL     1      20.202   6.663   7.725  1.00  0.00     0.015 C 
HETATM    2  C2  UNL     1      19.544   7.466   7.096  1.00  0.00    -0.073 C 
HETATM    3  C3  UNL     1      18.766   8.439   6.362  1.00  0.00     0.165 C 
HETATM    4  F1  UNL     1      18.215   9.382   7.195  1.00  0.00    -0.229 F 
HETATM    5  C4  UNL     1      17.633   7.685   5.648  1.00  0.00     0.057 C 
HETATM    6  C5  UNL     1      16.797   8.764   5.014  1.00  0.00     0.004 C 
HETATM    7  C6  UNL     1      17.564   9.514   3.927  1.00  0.00     0.006 C 
HETATM    8  C7  UNL     1      18.879  10.008   4.387  1.00  0.00     0.018 C 
HETATM    9  C18 UNL     1      19.616   9.018   5.283  1.00  0.00     0.063 C 
ENDROOT
BRANCH   8  10
HETATM   10  C8  UNL     1      19.834  10.388   3.316  1.00  0.00     0.277 C 
BRANCH  10  11
HETATM   11  N1  UNL     1      20.197  11.765   3.168  1.00  0.00     0.088 N 
HETATM   12  C9  UNL     1      20.261  12.470   4.420  1.00  0.00     0.310 C 
BRANCH  11  13
HETATM   13  C10 UNL     1      19.390  12.438   2.189  1.00  0.00     0.313 C 
BRANCH  13  14
HETATM   14  C11 UNL     1      20.037  12.654   0.895  1.00  0.00     0.002 A 
HETATM   15  C12 UNL     1      21.200  13.363   0.675  1.00  0.00     0.097 A 
HETATM   16  N2  UNL     1      21.776  13.501  -0.543  1.00  0.00    -0.372 N 
HETATM   17  C13 UNL     1      21.265  12.954  -1.654  1.00  0.00     0.119 A 
ATOM     18  H2  UNL     1      22.636  14.044  -0.617  1.00  0.00     0.164 HD
HETATM   19  C14 UNL     1      20.095  12.224  -1.506  1.00  0.00     0.078 A 
HETATM   20  N3  UNL     1      19.349  11.559  -2.416  1.00  0.00    -0.297 N 
HETATM   21  C17 UNL     1      19.506  12.082  -0.276  1.00  0.00     0.048 A 
HETATM   22  N4  UNL     1      18.317  11.008  -1.794  1.00  0.00    -0.284 N 
ATOM     23  H3  UNL     1      19.548  11.492  -3.415  1.00  0.00     0.187 HD
HETATM   24  C15 UNL     1      18.391  11.314  -0.480  1.00  0.00     0.135 A 
ATOM     25  H4  UNL     1      17.589  10.445  -2.234  1.00  0.00     0.188 HD
BRANCH  24  26
HETATM   26  N5  UNL     1      17.583  10.976   0.466  1.00  0.00    -0.315 N 
HETATM   27  C16 UNL     1      16.311  11.592   0.520  1.00  0.00     0.187 C 
HETATM   28  N6  UNL     1      16.145  12.851   0.676  1.00  0.00    -0.373 N 
HETATM   29  N7  UNL     1      15.146  10.787   0.396  1.00  0.00    -0.064 NA
ATOM     30  H62 UNL     1      16.981  13.428   0.765  1.00  0.00     0.158 HD
ATOM     31  H61 UNL     1      15.228  13.295   0.715  1.00  0.00     0.158 HD
ATOM     32  H5  UNL     1      17.855  10.281   1.160  1.00  0.00     0.170 HD
ENDBRANCH  24  26
ENDBRANCH  13  14
ENDBRANCH  11  13
ENDBRANCH  10  11
ENDBRANCH   8  10
TORSDOF 5
ENDMDL
