MODEL 1
REMARK VINA RESULT: -5.350283737      0.000      0.000
REMARK  2 active torsions:
REMARK  status: ('A' for Active; 'I' for Inactive)
REMARK    1  A    between atoms: C2_2  and  N1_3 
REMARK    2  A    between atoms: N2_5  and  C3_7 
ROOT
HETATM    1  C3  UNL     1       8.528  42.188  17.738  1.00  0.00     0.117 C 
HETATM    2  C4  UNL     1       8.884  40.929  18.464  1.00  0.00     0.033 C 
HETATM    3  C5  UNL     1       9.991  40.212  17.739  1.00  0.00     0.046 C 
HETATM    4  C6  UNL     1      11.182  41.070  17.468  1.00  0.00     0.055 C 
HETATM    5  N3  UNL     1      10.965  42.460  17.489  1.00  0.00    -0.400 N 
ATOM      6  H3  UNL     1      11.725  43.102  17.714  1.00  0.00     0.158 HD
HETATM    7  C7  UNL     1       9.675  42.948  17.191  1.00  0.00     0.145 C 
ENDROOT
BRANCH   1   8
HETATM    8  N2  UNL     1       7.607  41.841  16.670  1.00  0.00    -0.334 N 
HETATM    9  N1  UNL     1       7.222  42.753  15.890  1.00  0.00    -0.341 N 
ATOM     10  H1  UNL     1       7.546  43.714  16.001  1.00  0.00     0.179 HD
ATOM     11  H2  UNL     1       7.280  40.881  16.553  1.00  0.00     0.180 HD
BRANCH   9  12
HETATM   12  C2  UNL     1       6.313  42.392  14.841  1.00  0.00     0.134 C 
HETATM   13  C1  UNL     1       6.634  43.262  13.647  1.00  0.00     0.028 C 
ENDBRANCH   9  12
ENDBRANCH   1   8
TORSDOF 2
ENDMDL
MODEL 2
REMARK VINA RESULT: -5.217837922      0.849      1.092
REMARK  2 active torsions:
REMARK  status: ('A' for Active; 'I' for Inactive)
REMARK    1  A    between atoms: C2_2  and  N1_3 
REMARK    2  A    between atoms: N2_5  and  C3_7 
ROOT
HETATM    1  C3  UNL     1       8.579  42.057  17.842  1.00  0.00     0.117 C 
HETATM    2  C4  UNL     1       9.006  40.848  18.613  1.00  0.00     0.033 C 
HETATM    3  C5  UNL     1      10.123  40.145  17.889  1.00  0.00     0.046 C 
HETATM    4  C6  UNL     1      11.270  41.038  17.547  1.00  0.00     0.055 C 
HETATM    5  N3  UNL     1      10.995  42.417  17.512  1.00  0.00    -0.400 N 
ATOM      6  H3  UNL     1      11.733  43.099  17.688  1.00  0.00     0.158 HD
HETATM    7  C7  UNL     1       9.678  42.837  17.230  1.00  0.00     0.145 C 
ENDROOT
BRANCH   1   8
HETATM    8  N2  UNL     1       7.646  41.624  16.816  1.00  0.00    -0.334 N 
HETATM    9  N1  UNL     1       6.428  41.513  17.121  1.00  0.00    -0.341 N 
ATOM     10  H1  UNL     1       6.099  41.722  18.064  1.00  0.00     0.179 HD
ATOM     11  H2  UNL     1       7.969  41.415  15.871  1.00  0.00     0.180 HD
BRANCH   9  12
HETATM   12  C2  UNL     1       5.522  41.085  16.095  1.00  0.00     0.134 C 
HETATM   13  C1  UNL     1       5.964  41.736  14.803  1.00  0.00     0.028 C 
ENDBRANCH   9  12
ENDBRANCH   1   8
TORSDOF 2
ENDMDL
MODEL 3
REMARK VINA RESULT: -5.204778739      2.304      4.466
REMARK  2 active torsions:
REMARK  status: ('A' for Active; 'I' for Inactive)
REMARK    1  A    between atoms: C2_2  and  N1_3 
REMARK    2  A    between atoms: N2_5  and  C3_7 
ROOT
HETATM    1  C3  UNL     1       8.878  43.197  16.942  1.00  0.00     0.117 C 
HETATM    2  C4  UNL     1       7.673  42.562  17.560  1.00  0.00     0.033 C 
HETATM    3  C5  UNL     1       7.344  43.242  18.862  1.00  0.00     0.046 C 
HETATM    4  C6  UNL     1       7.211  44.725  18.745  1.00  0.00     0.055 C 
HETATM    5  N3  UNL     1       7.829  45.318  17.630  1.00  0.00    -0.400 N 
ATOM      6  H3  UNL     1       7.481  46.198  17.249  1.00  0.00     0.158 HD
HETATM    7  C7  UNL     1       8.941  44.672  17.048  1.00  0.00     0.145 C 
ENDROOT
BRANCH   1   8
HETATM    8  N2  UNL     1      10.056  42.605  17.552  1.00  0.00    -0.334 N 
HETATM    9  N1  UNL     1      10.068  41.361  17.751  1.00  0.00    -0.341 N 
ATOM     10  H1  UNL     1       9.272  40.777  17.491  1.00  0.00     0.179 HD
ATOM     11  H2  UNL     1      10.855  43.183  17.814  1.00  0.00     0.180 HD
BRANCH   9  12
HETATM   12  C2  UNL     1      11.239  40.794  18.354  1.00  0.00     0.134 C 
HETATM   13  C1  UNL     1      10.793  40.054  19.596  1.00  0.00     0.028 C 
ENDBRANCH   9  12
ENDBRANCH   1   8
TORSDOF 2
ENDMDL
MODEL 4
REMARK VINA RESULT: -5.148513529      1.996      4.344
REMARK  2 active torsions:
REMARK  status: ('A' for Active; 'I' for Inactive)
REMARK    1  A    between atoms: C2_2  and  N1_3 
REMARK    2  A    between atoms: N2_5  and  C3_7 
ROOT
HETATM    1  C3  UNL     1       8.579  43.460  16.328  1.00  0.00     0.117 C 
HETATM    2  C4  UNL     1       7.161  43.152  15.965  1.00  0.00     0.033 C 
HETATM    3  C5  UNL     1       6.256  43.444  17.132  1.00  0.00     0.046 C 
HETATM    4  C6  UNL     1       6.418  44.822  17.684  1.00  0.00     0.055 C 
HETATM    5  N3  UNL     1       7.629  45.472  17.388  1.00  0.00    -0.400 N 
ATOM      6  H3  UNL     1       7.680  46.490  17.359  1.00  0.00     0.158 HD
HETATM    7  C7  UNL     1       8.774  44.687  17.132  1.00  0.00     0.145 C 
ENDROOT
BRANCH   1   8
HETATM    8  N2  UNL     1       9.117  42.312  17.035  1.00  0.00    -0.334 N 
HETATM    9  N1  UNL     1      10.329  42.335  17.382  1.00  0.00    -0.341 N 
ATOM     10  H1  UNL     1      10.923  43.137  17.174  1.00  0.00     0.179 HD
ATOM     11  H2  UNL     1       8.529  41.506  17.247  1.00  0.00     0.180 HD
BRANCH   9  12
HETATM   12  C2  UNL     1      10.843  41.191  18.079  1.00  0.00     0.134 C 
HETATM   13  C1  UNL     1      10.081  39.982  17.584  1.00  0.00     0.028 C 
ENDBRANCH   9  12
ENDBRANCH   1   8
TORSDOF 2
ENDMDL
MODEL 5
REMARK VINA RESULT: -5.140087907      1.718      4.413
REMARK  2 active torsions:
REMARK  status: ('A' for Active; 'I' for Inactive)
REMARK    1  A    between atoms: C2_2  and  N1_3 
REMARK    2  A    between atoms: N2_5  and  C3_7 
ROOT
HETATM    1  C3  UNL     1       8.560  43.746  17.527  1.00  0.00     0.117 C 
HETATM    2  C4  UNL     1       8.168  43.633  16.087  1.00  0.00     0.033 C 
HETATM    3  C5  UNL     1       6.860  42.898  15.966  1.00  0.00     0.046 C 
HETATM    4  C6  UNL     1       5.771  43.474  16.810  1.00  0.00     0.055 C 
HETATM    5  N3  UNL     1       6.180  44.270  17.895  1.00  0.00    -0.400 N 
ATOM      6  H3  UNL     1       5.570  45.000  18.264  1.00  0.00     0.158 HD
HETATM    7  C7  UNL     1       7.451  44.039  18.462  1.00  0.00     0.145 C 
ENDROOT
BRANCH   1   8
HETATM    8  N2  UNL     1       9.217  42.507  17.908  1.00  0.00    -0.334 N 
HETATM    9  N1  UNL     1      10.400  42.312  17.520  1.00  0.00    -0.341 N 
ATOM     10  H1  UNL     1      10.890  43.003  16.952  1.00  0.00     0.179 HD
ATOM     11  H2  UNL     1       8.732  41.812  18.476  1.00  0.00     0.180 HD
BRANCH   9  12
HETATM   12  C2  UNL     1      11.032  41.084  17.907  1.00  0.00     0.134 C 
HETATM   13  C1  UNL     1      10.073  39.961  17.578  1.00  0.00     0.028 C 
ENDBRANCH   9  12
ENDBRANCH   1   8
TORSDOF 2
ENDMDL
