MODEL 1
REMARK VINA RESULT: -5.697566113      0.000      0.000
REMARK  2 active torsions:
REMARK  status: ('A' for Active; 'I' for Inactive)
REMARK    1  A    between atoms: O1_2  and  N1_3 
REMARK    2  A    between atoms: N1_3  and  C2_4 
ROOT
HETATM    1  C2  UNL     1       9.664  41.405  17.978  1.00  0.00     0.135 C 
HETATM    2  C3  UNL     1      10.206  42.497  17.112  1.00  0.00     0.028 C 
HETATM    3  C4  UNL     1       9.317  43.703  17.208  1.00  0.00     0.034 C 
HETATM    4  C5  UNL     1       7.907  43.309  17.513  1.00  0.00     0.124 C 
HETATM    5  C6  UNL     1       7.583  42.058  16.731  1.00  0.00     0.065 C 
HETATM    6  C7  UNL     1       8.152  41.445  17.968  1.00  0.00     0.145 C 
HETATM    7  O2  UNL     1       7.777  42.590  18.685  1.00  0.00    -0.379 OA
ENDROOT
BRANCH   1   8
HETATM    8  N1  UNL     1      10.157  40.094  17.610  1.00  0.00    -0.094 NA
BRANCH   8   9
HETATM    9  O1  UNL     1      10.561  39.375  18.657  1.00  0.00    -0.291 OA
HETATM   10  C1  UNL     1      11.271  40.087  19.601  1.00  0.00     0.231 C 
ENDBRANCH   8   9
ENDBRANCH   1   8
TORSDOF 2
ENDMDL
MODEL 2
REMARK VINA RESULT: -5.510947632      1.833      3.669
REMARK  2 active torsions:
REMARK  status: ('A' for Active; 'I' for Inactive)
REMARK    1  A    between atoms: O1_2  and  N1_3 
REMARK    2  A    between atoms: N1_3  and  C2_4 
ROOT
HETATM    1  C2  UNL     1       9.066  42.196  17.092  1.00  0.00     0.135 C 
HETATM    2  C3  UNL     1      10.437  42.685  17.436  1.00  0.00     0.028 C 
HETATM    3  C4  UNL     1      11.372  41.516  17.555  1.00  0.00     0.034 C 
HETATM    4  C5  UNL     1      10.641  40.283  17.980  1.00  0.00     0.124 C 
HETATM    5  C6  UNL     1       9.612  40.674  19.015  1.00  0.00     0.065 C 
HETATM    6  C7  UNL     1       8.809  40.869  17.770  1.00  0.00     0.145 C 
HETATM    7  O2  UNL     1       9.619  39.926  17.123  1.00  0.00    -0.379 OA
ENDROOT
BRANCH   1   8
HETATM    8  N1  UNL     1       8.028  43.156  17.407  1.00  0.00    -0.094 NA
BRANCH   8   9
HETATM    9  O1  UNL     1       8.450  44.139  18.203  1.00  0.00    -0.291 OA
HETATM   10  C1  UNL     1       7.486  45.076  18.514  1.00  0.00     0.231 C 
ENDBRANCH   8   9
ENDBRANCH   1   8
TORSDOF 2
ENDMDL
MODEL 3
REMARK VINA RESULT: -5.444688401      1.881      3.967
REMARK  2 active torsions:
REMARK  status: ('A' for Active; 'I' for Inactive)
REMARK    1  A    between atoms: O1_2  and  N1_3 
REMARK    2  A    between atoms: N1_3  and  C2_4 
ROOT
HETATM    1  C2  UNL     1       9.914  42.213  17.934  1.00  0.00     0.135 C 
HETATM    2  C3  UNL     1       8.696  41.598  18.546  1.00  0.00     0.028 C 
HETATM    3  C4  UNL     1       9.089  40.386  19.340  1.00  0.00     0.034 C 
HETATM    4  C5  UNL     1      10.325  39.755  18.783  1.00  0.00     0.124 C 
HETATM    5  C6  UNL     1      10.250  39.812  17.275  1.00  0.00     0.065 C 
HETATM    6  C7  UNL     1      10.897  41.131  17.548  1.00  0.00     0.145 C 
HETATM    7  O2  UNL     1      11.409  40.610  18.744  1.00  0.00    -0.379 OA
ENDROOT
BRANCH   1   8
HETATM    8  N1  UNL     1       9.610  43.072  16.809  1.00  0.00    -0.094 NA
BRANCH   8   9
HETATM    9  O1  UNL     1       9.512  44.358  17.145  1.00  0.00    -0.291 OA
HETATM   10  C1  UNL     1       8.329  44.960  16.768  1.00  0.00     0.231 C 
ENDBRANCH   8   9
ENDBRANCH   1   8
TORSDOF 2
ENDMDL
MODEL 4
REMARK VINA RESULT: -5.304281946      1.905      2.271
REMARK  2 active torsions:
REMARK  status: ('A' for Active; 'I' for Inactive)
REMARK    1  A    between atoms: O1_2  and  N1_3 
REMARK    2  A    between atoms: N1_3  and  C2_4 
ROOT
HETATM    1  C2  UNL     1       8.450  42.876  18.198  1.00  0.00     0.135 C 
HETATM    2  C3  UNL     1       8.811  43.528  16.902  1.00  0.00     0.028 C 
HETATM    3  C4  UNL     1       8.615  45.013  17.014  1.00  0.00     0.034 C 
HETATM    4  C5  UNL     1       7.545  45.340  18.007  1.00  0.00     0.124 C 
HETATM    5  C6  UNL     1       6.431  44.331  17.855  1.00  0.00     0.065 C 
HETATM    6  C7  UNL     1       7.295  43.612  18.839  1.00  0.00     0.145 C 
HETATM    7  O2  UNL     1       7.797  44.847  19.271  1.00  0.00    -0.379 OA
ENDROOT
BRANCH   1   8
HETATM    8  N1  UNL     1       8.160  41.464  18.059  1.00  0.00    -0.094 NA
BRANCH   8   9
HETATM    9  O1  UNL     1       8.929  40.859  17.153  1.00  0.00    -0.291 OA
HETATM   10  C1  UNL     1       9.913  40.051  17.685  1.00  0.00     0.231 C 
ENDBRANCH   8   9
ENDBRANCH   1   8
TORSDOF 2
ENDMDL
MODEL 5
REMARK VINA RESULT: -5.247598939      2.328      3.771
REMARK  2 active torsions:
REMARK  status: ('A' for Active; 'I' for Inactive)
REMARK    1  A    between atoms: O1_2  and  N1_3 
REMARK    2  A    between atoms: N1_3  and  C2_4 
ROOT
HETATM    1  C2  UNL     1       8.824  43.249  16.534  1.00  0.00     0.135 C 
HETATM    2  C3  UNL     1      10.156  43.160  17.207  1.00  0.00     0.028 C 
HETATM    3  C4  UNL     1      10.436  41.733  17.582  1.00  0.00     0.034 C 
HETATM    4  C5  UNL     1       9.166  40.983  17.828  1.00  0.00     0.124 C 
HETATM    5  C6  UNL     1       8.209  41.894  18.558  1.00  0.00     0.065 C 
HETATM    6  C7  UNL     1       7.871  42.248  17.146  1.00  0.00     0.145 C 
HETATM    7  O2  UNL     1       8.310  40.979  16.744  1.00  0.00    -0.379 OA
ENDROOT
BRANCH   1   8
HETATM    8  N1  UNL     1       8.267  44.586  16.556  1.00  0.00    -0.094 NA
BRANCH   8   9
HETATM    9  O1  UNL     1       8.575  45.262  17.664  1.00  0.00    -0.291 OA
HETATM   10  C1  UNL     1       7.487  45.672  18.405  1.00  0.00     0.231 C 
ENDBRANCH   8   9
ENDBRANCH   1   8
TORSDOF 2
ENDMDL
