MODEL 1
REMARK VINA RESULT: -5.282503186      0.000      0.000
REMARK  1 active torsions:
REMARK  status: ('A' for Active; 'I' for Inactive)
REMARK    1  A    between atoms: C2_2  and  C3_3 
ROOT
HETATM    1  C3  UNL     1      10.022  41.548  17.421  1.00  0.00     0.091 C 
HETATM    2  C4  UNL     1       8.837  40.859  17.998  1.00  0.00     0.099 C 
HETATM    3  S1  UNL     1       7.332  41.721  17.405  1.00  0.00    -0.160 SA
HETATM    4  C5  UNL     1       7.954  43.069  16.343  1.00  0.00     0.146 C 
HETATM    5  C6  UNL     1       9.080  43.731  17.037  1.00  0.00     0.098 C 
HETATM    6  N1  UNL     1       9.156  45.133  17.180  1.00  0.00    -0.087 NA
HETATM    7  N2  UNL     1       9.998  42.972  17.509  1.00  0.00    -0.376 N 
ATOM      8  H2  UNL     1      10.777  43.424  17.988  1.00  0.00     0.160 HD
ENDROOT
BRANCH   1   9
HETATM    9  C2  UNL     1      11.312  41.084  18.098  1.00  0.00     0.021 C 
HETATM   10  C1  UNL     1      10.995  40.187  19.270  1.00  0.00     0.007 C 
ENDBRANCH   1   9
TORSDOF 1
ENDMDL
MODEL 2
REMARK VINA RESULT: -5.236583840      1.284      1.482
REMARK  1 active torsions:
REMARK  status: ('A' for Active; 'I' for Inactive)
REMARK    1  A    between atoms: C2_2  and  C3_3 
ROOT
HETATM    1  C3  UNL     1       8.512  41.608  17.340  1.00  0.00     0.091 C 
HETATM    2  C4  UNL     1       7.039  41.414  17.411  1.00  0.00     0.099 C 
HETATM    3  S1  UNL     1       6.240  42.769  16.470  1.00  0.00    -0.160 SA
HETATM    4  C5  UNL     1       7.623  43.780  15.841  1.00  0.00     0.146 C 
HETATM    5  C6  UNL     1       8.593  43.982  16.938  1.00  0.00     0.098 C 
HETATM    6  N1  UNL     1       9.101  45.256  17.268  1.00  0.00    -0.087 NA
HETATM    7  N2  UNL     1       8.961  42.941  17.588  1.00  0.00    -0.376 N 
ATOM      8  H2  UNL     1       9.630  43.074  18.346  1.00  0.00     0.160 HD
ENDROOT
BRANCH   1   9
HETATM    9  C2  UNL     1       9.236  40.705  18.338  1.00  0.00     0.021 C 
HETATM   10  C1  UNL     1      10.165  39.763  17.612  1.00  0.00     0.007 C 
ENDBRANCH   1   9
TORSDOF 1
ENDMDL
MODEL 3
REMARK VINA RESULT: -5.230699617      1.263      1.481
REMARK  1 active torsions:
REMARK  status: ('A' for Active; 'I' for Inactive)
REMARK    1  A    between atoms: C2_2  and  C3_3 
ROOT
HETATM    1  C3  UNL     1       9.293  42.659  17.101  1.00  0.00     0.091 C 
HETATM    2  C4  UNL     1       8.447  42.110  18.194  1.00  0.00     0.099 C 
HETATM    3  S1  UNL     1       6.735  42.719  17.951  1.00  0.00    -0.160 SA
HETATM    4  C5  UNL     1       6.815  43.747  16.445  1.00  0.00     0.146 C 
HETATM    5  C6  UNL     1       8.008  44.616  16.533  1.00  0.00     0.098 C 
HETATM    6  N1  UNL     1       7.946  46.005  16.293  1.00  0.00    -0.087 NA
HETATM    7  N2  UNL     1       9.117  44.051  16.839  1.00  0.00    -0.376 N 
ATOM      8  H2  UNL     1       9.943  44.646  16.900  1.00  0.00     0.160 HD
ENDROOT
BRANCH   1   9
HETATM    9  C2  UNL     1      10.778  42.448  17.394  1.00  0.00     0.021 C 
HETATM   10  C1  UNL     1      11.008  41.070  17.964  1.00  0.00     0.007 C 
ENDBRANCH   1   9
TORSDOF 1
ENDMDL
MODEL 4
REMARK VINA RESULT: -5.120972843      1.759      1.971
REMARK  1 active torsions:
REMARK  status: ('A' for Active; 'I' for Inactive)
REMARK    1  A    between atoms: C2_2  and  C3_3 
ROOT
HETATM    1  C3  UNL     1       8.523  42.022  17.420  1.00  0.00     0.091 C 
HETATM    2  C4  UNL     1       7.340  41.663  16.593  1.00  0.00     0.099 C 
HETATM    3  S1  UNL     1       6.646  43.208  15.892  1.00  0.00    -0.160 SA
HETATM    4  C5  UNL     1       7.731  44.534  16.520  1.00  0.00     0.146 C 
HETATM    5  C6  UNL     1       7.969  44.302  17.961  1.00  0.00     0.098 C 
HETATM    6  N1  UNL     1       7.808  45.321  18.924  1.00  0.00    -0.087 NA
HETATM    7  N2  UNL     1       8.331  43.123  18.308  1.00  0.00    -0.376 N 
ATOM      8  H2  UNL     1       8.498  42.958  19.300  1.00  0.00     0.160 HD
ENDROOT
BRANCH   1   9
HETATM    9  C2  UNL     1       8.976  40.838  18.276  1.00  0.00     0.021 C 
HETATM   10  C1  UNL     1       9.974  39.997  17.517  1.00  0.00     0.007 C 
ENDBRANCH   1   9
TORSDOF 1
ENDMDL
MODEL 5
REMARK VINA RESULT: -5.031497133      2.444      2.908
REMARK  1 active torsions:
REMARK  status: ('A' for Active; 'I' for Inactive)
REMARK    1  A    between atoms: C2_2  and  C3_3 
ROOT
HETATM    1  C3  UNL     1       8.465  42.641  18.081  1.00  0.00     0.091 C 
HETATM    2  C4  UNL     1       8.325  42.952  16.634  1.00  0.00     0.099 C 
HETATM    3  S1  UNL     1       7.910  44.730  16.471  1.00  0.00    -0.160 SA
HETATM    4  C5  UNL     1       7.854  45.356  18.184  1.00  0.00     0.146 C 
HETATM    5  C6  UNL     1       7.096  44.392  19.010  1.00  0.00     0.098 C 
HETATM    6  N1  UNL     1       6.052  44.795  19.870  1.00  0.00    -0.087 NA
HETATM    7  N2  UNL     1       7.428  43.158  18.916  1.00  0.00    -0.376 N 
ATOM      8  H2  UNL     1       6.909  42.489  19.484  1.00  0.00     0.160 HD
ENDROOT
BRANCH   1   9
HETATM    9  C2  UNL     1       8.512  41.131  18.319  1.00  0.00     0.021 C 
HETATM   10  C1  UNL     1       9.652  40.516  17.543  1.00  0.00     0.007 C 
ENDBRANCH   1   9
TORSDOF 1
ENDMDL
