MODEL 1
REMARK VINA RESULT: -4.996561094      0.000      0.000
REMARK  1 active torsions:
REMARK  status: ('A' for Active; 'I' for Inactive)
REMARK    1  A    between atoms: C2_2  and  C3_3 
ROOT
HETATM    1  C3  UNL     1       9.814  42.470  17.727  1.00  0.00     0.099 C 
HETATM    2  C4  UNL     1      11.217  42.087  17.414  1.00  0.00     0.096 C 
HETATM    3  N1  UNL     1      11.871  41.156  18.168  1.00  0.00    -0.308 N 
ATOM      4  H1  UNL     1      12.870  41.212  17.969  1.00  0.00     0.186 HD
HETATM    5  N2  UNL     1      11.685  40.305  18.973  1.00  0.00    -0.265 N 
ATOM      6  H2  UNL     1      12.470  39.770  19.347  1.00  0.00     0.196 HD
HETATM    7  S1  UNL     1      10.064  39.975  19.514  1.00  0.00     0.036 SA
HETATM    8  S2  UNL     1       8.839  40.966  18.067  1.00  0.00    -0.064 SA
ENDROOT
BRANCH   1   9
HETATM    9  C2  UNL     1       9.211  43.274  16.610  1.00  0.00     0.017 C 
HETATM   10  C1  UNL     1       8.827  44.658  17.019  1.00  0.00     0.006 C 
ENDBRANCH   1   9
TORSDOF 1
ENDMDL
MODEL 2
REMARK VINA RESULT: -4.815964870      2.669      3.692
REMARK  1 active torsions:
REMARK  status: ('A' for Active; 'I' for Inactive)
REMARK    1  A    between atoms: C2_2  and  C3_3 
ROOT
HETATM    1  C3  UNL     1       9.599  41.013  17.338  1.00  0.00     0.099 C 
HETATM    2  C4  UNL     1      10.439  42.223  17.540  1.00  0.00     0.096 C 
HETATM    3  N1  UNL     1       9.993  43.455  17.155  1.00  0.00    -0.308 N 
ATOM      4  H1  UNL     1      10.781  44.102  17.139  1.00  0.00     0.186 HD
HETATM    5  N2  UNL     1       9.010  44.036  16.833  1.00  0.00    -0.265 N 
ATOM      6  H2  UNL     1       9.054  45.027  16.595  1.00  0.00     0.196 HD
HETATM    7  S1  UNL     1       7.493  43.185  16.768  1.00  0.00     0.036 SA
HETATM    8  S2  UNL     1       7.883  41.376  17.840  1.00  0.00    -0.064 SA
ENDROOT
BRANCH   1   9
HETATM    9  C2  UNL     1      10.155  39.837  18.091  1.00  0.00     0.017 C 
HETATM   10  C1  UNL     1       9.936  39.924  19.566  1.00  0.00     0.006 C 
ENDBRANCH   1   9
TORSDOF 1
ENDMDL
MODEL 3
REMARK VINA RESULT: -4.672534301      3.529      4.398
REMARK  1 active torsions:
REMARK  status: ('A' for Active; 'I' for Inactive)
REMARK    1  A    between atoms: C2_2  and  C3_3 
ROOT
HETATM    1  C3  UNL     1       9.021  41.556  18.036  1.00  0.00     0.099 C 
HETATM    2  C4  UNL     1       7.732  41.392  17.312  1.00  0.00     0.096 C 
HETATM    3  N1  UNL     1       7.020  42.481  16.899  1.00  0.00    -0.308 N 
ATOM      4  H1  UNL     1       6.074  42.185  16.658  1.00  0.00     0.186 HD
HETATM    5  N2  UNL     1       7.115  43.650  16.721  1.00  0.00    -0.265 N 
ATOM      6  H2  UNL     1       6.316  44.185  16.380  1.00  0.00     0.196 HD
HETATM    7  S1  UNL     1       8.628  44.446  17.048  1.00  0.00     0.036 SA
HETATM    8  S2  UNL     1      10.024  42.833  17.203  1.00  0.00    -0.064 SA
ENDROOT
BRANCH   1   9
HETATM    9  C2  UNL     1       9.760  40.251  18.129  1.00  0.00     0.017 C 
HETATM   10  C1  UNL     1      10.075  39.849  19.532  1.00  0.00     0.006 C 
ENDBRANCH   1   9
TORSDOF 1
ENDMDL
MODEL 4
REMARK VINA RESULT: -4.636555179      3.186      4.077
REMARK  1 active torsions:
REMARK  status: ('A' for Active; 'I' for Inactive)
REMARK    1  A    between atoms: C2_2  and  C3_3 
ROOT
HETATM    1  C3  UNL     1       8.500  42.101  17.676  1.00  0.00     0.099 C 
HETATM    2  C4  UNL     1       9.669  42.957  17.339  1.00  0.00     0.096 C 
HETATM    3  N1  UNL     1       9.495  44.253  16.949  1.00  0.00    -0.308 N 
ATOM      4  H1  UNL     1      10.360  44.590  16.527  1.00  0.00     0.186 HD
HETATM    5  N2  UNL     1       8.691  45.126  16.930  1.00  0.00    -0.265 N 
ATOM      6  H2  UNL     1       8.928  46.034  16.530  1.00  0.00     0.196 HD
HETATM    7  S1  UNL     1       7.105  44.844  17.588  1.00  0.00     0.036 SA
HETATM    8  S2  UNL     1       7.340  43.046  18.721  1.00  0.00    -0.064 SA
ENDROOT
BRANCH   1   9
HETATM    9  C2  UNL     1       8.936  40.831  18.351  1.00  0.00     0.017 C 
HETATM   10  C1  UNL     1       9.960  40.071  17.573  1.00  0.00     0.006 C 
ENDBRANCH   1   9
TORSDOF 1
ENDMDL
MODEL 5
REMARK VINA RESULT: -4.560812456      2.294      2.521
REMARK  1 active torsions:
REMARK  status: ('A' for Active; 'I' for Inactive)
REMARK    1  A    between atoms: C2_2  and  C3_3 
ROOT
HETATM    1  C3  UNL     1       8.954  41.119  17.631  1.00  0.00     0.099 C 
HETATM    2  C4  UNL     1       9.346  40.461  18.906  1.00  0.00     0.096 C 
HETATM    3  N1  UNL     1      10.659  40.224  19.195  1.00  0.00    -0.308 N 
ATOM      4  H1  UNL     1      10.714  39.558  19.966  1.00  0.00     0.186 HD
HETATM    5  N2  UNL     1      11.759  40.521  18.863  1.00  0.00    -0.265 N 
ATOM      6  H2  UNL     1      12.566  40.116  19.339  1.00  0.00     0.196 HD
HETATM    7  S1  UNL     1      11.986  41.651  17.559  1.00  0.00     0.036 SA
HETATM    8  S2  UNL     1      10.055  42.540  17.320  1.00  0.00    -0.064 SA
ENDROOT
BRANCH   1   9
HETATM    9  C2  UNL     1       7.511  41.538  17.660  1.00  0.00     0.017 C 
HETATM   10  C1  UNL     1       6.848  41.463  16.324  1.00  0.00     0.006 C 
ENDBRANCH   1   9
TORSDOF 1
ENDMDL
