MODEL 1
REMARK VINA RESULT: -5.275201517      0.000      0.000
REMARK  1 active torsions:
REMARK  status: ('A' for Active; 'I' for Inactive)
REMARK    1  A    between atoms: N2_3  and  C2_5 
ROOT
HETATM    1  N1  UNL     1      11.155  39.449  19.824  1.00  0.00    -0.172 NA
HETATM    2  C1  UNL     1      11.034  40.292  19.034  1.00  0.00     0.177 C 
HETATM    3  N2  UNL     1      10.895  41.293  18.068  1.00  0.00    -0.323 N 
ATOM      4  H2  UNL     1      11.703  41.549  17.501  1.00  0.00     0.172 HD
ENDROOT
BRANCH   3   5
HETATM    5  C2  UNL     1       9.653  41.966  17.854  1.00  0.00     0.101 C 
HETATM    6  C3  UNL     1       8.644  41.162  17.101  1.00  0.00     0.027 C 
HETATM    7  C4  UNL     1       7.281  41.442  17.725  1.00  0.00     0.012 C 
HETATM    8  C5  UNL     1       7.093  42.889  18.061  1.00  0.00     0.074 C 
HETATM    9  S1  UNL     1       8.128  43.980  17.032  1.00  0.00    -0.167 SA
HETATM   10  C6  UNL     1       9.828  43.283  17.088  1.00  0.00     0.099 C 
ENDBRANCH   3   5
TORSDOF 1
ENDMDL
MODEL 2
REMARK VINA RESULT: -5.194421801      2.882      4.241
REMARK  1 active torsions:
REMARK  status: ('A' for Active; 'I' for Inactive)
REMARK    1  A    between atoms: N2_3  and  C2_5 
ROOT
HETATM    1  N1  UNL     1       7.596  45.657  19.090  1.00  0.00    -0.172 NA
HETATM    2  C1  UNL     1       7.542  44.513  18.894  1.00  0.00     0.177 C 
HETATM    3  N2  UNL     1       7.461  43.140  18.642  1.00  0.00    -0.323 N 
ATOM      4  H2  UNL     1       6.561  42.671  18.743  1.00  0.00     0.172 HD
ENDROOT
BRANCH   3   5
HETATM    5  C2  UNL     1       8.603  42.378  18.247  1.00  0.00     0.101 C 
HETATM    6  C3  UNL     1       9.284  42.889  17.019  1.00  0.00     0.027 C 
HETATM    7  C4  UNL     1      10.786  42.735  17.234  1.00  0.00     0.012 C 
HETATM    8  C5  UNL     1      11.140  41.436  17.889  1.00  0.00     0.074 C 
HETATM    9  S1  UNL     1       9.886  40.147  17.591  1.00  0.00    -0.167 SA
HETATM   10  C6  UNL     1       8.259  40.908  17.981  1.00  0.00     0.099 C 
ENDBRANCH   3   5
TORSDOF 1
ENDMDL
MODEL 3
REMARK VINA RESULT: -5.174571780      2.871      4.411
REMARK  1 active torsions:
REMARK  status: ('A' for Active; 'I' for Inactive)
REMARK    1  A    between atoms: N2_3  and  C2_5 
ROOT
HETATM    1  N1  UNL     1       7.938  45.705  16.426  1.00  0.00    -0.172 NA
HETATM    2  C1  UNL     1       7.966  44.812  17.168  1.00  0.00     0.177 C 
HETATM    3  N2  UNL     1       7.978  43.732  18.056  1.00  0.00    -0.323 N 
ATOM      4  H2  UNL     1       7.294  43.704  18.812  1.00  0.00     0.172 HD
ENDROOT
BRANCH   3   5
HETATM    5  C2  UNL     1       8.922  42.666  17.932  1.00  0.00     0.101 C 
HETATM    6  C3  UNL     1       9.951  42.882  16.871  1.00  0.00     0.027 C 
HETATM    7  C4  UNL     1      11.277  42.353  17.408  1.00  0.00     0.012 C 
HETATM    8  C5  UNL     1      11.119  41.061  18.149  1.00  0.00     0.074 C 
HETATM    9  S1  UNL     1       9.647  40.131  17.613  1.00  0.00    -0.167 SA
HETATM   10  C6  UNL     1       8.248  41.324  17.626  1.00  0.00     0.099 C 
ENDBRANCH   3   5
TORSDOF 1
ENDMDL
MODEL 4
REMARK VINA RESULT: -5.092635345      1.288      1.899
REMARK  1 active torsions:
REMARK  status: ('A' for Active; 'I' for Inactive)
REMARK    1  A    between atoms: N2_3  and  C2_5 
ROOT
HETATM    1  N1  UNL     1      11.231  39.657  19.738  1.00  0.00    -0.172 NA
HETATM    2  C1  UNL     1      11.076  40.394  18.854  1.00  0.00     0.177 C 
HETATM    3  N2  UNL     1      10.899  41.267  17.776  1.00  0.00    -0.323 N 
ATOM      4  H2  UNL     1      11.715  41.571  17.246  1.00  0.00     0.172 HD
ENDROOT
BRANCH   3   5
HETATM    5  C2  UNL     1       9.606  41.744  17.398  1.00  0.00     0.101 C 
HETATM    6  C3  UNL     1       9.472  43.232  17.423  1.00  0.00     0.027 C 
HETATM    7  C4  UNL     1       8.618  43.632  16.225  1.00  0.00     0.012 C 
HETATM    8  C5  UNL     1       7.460  42.707  16.014  1.00  0.00     0.074 C 
HETATM    9  S1  UNL     1       6.957  41.865  17.549  1.00  0.00    -0.167 SA
HETATM   10  C6  UNL     1       8.494  41.186  18.295  1.00  0.00     0.099 C 
ENDBRANCH   3   5
TORSDOF 1
ENDMDL
MODEL 5
REMARK VINA RESULT: -5.062506091      2.983      4.158
REMARK  1 active torsions:
REMARK  status: ('A' for Active; 'I' for Inactive)
REMARK    1  A    between atoms: N2_3  and  C2_5 
ROOT
HETATM    1  N1  UNL     1       7.845  45.809  16.436  1.00  0.00    -0.172 NA
HETATM    2  C1  UNL     1       7.752  44.651  16.469  1.00  0.00     0.177 C 
HETATM    3  N2  UNL     1       7.637  43.258  16.486  1.00  0.00    -0.323 N 
ATOM      4  H2  UNL     1       6.790  42.826  16.116  1.00  0.00     0.172 HD
ENDROOT
BRANCH   3   5
HETATM    5  C2  UNL     1       8.672  42.423  17.008  1.00  0.00     0.101 C 
HETATM    6  C3  UNL     1       8.450  41.985  18.419  1.00  0.00     0.027 C 
HETATM    7  C4  UNL     1       8.918  40.537  18.525  1.00  0.00     0.012 C 
HETATM    8  C5  UNL     1      10.194  40.293  17.780  1.00  0.00     0.074 C 
HETATM    9  S1  UNL     1      11.188  41.808  17.595  1.00  0.00    -0.167 SA
HETATM   10  C6  UNL     1      10.045  43.105  16.970  1.00  0.00     0.099 C 
ENDBRANCH   3   5
TORSDOF 1
ENDMDL
