MODEL 1
REMARK VINA RESULT: -8.576808046      0.000      0.000
REMARK  7 active torsions:
REMARK  status: ('A' for Active; 'I' for Inactive)
REMARK    1  A    between atoms: C2_2  and  C3_3 
REMARK    2  A    between atoms: C3_3  and  S1_4 
REMARK    3  A    between atoms: S1_4  and  C4_5 
REMARK    4  A    between atoms: C5_8  and  N2_9 
REMARK    5  A    between atoms: N2_9  and  C6_11 
REMARK    6  A    between atoms: C6_11  and  C7_12 
REMARK    7  A    between atoms: C6_11  and  C12_20 
ROOT
HETATM    1  C4  UNL     1      -6.187  29.383  55.102  1.00  0.00     0.110 A 
HETATM    2  N1  UNL     1      -6.888  29.113  53.960  1.00  0.00    -0.184 N 
ATOM      3  H1  UNL     1      -7.778  29.588  53.808  1.00  0.00     0.185 HD
HETATM    4  C5  UNL     1      -6.452  28.245  53.031  1.00  0.00     0.681 A 
HETATM    5  N4  UNL     1      -5.267  27.644  53.287  1.00  0.00    -0.177 N 
ATOM      6  H4  UNL     1      -4.910  26.981  52.600  1.00  0.00     0.185 HD
HETATM    7  C15 UNL     1      -4.537  27.864  54.377  1.00  0.00     0.155 A 
HETATM    8  N5  UNL     1      -3.282  27.208  54.617  1.00  0.00    -0.080 NA
HETATM    9  C16 UNL     1      -4.991  28.757  55.328  1.00  0.00     0.120 A 
HETATM   10  C17 UNL     1      -4.188  28.973  56.511  1.00  0.00     0.106 C 
HETATM   11  N6  UNL     1      -3.561  29.156  57.466  1.00  0.00    -0.191 NA
ENDROOT
BRANCH   1  12
HETATM   12  S1  UNL     1      -6.820  30.536  56.306  1.00  0.00    -0.110 SA
BRANCH  12  13
HETATM   13  C3  UNL     1      -7.880  31.800  55.582  1.00  0.00     0.080 C 
BRANCH  13  14
HETATM   14  C2  UNL     1      -9.283  31.670  56.074  1.00  0.00     0.006 C 
HETATM   15  C1  UNL     1     -10.221  32.623  55.359  1.00  0.00     0.006 C 
ENDBRANCH  13  14
ENDBRANCH  12  13
ENDBRANCH   1  12
BRANCH   4  16
HETATM   16  N2  UNL     1      -7.068  27.959  51.955  1.00  0.00    -0.216 N 
ATOM     17  H2  UNL     1      -7.460  28.752  51.445  1.00  0.00     0.178 HD
BRANCH  16  18
HETATM   18  C6  UNL     1      -7.282  26.683  51.367  1.00  0.00     0.152 C 
BRANCH  18  19
HETATM   19  C7  UNL     1      -8.100  26.904  50.121  1.00  0.00     0.034 A 
HETATM   20  C8  UNL     1      -9.230  26.157  49.885  1.00  0.00     0.027 A 
HETATM   21  C9  UNL     1      -9.962  26.377  48.740  1.00  0.00     0.005 A 
HETATM   22  C10 UNL     1      -9.593  27.331  47.819  1.00  0.00     0.037 A 
HETATM   23  C11 UNL     1      -8.444  28.050  48.118  1.00  0.00     0.080 A 
HETATM   24 BR1  UNL     1      -7.936  29.372  46.835  1.00  0.00    -0.031 Br
HETATM   25  N3  UNL     1      -7.739  27.830  49.231  1.00  0.00    -0.352 N 
ATOM     26  H3  UNL     1      -6.902  28.385  49.406  1.00  0.00     0.166 HD
ENDBRANCH  18  19
BRANCH  18  27
HETATM   27  C12 UNL     1      -8.102  25.835  52.318  1.00  0.00     0.007 C 
HETATM   28  C13 UNL     1      -7.281  24.905  53.150  1.00  0.00     0.012 C 
HETATM   29  C14 UNL     1      -8.897  26.721  53.261  1.00  0.00     0.012 C 
ENDBRANCH  18  27
ENDBRANCH  16  18
ENDBRANCH   4  16
TORSDOF 7
ENDMDL
MODEL 2
REMARK VINA RESULT: -8.244732476      3.986      6.989
REMARK  7 active torsions:
REMARK  status: ('A' for Active; 'I' for Inactive)
REMARK    1  A    between atoms: C2_2  and  C3_3 
REMARK    2  A    between atoms: C3_3  and  S1_4 
REMARK    3  A    between atoms: S1_4  and  C4_5 
REMARK    4  A    between atoms: C5_8  and  N2_9 
REMARK    5  A    between atoms: N2_9  and  C6_11 
REMARK    6  A    between atoms: C6_11  and  C7_12 
REMARK    7  A    between atoms: C6_11  and  C12_20 
ROOT
HETATM    1  C4  UNL     1      -0.703  27.349  57.489  1.00  0.00     0.110 A 
HETATM    2  N1  UNL     1      -1.662  28.266  57.162  1.00  0.00    -0.184 N 
ATOM      3  H1  UNL     1      -1.639  29.181  57.614  1.00  0.00     0.185 HD
HETATM    4  C5  UNL     1      -2.633  28.012  56.269  1.00  0.00     0.681 A 
HETATM    5  N4  UNL     1      -2.614  26.783  55.702  1.00  0.00    -0.177 N 
ATOM      6  H4  UNL     1      -3.339  26.561  55.021  1.00  0.00     0.185 HD
HETATM    7  C15 UNL     1      -1.710  25.847  55.977  1.00  0.00     0.155 A 
HETATM    8  N5  UNL     1      -1.720  24.551  55.356  1.00  0.00    -0.080 NA
HETATM    9  C16 UNL     1      -0.714  26.115  56.895  1.00  0.00     0.120 A 
HETATM   10  C17 UNL     1       0.252  25.080  57.188  1.00  0.00     0.106 C 
HETATM   11  N6  UNL     1       1.031  24.263  57.438  1.00  0.00    -0.191 NA
ENDROOT
BRANCH   1  12
HETATM   12  S1  UNL     1       0.556  27.738  58.691  1.00  0.00    -0.110 SA
BRANCH  12  13
HETATM   13  C3  UNL     1      -0.121  28.265  60.275  1.00  0.00     0.080 C 
BRANCH  13  14
HETATM   14  C2  UNL     1       0.197  27.277  61.348  1.00  0.00     0.006 C 
HETATM   15  C1  UNL     1       0.196  25.855  60.823  1.00  0.00     0.006 C 
ENDBRANCH  13  14
ENDBRANCH  12  13
ENDBRANCH   1  12
BRANCH   4  16
HETATM   16  N2  UNL     1      -3.548  28.831  55.933  1.00  0.00    -0.216 N 
ATOM     17  H2  UNL     1      -3.289  29.513  55.218  1.00  0.00     0.178 HD
BRANCH  16  18
HETATM   18  C6  UNL     1      -4.879  28.923  56.418  1.00  0.00     0.152 C 
BRANCH  18  19
HETATM   19  C7  UNL     1      -5.704  27.939  55.630  1.00  0.00     0.034 A 
HETATM   20  C8  UNL     1      -6.256  26.839  56.244  1.00  0.00     0.027 A 
HETATM   21  C9  UNL     1      -7.007  25.954  55.505  1.00  0.00     0.005 A 
HETATM   22  C10 UNL     1      -7.223  26.139  54.158  1.00  0.00     0.037 A 
HETATM   23  C11 UNL     1      -6.638  27.268  53.601  1.00  0.00     0.080 A 
HETATM   24 BR1  UNL     1      -6.941  27.520  51.730  1.00  0.00    -0.031 Br
HETATM   25  N3  UNL     1      -5.911  28.123  54.326  1.00  0.00    -0.352 N 
ATOM     26  H3  UNL     1      -5.503  28.938  53.869  1.00  0.00     0.166 HD
ENDBRANCH  18  19
BRANCH  18  27
HETATM   27  C12 UNL     1      -5.413  30.312  56.133  1.00  0.00     0.007 C 
HETATM   28  C13 UNL     1      -6.632  30.659  56.923  1.00  0.00     0.012 C 
HETATM   29  C14 UNL     1      -4.351  31.355  56.435  1.00  0.00     0.012 C 
ENDBRANCH  18  27
ENDBRANCH  16  18
ENDBRANCH   4  16
TORSDOF 7
ENDMDL
MODEL 3
REMARK VINA RESULT: -8.179481375      1.742      3.790
REMARK  7 active torsions:
REMARK  status: ('A' for Active; 'I' for Inactive)
REMARK    1  A    between atoms: C2_2  and  C3_3 
REMARK    2  A    between atoms: C3_3  and  S1_4 
REMARK    3  A    between atoms: S1_4  and  C4_5 
REMARK    4  A    between atoms: C5_8  and  N2_9 
REMARK    5  A    between atoms: N2_9  and  C6_11 
REMARK    6  A    between atoms: C6_11  and  C7_12 
REMARK    7  A    between atoms: C6_11  and  C12_20 
ROOT
HETATM    1  C4  UNL     1      -4.703  28.322  54.809  1.00  0.00     0.110 A 
HETATM    2  N1  UNL     1      -5.298  27.933  53.643  1.00  0.00    -0.184 N 
ATOM      3  H1  UNL     1      -4.805  27.277  53.037  1.00  0.00     0.185 HD
HETATM    4  C5  UNL     1      -6.507  28.379  53.261  1.00  0.00     0.681 A 
HETATM    5  N4  UNL     1      -7.114  29.247  54.104  1.00  0.00    -0.177 N 
ATOM      6  H4  UNL     1      -8.033  29.603  53.841  1.00  0.00     0.185 HD
HETATM    7  C15 UNL     1      -6.589  29.665  55.252  1.00  0.00     0.155 A 
HETATM    8  N5  UNL     1      -7.263  30.588  56.123  1.00  0.00    -0.080 NA
HETATM    9  C16 UNL     1      -5.347  29.202  55.638  1.00  0.00     0.120 A 
HETATM   10  C17 UNL     1      -4.789  29.678  56.885  1.00  0.00     0.106 C 
HETATM   11  N6  UNL     1      -4.326  30.050  57.876  1.00  0.00    -0.191 NA
ENDROOT
BRANCH   1  12
HETATM   12  S1  UNL     1      -3.091  27.706  55.259  1.00  0.00    -0.110 SA
BRANCH  12  13
HETATM   13  C3  UNL     1      -3.076  25.931  55.563  1.00  0.00     0.080 C 
BRANCH  13  14
HETATM   14  C2  UNL     1      -1.710  25.463  55.942  1.00  0.00     0.006 C 
HETATM   15  C1  UNL     1      -1.253  26.066  57.257  1.00  0.00     0.006 C 
ENDBRANCH  13  14
ENDBRANCH  12  13
ENDBRANCH   1  12
BRANCH   4  16
HETATM   16  N2  UNL     1      -7.101  28.047  52.186  1.00  0.00    -0.216 N 
ATOM     17  H2  UNL     1      -7.559  28.807  51.681  1.00  0.00     0.178 HD
BRANCH  16  18
HETATM   18  C6  UNL     1      -7.212  26.761  51.594  1.00  0.00     0.152 C 
BRANCH  18  19
HETATM   19  C7  UNL     1      -8.023  26.924  50.335  1.00  0.00     0.034 A 
HETATM   20  C8  UNL     1      -9.178  26.201  50.149  1.00  0.00     0.027 A 
HETATM   21  C9  UNL     1      -9.904  26.367  48.991  1.00  0.00     0.005 A 
HETATM   22  C10 UNL     1      -9.504  27.242  48.007  1.00  0.00     0.037 A 
HETATM   23  C11 UNL     1      -8.330  27.940  48.257  1.00  0.00     0.080 A 
HETATM   24 BR1  UNL     1      -7.779  29.153  46.887  1.00  0.00    -0.031 Br
HETATM   25  N3  UNL     1      -7.632  27.773  49.384  1.00  0.00    -0.352 N 
ATOM     26  H3  UNL     1      -6.776  28.310  49.520  1.00  0.00     0.166 HD
ENDBRANCH  18  19
BRANCH  18  27
HETATM   27  C12 UNL     1      -7.982  25.853  52.530  1.00  0.00     0.007 C 
HETATM   28  C13 UNL     1      -7.111  24.944  53.334  1.00  0.00     0.012 C 
HETATM   29  C14 UNL     1      -8.811  26.678  53.499  1.00  0.00     0.012 C 
ENDBRANCH  18  27
ENDBRANCH  16  18
ENDBRANCH   4  16
TORSDOF 7
ENDMDL
MODEL 4
REMARK VINA RESULT: -8.103086426      3.688      6.464
REMARK  7 active torsions:
REMARK  status: ('A' for Active; 'I' for Inactive)
REMARK    1  A    between atoms: C2_2  and  C3_3 
REMARK    2  A    between atoms: C3_3  and  S1_4 
REMARK    3  A    between atoms: S1_4  and  C4_5 
REMARK    4  A    between atoms: C5_8  and  N2_9 
REMARK    5  A    between atoms: N2_9  and  C6_11 
REMARK    6  A    between atoms: C6_11  and  C7_12 
REMARK    7  A    between atoms: C6_11  and  C12_20 
ROOT
HETATM    1  C4  UNL     1      -1.189  27.716  57.557  1.00  0.00     0.110 A 
HETATM    2  N1  UNL     1      -2.163  28.576  57.134  1.00  0.00    -0.184 N 
ATOM      3  H1  UNL     1      -2.250  29.482  57.594  1.00  0.00     0.185 HD
HETATM    4  C5  UNL     1      -3.012  28.274  56.136  1.00  0.00     0.681 A 
HETATM    5  N4  UNL     1      -2.849  27.059  55.563  1.00  0.00    -0.177 N 
ATOM      6  H4  UNL     1      -3.478  26.802  54.802  1.00  0.00     0.185 HD
HETATM    7  C15 UNL     1      -1.922  26.179  55.928  1.00  0.00     0.155 A 
HETATM    8  N5  UNL     1      -1.778  24.896  55.297  1.00  0.00    -0.080 NA
HETATM    9  C16 UNL     1      -1.054  26.494  56.954  1.00  0.00     0.120 A 
HETATM   10  C17 UNL     1      -0.060  25.518  57.343  1.00  0.00     0.106 C 
HETATM   11  N6  UNL     1       0.739  24.749  57.670  1.00  0.00    -0.191 NA
ENDROOT
BRANCH   1  12
HETATM   12  S1  UNL     1      -0.099  28.165  58.895  1.00  0.00    -0.110 SA
BRANCH  12  13
HETATM   13  C3  UNL     1      -0.931  29.076  60.207  1.00  0.00     0.080 C 
BRANCH  13  14
HETATM   14  C2  UNL     1      -0.498  28.596  61.552  1.00  0.00     0.006 C 
HETATM   15  C1  UNL     1      -1.298  29.244  62.666  1.00  0.00     0.006 C 
ENDBRANCH  13  14
ENDBRANCH  12  13
ENDBRANCH   1  12
BRANCH   4  16
HETATM   16  N2  UNL     1      -3.935  29.039  55.707  1.00  0.00    -0.216 N 
ATOM     17  H2  UNL     1      -3.658  29.703  54.983  1.00  0.00     0.178 HD
BRANCH  16  18
HETATM   18  C6  UNL     1      -5.298  29.091  56.102  1.00  0.00     0.152 C 
BRANCH  18  19
HETATM   19  C7  UNL     1      -6.022  28.019  55.329  1.00  0.00     0.034 A 
HETATM   20  C8  UNL     1      -6.465  26.881  55.960  1.00  0.00     0.027 A 
HETATM   21  C9  UNL     1      -7.125  25.916  55.234  1.00  0.00     0.005 A 
HETATM   22  C10 UNL     1      -7.354  26.057  53.885  1.00  0.00     0.037 A 
HETATM   23  C11 UNL     1      -6.881  27.229  53.310  1.00  0.00     0.080 A 
HETATM   24 BR1  UNL     1      -7.202  27.420  51.435  1.00  0.00    -0.031 Br
HETATM   25  N3  UNL     1      -6.242  28.161  54.021  1.00  0.00    -0.352 N 
ATOM     26  H3  UNL     1      -5.914  29.005  53.552  1.00  0.00     0.166 HD
ENDBRANCH  18  19
BRANCH  18  27
HETATM   27  C12 UNL     1      -5.878  30.430  55.695  1.00  0.00     0.007 C 
HETATM   28  C13 UNL     1      -7.171  30.753  56.369  1.00  0.00     0.012 C 
HETATM   29  C14 UNL     1      -4.897  31.546  56.013  1.00  0.00     0.012 C 
ENDBRANCH  18  27
ENDBRANCH  16  18
ENDBRANCH   4  16
TORSDOF 7
ENDMDL
MODEL 5
REMARK VINA RESULT: -8.035404552      3.048      6.679
REMARK  7 active torsions:
REMARK  status: ('A' for Active; 'I' for Inactive)
REMARK    1  A    between atoms: C2_2  and  C3_3 
REMARK    2  A    between atoms: C3_3  and  S1_4 
REMARK    3  A    between atoms: S1_4  and  C4_5 
REMARK    4  A    between atoms: C5_8  and  N2_9 
REMARK    5  A    between atoms: N2_9  and  C6_11 
REMARK    6  A    between atoms: C6_11  and  C7_12 
REMARK    7  A    between atoms: C6_11  and  C12_20 
ROOT
HETATM    1  C4  UNL     1      -6.631  28.638  54.554  1.00  0.00     0.110 A 
HETATM    2  N1  UNL     1      -7.314  29.782  54.855  1.00  0.00    -0.184 N 
ATOM      3  H1  UNL     1      -8.240  29.921  54.448  1.00  0.00     0.185 HD
HETATM    4  C5  UNL     1      -6.817  30.732  55.666  1.00  0.00     0.681 A 
HETATM    5  N4  UNL     1      -5.586  30.494  56.176  1.00  0.00    -0.177 N 
ATOM      6  H4  UNL     1      -5.182  31.196  56.795  1.00  0.00     0.185 HD
HETATM    7  C15 UNL     1      -4.870  29.402  55.922  1.00  0.00     0.155 A 
HETATM    8  N5  UNL     1      -3.565  29.181  56.482  1.00  0.00    -0.080 NA
HETATM    9  C16 UNL     1      -5.387  28.431  55.088  1.00  0.00     0.120 A 
HETATM   10  C17 UNL     1      -4.588  27.256  54.817  1.00  0.00     0.106 C 
HETATM   11  N6  UNL     1      -3.962  26.313  54.584  1.00  0.00    -0.191 NA
ENDROOT
BRANCH   1  12
HETATM   12  S1  UNL     1      -7.336  27.418  53.461  1.00  0.00    -0.110 SA
BRANCH  12  13
HETATM   13  C3  UNL     1      -6.765  27.580  51.761  1.00  0.00     0.080 C 
BRANCH  13  14
HETATM   14  C2  UNL     1      -7.825  27.162  50.797  1.00  0.00     0.006 C 
HETATM   15  C1  UNL     1      -8.652  26.010  51.334  1.00  0.00     0.006 C 
ENDBRANCH  13  14
ENDBRANCH  12  13
ENDBRANCH   1  12
BRANCH   4  16
HETATM   16  N2  UNL     1      -7.413  31.813  55.975  1.00  0.00    -0.216 N 
ATOM     17  H2  UNL     1      -6.889  32.672  55.803  1.00  0.00     0.178 HD
BRANCH  16  18
HETATM   18  C6  UNL     1      -8.711  31.983  56.527  1.00  0.00     0.152 C 
BRANCH  18  19
HETATM   19  C7  UNL     1      -9.548  32.671  55.480  1.00  0.00     0.034 A 
HETATM   20  C8  UNL     1      -8.954  33.415  54.488  1.00  0.00     0.027 A 
HETATM   21  C9  UNL     1      -9.739  34.033  53.541  1.00  0.00     0.005 A 
HETATM   22  C10 UNL     1     -11.111  33.928  53.560  1.00  0.00     0.037 A 
HETATM   23  C11 UNL     1     -11.646  33.164  54.587  1.00  0.00     0.080 A 
HETATM   24 BR1  UNL     1     -13.552  33.022  54.609  1.00  0.00    -0.031 Br
HETATM   25  N3  UNL     1     -10.877  32.566  55.502  1.00  0.00    -0.352 N 
ATOM     26  H3  UNL     1     -11.319  32.015  56.237  1.00  0.00     0.166 HD
ENDBRANCH  18  19
BRANCH  18  27
HETATM   27  C12 UNL     1      -8.618  32.903  57.727  1.00  0.00     0.007 C 
HETATM   28  C13 UNL     1      -9.627  32.607  58.788  1.00  0.00     0.012 C 
HETATM   29  C14 UNL     1      -7.240  32.807  58.358  1.00  0.00     0.012 C 
ENDBRANCH  18  27
ENDBRANCH  16  18
ENDBRANCH   4  16
TORSDOF 7
ENDMDL
