MODEL 1
REMARK VINA RESULT: -8.225988628      0.000      0.000
REMARK  7 active torsions:
REMARK  status: ('A' for Active; 'I' for Inactive)
REMARK       I    between atoms: C2_2  and  N1_4 
REMARK    1  A    between atoms: N1_4  and  C3_5 
REMARK    2  A    between atoms: C5_7  and  C6_8 
REMARK    3  A    between atoms: C6_8  and  N2_11 
REMARK       I    between atoms: N2_11  and  C9_13 
REMARK    4  A    between atoms: C9_13  and  C10_15 
REMARK    5  A    between atoms: C13_19  and  C14_20 
REMARK    6  A    between atoms: C14_20  and  N4_21 
REMARK    7  A    between atoms: C16_23  and  C17_24 
ROOT
HETATM    1  C10 UNL     1      -3.213  32.336  55.735  1.00  0.00     0.180 C 
HETATM    2  C11 UNL     1      -2.136  31.349  55.300  1.00  0.00     0.035 C 
HETATM    3  C12 UNL     1      -3.427  33.215  54.590  1.00  0.00     0.073 C 
HETATM    4  N3  UNL     1      -3.610  33.915  53.688  1.00  0.00    -0.196 NA
ENDROOT
BRANCH   1   5
HETATM    5  C9  UNL     1      -4.419  31.614  56.161  1.00  0.00     0.235 C 
HETATM    6  N2  UNL     1      -5.359  31.057  55.252  1.00  0.00    -0.347 N 
ATOM      7  H2  UNL     1      -5.175  31.160  54.254  1.00  0.00     0.163 HD
HETATM    8  O2  UNL     1      -4.646  31.474  57.387  1.00  0.00    -0.272 OA
BRANCH   6   9
HETATM    9  C6  UNL     1      -6.577  30.346  55.652  1.00  0.00     0.054 C 
HETATM   10  C7  UNL     1      -6.703  30.577  57.110  1.00  0.00     0.043 C 
HETATM   11  C8  UNL     1      -7.630  31.183  54.872  1.00  0.00     0.043 C 
BRANCH   9  12
HETATM   12  C5  UNL     1      -6.546  28.972  55.155  1.00  0.00    -0.016 A 
HETATM   13  C4  UNL     1      -7.064  28.724  53.858  1.00  0.00     0.058 A 
HETATM   14  C3  UNL     1      -7.158  27.548  53.229  1.00  0.00     0.150 A 
HETATM   15  C22 UNL     1      -6.678  26.432  53.967  1.00  0.00     0.157 A 
HETATM   16  C21 UNL     1      -6.177  26.612  55.205  1.00  0.00     0.059 A 
HETATM   17  F1  UNL     1      -6.768  25.234  53.358  1.00  0.00    -0.203 F 
HETATM   18  C13 UNL     1      -6.090  27.883  55.845  1.00  0.00    -0.007 A 
BRANCH  14  19
HETATM   19  N1  UNL     1      -7.715  27.292  51.991  1.00  0.00    -0.368 NA
HETATM   20  C2  UNL     1      -8.244  27.050  50.811  1.00  0.00     0.288 C 
HETATM   21  C1  UNL     1      -9.393  26.057  50.682  1.00  0.00     0.135 C 
HETATM   22  O1  UNL     1      -7.928  27.546  49.684  1.00  0.00    -0.258 OA
ENDBRANCH  14  19
BRANCH  18  23
HETATM   23  C14 UNL     1      -5.511  27.811  57.139  1.00  0.00     0.129 C 
BRANCH  23  24
HETATM   24  N4  UNL     1      -4.105  28.029  57.385  1.00  0.00    -0.262 N 
HETATM   25  C15 UNL     1      -2.982  27.471  56.931  1.00  0.00     0.144 A 
HETATM   26  C16 UNL     1      -1.865  28.070  57.466  1.00  0.00     0.052 A 
HETATM   27  N5  UNL     1      -2.343  29.019  58.267  1.00  0.00    -0.288 N 
HETATM   28  N6  UNL     1      -3.650  29.003  58.228  1.00  0.00    -0.237 N 
ATOM     29  H5  UNL     1      -1.778  29.659  58.826  1.00  0.00     0.188 HD
ATOM     30  H6  UNL     1      -4.250  29.635  58.757  1.00  0.00     0.209 HD
BRANCH  26  31
HETATM   31  C17 UNL     1      -0.445  27.680  57.156  1.00  0.00    -0.006 C 
HETATM   32  C18 UNL     1       0.243  28.751  56.374  1.00  0.00     0.021 C 
HETATM   33  C19 UNL     1      -0.540  26.398  56.348  1.00  0.00     0.021 C 
HETATM   34  C20 UNL     1       0.304  27.343  58.438  1.00  0.00     0.021 C 
ENDBRANCH  26  31
ENDBRANCH  23  24
ENDBRANCH  18  23
ENDBRANCH   9  12
ENDBRANCH   6   9
ENDBRANCH   1   5
TORSDOF 7
ENDMDL
MODEL 2
REMARK VINA RESULT: -8.158627429      3.306      7.523
REMARK  7 active torsions:
REMARK  status: ('A' for Active; 'I' for Inactive)
REMARK       I    between atoms: C2_2  and  N1_4 
REMARK    1  A    between atoms: N1_4  and  C3_5 
REMARK    2  A    between atoms: C5_7  and  C6_8 
REMARK    3  A    between atoms: C6_8  and  N2_11 
REMARK       I    between atoms: N2_11  and  C9_13 
REMARK    4  A    between atoms: C9_13  and  C10_15 
REMARK    5  A    between atoms: C13_19  and  C14_20 
REMARK    6  A    between atoms: C14_20  and  N4_21 
REMARK    7  A    between atoms: C16_23  and  C17_24 
ROOT
HETATM    1  C10 UNL     1      -4.463  30.468  58.153  1.00  0.00     0.180 C 
HETATM    2  C11 UNL     1      -4.858  31.747  57.423  1.00  0.00     0.035 C 
HETATM    3  C12 UNL     1      -5.384  29.442  57.675  1.00  0.00     0.073 C 
HETATM    4  N3  UNL     1      -6.104  28.617  57.300  1.00  0.00    -0.196 NA
ENDROOT
BRANCH   1   5
HETATM    5  C9  UNL     1      -3.050  30.159  57.903  1.00  0.00     0.235 C 
HETATM    6  N2  UNL     1      -2.431  28.943  58.304  1.00  0.00    -0.347 N 
ATOM      7  H2  UNL     1      -3.009  28.250  58.780  1.00  0.00     0.163 HD
HETATM    8  O2  UNL     1      -2.336  31.003  57.309  1.00  0.00    -0.272 OA
BRANCH   6   9
HETATM    9  C6  UNL     1      -1.020  28.619  58.080  1.00  0.00     0.054 C 
HETATM   10  C7  UNL     1      -0.442  29.818  57.428  1.00  0.00     0.043 C 
HETATM   11  C8  UNL     1      -0.543  28.516  59.557  1.00  0.00     0.043 C 
BRANCH   9  12
HETATM   12  C5  UNL     1      -0.898  27.324  57.413  1.00  0.00    -0.016 A 
HETATM   13  C4  UNL     1      -0.036  26.359  57.992  1.00  0.00     0.058 A 
HETATM   14  C3  UNL     1       0.240  25.133  57.533  1.00  0.00     0.150 A 
HETATM   15  C22 UNL     1      -0.417  24.782  56.322  1.00  0.00     0.157 A 
HETATM   16  C21 UNL     1      -1.246  25.665  55.730  1.00  0.00     0.059 A 
HETATM   17  F1  UNL     1      -0.150  23.556  55.835  1.00  0.00    -0.203 F 
HETATM   18  C13 UNL     1      -1.520  26.964  56.250  1.00  0.00    -0.007 A 
BRANCH  14  19
HETATM   19  N1  UNL     1       1.123  24.211  58.060  1.00  0.00    -0.368 NA
HETATM   20  C2  UNL     1       1.962  23.332  58.563  1.00  0.00     0.288 C 
HETATM   21  C1  UNL     1       3.440  23.395  58.196  1.00  0.00     0.135 C 
HETATM   22  O1  UNL     1       1.722  22.372  59.361  1.00  0.00    -0.258 OA
ENDBRANCH  14  19
BRANCH  18  23
HETATM   23  C14 UNL     1      -2.436  27.696  55.450  1.00  0.00     0.129 C 
BRANCH  23  24
HETATM   24  N4  UNL     1      -3.762  27.218  55.136  1.00  0.00    -0.262 N 
HETATM   25  C15 UNL     1      -4.616  27.430  54.134  1.00  0.00     0.144 A 
HETATM   26  C16 UNL     1      -5.771  26.697  54.287  1.00  0.00     0.052 A 
HETATM   27  N5  UNL     1      -5.594  26.025  55.422  1.00  0.00    -0.288 N 
HETATM   28  N6  UNL     1      -4.425  26.322  55.926  1.00  0.00    -0.237 N 
ATOM     29  H5  UNL     1      -6.267  25.378  55.835  1.00  0.00     0.188 HD
ATOM     30  H6  UNL     1      -4.057  25.935  56.795  1.00  0.00     0.209 HD
BRANCH  26  31
HETATM   31  C17 UNL     1      -6.932  26.707  53.330  1.00  0.00    -0.006 C 
HETATM   32  C18 UNL     1      -7.326  25.315  52.957  1.00  0.00     0.021 C 
HETATM   33  C19 UNL     1      -6.453  27.477  52.113  1.00  0.00     0.021 C 
HETATM   34  C20 UNL     1      -8.098  27.489  53.919  1.00  0.00     0.021 C 
ENDBRANCH  26  31
ENDBRANCH  23  24
ENDBRANCH  18  23
ENDBRANCH   9  12
ENDBRANCH   6   9
ENDBRANCH   1   5
TORSDOF 7
ENDMDL
MODEL 3
REMARK VINA RESULT: -8.069096262      2.679      5.592
REMARK  7 active torsions:
REMARK  status: ('A' for Active; 'I' for Inactive)
REMARK       I    between atoms: C2_2  and  N1_4 
REMARK    1  A    between atoms: N1_4  and  C3_5 
REMARK    2  A    between atoms: C5_7  and  C6_8 
REMARK    3  A    between atoms: C6_8  and  N2_11 
REMARK       I    between atoms: N2_11  and  C9_13 
REMARK    4  A    between atoms: C9_13  and  C10_15 
REMARK    5  A    between atoms: C13_19  and  C14_20 
REMARK    6  A    between atoms: C14_20  and  N4_21 
REMARK    7  A    between atoms: C16_23  and  C17_24 
ROOT
HETATM    1  C10 UNL     1      -8.429  27.490  50.410  1.00  0.00     0.180 C 
HETATM    2  C11 UNL     1      -7.387  27.380  49.302  1.00  0.00     0.035 C 
HETATM    3  C12 UNL     1      -9.561  26.682  49.968  1.00  0.00     0.073 C 
HETATM    4  N3  UNL     1     -10.463  26.041  49.631  1.00  0.00    -0.196 NA
ENDROOT
BRANCH   1   5
HETATM    5  C9  UNL     1      -7.855  27.055  51.689  1.00  0.00     0.235 C 
HETATM    6  N2  UNL     1      -7.303  27.951  52.645  1.00  0.00    -0.347 N 
ATOM      7  H2  UNL     1      -7.322  28.948  52.428  1.00  0.00     0.163 HD
HETATM    8  O2  UNL     1      -7.839  25.831  51.967  1.00  0.00    -0.272 OA
BRANCH   6   9
HETATM    9  C6  UNL     1      -6.710  27.539  53.921  1.00  0.00     0.054 C 
HETATM   10  C7  UNL     1      -7.407  26.285  54.289  1.00  0.00     0.043 C 
HETATM   11  C8  UNL     1      -5.260  27.240  53.443  1.00  0.00     0.043 C 
BRANCH   9  12
HETATM   12  C5  UNL     1      -6.717  28.655  54.865  1.00  0.00    -0.016 A 
HETATM   13  C4  UNL     1      -7.321  29.869  54.452  1.00  0.00     0.058 A 
HETATM   14  C3  UNL     1      -7.409  31.011  55.142  1.00  0.00     0.150 A 
HETATM   15  C22 UNL     1      -6.820  30.979  56.436  1.00  0.00     0.157 A 
HETATM   16  C21 UNL     1      -6.232  29.849  56.876  1.00  0.00     0.059 A 
HETATM   17  F1  UNL     1      -6.890  32.119  57.149  1.00  0.00    -0.203 F 
HETATM   18  C13 UNL     1      -6.159  28.647  56.113  1.00  0.00    -0.007 A 
BRANCH  14  19
HETATM   19  N1  UNL     1      -7.943  32.214  54.724  1.00  0.00    -0.368 NA
HETATM   20  C2  UNL     1      -8.452  33.359  54.323  1.00  0.00     0.288 C 
HETATM   21  C1  UNL     1      -8.280  34.609  55.179  1.00  0.00     0.135 C 
HETATM   22  O1  UNL     1      -9.110  33.608  53.264  1.00  0.00    -0.258 OA
ENDBRANCH  14  19
BRANCH  18  23
HETATM   23  C14 UNL     1      -5.502  27.595  56.803  1.00  0.00     0.129 C 
BRANCH  23  24
HETATM   24  N4  UNL     1      -4.082  27.349  56.696  1.00  0.00    -0.262 N 
HETATM   25  C15 UNL     1      -2.992  27.984  57.127  1.00  0.00     0.144 A 
HETATM   26  C16 UNL     1      -1.843  27.312  56.778  1.00  0.00     0.052 A 
HETATM   27  N5  UNL     1      -2.268  26.239  56.116  1.00  0.00    -0.288 N 
HETATM   28  N6  UNL     1      -3.574  26.251  56.062  1.00  0.00    -0.237 N 
ATOM     29  H5  UNL     1      -1.668  25.518  55.714  1.00  0.00     0.188 HD
ATOM     30  H6  UNL     1      -4.139  25.535  55.606  1.00  0.00     0.209 HD
BRANCH  26  31
HETATM   31  C17 UNL     1      -0.447  27.760  57.116  1.00  0.00    -0.006 C 
HETATM   32  C18 UNL     1      -0.150  29.088  56.499  1.00  0.00     0.021 C 
HETATM   33  C19 UNL     1       0.473  26.688  56.559  1.00  0.00     0.021 C 
HETATM   34  C20 UNL     1      -0.246  27.777  58.625  1.00  0.00     0.021 C 
ENDBRANCH  26  31
ENDBRANCH  23  24
ENDBRANCH  18  23
ENDBRANCH   9  12
ENDBRANCH   6   9
ENDBRANCH   1   5
TORSDOF 7
ENDMDL
MODEL 4
REMARK VINA RESULT: -7.893077204      4.037      8.086
REMARK  7 active torsions:
REMARK  status: ('A' for Active; 'I' for Inactive)
REMARK       I    between atoms: C2_2  and  N1_4 
REMARK    1  A    between atoms: N1_4  and  C3_5 
REMARK    2  A    between atoms: C5_7  and  C6_8 
REMARK    3  A    between atoms: C6_8  and  N2_11 
REMARK       I    between atoms: N2_11  and  C9_13 
REMARK    4  A    between atoms: C9_13  and  C10_15 
REMARK    5  A    between atoms: C13_19  and  C14_20 
REMARK    6  A    between atoms: C14_20  and  N4_21 
REMARK    7  A    between atoms: C16_23  and  C17_24 
ROOT
HETATM    1  C10 UNL     1      -0.522  29.035  62.049  1.00  0.00     0.180 C 
HETATM    2  C11 UNL     1      -1.512  29.390  63.153  1.00  0.00     0.035 C 
HETATM    3  C12 UNL     1      -0.063  27.683  62.351  1.00  0.00     0.073 C 
HETATM    4  N3  UNL     1       0.305  26.610  62.576  1.00  0.00    -0.196 NA
ENDROOT
BRANCH   1   5
HETATM    5  C9  UNL     1      -1.164  29.163  60.735  1.00  0.00     0.235 C 
HETATM    6  N2  UNL     1      -0.724  28.464  59.578  1.00  0.00    -0.347 N 
ATOM      7  H2  UNL     1       0.073  27.835  59.676  1.00  0.00     0.163 HD
HETATM    8  O2  UNL     1      -2.152  29.927  60.609  1.00  0.00    -0.272 OA
BRANCH   6   9
HETATM    9  C6  UNL     1      -1.338  28.587  58.252  1.00  0.00     0.054 C 
HETATM   10  C7  UNL     1      -2.733  29.015  58.506  1.00  0.00     0.043 C 
HETATM   11  C8  UNL     1      -0.497  29.769  57.690  1.00  0.00     0.043 C 
BRANCH   9  12
HETATM   12  C5  UNL     1      -1.101  27.375  57.471  1.00  0.00    -0.016 A 
HETATM   13  C4  UNL     1      -0.169  26.433  57.974  1.00  0.00     0.058 A 
HETATM   14  C3  UNL     1       0.213  25.283  57.409  1.00  0.00     0.150 A 
HETATM   15  C22 UNL     1      -0.398  24.995  56.159  1.00  0.00     0.157 A 
HETATM   16  C21 UNL     1      -1.291  25.858  55.635  1.00  0.00     0.059 A 
HETATM   17  F1  UNL     1      -0.024  23.846  55.565  1.00  0.00    -0.203 F 
HETATM   18  C13 UNL     1      -1.677  27.076  56.267  1.00  0.00    -0.007 A 
BRANCH  14  19
HETATM   19  N1  UNL     1       1.164  24.390  57.865  1.00  0.00    -0.368 NA
HETATM   20  C2  UNL     1       2.071  23.542  58.300  1.00  0.00     0.288 C 
HETATM   21  C1  UNL     1       1.658  22.134  58.714  1.00  0.00     0.135 C 
HETATM   22  O1  UNL     1       3.321  23.720  58.440  1.00  0.00    -0.258 OA
ENDBRANCH  14  19
BRANCH  18  23
HETATM   23  C14 UNL     1      -2.642  27.803  55.522  1.00  0.00     0.129 C 
BRANCH  23  24
HETATM   24  N4  UNL     1      -3.932  27.259  55.164  1.00  0.00    -0.262 N 
HETATM   25  C15 UNL     1      -4.792  27.479  54.168  1.00  0.00     0.144 A 
HETATM   26  C16 UNL     1      -5.896  26.664  54.263  1.00  0.00     0.052 A 
HETATM   27  N5  UNL     1      -5.683  25.933  55.355  1.00  0.00    -0.288 N 
HETATM   28  N6  UNL     1      -4.539  26.273  55.888  1.00  0.00    -0.237 N 
ATOM     29  H5  UNL     1      -6.314  25.219  55.719  1.00  0.00     0.188 HD
ATOM     30  H6  UNL     1      -4.151  25.857  56.735  1.00  0.00     0.209 HD
BRANCH  26  31
HETATM   31  C17 UNL     1      -7.049  26.659  53.296  1.00  0.00    -0.006 C 
HETATM   32  C18 UNL     1      -8.274  27.239  53.925  1.00  0.00     0.021 C 
HETATM   33  C19 UNL     1      -7.270  25.202  52.929  1.00  0.00     0.021 C 
HETATM   34  C20 UNL     1      -6.670  27.388  52.014  1.00  0.00     0.021 C 
ENDBRANCH  26  31
ENDBRANCH  23  24
ENDBRANCH  18  23
ENDBRANCH   9  12
ENDBRANCH   6   9
ENDBRANCH   1   5
TORSDOF 7
ENDMDL
MODEL 5
REMARK VINA RESULT: -7.848715245      0.884      1.298
REMARK  7 active torsions:
REMARK  status: ('A' for Active; 'I' for Inactive)
REMARK       I    between atoms: C2_2  and  N1_4 
REMARK    1  A    between atoms: N1_4  and  C3_5 
REMARK    2  A    between atoms: C5_7  and  C6_8 
REMARK    3  A    between atoms: C6_8  and  N2_11 
REMARK       I    between atoms: N2_11  and  C9_13 
REMARK    4  A    between atoms: C9_13  and  C10_15 
REMARK    5  A    between atoms: C13_19  and  C14_20 
REMARK    6  A    between atoms: C14_20  and  N4_21 
REMARK    7  A    between atoms: C16_23  and  C17_24 
ROOT
HETATM    1  C10 UNL     1      -3.840  33.008  55.035  1.00  0.00     0.180 C 
HETATM    2  C11 UNL     1      -4.634  33.960  54.146  1.00  0.00     0.035 C 
HETATM    3  C12 UNL     1      -3.110  33.859  55.969  1.00  0.00     0.073 C 
HETATM    4  N3  UNL     1      -2.529  34.521  56.718  1.00  0.00    -0.196 NA
ENDROOT
BRANCH   1   5
HETATM    5  C9  UNL     1      -4.746  32.054  55.687  1.00  0.00     0.235 C 
HETATM    6  N2  UNL     1      -5.950  31.587  55.094  1.00  0.00    -0.347 N 
ATOM      7  H2  UNL     1      -6.185  31.929  54.162  1.00  0.00     0.163 HD
HETATM    8  O2  UNL     1      -4.456  31.620  56.829  1.00  0.00    -0.272 OA
BRANCH   6   9
HETATM    9  C6  UNL     1      -6.877  30.647  55.731  1.00  0.00     0.054 C 
HETATM   10  C7  UNL     1      -6.801  30.945  57.180  1.00  0.00     0.043 C 
HETATM   11  C8  UNL     1      -8.217  31.166  55.135  1.00  0.00     0.043 C 
BRANCH   9  12
HETATM   12  C5  UNL     1      -6.609  29.284  55.275  1.00  0.00    -0.016 A 
HETATM   13  C4  UNL     1      -7.040  28.924  53.973  1.00  0.00     0.058 A 
HETATM   14  C3  UNL     1      -6.923  27.733  53.376  1.00  0.00     0.150 A 
HETATM   15  C22 UNL     1      -6.291  26.729  54.157  1.00  0.00     0.157 A 
HETATM   16  C21 UNL     1      -5.862  27.019  55.402  1.00  0.00     0.059 A 
HETATM   17  F1  UNL     1      -6.167  25.518  53.581  1.00  0.00    -0.203 F 
HETATM   18  C13 UNL     1      -6.002  28.302  56.007  1.00  0.00    -0.007 A 
BRANCH  14  19
HETATM   19  N1  UNL     1      -7.394  27.360  52.132  1.00  0.00    -0.368 NA
HETATM   20  C2  UNL     1      -7.840  27.006  50.946  1.00  0.00     0.288 C 
HETATM   21  C1  UNL     1      -9.102  26.159  50.831  1.00  0.00     0.135 C 
HETATM   22  O1  UNL     1      -7.355  27.275  49.803  1.00  0.00    -0.258 OA
ENDBRANCH  14  19
BRANCH  18  23
HETATM   23  C14 UNL     1      -5.459  28.357  57.317  1.00  0.00     0.129 C 
BRANCH  23  24
HETATM   24  N4  UNL     1      -4.039  28.414  57.578  1.00  0.00    -0.262 N 
HETATM   25  C15 UNL     1      -2.989  27.693  57.180  1.00  0.00     0.144 A 
HETATM   26  C16 UNL     1      -1.813  28.182  57.701  1.00  0.00     0.052 A 
HETATM   27  N5  UNL     1      -2.179  29.231  58.434  1.00  0.00    -0.288 N 
HETATM   28  N6  UNL     1      -3.476  29.375  58.369  1.00  0.00    -0.237 N 
ATOM     29  H5  UNL     1      -1.545  29.830  58.964  1.00  0.00     0.188 HD
ATOM     30  H6  UNL     1      -4.000  30.108  58.847  1.00  0.00     0.209 HD
BRANCH  26  31
HETATM   31  C17 UNL     1      -0.449  27.601  57.444  1.00  0.00    -0.006 C 
HETATM   32  C18 UNL     1       0.312  27.443  58.720  1.00  0.00     0.021 C 
HETATM   33  C19 UNL     1       0.247  28.582  56.518  1.00  0.00     0.021 C 
HETATM   34  C20 UNL     1      -0.568  26.284  56.688  1.00  0.00     0.021 C 
ENDBRANCH  26  31
ENDBRANCH  23  24
ENDBRANCH  18  23
ENDBRANCH   9  12
ENDBRANCH   6   9
ENDBRANCH   1   5
TORSDOF 7
ENDMDL
