MODEL 1
REMARK VINA RESULT: -8.829880457      0.000      0.000
REMARK  7 active torsions:
REMARK  status: ('A' for Active; 'I' for Inactive)
REMARK    1  A    between atoms: O1_2  and  C2_3 
REMARK    2  A    between atoms: C4_5  and  C5_6 
REMARK    3  A    between atoms: C5_6  and  C6_7 
REMARK    4  A    between atoms: C6_7  and  N1_8 
REMARK    5  A    between atoms: N1_8  and  C7_10 
REMARK    6  A    between atoms: C18_30  and  O2_31 
REMARK    7  A    between atoms: C20_33  and  O3_34 
ROOT
HETATM    1  C7  UNL     1      -7.750  27.198  50.143  1.00  0.00     0.114 A 
HETATM    2  N2  UNL     1      -8.342  26.189  50.805  1.00  0.00    -0.338 N 
ATOM      3  H2  UNL     1      -7.978  25.914  51.717  1.00  0.00     0.168 HD
HETATM    4  C8  UNL     1      -9.403  25.528  50.298  1.00  0.00     0.182 A 
HETATM    5  N3  UNL     1      -9.919  25.854  49.097  1.00  0.00    -0.351 N 
ATOM      6  H3  UNL     1     -10.721  25.357  48.711  1.00  0.00     0.166 HD
HETATM    7  C9  UNL     1      -9.332  26.863  48.428  1.00  0.00     0.055 A 
HETATM    8  C10 UNL     1      -9.870  27.187  47.198  1.00  0.00    -0.005 A 
HETATM    9  C11 UNL     1     -11.039  26.443  46.662  1.00  0.00     0.053 C 
HETATM   10  C12 UNL     1      -9.305  28.221  46.461  1.00  0.00     0.069 A 
HETATM   11  N4  UNL     1      -9.645  28.720  45.252  1.00  0.00    -0.330 N 
ATOM     12  H4  UNL     1     -10.411  28.397  44.660  1.00  0.00     0.168 HD
HETATM   13  C13 UNL     1      -8.785  29.726  44.968  1.00  0.00     0.180 A 
HETATM   14 CL1  UNL     1      -8.838  30.673  43.497  1.00  0.00    -0.045 Cl
HETATM   15  N5  UNL     1      -7.927  29.839  45.999  1.00  0.00    -0.331 N 
ATOM     16  H5  UNL     1      -7.168  30.517  46.058  1.00  0.00     0.168 HD
HETATM   17  C14 UNL     1      -8.221  28.925  46.937  1.00  0.00     0.063 A 
HETATM   18  C15 UNL     1      -7.695  28.590  48.166  1.00  0.00     0.049 A 
HETATM   19  C16 UNL     1      -8.246  27.562  48.915  1.00  0.00     0.037 A 
ENDROOT
BRANCH   1  20
HETATM   20  N1  UNL     1      -6.746  27.838  50.602  1.00  0.00    -0.375 N 
ATOM     21  H1  UNL     1      -6.245  28.445  49.953  1.00  0.00     0.161 HD
BRANCH  20  22
HETATM   22  C6  UNL     1      -6.261  27.779  51.953  1.00  0.00     0.126 C 
BRANCH  22  23
HETATM   23  C5  UNL     1      -7.395  28.047  52.942  1.00  0.00     0.058 C 
BRANCH  23  24
HETATM   24  C4  UNL     1      -6.896  28.534  54.230  1.00  0.00    -0.051 A 
HETATM   25  C3  UNL     1      -7.281  29.774  54.712  1.00  0.00     0.047 A 
HETATM   26  C2  UNL     1      -6.839  30.277  55.918  1.00  0.00     0.104 A 
HETATM   27  C20 UNL     1      -5.976  29.530  56.690  1.00  0.00     0.135 A 
HETATM   28  C18 UNL     1      -5.574  28.280  56.227  1.00  0.00     0.104 A 
HETATM   29  C17 UNL     1      -6.028  27.791  55.015  1.00  0.00     0.047 A 
BRANCH  26  30
HETATM   30  O1  UNL     1      -7.235  31.531  56.395  1.00  0.00    -0.353 OA
HETATM   31  C1  UNL     1      -8.606  31.714  56.679  1.00  0.00     0.210 C 
ENDBRANCH  26  30
BRANCH  27  32
HETATM   32  O3  UNL     1      -5.541  30.049  57.901  1.00  0.00    -0.351 OA
HETATM   33  C21 UNL     1      -4.378  30.857  57.929  1.00  0.00     0.210 C 
ENDBRANCH  27  32
BRANCH  28  34
HETATM   34  O2  UNL     1      -4.704  27.577  57.050  1.00  0.00    -0.353 OA
HETATM   35  C19 UNL     1      -3.317  27.474  56.762  1.00  0.00     0.210 C 
ENDBRANCH  28  34
ENDBRANCH  23  24
ENDBRANCH  22  23
ENDBRANCH  20  22
ENDBRANCH   1  20
TORSDOF 7
ENDMDL
MODEL 2
REMARK VINA RESULT: -8.818013641      0.086      2.298
REMARK  7 active torsions:
REMARK  status: ('A' for Active; 'I' for Inactive)
REMARK    1  A    between atoms: O1_2  and  C2_3 
REMARK    2  A    between atoms: C4_5  and  C5_6 
REMARK    3  A    between atoms: C5_6  and  C6_7 
REMARK    4  A    between atoms: C6_7  and  N1_8 
REMARK    5  A    between atoms: N1_8  and  C7_10 
REMARK    6  A    between atoms: C18_30  and  O2_31 
REMARK    7  A    between atoms: C20_33  and  O3_34 
ROOT
HETATM    1  C7  UNL     1      -7.742  27.189  50.194  1.00  0.00     0.114 A 
HETATM    2  N2  UNL     1      -8.332  26.180  50.857  1.00  0.00    -0.338 N 
ATOM      3  H2  UNL     1      -7.969  25.909  51.770  1.00  0.00     0.168 HD
HETATM    4  C8  UNL     1      -9.389  25.513  50.350  1.00  0.00     0.182 A 
HETATM    5  N3  UNL     1      -9.903  25.834  49.147  1.00  0.00    -0.351 N 
ATOM      6  H3  UNL     1     -10.703  25.333  48.761  1.00  0.00     0.166 HD
HETATM    7  C9  UNL     1      -9.320  26.843  48.476  1.00  0.00     0.055 A 
HETATM    8  C10 UNL     1      -9.856  27.162  47.244  1.00  0.00    -0.005 A 
HETATM    9  C11 UNL     1     -11.020  26.412  46.708  1.00  0.00     0.053 C 
HETATM   10  C12 UNL     1      -9.293  28.197  46.505  1.00  0.00     0.069 A 
HETATM   11  N4  UNL     1      -9.632  28.691  45.294  1.00  0.00    -0.330 N 
ATOM     12  H4  UNL     1     -10.395  28.363  44.702  1.00  0.00     0.168 HD
HETATM   13  C13 UNL     1      -8.775  29.699  45.010  1.00  0.00     0.180 A 
HETATM   14 CL1  UNL     1      -8.829  30.642  43.535  1.00  0.00    -0.045 Cl
HETATM   15  N5  UNL     1      -7.921  29.819  46.042  1.00  0.00    -0.331 N 
ATOM     16  H5  UNL     1      -7.164  30.500  46.100  1.00  0.00     0.168 HD
HETATM   17  C14 UNL     1      -8.213  28.906  46.982  1.00  0.00     0.063 A 
HETATM   18  C15 UNL     1      -7.688  28.576  48.213  1.00  0.00     0.049 A 
HETATM   19  C16 UNL     1      -8.237  27.548  48.963  1.00  0.00     0.037 A 
ENDROOT
BRANCH   1  20
HETATM   20  N1  UNL     1      -6.742  27.834  50.653  1.00  0.00    -0.375 N 
ATOM     21  H1  UNL     1      -6.236  28.435  50.001  1.00  0.00     0.161 HD
BRANCH  20  22
HETATM   22  C6  UNL     1      -6.265  27.789  52.008  1.00  0.00     0.126 C 
BRANCH  22  23
HETATM   23  C5  UNL     1      -7.414  28.028  52.987  1.00  0.00     0.058 C 
BRANCH  23  24
HETATM   24  C4  UNL     1      -6.944  28.583  54.259  1.00  0.00    -0.051 A 
HETATM   25  C3  UNL     1      -6.089  27.858  55.071  1.00  0.00     0.047 A 
HETATM   26  C2  UNL     1      -5.618  28.336  56.277  1.00  0.00     0.104 A 
HETATM   27  C20 UNL     1      -6.006  29.586  56.708  1.00  0.00     0.135 A 
HETATM   28  C18 UNL     1      -6.866  30.335  55.909  1.00  0.00     0.104 A 
HETATM   29  C17 UNL     1      -7.327  29.840  54.703  1.00  0.00     0.047 A 
BRANCH  26  30
HETATM   30  O1  UNL     1      -4.755  27.596  57.089  1.00  0.00    -0.353 OA
HETATM   31  C1  UNL     1      -3.408  27.487  56.676  1.00  0.00     0.210 C 
ENDBRANCH  26  30
BRANCH  27  32
HETATM   32  O3  UNL     1      -5.524  30.054  57.923  1.00  0.00    -0.351 OA
HETATM   33  C21 UNL     1      -4.389  30.901  57.937  1.00  0.00     0.210 C 
ENDBRANCH  27  32
BRANCH  28  34
HETATM   34  O2  UNL     1      -7.219  31.585  56.400  1.00  0.00    -0.353 OA
HETATM   35  C19 UNL     1      -8.502  31.838  56.956  1.00  0.00     0.210 C 
ENDBRANCH  28  34
ENDBRANCH  23  24
ENDBRANCH  22  23
ENDBRANCH  20  22
ENDBRANCH   1  20
TORSDOF 7
ENDMDL
MODEL 3
REMARK VINA RESULT: -8.815206912      1.081      1.484
REMARK  7 active torsions:
REMARK  status: ('A' for Active; 'I' for Inactive)
REMARK    1  A    between atoms: O1_2  and  C2_3 
REMARK    2  A    between atoms: C4_5  and  C5_6 
REMARK    3  A    between atoms: C5_6  and  C6_7 
REMARK    4  A    between atoms: C6_7  and  N1_8 
REMARK    5  A    between atoms: N1_8  and  C7_10 
REMARK    6  A    between atoms: C18_30  and  O2_31 
REMARK    7  A    between atoms: C20_33  and  O3_34 
ROOT
HETATM    1  C7  UNL     1      -8.063  27.274  49.899  1.00  0.00     0.114 A 
HETATM    2  N2  UNL     1      -8.648  26.227  50.506  1.00  0.00    -0.338 N 
ATOM      3  H2  UNL     1      -8.323  25.946  51.430  1.00  0.00     0.168 HD
HETATM    4  C8  UNL     1      -9.654  25.538  49.928  1.00  0.00     0.182 A 
HETATM    5  N3  UNL     1     -10.117  25.872  48.709  1.00  0.00    -0.351 N 
ATOM      6  H3  UNL     1     -10.877  25.353  48.269  1.00  0.00     0.166 HD
HETATM    7  C9  UNL     1      -9.537  26.918  48.094  1.00  0.00     0.055 A 
HETATM    8  C10 UNL     1     -10.021  27.251  46.844  1.00  0.00    -0.005 A 
HETATM    9  C11 UNL     1     -11.129  26.474  46.230  1.00  0.00     0.053 C 
HETATM   10  C12 UNL     1      -9.460  28.324  46.161  1.00  0.00     0.069 A 
HETATM   11  N4  UNL     1      -9.755  28.837  44.947  1.00  0.00    -0.330 N 
ATOM     12  H4  UNL     1     -10.474  28.499  44.307  1.00  0.00     0.168 HD
HETATM   13  C13 UNL     1      -8.922  29.883  44.732  1.00  0.00     0.180 A 
HETATM   14 CL1  UNL     1      -8.934  30.862  43.280  1.00  0.00    -0.045 Cl
HETATM   15  N5  UNL     1      -8.126  30.004  45.809  1.00  0.00    -0.331 N 
ATOM     16  H5  UNL     1      -7.398  30.710  45.924  1.00  0.00     0.168 HD
HETATM   17  C14 UNL     1      -8.432  29.058  46.710  1.00  0.00     0.063 A 
HETATM   18  C15 UNL     1      -7.959  28.714  47.959  1.00  0.00     0.049 A 
HETATM   19  C16 UNL     1      -8.507  27.647  48.654  1.00  0.00     0.037 A 
ENDROOT
BRANCH   1  20
HETATM   20  N1  UNL     1      -7.112  27.941  50.425  1.00  0.00    -0.375 N 
ATOM     21  H1  UNL     1      -6.864  28.827  49.983  1.00  0.00     0.161 HD
BRANCH  20  22
HETATM   22  C6  UNL     1      -6.359  27.556  51.587  1.00  0.00     0.126 C 
BRANCH  22  23
HETATM   23  C5  UNL     1      -7.046  28.054  52.859  1.00  0.00     0.058 C 
BRANCH  23  24
HETATM   24  C4  UNL     1      -6.152  28.008  54.018  1.00  0.00    -0.051 A 
HETATM   25  C3  UNL     1      -6.525  28.587  55.219  1.00  0.00     0.047 A 
HETATM   26  C2  UNL     1      -5.720  28.571  56.340  1.00  0.00     0.104 A 
HETATM   27  C20 UNL     1      -4.488  27.958  56.280  1.00  0.00     0.135 A 
HETATM   28  C18 UNL     1      -4.089  27.368  55.083  1.00  0.00     0.104 A 
HETATM   29  C17 UNL     1      -4.910  27.393  53.971  1.00  0.00     0.047 A 
BRANCH  26  30
HETATM   30  O1  UNL     1      -6.107  29.159  57.548  1.00  0.00    -0.353 OA
HETATM   31  C1  UNL     1      -6.245  30.565  57.569  1.00  0.00     0.210 C 
ENDBRANCH  26  30
BRANCH  27  32
HETATM   32  O3  UNL     1      -3.689  27.949  57.414  1.00  0.00    -0.351 OA
HETATM   33  C21 UNL     1      -2.712  28.961  57.581  1.00  0.00     0.210 C 
ENDBRANCH  27  32
BRANCH  28  34
HETATM   34  O2  UNL     1      -2.837  26.766  55.088  1.00  0.00    -0.353 OA
HETATM   35  C19 UNL     1      -2.631  25.469  55.630  1.00  0.00     0.210 C 
ENDBRANCH  28  34
ENDBRANCH  23  24
ENDBRANCH  22  23
ENDBRANCH  20  22
ENDBRANCH   1  20
TORSDOF 7
ENDMDL
MODEL 4
REMARK VINA RESULT: -8.744955209      1.066      2.527
REMARK  7 active torsions:
REMARK  status: ('A' for Active; 'I' for Inactive)
REMARK    1  A    between atoms: O1_2  and  C2_3 
REMARK    2  A    between atoms: C4_5  and  C5_6 
REMARK    3  A    between atoms: C5_6  and  C6_7 
REMARK    4  A    between atoms: C6_7  and  N1_8 
REMARK    5  A    between atoms: N1_8  and  C7_10 
REMARK    6  A    between atoms: C18_30  and  O2_31 
REMARK    7  A    between atoms: C20_33  and  O3_34 
ROOT
HETATM    1  C7  UNL     1      -8.004  27.253  49.975  1.00  0.00     0.114 A 
HETATM    2  N2  UNL     1      -8.592  26.209  50.583  1.00  0.00    -0.338 N 
ATOM      3  H2  UNL     1      -8.264  25.924  51.506  1.00  0.00     0.168 HD
HETATM    4  C8  UNL     1      -9.603  25.525  50.010  1.00  0.00     0.182 A 
HETATM    5  N3  UNL     1     -10.071  25.863  48.792  1.00  0.00    -0.351 N 
ATOM      6  H3  UNL     1     -10.835  25.348  48.356  1.00  0.00     0.166 HD
HETATM    7  C9  UNL     1      -9.488  26.907  48.176  1.00  0.00     0.055 A 
HETATM    8  C10 UNL     1      -9.976  27.243  46.929  1.00  0.00    -0.005 A 
HETATM    9  C11 UNL     1     -11.090  26.473  46.318  1.00  0.00     0.053 C 
HETATM   10  C12 UNL     1      -9.412  28.314  46.244  1.00  0.00     0.069 A 
HETATM   11  N4  UNL     1      -9.709  28.830  45.032  1.00  0.00    -0.330 N 
ATOM     12  H4  UNL     1     -10.433  28.496  44.395  1.00  0.00     0.168 HD
HETATM   13  C13 UNL     1      -8.872  29.871  44.815  1.00  0.00     0.180 A 
HETATM   14 CL1  UNL     1      -8.886  30.852  43.364  1.00  0.00    -0.045 Cl
HETATM   15  N5  UNL     1      -8.071  29.988  45.889  1.00  0.00    -0.331 N 
ATOM     16  H5  UNL     1      -7.339  30.690  46.001  1.00  0.00     0.168 HD
HETATM   17  C14 UNL     1      -8.378  29.042  46.790  1.00  0.00     0.063 A 
HETATM   18  C15 UNL     1      -7.901  28.695  48.036  1.00  0.00     0.049 A 
HETATM   19  C16 UNL     1      -8.452  27.630  48.733  1.00  0.00     0.037 A 
ENDROOT
BRANCH   1  20
HETATM   20  N1  UNL     1      -7.047  27.915  50.498  1.00  0.00    -0.375 N 
ATOM     21  H1  UNL     1      -6.767  28.777  50.029  1.00  0.00     0.161 HD
BRANCH  20  22
HETATM   22  C6  UNL     1      -6.331  27.554  51.690  1.00  0.00     0.126 C 
BRANCH  22  23
HETATM   23  C5  UNL     1      -7.031  28.116  52.927  1.00  0.00     0.058 C 
BRANCH  23  24
HETATM   24  C4  UNL     1      -6.157  28.109  54.102  1.00  0.00    -0.051 A 
HETATM   25  C3  UNL     1      -4.915  27.499  54.053  1.00  0.00     0.047 A 
HETATM   26  C2  UNL     1      -4.055  27.465  55.132  1.00  0.00     0.104 A 
HETATM   27  C20 UNL     1      -4.432  28.056  56.318  1.00  0.00     0.135 A 
HETATM   28  C18 UNL     1      -5.677  28.676  56.393  1.00  0.00     0.104 A 
HETATM   29  C17 UNL     1      -6.525  28.701  55.301  1.00  0.00     0.047 A 
BRANCH  26  30
HETATM   30  O1  UNL     1      -2.803  26.846  55.071  1.00  0.00    -0.353 OA
HETATM   31  C1  UNL     1      -2.717  25.510  55.523  1.00  0.00     0.210 C 
ENDBRANCH  26  30
BRANCH  27  32
HETATM   32  O3  UNL     1      -3.558  28.014  57.395  1.00  0.00    -0.351 OA
HETATM   33  C21 UNL     1      -2.579  29.029  57.531  1.00  0.00     0.210 C 
ENDBRANCH  27  32
BRANCH  28  34
HETATM   34  O2  UNL     1      -5.998  29.252  57.615  1.00  0.00    -0.353 OA
HETATM   35  C19 UNL     1      -5.906  30.654  57.829  1.00  0.00     0.210 C 
ENDBRANCH  28  34
ENDBRANCH  23  24
ENDBRANCH  22  23
ENDBRANCH  20  22
ENDBRANCH   1  20
TORSDOF 7
ENDMDL
MODEL 5
REMARK VINA RESULT: -8.723463527      4.903      9.359
REMARK  7 active torsions:
REMARK  status: ('A' for Active; 'I' for Inactive)
REMARK    1  A    between atoms: O1_2  and  C2_3 
REMARK    2  A    between atoms: C4_5  and  C5_6 
REMARK    3  A    between atoms: C5_6  and  C6_7 
REMARK    4  A    between atoms: C6_7  and  N1_8 
REMARK    5  A    between atoms: N1_8  and  C7_10 
REMARK    6  A    between atoms: C18_30  and  O2_31 
REMARK    7  A    between atoms: C20_33  and  O3_34 
ROOT
HETATM    1  C7  UNL     1      -7.526  26.837  53.697  1.00  0.00     0.114 A 
HETATM    2  N2  UNL     1      -7.313  25.574  54.109  1.00  0.00    -0.338 N 
ATOM      3  H2  UNL     1      -7.702  24.805  53.565  1.00  0.00     0.168 HD
HETATM    4  C8  UNL     1      -6.600  25.296  55.219  1.00  0.00     0.182 A 
HETATM    5  N3  UNL     1      -6.066  26.279  55.969  1.00  0.00    -0.351 N 
ATOM      6  H3  UNL     1      -5.526  26.072  56.809  1.00  0.00     0.166 HD
HETATM    7  C9  UNL     1      -6.274  27.545  55.566  1.00  0.00     0.055 A 
HETATM    8  C10 UNL     1      -5.723  28.543  56.343  1.00  0.00    -0.005 A 
HETATM    9  C11 UNL     1      -4.942  28.210  57.563  1.00  0.00     0.053 C 
HETATM   10  C12 UNL     1      -5.905  29.872  55.975  1.00  0.00     0.069 A 
HETATM   11  N4  UNL     1      -5.472  31.009  56.561  1.00  0.00    -0.330 N 
ATOM     12  H4  UNL     1      -4.913  31.073  57.412  1.00  0.00     0.168 HD
HETATM   13  C13 UNL     1      -5.914  32.048  55.815  1.00  0.00     0.180 A 
HETATM   14 CL1  UNL     1      -5.596  33.728  56.190  1.00  0.00    -0.045 Cl
HETATM   15  N5  UNL     1      -6.612  31.546  54.780  1.00  0.00    -0.331 N 
ATOM     16  H5  UNL     1      -7.064  32.100  54.053  1.00  0.00     0.168 HD
HETATM   17  C14 UNL     1      -6.626  30.205  54.849  1.00  0.00     0.063 A 
HETATM   18  C15 UNL     1      -7.171  29.198  54.082  1.00  0.00     0.049 A 
HETATM   19  C16 UNL     1      -6.998  27.868  54.435  1.00  0.00     0.037 A 
ENDROOT
BRANCH   1  20
HETATM   20  N1  UNL     1      -8.196  27.124  52.651  1.00  0.00    -0.375 N 
ATOM     21  H1  UNL     1      -9.063  27.646  52.782  1.00  0.00     0.161 HD
BRANCH  20  22
HETATM   22  C6  UNL     1      -7.837  26.778  51.304  1.00  0.00     0.126 C 
BRANCH  22  23
HETATM   23  C5  UNL     1      -9.039  26.193  50.563  1.00  0.00     0.058 C 
BRANCH  23  24
HETATM   24  C4  UNL     1      -9.132  26.692  49.189  1.00  0.00    -0.051 A 
HETATM   25  C3  UNL     1      -8.204  27.596  48.703  1.00  0.00     0.047 A 
HETATM   26  C2  UNL     1      -8.248  28.096  47.417  1.00  0.00     0.104 A 
HETATM   27  C20 UNL     1      -9.253  27.689  46.566  1.00  0.00     0.135 A 
HETATM   28  C18 UNL     1     -10.199  26.780  47.031  1.00  0.00     0.104 A 
HETATM   29  C17 UNL     1     -10.138  26.289  48.323  1.00  0.00     0.047 A 
BRANCH  26  30
HETATM   30  O1  UNL     1      -7.305  29.010  46.937  1.00  0.00    -0.353 OA
HETATM   31  C1  UNL     1      -7.621  30.382  47.040  1.00  0.00     0.210 C 
ENDBRANCH  26  30
BRANCH  27  32
HETATM   32  O3  UNL     1      -9.284  28.199  45.276  1.00  0.00    -0.351 OA
HETATM   33  C21 UNL     1     -10.196  29.237  44.965  1.00  0.00     0.210 C 
ENDBRANCH  27  32
BRANCH  28  34
HETATM   34  O2  UNL     1     -11.185  26.410  46.126  1.00  0.00    -0.353 OA
HETATM   35  C19 UNL     1     -10.879  25.697  44.935  1.00  0.00     0.210 C 
ENDBRANCH  28  34
ENDBRANCH  23  24
ENDBRANCH  22  23
ENDBRANCH  20  22
ENDBRANCH   1  20
TORSDOF 7
ENDMDL
