MODEL 1
REMARK VINA RESULT: -7.079839601      0.000      0.000
REMARK  7 active torsions:
REMARK  status: ('A' for Active; 'I' for Inactive)
REMARK    1  A    between atoms: O1_2  and  C2_3 
REMARK    2  A    between atoms: C5_6  and  N1_7 
REMARK    3  A    between atoms: N1_7  and  C6_9 
REMARK    4  A    between atoms: C7_10  and  C8_11 
REMARK    5  A    between atoms: C12_20  and  O3_21 
REMARK    6  A    between atoms: C14_25  and  C15_26 
REMARK    7  A    between atoms: C21_32  and  O4_33 
ROOT
HETATM    1  C6  UNL     1      -4.061  29.471  57.770  1.00  0.00     0.064 A 
HETATM    2  C7  UNL     1      -3.347  30.153  58.738  1.00  0.00     0.072 A 
HETATM    3  C9  UNL     1      -2.010  29.816  59.073  1.00  0.00     0.107 A 
HETATM    4  N3  UNL     1      -1.427  28.814  58.436  1.00  0.00    -0.361 N 
ATOM      5  H3  UNL     1      -0.466  28.566  58.671  1.00  0.00     0.165 HD
HETATM    6  C10 UNL     1      -2.073  28.116  57.485  1.00  0.00     0.090 A 
HETATM    7  C11 UNL     1      -1.349  27.115  56.859  1.00  0.00     0.194 A 
HETATM    8  F1  UNL     1      -0.072  26.821  57.205  1.00  0.00    -0.199 F 
HETATM    9  C12 UNL     1      -1.953  26.405  55.854  1.00  0.00     0.184 A 
HETATM   10  N4  UNL     1      -3.189  26.712  55.539  1.00  0.00    -0.337 N 
ATOM     11  H4  UNL     1      -3.612  26.167  54.788  1.00  0.00     0.168 HD
HETATM   12  C14 UNL     1      -3.982  27.687  56.107  1.00  0.00     0.029 A 
HETATM   13  C18 UNL     1      -3.395  28.406  57.114  1.00  0.00     0.045 A 
ENDROOT
BRANCH   1  14
HETATM   14  N1  UNL     1      -5.182  29.751  57.347  1.00  0.00    -0.354 N 
ATOM     15  H1  UNL     1      -5.846  29.107  57.778  1.00  0.00     0.166 HD
BRANCH  14  16
HETATM   16  C5  UNL     1      -5.882  30.584  56.529  1.00  0.00     0.041 A 
HETATM   17  C4  UNL     1      -7.297  30.455  56.419  1.00  0.00     0.033 A 
HETATM   18  C3  UNL     1      -8.059  31.288  55.657  1.00  0.00     0.042 A 
HETATM   19  C2  UNL     1      -7.476  32.308  54.948  1.00  0.00     0.102 A 
HETATM   20  C21 UNL     1      -6.120  32.473  55.020  1.00  0.00     0.109 A 
HETATM   21  C19 UNL     1      -5.351  31.616  55.802  1.00  0.00     0.001 A 
HETATM   22  C20 UNL     1      -3.874  31.890  55.733  1.00  0.00     0.054 C 
BRANCH  19  23
HETATM   23  O1  UNL     1      -8.226  33.175  54.161  1.00  0.00    -0.353 OA
HETATM   24  C1  UNL     1      -9.589  33.424  54.465  1.00  0.00     0.210 C 
ENDBRANCH  19  23
BRANCH  20  25
HETATM   25  O4  UNL     1      -5.480  33.492  54.322  1.00  0.00    -0.352 OA
HETATM   26  C22 UNL     1      -5.538  34.815  54.821  1.00  0.00     0.210 C 
ENDBRANCH  20  25
ENDBRANCH  14  16
ENDBRANCH   1  14
BRANCH   2  27
HETATM   27  C8  UNL     1      -3.879  31.200  59.548  1.00  0.00     0.268 C 
HETATM   28  N2  UNL     1      -3.487  31.167  60.951  1.00  0.00    -0.057 NA
HETATM   29  O2  UNL     1      -4.614  32.096  59.168  1.00  0.00    -0.271 OA
ENDBRANCH   2  27
BRANCH  12  30
HETATM   30  C15 UNL     1      -5.346  27.875  55.652  1.00  0.00     0.028 C 
HETATM   31  C16 UNL     1      -5.212  27.515  54.092  1.00  0.00     0.016 C 
HETATM   32  C17 UNL     1      -6.270  26.725  56.018  1.00  0.00     0.016 C 
ENDBRANCH  12  30
BRANCH   9  33
HETATM   33  O3  UNL     1      -1.240  25.376  55.194  1.00  0.00    -0.338 OA
HETATM   34  C13 UNL     1      -0.929  24.186  55.848  1.00  0.00     0.211 C 
ENDBRANCH   9  33
TORSDOF 7
ENDMDL
MODEL 2
REMARK VINA RESULT: -6.997645544      2.380      4.482
REMARK  7 active torsions:
REMARK  status: ('A' for Active; 'I' for Inactive)
REMARK    1  A    between atoms: O1_2  and  C2_3 
REMARK    2  A    between atoms: C5_6  and  N1_7 
REMARK    3  A    between atoms: N1_7  and  C6_9 
REMARK    4  A    between atoms: C7_10  and  C8_11 
REMARK    5  A    between atoms: C12_20  and  O3_21 
REMARK    6  A    between atoms: C14_25  and  C15_26 
REMARK    7  A    between atoms: C21_32  and  O4_33 
ROOT
HETATM    1  C6  UNL     1      -2.306  27.253  56.649  1.00  0.00     0.064 A 
HETATM    2  C7  UNL     1      -2.889  26.380  55.749  1.00  0.00     0.072 A 
HETATM    3  C9  UNL     1      -2.325  25.114  55.446  1.00  0.00     0.107 A 
HETATM    4  N3  UNL     1      -1.201  24.758  56.046  1.00  0.00    -0.361 N 
ATOM      5  H3  UNL     1      -0.789  23.849  55.833  1.00  0.00     0.165 HD
HETATM    6  C10 UNL     1      -0.591  25.566  56.931  1.00  0.00     0.090 A 
HETATM    7  C11 UNL     1       0.558  25.070  57.526  1.00  0.00     0.194 A 
HETATM    8  F1  UNL     1       1.069  23.855  57.212  1.00  0.00    -0.199 F 
HETATM    9  C12 UNL     1       1.191  25.842  58.465  1.00  0.00     0.184 A 
HETATM   10  N4  UNL     1       0.673  27.013  58.751  1.00  0.00    -0.337 N 
ATOM     11  H4  UNL     1       1.165  27.565  59.453  1.00  0.00     0.168 HD
HETATM   12  C14 UNL     1      -0.460  27.585  58.210  1.00  0.00     0.029 A 
HETATM   13  C18 UNL     1      -1.104  26.828  57.268  1.00  0.00     0.045 A 
ENDROOT
BRANCH   1  14
HETATM   14  N1  UNL     1      -2.770  28.322  57.045  1.00  0.00    -0.354 N 
ATOM     15  H1  UNL     1      -2.128  28.700  57.742  1.00  0.00     0.166 HD
BRANCH  14  16
HETATM   16  C5  UNL     1      -3.805  29.198  56.915  1.00  0.00     0.041 A 
HETATM   17  C4  UNL     1      -5.058  28.919  57.533  1.00  0.00     0.033 A 
HETATM   18  C3  UNL     1      -6.115  29.776  57.481  1.00  0.00     0.042 A 
HETATM   19  C2  UNL     1      -6.007  30.971  56.815  1.00  0.00     0.102 A 
HETATM   20  C21 UNL     1      -4.825  31.285  56.205  1.00  0.00     0.109 A 
HETATM   21  C19 UNL     1      -3.751  30.401  56.263  1.00  0.00     0.001 A 
HETATM   22  C20 UNL     1      -2.542  30.861  55.498  1.00  0.00     0.054 C 
BRANCH  19  23
HETATM   23  O1  UNL     1      -7.068  31.868  56.744  1.00  0.00    -0.353 OA
HETATM   24  C1  UNL     1      -8.334  31.448  56.260  1.00  0.00     0.210 C 
ENDBRANCH  19  23
BRANCH  20  25
HETATM   25  O4  UNL     1      -4.664  32.483  55.517  1.00  0.00    -0.352 OA
HETATM   26  C22 UNL     1      -4.417  33.671  56.246  1.00  0.00     0.210 C 
ENDBRANCH  20  25
ENDBRANCH  14  16
ENDBRANCH   1  14
BRANCH   2  27
HETATM   27  C8  UNL     1      -4.056  26.671  54.981  1.00  0.00     0.268 C 
HETATM   28  N2  UNL     1      -3.827  27.435  53.761  1.00  0.00    -0.057 NA
HETATM   29  O2  UNL     1      -5.195  26.337  55.256  1.00  0.00    -0.271 OA
ENDBRANCH   2  27
BRANCH  12  30
HETATM   30  C15 UNL     1      -0.878  28.911  58.623  1.00  0.00     0.028 C 
HETATM   31  C16 UNL     1      -0.534  28.876  60.192  1.00  0.00     0.016 C 
HETATM   32  C17 UNL     1       0.115  30.001  58.252  1.00  0.00     0.016 C 
ENDBRANCH  12  30
BRANCH   9  33
HETATM   33  O3  UNL     1       2.365  25.364  59.092  1.00  0.00    -0.338 OA
HETATM   34  C13 UNL     1       3.610  25.505  58.484  1.00  0.00     0.211 C 
ENDBRANCH   9  33
TORSDOF 7
ENDMDL
MODEL 3
REMARK VINA RESULT: -6.942793444      2.223      4.301
REMARK  7 active torsions:
REMARK  status: ('A' for Active; 'I' for Inactive)
REMARK    1  A    between atoms: O1_2  and  C2_3 
REMARK    2  A    between atoms: C5_6  and  N1_7 
REMARK    3  A    between atoms: N1_7  and  C6_9 
REMARK    4  A    between atoms: C7_10  and  C8_11 
REMARK    5  A    between atoms: C12_20  and  O3_21 
REMARK    6  A    between atoms: C14_25  and  C15_26 
REMARK    7  A    between atoms: C21_32  and  O4_33 
ROOT
HETATM    1  C6  UNL     1      -2.570  27.870  56.395  1.00  0.00     0.064 A 
HETATM    2  C7  UNL     1      -2.996  26.850  55.565  1.00  0.00     0.072 A 
HETATM    3  C9  UNL     1      -2.460  25.538  55.639  1.00  0.00     0.107 A 
HETATM    4  N3  UNL     1      -1.518  25.285  56.532  1.00  0.00    -0.361 N 
ATOM      5  H3  UNL     1      -1.126  24.345  56.590  1.00  0.00     0.165 HD
HETATM    6  C10 UNL     1      -1.065  26.239  57.365  1.00  0.00     0.090 A 
HETATM    7  C11 UNL     1      -0.106  25.847  58.285  1.00  0.00     0.194 A 
HETATM    8  F1  UNL     1       0.384  24.585  58.326  1.00  0.00    -0.199 F 
HETATM    9  C12 UNL     1       0.354  26.776  59.182  1.00  0.00     0.184 A 
HETATM   10  N4  UNL     1      -0.140  27.990  59.120  1.00  0.00    -0.337 N 
ATOM     11  H4  UNL     1       0.221  28.659  59.800  1.00  0.00     0.168 HD
HETATM   12  C14 UNL     1      -1.090  28.466  58.241  1.00  0.00     0.029 A 
HETATM   13  C18 UNL     1      -1.561  27.552  57.336  1.00  0.00     0.045 A 
ENDROOT
BRANCH   1  14
HETATM   14  N1  UNL     1      -3.042  29.005  56.470  1.00  0.00    -0.354 N 
ATOM     15  H1  UNL     1      -2.270  29.667  56.399  1.00  0.00     0.166 HD
BRANCH  14  16
HETATM   16  C5  UNL     1      -4.192  29.720  56.610  1.00  0.00     0.041 A 
HETATM   17  C4  UNL     1      -5.349  29.109  57.175  1.00  0.00     0.033 A 
HETATM   18  C3  UNL     1      -6.512  29.785  57.387  1.00  0.00     0.042 A 
HETATM   19  C2  UNL     1      -6.615  31.112  57.055  1.00  0.00     0.102 A 
HETATM   20  C21 UNL     1      -5.532  31.744  56.509  1.00  0.00     0.109 A 
HETATM   21  C19 UNL     1      -4.348  31.045  56.296  1.00  0.00     0.001 A 
HETATM   22  C20 UNL     1      -3.270  31.859  55.638  1.00  0.00     0.054 C 
BRANCH  19  23
HETATM   23  O1  UNL     1      -7.789  31.829  57.259  1.00  0.00    -0.353 OA
HETATM   24  C1  UNL     1      -8.896  31.659  56.387  1.00  0.00     0.210 C 
ENDBRANCH  19  23
BRANCH  20  25
HETATM   25  O4  UNL     1      -5.584  33.089  56.156  1.00  0.00    -0.352 OA
HETATM   26  C22 UNL     1      -6.100  33.451  54.889  1.00  0.00     0.210 C 
ENDBRANCH  20  25
ENDBRANCH  14  16
ENDBRANCH   1  14
BRANCH   2  27
HETATM   27  C8  UNL     1      -3.948  27.006  54.514  1.00  0.00     0.268 C 
HETATM   28  N2  UNL     1      -5.278  26.478  54.790  1.00  0.00    -0.057 NA
HETATM   29  O2  UNL     1      -3.742  27.535  53.435  1.00  0.00    -0.271 OA
ENDBRANCH   2  27
BRANCH  12  30
HETATM   30  C15 UNL     1      -1.505  29.855  58.296  1.00  0.00     0.028 C 
HETATM   31  C16 UNL     1      -2.153  29.934  59.764  1.00  0.00     0.016 C 
HETATM   32  C17 UNL     1      -0.359  30.818  58.559  1.00  0.00     0.016 C 
ENDBRANCH  12  30
BRANCH   9  33
HETATM   33  O3  UNL     1       1.332  26.408  60.135  1.00  0.00    -0.338 OA
HETATM   34  C13 UNL     1       2.368  27.276  60.471  1.00  0.00     0.211 C 
ENDBRANCH   9  33
TORSDOF 7
ENDMDL
MODEL 4
REMARK VINA RESULT: -6.858205898      2.160      3.952
REMARK  7 active torsions:
REMARK  status: ('A' for Active; 'I' for Inactive)
REMARK    1  A    between atoms: O1_2  and  C2_3 
REMARK    2  A    between atoms: C5_6  and  N1_7 
REMARK    3  A    between atoms: N1_7  and  C6_9 
REMARK    4  A    between atoms: C7_10  and  C8_11 
REMARK    5  A    between atoms: C12_20  and  O3_21 
REMARK    6  A    between atoms: C14_25  and  C15_26 
REMARK    7  A    between atoms: C21_32  and  O4_33 
ROOT
HETATM    1  C6  UNL     1      -4.731  28.798  55.260  1.00  0.00     0.064 A 
HETATM    2  C7  UNL     1      -5.629  27.923  54.679  1.00  0.00     0.072 A 
HETATM    3  C9  UNL     1      -5.378  26.530  54.584  1.00  0.00     0.107 A 
HETATM    4  N3  UNL     1      -4.244  26.053  55.068  1.00  0.00    -0.361 N 
ATOM      5  H3  UNL     1      -4.056  25.053  55.003  1.00  0.00     0.165 HD
HETATM    6  C10 UNL     1      -3.333  26.857  55.644  1.00  0.00     0.090 A 
HETATM    7  C11 UNL     1      -2.201  26.240  56.152  1.00  0.00     0.194 A 
HETATM    8  F1  UNL     1      -1.994  24.906  56.042  1.00  0.00    -0.199 F 
HETATM    9  C12 UNL     1      -1.265  27.015  56.785  1.00  0.00     0.184 A 
HETATM   10  N4  UNL     1      -1.492  28.304  56.878  1.00  0.00    -0.337 N 
ATOM     11  H4  UNL     1      -0.778  28.854  57.355  1.00  0.00     0.168 HD
HETATM   12  C14 UNL     1      -2.584  29.000  56.404  1.00  0.00     0.029 A 
HETATM   13  C18 UNL     1      -3.530  28.242  55.766  1.00  0.00     0.045 A 
ENDROOT
BRANCH   1  14
HETATM   14  N1  UNL     1      -4.903  29.998  55.474  1.00  0.00    -0.354 N 
ATOM     15  H1  UNL     1      -4.103  30.500  55.089  1.00  0.00     0.166 HD
BRANCH  14  16
HETATM   16  C5  UNL     1      -5.744  30.917  56.023  1.00  0.00     0.041 A 
HETATM   17  C4  UNL     1      -6.716  30.511  56.983  1.00  0.00     0.033 A 
HETATM   18  C3  UNL     1      -7.553  31.388  57.604  1.00  0.00     0.042 A 
HETATM   19  C2  UNL     1      -7.488  32.729  57.320  1.00  0.00     0.102 A 
HETATM   20  C21 UNL     1      -6.572  33.168  56.405  1.00  0.00     0.109 A 
HETATM   21  C19 UNL     1      -5.722  32.264  55.776  1.00  0.00     0.001 A 
HETATM   22  C20 UNL     1      -4.812  32.891  54.757  1.00  0.00     0.054 C 
BRANCH  19  23
HETATM   23  O1  UNL     1      -8.328  33.649  57.938  1.00  0.00    -0.353 OA
HETATM   24  C1  UNL     1      -9.353  33.212  58.816  1.00  0.00     0.210 C 
ENDBRANCH  19  23
BRANCH  20  25
HETATM   25  O4  UNL     1      -6.465  34.518  56.082  1.00  0.00    -0.352 OA
HETATM   26  C22 UNL     1      -7.410  35.094  55.200  1.00  0.00     0.210 C 
ENDBRANCH  20  25
ENDBRANCH  14  16
ENDBRANCH   1  14
BRANCH   2  27
HETATM   27  C8  UNL     1      -6.851  28.315  54.054  1.00  0.00     0.268 C 
HETATM   28  N2  UNL     1      -7.774  27.229  53.749  1.00  0.00    -0.057 NA
HETATM   29  O2  UNL     1      -7.174  29.455  53.766  1.00  0.00    -0.271 OA
ENDBRANCH   2  27
BRANCH  12  30
HETATM   30  C15 UNL     1      -2.662  30.438  56.570  1.00  0.00     0.028 C 
HETATM   31  C16 UNL     1      -2.578  30.577  58.168  1.00  0.00     0.016 C 
HETATM   32  C17 UNL     1      -1.355  31.154  56.264  1.00  0.00     0.016 C 
ENDBRANCH  12  30
BRANCH   9  33
HETATM   33  O3  UNL     1      -0.098  26.415  57.314  1.00  0.00    -0.338 OA
HETATM   34  C13 UNL     1      -0.026  26.048  58.656  1.00  0.00     0.211 C 
ENDBRANCH   9  33
TORSDOF 7
ENDMDL
MODEL 5
REMARK VINA RESULT: -6.851280867      2.338      4.736
REMARK  7 active torsions:
REMARK  status: ('A' for Active; 'I' for Inactive)
REMARK    1  A    between atoms: O1_2  and  C2_3 
REMARK    2  A    between atoms: C5_6  and  N1_7 
REMARK    3  A    between atoms: N1_7  and  C6_9 
REMARK    4  A    between atoms: C7_10  and  C8_11 
REMARK    5  A    between atoms: C12_20  and  O3_21 
REMARK    6  A    between atoms: C14_25  and  C15_26 
REMARK    7  A    between atoms: C21_32  and  O4_33 
ROOT
HETATM    1  C6  UNL     1      -2.350  27.418  56.684  1.00  0.00     0.064 A 
HETATM    2  C7  UNL     1      -2.897  26.525  55.781  1.00  0.00     0.072 A 
HETATM    3  C9  UNL     1      -2.306  25.264  55.507  1.00  0.00     0.107 A 
HETATM    4  N3  UNL     1      -1.192  24.933  56.139  1.00  0.00    -0.361 N 
ATOM      5  H3  UNL     1      -0.761  24.029  55.947  1.00  0.00     0.165 HD
HETATM    6  C10 UNL     1      -0.616  25.761  57.028  1.00  0.00     0.090 A 
HETATM    7  C11 UNL     1       0.525  25.290  57.657  1.00  0.00     0.194 A 
HETATM    8  F1  UNL     1       1.062  24.081  57.370  1.00  0.00    -0.199 F 
HETATM    9  C12 UNL     1       1.123  26.084  58.602  1.00  0.00     0.184 A 
HETATM   10  N4  UNL     1       0.581  27.250  58.860  1.00  0.00    -0.337 N 
ATOM     11  H4  UNL     1       1.047  27.818  59.567  1.00  0.00     0.168 HD
HETATM   12  C14 UNL     1      -0.548  27.797  58.285  1.00  0.00     0.029 A 
HETATM   13  C18 UNL     1      -1.157  27.019  57.337  1.00  0.00     0.045 A 
ENDROOT
BRANCH   1  14
HETATM   14  N1  UNL     1      -2.839  28.484  57.056  1.00  0.00    -0.354 N 
ATOM     15  H1  UNL     1      -2.819  28.497  58.075  1.00  0.00     0.166 HD
BRANCH  14  16
HETATM   16  C5  UNL     1      -3.398  29.653  56.637  1.00  0.00     0.041 A 
HETATM   17  C4  UNL     1      -2.591  30.643  56.002  1.00  0.00     0.033 A 
HETATM   18  C3  UNL     1      -3.098  31.810  55.518  1.00  0.00     0.042 A 
HETATM   19  C2  UNL     1      -4.439  32.083  55.626  1.00  0.00     0.102 A 
HETATM   20  C21 UNL     1      -5.254  31.165  56.227  1.00  0.00     0.109 A 
HETATM   21  C19 UNL     1      -4.727  29.975  56.720  1.00  0.00     0.001 A 
HETATM   22  C20 UNL     1      -5.737  29.097  57.402  1.00  0.00     0.054 C 
BRANCH  19  23
HETATM   23  O1  UNL     1      -4.987  33.265  55.141  1.00  0.00    -0.353 OA
HETATM   24  C1  UNL     1      -4.368  33.958  54.068  1.00  0.00     0.210 C 
ENDBRANCH  19  23
BRANCH  20  25
HETATM   25  O4  UNL     1      -6.621  31.393  56.362  1.00  0.00    -0.352 OA
HETATM   26  C22 UNL     1      -7.476  31.134  55.265  1.00  0.00     0.210 C 
ENDBRANCH  20  25
ENDBRANCH  14  16
ENDBRANCH   1  14
BRANCH   2  27
HETATM   27  C8  UNL     1      -4.049  26.788  54.981  1.00  0.00     0.268 C 
HETATM   28  N2  UNL     1      -3.796  27.500  53.735  1.00  0.00    -0.057 NA
HETATM   29  O2  UNL     1      -5.195  26.470  55.250  1.00  0.00    -0.271 OA
ENDBRANCH   2  27
BRANCH  12  30
HETATM   30  C15 UNL     1      -0.996  29.121  58.672  1.00  0.00     0.028 C 
HETATM   31  C16 UNL     1      -0.923  29.024  60.274  1.00  0.00     0.016 C 
HETATM   32  C17 UNL     1       0.072  30.192  58.514  1.00  0.00     0.016 C 
ENDBRANCH  12  30
BRANCH   9  33
HETATM   33  O3  UNL     1       2.289  25.632  59.262  1.00  0.00    -0.338 OA
HETATM   34  C13 UNL     1       3.556  25.920  58.759  1.00  0.00     0.211 C 
ENDBRANCH   9  33
TORSDOF 7
ENDMDL
