MODEL 1
REMARK VINA RESULT: -6.314770494      0.000      0.000
REMARK  12 active torsions:
REMARK  status: ('A' for Active; 'I' for Inactive)
REMARK    1  A    between atoms: N1_1  and  C1_5 
REMARK    2  A    between atoms: C1_5  and  C2_6 
REMARK    3  A    between atoms: C1_5  and  C3_9 
REMARK    4  A    between atoms: C2_6  and  O1_7 
REMARK    5  A    between atoms: C3_9  and  O2_10 
REMARK    6  A    between atoms: C3_9  and  N2_12 
REMARK    7  A    between atoms: C6_15  and  C7_16 
REMARK    8  A    between atoms: C7_16  and  N3_17 
REMARK    9  A    between atoms: N3_17  and  C8_20 
REMARK   10  A    between atoms: C8_20  and  C9_21 
REMARK   11  A    between atoms: C9_21  and  N4_22 
REMARK   12  A    between atoms: N4_22  and  C10_24 
ROOT
HETATM    1  N2  UNL     1     -18.508 -67.466 -33.033  1.00  0.00    -0.343 N 
HETATM    2  C4  UNL     1     -18.196 -67.190 -31.704  1.00  0.00     0.066 C 
HETATM    3  C5  UNL     1     -19.245 -66.304 -31.037  1.00  0.00     0.051 C 
HETATM    4  C6  UNL     1     -19.544 -65.054 -31.780  1.00  0.00     0.017 C 
HETATM    5  C16 UNL     1     -18.768 -65.079 -33.083  1.00  0.00     0.027 C 
HETATM    6  C17 UNL     1     -19.210 -66.390 -33.752  1.00  0.00     0.130 C 
ENDROOT
BRANCH   4   7
HETATM    7  C7  UNL     1     -19.400 -63.785 -31.025  1.00  0.00     0.237 C 
BRANCH   7   8
HETATM    8  N3  UNL     1     -18.314 -63.767 -30.094  1.00  0.00    -0.073 N 
ATOM      9  H32 UNL     1     -18.647 -63.579 -29.148  1.00  0.00     0.277 HD
ATOM     10  H31 UNL     1     -17.938 -64.705 -29.954  1.00  0.00     0.277 HD
BRANCH   8  11
HETATM   11  C8  UNL     1     -17.270 -62.842 -30.469  1.00  0.00     0.251 C 
BRANCH  11  12
HETATM   12  C9  UNL     1     -15.897 -63.395 -30.309  1.00  0.00     0.147 C 
BRANCH  12  13
HETATM   13  N4  UNL     1     -14.933 -62.589 -31.005  1.00  0.00    -0.388 N 
ATOM     14  H4  UNL     1     -14.816 -62.761 -32.003  1.00  0.00     0.159 HD
BRANCH  13  15
HETATM   15  C10 UNL     1     -14.130 -61.576 -30.426  1.00  0.00     0.027 A 
HETATM   16  C11 UNL     1     -14.535 -60.797 -29.368  1.00  0.00     0.029 A 
HETATM   17  C12 UNL     1     -13.730 -59.815 -28.797  1.00  0.00     0.002 A 
HETATM   18  C13 UNL     1     -12.466 -59.596 -29.298  1.00  0.00     0.000 A 
HETATM   19  C14 UNL     1     -12.026 -60.358 -30.359  1.00  0.00     0.002 A 
HETATM   20  C15 UNL     1     -12.839 -61.320 -30.904  1.00  0.00     0.029 A 
ENDBRANCH  13  15
ENDBRANCH  12  13
ENDBRANCH  11  12
ENDBRANCH   8  11
ENDBRANCH   7   8
ENDBRANCH   4   7
BRANCH   1  21
HETATM   21  C3  UNL     1     -17.645 -68.083 -33.925  1.00  0.00     0.150 C 
BRANCH  21  22
HETATM   22  C1  UNL     1     -16.286 -68.534 -33.493  1.00  0.00     0.280 C 
BRANCH  22  23
HETATM   23  N1  UNL     1     -16.051 -69.921 -34.036  1.00  0.00    -0.066 N 
ATOM     24  H13 UNL     1     -15.573 -69.966 -34.936  1.00  0.00     0.275 HD
ATOM     25  H12 UNL     1     -15.354 -70.476 -33.539  1.00  0.00     0.275 HD
ATOM     26  H11 UNL     1     -17.001 -70.293 -34.023  1.00  0.00     0.275 HD
ENDBRANCH  22  23
BRANCH  22  27
HETATM   27  C2  UNL     1     -15.141 -67.769 -34.161  1.00  0.00     0.205 C 
BRANCH  27  28
HETATM   28  O1  UNL     1     -14.739 -68.220 -35.366  1.00  0.00    -0.398 OA
ATOM     29  H1  UNL     1     -13.894 -67.914 -35.672  1.00  0.00     0.209 HD
ENDBRANCH  27  28
ENDBRANCH  22  27
ENDBRANCH  21  22
BRANCH  21  30
HETATM   30  O2  UNL     1     -17.605 -67.604 -35.238  1.00  0.00    -0.348 OA
ATOM     31  H2  UNL     1     -18.000 -68.232 -35.832  1.00  0.00     0.219 HD
ENDBRANCH  21  30
ENDBRANCH   1  21
TORSDOF 12
ENDMDL
MODEL 2
REMARK VINA RESULT: -6.174203901      4.049      4.775
REMARK  12 active torsions:
REMARK  status: ('A' for Active; 'I' for Inactive)
REMARK    1  A    between atoms: N1_1  and  C1_5 
REMARK    2  A    between atoms: C1_5  and  C2_6 
REMARK    3  A    between atoms: C1_5  and  C3_9 
REMARK    4  A    between atoms: C2_6  and  O1_7 
REMARK    5  A    between atoms: C3_9  and  O2_10 
REMARK    6  A    between atoms: C3_9  and  N2_12 
REMARK    7  A    between atoms: C6_15  and  C7_16 
REMARK    8  A    between atoms: C7_16  and  N3_17 
REMARK    9  A    between atoms: N3_17  and  C8_20 
REMARK   10  A    between atoms: C8_20  and  C9_21 
REMARK   11  A    between atoms: C9_21  and  N4_22 
REMARK   12  A    between atoms: N4_22  and  C10_24 
ROOT
HETATM    1  N2  UNL     1     -15.243 -69.421 -29.491  1.00  0.00    -0.343 N 
HETATM    2  C4  UNL     1     -15.418 -68.040 -29.518  1.00  0.00     0.066 C 
HETATM    3  C5  UNL     1     -16.648 -67.628 -30.322  1.00  0.00     0.051 C 
HETATM    4  C6  UNL     1     -16.692 -68.193 -31.694  1.00  0.00     0.017 C 
HETATM    5  C16 UNL     1     -15.510 -69.130 -31.860  1.00  0.00     0.027 C 
HETATM    6  C17 UNL     1     -15.669 -70.133 -30.706  1.00  0.00     0.130 C 
ENDROOT
BRANCH   4   7
HETATM    7  C7  UNL     1     -16.842 -67.221 -32.805  1.00  0.00     0.237 C 
BRANCH   7   8
HETATM    8  N3  UNL     1     -16.597 -65.860 -32.440  1.00  0.00    -0.073 N 
ATOM      9  H32 UNL     1     -17.342 -65.251 -32.782  1.00  0.00     0.277 HD
ATOM     10  H31 UNL     1     -16.719 -65.723 -31.437  1.00  0.00     0.277 HD
BRANCH   8  11
HETATM   11  C8  UNL     1     -15.304 -65.387 -32.874  1.00  0.00     0.251 C 
BRANCH  11  12
HETATM   12  C9  UNL     1     -14.534 -64.692 -31.805  1.00  0.00     0.147 C 
BRANCH  12  13
HETATM   13  N4  UNL     1     -14.258 -63.330 -32.171  1.00  0.00    -0.388 N 
ATOM     14  H4  UNL     1     -14.362 -63.082 -33.155  1.00  0.00     0.159 HD
BRANCH  13  15
HETATM   15  C10 UNL     1     -13.854 -62.302 -31.285  1.00  0.00     0.027 A 
HETATM   16  C11 UNL     1     -14.661 -61.789 -30.297  1.00  0.00     0.029 A 
HETATM   17  C12 UNL     1     -14.247 -60.789 -29.421  1.00  0.00     0.002 A 
HETATM   18  C13 UNL     1     -12.974 -60.275 -29.530  1.00  0.00     0.000 A 
HETATM   19  C14 UNL     1     -12.136 -60.765 -30.510  1.00  0.00     0.002 A 
HETATM   20  C15 UNL     1     -12.570 -61.751 -31.360  1.00  0.00     0.029 A 
ENDBRANCH  13  15
ENDBRANCH  12  13
ENDBRANCH  11  12
ENDBRANCH   8  11
ENDBRANCH   7   8
ENDBRANCH   4   7
BRANCH   1  21
HETATM   21  C3  UNL     1     -14.113 -70.054 -28.999  1.00  0.00     0.150 C 
BRANCH  21  22
HETATM   22  C1  UNL     1     -13.338 -69.472 -27.860  1.00  0.00     0.280 C 
BRANCH  22  23
HETATM   23  N1  UNL     1     -14.175 -69.583 -26.611  1.00  0.00    -0.066 N 
ATOM     24  H13 UNL     1     -13.791 -70.177 -25.876  1.00  0.00     0.275 HD
ATOM     25  H12 UNL     1     -14.216 -68.744 -26.032  1.00  0.00     0.275 HD
ATOM     26  H11 UNL     1     -15.065 -69.890 -27.005  1.00  0.00     0.275 HD
ENDBRANCH  22  23
BRANCH  22  27
HETATM   27  C2  UNL     1     -12.115 -70.299 -27.458  1.00  0.00     0.205 C 
BRANCH  27  28
HETATM   28  O1  UNL     1     -10.966 -70.028 -28.108  1.00  0.00    -0.398 OA
ATOM     29  H1  UNL     1     -10.874 -70.397 -28.978  1.00  0.00     0.209 HD
ENDBRANCH  27  28
ENDBRANCH  22  27
ENDBRANCH  21  22
BRANCH  21  30
HETATM   30  O2  UNL     1     -13.248 -70.660 -29.917  1.00  0.00    -0.348 OA
ATOM     31  H2  UNL     1     -13.530 -71.549 -30.100  1.00  0.00     0.219 HD
ENDBRANCH  21  30
ENDBRANCH   1  21
TORSDOF 12
ENDMDL
MODEL 3
REMARK VINA RESULT: -6.141917526      3.927      8.456
REMARK  12 active torsions:
REMARK  status: ('A' for Active; 'I' for Inactive)
REMARK    1  A    between atoms: N1_1  and  C1_5 
REMARK    2  A    between atoms: C1_5  and  C2_6 
REMARK    3  A    between atoms: C1_5  and  C3_9 
REMARK    4  A    between atoms: C2_6  and  O1_7 
REMARK    5  A    between atoms: C3_9  and  O2_10 
REMARK    6  A    between atoms: C3_9  and  N2_12 
REMARK    7  A    between atoms: C6_15  and  C7_16 
REMARK    8  A    between atoms: C7_16  and  N3_17 
REMARK    9  A    between atoms: N3_17  and  C8_20 
REMARK   10  A    between atoms: C8_20  and  C9_21 
REMARK   11  A    between atoms: C9_21  and  N4_22 
REMARK   12  A    between atoms: N4_22  and  C10_24 
ROOT
HETATM    1  N2  UNL     1     -14.594 -62.190 -30.210  1.00  0.00    -0.343 N 
HETATM    2  C4  UNL     1     -15.868 -62.726 -30.043  1.00  0.00     0.066 C 
HETATM    3  C5  UNL     1     -15.961 -64.163 -30.548  1.00  0.00     0.051 C 
HETATM    4  C6  UNL     1     -15.487 -64.348 -31.943  1.00  0.00     0.017 C 
HETATM    5  C16 UNL     1     -14.935 -63.024 -32.436  1.00  0.00     0.027 C 
HETATM    6  C17 UNL     1     -13.862 -62.662 -31.396  1.00  0.00     0.130 C 
ENDROOT
BRANCH   4   7
HETATM    7  C7  UNL     1     -16.440 -64.983 -32.886  1.00  0.00     0.237 C 
BRANCH   7   8
HETATM    8  N3  UNL     1     -16.974 -66.233 -32.439  1.00  0.00    -0.073 N 
ATOM      9  H32 UNL     1     -16.311 -66.717 -31.833  1.00  0.00     0.277 HD
ATOM     10  H31 UNL     1     -17.733 -66.089 -31.773  1.00  0.00     0.277 HD
BRANCH   8  11
HETATM   11  C8  UNL     1     -17.396 -67.084 -33.528  1.00  0.00     0.251 C 
BRANCH  11  12
HETATM   12  C9  UNL     1     -16.319 -67.975 -34.040  1.00  0.00     0.147 C 
BRANCH  12  13
HETATM   13  N4  UNL     1     -16.540 -69.336 -33.635  1.00  0.00    -0.388 N 
ATOM     14  H4  UNL     1     -17.273 -69.853 -34.119  1.00  0.00     0.159 HD
BRANCH  13  15
HETATM   15  C10 UNL     1     -15.827 -70.022 -32.621  1.00  0.00     0.027 A 
HETATM   16  C11 UNL     1     -15.368 -69.419 -31.473  1.00  0.00     0.029 A 
HETATM   17  C12 UNL     1     -14.683 -70.107 -30.476  1.00  0.00     0.002 A 
HETATM   18  C13 UNL     1     -14.444 -71.455 -30.623  1.00  0.00     0.000 A 
HETATM   19  C14 UNL     1     -14.890 -72.094 -31.761  1.00  0.00     0.002 A 
HETATM   20  C15 UNL     1     -15.562 -71.392 -32.729  1.00  0.00     0.029 A 
ENDBRANCH  13  15
ENDBRANCH  12  13
ENDBRANCH  11  12
ENDBRANCH   8  11
ENDBRANCH   7   8
ENDBRANCH   4   7
BRANCH   1  21
HETATM   21  C3  UNL     1     -14.278 -60.854 -30.016  1.00  0.00     0.150 C 
BRANCH  21  22
HETATM   22  C1  UNL     1     -12.961 -60.451 -29.434  1.00  0.00     0.280 C 
BRANCH  22  23
HETATM   23  N1  UNL     1     -12.000 -60.196 -30.567  1.00  0.00    -0.066 N 
ATOM     24  H13 UNL     1     -12.137 -60.770 -31.399  1.00  0.00     0.275 HD
ATOM     25  H12 UNL     1     -12.119 -59.307 -31.054  1.00  0.00     0.275 HD
ATOM     26  H11 UNL     1     -11.106 -60.319 -30.090  1.00  0.00     0.275 HD
ENDBRANCH  22  23
BRANCH  22  27
HETATM   27  C2  UNL     1     -12.978 -59.077 -28.761  1.00  0.00     0.205 C 
BRANCH  27  28
HETATM   28  O1  UNL     1     -11.991 -58.227 -29.104  1.00  0.00    -0.398 OA
ATOM     29  H1  UNL     1     -12.189 -57.604 -29.793  1.00  0.00     0.209 HD
ENDBRANCH  27  28
ENDBRANCH  22  27
ENDBRANCH  21  22
BRANCH  21  30
HETATM   30  O2  UNL     1     -15.291 -59.999 -29.567  1.00  0.00    -0.348 OA
ATOM     31  H2  UNL     1     -16.143 -60.339 -29.812  1.00  0.00     0.219 HD
ENDBRANCH  21  30
ENDBRANCH   1  21
TORSDOF 12
ENDMDL
MODEL 4
REMARK VINA RESULT: -6.044010280      3.881      7.594
REMARK  12 active torsions:
REMARK  status: ('A' for Active; 'I' for Inactive)
REMARK    1  A    between atoms: N1_1  and  C1_5 
REMARK    2  A    between atoms: C1_5  and  C2_6 
REMARK    3  A    between atoms: C1_5  and  C3_9 
REMARK    4  A    between atoms: C2_6  and  O1_7 
REMARK    5  A    between atoms: C3_9  and  O2_10 
REMARK    6  A    between atoms: C3_9  and  N2_12 
REMARK    7  A    between atoms: C6_15  and  C7_16 
REMARK    8  A    between atoms: C7_16  and  N3_17 
REMARK    9  A    between atoms: N3_17  and  C8_20 
REMARK   10  A    between atoms: C8_20  and  C9_21 
REMARK   11  A    between atoms: C9_21  and  N4_22 
REMARK   12  A    between atoms: N4_22  and  C10_24 
ROOT
HETATM    1  N2  UNL     1     -14.415 -61.948 -30.090  1.00  0.00    -0.343 N 
HETATM    2  C4  UNL     1     -15.682 -62.526 -30.087  1.00  0.00     0.066 C 
HETATM    3  C5  UNL     1     -15.677 -63.931 -30.684  1.00  0.00     0.051 C 
HETATM    4  C6  UNL     1     -15.060 -64.014 -32.033  1.00  0.00     0.017 C 
HETATM    5  C16 UNL     1     -14.504 -62.647 -32.385  1.00  0.00     0.027 C 
HETATM    6  C17 UNL     1     -13.553 -62.324 -31.221  1.00  0.00     0.130 C 
ENDROOT
BRANCH   4   7
HETATM    7  C7  UNL     1     -15.893 -64.613 -33.105  1.00  0.00     0.237 C 
BRANCH   7   8
HETATM    8  N3  UNL     1     -16.705 -63.677 -33.820  1.00  0.00    -0.073 N 
ATOM      9  H32 UNL     1     -16.374 -62.722 -33.676  1.00  0.00     0.277 HD
ATOM     10  H31 UNL     1     -16.553 -63.755 -34.825  1.00  0.00     0.277 HD
BRANCH   8  11
HETATM   11  C8  UNL     1     -18.108 -63.791 -33.498  1.00  0.00     0.251 C 
BRANCH  11  12
HETATM   12  C9  UNL     1     -18.571 -65.197 -33.343  1.00  0.00     0.147 C 
BRANCH  12  13
HETATM   13  N4  UNL     1     -19.437 -65.332 -32.205  1.00  0.00    -0.388 N 
ATOM     14  H4  UNL     1     -20.437 -65.411 -32.387  1.00  0.00     0.159 HD
BRANCH  13  15
HETATM   15  C10 UNL     1     -19.023 -65.365 -30.850  1.00  0.00     0.027 A 
HETATM   16  C11 UNL     1     -18.340 -66.418 -30.290  1.00  0.00     0.029 A 
HETATM   17  C12 UNL     1     -17.923 -66.432 -28.961  1.00  0.00     0.002 A 
HETATM   18  C13 UNL     1     -18.197 -65.352 -28.153  1.00  0.00     0.000 A 
HETATM   19  C14 UNL     1     -18.881 -64.277 -28.681  1.00  0.00     0.002 A 
HETATM   20  C15 UNL     1     -19.280 -64.289 -29.993  1.00  0.00     0.029 A 
ENDBRANCH  13  15
ENDBRANCH  12  13
ENDBRANCH  11  12
ENDBRANCH   8  11
ENDBRANCH   7   8
ENDBRANCH   4   7
BRANCH   1  21
HETATM   21  C3  UNL     1     -14.164 -60.619 -29.784  1.00  0.00     0.150 C 
BRANCH  21  22
HETATM   22  C1  UNL     1     -12.960 -60.227 -28.988  1.00  0.00     0.280 C 
BRANCH  22  23
HETATM   23  N1  UNL     1     -11.884 -59.779 -29.944  1.00  0.00    -0.066 N 
ATOM     24  H13 UNL     1     -11.745 -60.375 -30.761  1.00  0.00     0.275 HD
ATOM     25  H12 UNL     1     -12.096 -58.940 -30.484  1.00  0.00     0.275 HD
ATOM     26  H11 UNL     1     -11.087 -59.706 -29.312  1.00  0.00     0.275 HD
ENDBRANCH  22  23
BRANCH  22  27
HETATM   27  C2  UNL     1     -13.155 -58.953 -28.162  1.00  0.00     0.205 C 
BRANCH  27  28
HETATM   28  O1  UNL     1     -13.443 -59.122 -26.857  1.00  0.00    -0.398 OA
ATOM     29  H1  UNL     1     -14.276 -58.776 -26.559  1.00  0.00     0.209 HD
ENDBRANCH  27  28
ENDBRANCH  22  27
ENDBRANCH  21  22
BRANCH  21  30
HETATM   30  O2  UNL     1     -15.253 -59.805 -29.454  1.00  0.00    -0.348 OA
ATOM     31  H2  UNL     1     -15.357 -59.115 -30.099  1.00  0.00     0.219 HD
ENDBRANCH  21  30
ENDBRANCH   1  21
TORSDOF 12
ENDMDL
MODEL 5
REMARK VINA RESULT: -6.030153941      4.031      7.857
REMARK  12 active torsions:
REMARK  status: ('A' for Active; 'I' for Inactive)
REMARK    1  A    between atoms: N1_1  and  C1_5 
REMARK    2  A    between atoms: C1_5  and  C2_6 
REMARK    3  A    between atoms: C1_5  and  C3_9 
REMARK    4  A    between atoms: C2_6  and  O1_7 
REMARK    5  A    between atoms: C3_9  and  O2_10 
REMARK    6  A    between atoms: C3_9  and  N2_12 
REMARK    7  A    between atoms: C6_15  and  C7_16 
REMARK    8  A    between atoms: C7_16  and  N3_17 
REMARK    9  A    between atoms: N3_17  and  C8_20 
REMARK   10  A    between atoms: C8_20  and  C9_21 
REMARK   11  A    between atoms: C9_21  and  N4_22 
REMARK   12  A    between atoms: N4_22  and  C10_24 
ROOT
HETATM    1  N2  UNL     1     -14.529 -62.234 -30.198  1.00  0.00    -0.343 N 
HETATM    2  C4  UNL     1     -15.773 -62.807 -29.947  1.00  0.00     0.066 C 
HETATM    3  C5  UNL     1     -15.858 -64.247 -30.447  1.00  0.00     0.051 C 
HETATM    4  C6  UNL     1     -15.475 -64.417 -31.871  1.00  0.00     0.017 C 
HETATM    5  C16 UNL     1     -14.995 -63.078 -32.397  1.00  0.00     0.027 C 
HETATM    6  C17 UNL     1     -13.866 -62.685 -31.431  1.00  0.00     0.130 C 
ENDROOT
BRANCH   4   7
HETATM    7  C7  UNL     1     -16.470 -65.080 -32.749  1.00  0.00     0.237 C 
BRANCH   7   8
HETATM    8  N3  UNL     1     -17.801 -65.107 -32.224  1.00  0.00    -0.073 N 
ATOM      9  H32 UNL     1     -18.273 -65.977 -32.472  1.00  0.00     0.277 HD
ATOM     10  H31 UNL     1     -17.791 -65.206 -31.209  1.00  0.00     0.277 HD
BRANCH   8  11
HETATM   11  C8  UNL     1     -18.584 -63.961 -32.624  1.00  0.00     0.251 C 
BRANCH  11  12
HETATM   12  C9  UNL     1     -19.167 -63.208 -31.480  1.00  0.00     0.147 C 
BRANCH  12  13
HETATM   13  N4  UNL     1     -20.152 -63.997 -30.792  1.00  0.00    -0.388 N 
ATOM     14  H4  UNL     1     -20.147 -65.002 -30.964  1.00  0.00     0.159 HD
BRANCH  13  15
HETATM   15  C10 UNL     1     -21.130 -63.500 -29.895  1.00  0.00     0.027 A 
HETATM   16  C11 UNL     1     -21.221 -63.887 -28.579  1.00  0.00     0.029 A 
HETATM   17  C12 UNL     1     -22.176 -63.379 -27.703  1.00  0.00     0.002 A 
HETATM   18  C13 UNL     1     -23.082 -62.445 -28.153  1.00  0.00     0.000 A 
HETATM   19  C14 UNL     1     -23.020 -62.032 -29.467  1.00  0.00     0.002 A 
HETATM   20  C15 UNL     1     -22.069 -62.549 -30.310  1.00  0.00     0.029 A 
ENDBRANCH  13  15
ENDBRANCH  12  13
ENDBRANCH  11  12
ENDBRANCH   8  11
ENDBRANCH   7   8
ENDBRANCH   4   7
BRANCH   1  21
HETATM   21  C3  UNL     1     -14.240 -60.890 -30.023  1.00  0.00     0.150 C 
BRANCH  21  22
HETATM   22  C1  UNL     1     -12.936 -60.453 -29.436  1.00  0.00     0.280 C 
BRANCH  22  23
HETATM   23  N1  UNL     1     -11.971 -60.192 -30.564  1.00  0.00    -0.066 N 
ATOM     24  H13 UNL     1     -11.988 -59.248 -30.949  1.00  0.00     0.275 HD
ATOM     25  H12 UNL     1     -10.985 -60.161 -30.303  1.00  0.00     0.275 HD
ATOM     26  H11 UNL     1     -12.230 -60.936 -31.213  1.00  0.00     0.275 HD
ENDBRANCH  22  23
BRANCH  22  27
HETATM   27  C2  UNL     1     -12.986 -59.072 -28.779  1.00  0.00     0.205 C 
BRANCH  27  28
HETATM   28  O1  UNL     1     -11.979 -58.228 -29.076  1.00  0.00    -0.398 OA
ATOM     29  H1  UNL     1     -11.776 -58.119 -29.997  1.00  0.00     0.209 HD
ENDBRANCH  27  28
ENDBRANCH  22  27
ENDBRANCH  21  22
BRANCH  21  30
HETATM   30  O2  UNL     1     -15.272 -60.047 -29.598  1.00  0.00    -0.348 OA
ATOM     31  H2  UNL     1     -15.652 -59.590 -30.339  1.00  0.00     0.219 HD
ENDBRANCH  21  30
ENDBRANCH   1  21
TORSDOF 12
ENDMDL
