MODEL 1
REMARK VINA RESULT: -6.359119883      0.000      0.000
REMARK  11 active torsions:
REMARK  status: ('A' for Active; 'I' for Inactive)
REMARK    1  A    between atoms: O1_2  and  C2_3 
REMARK    2  A    between atoms: C2_3  and  C3_4 
REMARK    3  A    between atoms: C3_4  and  N1_5 
REMARK    4  A    between atoms: N1_5  and  C4_7 
REMARK    5  A    between atoms: C4_7  and  C6_9 
REMARK    6  A    between atoms: C7_10  and  O2_11 
REMARK    7  A    between atoms: C8_13  and  C9_14 
REMARK    8  A    between atoms: C8_13  and  N4_22 
REMARK    9  A    between atoms: C9_14  and  C10_15 
REMARK   10  A    between atoms: N4_22  and  C13_24 
REMARK   11  A    between atoms: C16_27  and  O3_28 
ROOT
HETATM    1  C6  UNL     1     -15.216 -64.007 -31.968  1.00  0.00     0.093 C 
HETATM    2  C7  UNL     1     -15.527 -64.445 -33.349  1.00  0.00     0.161 C 
HETATM    3  C8  UNL     1     -16.617 -65.317 -32.774  1.00  0.00     0.085 C 
HETATM    4  C16 UNL     1     -16.678 -64.200 -31.672  1.00  0.00     0.161 C 
ENDROOT
BRANCH   3   5
HETATM    5  C9  UNL     1     -16.220 -66.552 -32.044  1.00  0.00     0.094 C 
BRANCH   5   6
HETATM    6  C10 UNL     1     -16.086 -67.783 -32.803  1.00  0.00     0.028 A 
HETATM    7  C11 UNL     1     -15.510 -67.938 -34.032  1.00  0.00     0.114 A 
HETATM    8  N2  UNL     1     -15.612 -69.253 -34.370  1.00  0.00    -0.360 N 
HETATM    9  C12 UNL     1     -16.232 -69.927 -33.398  1.00  0.00     0.180 A 
ATOM     10  H2  UNL     1     -15.266 -69.663 -35.238  1.00  0.00     0.166 HD
HETATM   11  N3  UNL     1     -16.516 -69.001 -32.437  1.00  0.00    -0.354 N 
ATOM     12  H3  UNL     1     -16.992 -69.207 -31.559  1.00  0.00     0.166 HD
ENDBRANCH   5   6
ENDBRANCH   3   5
BRANCH   3  13
HETATM   13  N4  UNL     1     -17.891 -65.304 -33.394  1.00  0.00    -0.404 N 
ATOM     14  H4  UNL     1     -18.108 -64.621 -34.119  1.00  0.00     0.154 HD
BRANCH  13  15
HETATM   15  C13 UNL     1     -18.857 -66.255 -32.992  1.00  0.00     0.077 A 
HETATM   16  C14 UNL     1     -20.110 -66.221 -33.914  1.00  0.00     0.027 A 
HETATM   17  C15 UNL     1     -20.197 -65.891 -32.472  1.00  0.00     0.027 A 
ENDBRANCH  13  15
ENDBRANCH   3  13
BRANCH   2  18
HETATM   18  O2  UNL     1     -16.100 -63.443 -34.115  1.00  0.00    -0.392 OA
ATOM     19  H2  UNL     1     -15.460 -62.837 -34.470  1.00  0.00     0.210 HD
ENDBRANCH   2  18
BRANCH   4  20
HETATM   20  O3  UNL     1     -17.498 -63.160 -32.071  1.00  0.00    -0.392 OA
ATOM     21  H3  UNL     1     -18.369 -63.167 -31.693  1.00  0.00     0.210 HD
ENDBRANCH   4  20
BRANCH   1  22
HETATM   22  C4  UNL     1     -14.644 -62.657 -31.713  1.00  0.00    -0.013 C 
HETATM   23  C5  UNL     1     -14.882 -62.275 -30.272  1.00  0.00     0.063 C 
BRANCH  22  24
HETATM   24  N1  UNL     1     -13.386 -62.354 -32.255  1.00  0.00    -0.394 N 
ATOM     25  H1  UNL     1     -13.233 -62.414 -33.262  1.00  0.00     0.159 HD
BRANCH  24  26
HETATM   26  C3  UNL     1     -12.327 -61.965 -31.394  1.00  0.00     0.145 C 
BRANCH  26  27
HETATM   27  C2  UNL     1     -12.011 -60.526 -31.235  1.00  0.00     0.186 C 
BRANCH  27  28
HETATM   28  O1  UNL     1     -11.714 -60.351 -29.845  1.00  0.00    -0.394 OA
HETATM   29  C1  UNL     1     -12.522 -59.386 -29.298  1.00  0.00     0.201 C 
ENDBRANCH  27  28
ENDBRANCH  26  27
ENDBRANCH  24  26
ENDBRANCH  22  24
ENDBRANCH   1  22
TORSDOF 11
ENDMDL
MODEL 2
REMARK VINA RESULT: -6.272053102      1.456      1.816
REMARK  11 active torsions:
REMARK  status: ('A' for Active; 'I' for Inactive)
REMARK    1  A    between atoms: O1_2  and  C2_3 
REMARK    2  A    between atoms: C2_3  and  C3_4 
REMARK    3  A    between atoms: C3_4  and  N1_5 
REMARK    4  A    between atoms: N1_5  and  C4_7 
REMARK    5  A    between atoms: C4_7  and  C6_9 
REMARK    6  A    between atoms: C7_10  and  O2_11 
REMARK    7  A    between atoms: C8_13  and  C9_14 
REMARK    8  A    between atoms: C8_13  and  N4_22 
REMARK    9  A    between atoms: C9_14  and  C10_15 
REMARK   10  A    between atoms: N4_22  and  C13_24 
REMARK   11  A    between atoms: C16_27  and  O3_28 
ROOT
HETATM    1  C6  UNL     1     -14.700 -64.068 -31.940  1.00  0.00     0.093 C 
HETATM    2  C7  UNL     1     -15.803 -64.014 -32.929  1.00  0.00     0.161 C 
HETATM    3  C8  UNL     1     -16.022 -65.489 -32.690  1.00  0.00     0.085 C 
HETATM    4  C16 UNL     1     -15.488 -65.150 -31.253  1.00  0.00     0.161 C 
ENDROOT
BRANCH   3   5
HETATM    5  C9  UNL     1     -15.030 -66.448 -33.250  1.00  0.00     0.094 C 
BRANCH   5   6
HETATM    6  C10 UNL     1     -15.412 -67.845 -33.350  1.00  0.00     0.028 A 
HETATM    7  C11 UNL     1     -15.692 -68.547 -34.488  1.00  0.00     0.114 A 
HETATM    8  N2  UNL     1     -16.012 -69.818 -34.119  1.00  0.00    -0.360 N 
HETATM    9  C12 UNL     1     -15.943 -69.938 -32.791  1.00  0.00     0.180 A 
ATOM     10  H2  UNL     1     -16.267 -70.567 -34.763  1.00  0.00     0.166 HD
HETATM   11  N3  UNL     1     -15.570 -68.708 -32.333  1.00  0.00    -0.354 N 
ATOM     12  H3  UNL     1     -15.429 -68.476 -31.350  1.00  0.00     0.166 HD
ENDBRANCH   5   6
ENDBRANCH   3   5
BRANCH   3  13
HETATM   13  N4  UNL     1     -17.347 -65.953 -32.500  1.00  0.00    -0.404 N 
ATOM     14  H4  UNL     1     -17.684 -66.191 -31.568  1.00  0.00     0.154 HD
BRANCH  13  15
HETATM   15  C13 UNL     1     -18.195 -66.082 -33.625  1.00  0.00     0.077 A 
HETATM   16  C14 UNL     1     -19.694 -65.963 -33.225  1.00  0.00     0.027 A 
HETATM   17  C15 UNL     1     -19.142 -67.207 -33.811  1.00  0.00     0.027 A 
ENDBRANCH  13  15
ENDBRANCH   3  13
BRANCH   2  18
HETATM   18  O2  UNL     1     -16.904 -63.309 -32.470  1.00  0.00    -0.392 OA
ATOM     19  H2  UNL     1     -16.733 -62.379 -32.373  1.00  0.00     0.210 HD
ENDBRANCH   2  18
BRANCH   4  20
HETATM   20  O3  UNL     1     -16.514 -64.702 -30.441  1.00  0.00    -0.392 OA
ATOM     21  H3  UNL     1     -17.388 -64.915 -30.743  1.00  0.00     0.210 HD
ENDBRANCH   4  20
BRANCH   1  22
HETATM   22  C4  UNL     1     -14.349 -62.868 -31.132  1.00  0.00    -0.013 C 
HETATM   23  C5  UNL     1     -13.155 -62.181 -31.747  1.00  0.00     0.063 C 
BRANCH  22  24
HETATM   24  N1  UNL     1     -15.392 -62.049 -30.671  1.00  0.00    -0.394 N 
ATOM     25  H1  UNL     1     -16.231 -61.920 -31.237  1.00  0.00     0.159 HD
BRANCH  24  26
HETATM   26  C3  UNL     1     -15.272 -61.402 -29.414  1.00  0.00     0.145 C 
BRANCH  26  27
HETATM   27  C2  UNL     1     -14.098 -60.537 -29.151  1.00  0.00     0.186 C 
BRANCH  27  28
HETATM   28  O1  UNL     1     -14.465 -59.722 -28.033  1.00  0.00    -0.394 OA
HETATM   29  C1  UNL     1     -13.392 -58.986 -27.599  1.00  0.00     0.201 C 
ENDBRANCH  27  28
ENDBRANCH  26  27
ENDBRANCH  24  26
ENDBRANCH  22  24
ENDBRANCH   1  22
TORSDOF 11
ENDMDL
MODEL 3
REMARK VINA RESULT: -6.208899104      1.938      2.456
REMARK  11 active torsions:
REMARK  status: ('A' for Active; 'I' for Inactive)
REMARK    1  A    between atoms: O1_2  and  C2_3 
REMARK    2  A    between atoms: C2_3  and  C3_4 
REMARK    3  A    between atoms: C3_4  and  N1_5 
REMARK    4  A    between atoms: N1_5  and  C4_7 
REMARK    5  A    between atoms: C4_7  and  C6_9 
REMARK    6  A    between atoms: C7_10  and  O2_11 
REMARK    7  A    between atoms: C8_13  and  C9_14 
REMARK    8  A    between atoms: C8_13  and  N4_22 
REMARK    9  A    between atoms: C9_14  and  C10_15 
REMARK   10  A    between atoms: N4_22  and  C13_24 
REMARK   11  A    between atoms: C16_27  and  O3_28 
ROOT
HETATM    1  C6  UNL     1     -15.548 -63.627 -30.572  1.00  0.00     0.093 C 
HETATM    2  C7  UNL     1     -14.829 -64.607 -31.421  1.00  0.00     0.161 C 
HETATM    3  C8  UNL     1     -16.119 -65.385 -31.528  1.00  0.00     0.085 C 
HETATM    4  C16 UNL     1     -16.775 -63.967 -31.374  1.00  0.00     0.161 C 
ENDROOT
BRANCH   3   5
HETATM    5  C9  UNL     1     -16.582 -66.150 -30.338  1.00  0.00     0.094 C 
BRANCH   5   6
HETATM    6  C10 UNL     1     -15.867 -67.365 -29.986  1.00  0.00     0.028 A 
HETATM    7  C11 UNL     1     -16.034 -68.127 -28.865  1.00  0.00     0.114 A 
HETATM    8  N2  UNL     1     -15.155 -69.165 -28.939  1.00  0.00    -0.360 N 
HETATM    9  C12 UNL     1     -14.443 -69.080 -30.065  1.00  0.00     0.180 A 
ATOM     10  H2  UNL     1     -15.056 -69.898 -28.237  1.00  0.00     0.166 HD
HETATM   11  N3  UNL     1     -14.899 -67.961 -30.700  1.00  0.00    -0.354 N 
ATOM     12  H3  UNL     1     -14.550 -67.623 -31.597  1.00  0.00     0.166 HD
ENDBRANCH   5   6
ENDBRANCH   3   5
BRANCH   3  13
HETATM   13  N4  UNL     1     -16.523 -65.851 -32.804  1.00  0.00    -0.404 N 
ATOM     14  H4  UNL     1     -15.996 -65.597 -33.639  1.00  0.00     0.154 HD
BRANCH  13  15
HETATM   15  C13 UNL     1     -17.669 -66.673 -32.900  1.00  0.00     0.077 A 
HETATM   16  C14 UNL     1     -17.520 -67.730 -34.032  1.00  0.00     0.027 A 
HETATM   17  C15 UNL     1     -18.570 -66.686 -34.077  1.00  0.00     0.027 A 
ENDBRANCH  13  15
ENDBRANCH   3  13
BRANCH   2  18
HETATM   18  O2  UNL     1     -14.497 -64.099 -32.666  1.00  0.00    -0.392 OA
ATOM     19  H2  UNL     1     -14.171 -63.208 -32.626  1.00  0.00     0.210 HD
ENDBRANCH   2  18
BRANCH   4  20
HETATM   20  O3  UNL     1     -16.867 -63.332 -32.600  1.00  0.00    -0.392 OA
ATOM     21  H3  UNL     1     -16.475 -62.468 -32.635  1.00  0.00     0.210 HD
ENDBRANCH   4  20
BRANCH   1  22
HETATM   22  C4  UNL     1     -15.129 -62.199 -30.545  1.00  0.00    -0.013 C 
HETATM   23  C5  UNL     1     -15.886 -61.475 -29.460  1.00  0.00     0.063 C 
BRANCH  22  24
HETATM   24  N1  UNL     1     -13.763 -61.905 -30.678  1.00  0.00    -0.394 N 
ATOM     25  H1  UNL     1     -13.217 -62.330 -31.428  1.00  0.00     0.159 HD
BRANCH  24  26
HETATM   26  C3  UNL     1     -13.146 -61.013 -29.763  1.00  0.00     0.145 C 
BRANCH  26  27
HETATM   27  C2  UNL     1     -12.046 -60.137 -30.231  1.00  0.00     0.186 C 
BRANCH  27  28
HETATM   28  O1  UNL     1     -12.148 -58.943 -29.449  1.00  0.00    -0.394 OA
HETATM   29  C1  UNL     1     -13.161 -59.053 -28.531  1.00  0.00     0.201 C 
ENDBRANCH  27  28
ENDBRANCH  26  27
ENDBRANCH  24  26
ENDBRANCH  22  24
ENDBRANCH   1  22
TORSDOF 11
ENDMDL
MODEL 4
REMARK VINA RESULT: -6.044091478      1.511      3.017
REMARK  11 active torsions:
REMARK  status: ('A' for Active; 'I' for Inactive)
REMARK    1  A    between atoms: O1_2  and  C2_3 
REMARK    2  A    between atoms: C2_3  and  C3_4 
REMARK    3  A    between atoms: C3_4  and  N1_5 
REMARK    4  A    between atoms: N1_5  and  C4_7 
REMARK    5  A    between atoms: C4_7  and  C6_9 
REMARK    6  A    between atoms: C7_10  and  O2_11 
REMARK    7  A    between atoms: C8_13  and  C9_14 
REMARK    8  A    between atoms: C8_13  and  N4_22 
REMARK    9  A    between atoms: C9_14  and  C10_15 
REMARK   10  A    between atoms: N4_22  and  C13_24 
REMARK   11  A    between atoms: C16_27  and  O3_28 
ROOT
HETATM    1  C6  UNL     1     -15.587 -63.496 -31.070  1.00  0.00     0.093 C 
HETATM    2  C7  UNL     1     -14.936 -64.825 -31.156  1.00  0.00     0.161 C 
HETATM    3  C8  UNL     1     -16.064 -65.262 -32.059  1.00  0.00     0.085 C 
HETATM    4  C16 UNL     1     -16.083 -63.746 -32.468  1.00  0.00     0.161 C 
ENDROOT
BRANCH   3   5
HETATM    5  C9  UNL     1     -17.399 -65.510 -31.450  1.00  0.00     0.094 C 
BRANCH   5   6
HETATM    6  C10 UNL     1     -18.457 -66.021 -32.305  1.00  0.00     0.028 A 
HETATM    7  C11 UNL     1     -19.157 -67.183 -32.150  1.00  0.00     0.114 A 
HETATM    8  N2  UNL     1     -20.042 -67.270 -33.181  1.00  0.00    -0.360 N 
HETATM    9  C12 UNL     1     -19.923 -66.203 -33.976  1.00  0.00     0.180 A 
ATOM     10  H2  UNL     1     -20.700 -68.036 -33.324  1.00  0.00     0.166 HD
HETATM   11  N3  UNL     1     -18.938 -65.442 -33.417  1.00  0.00    -0.354 N 
ATOM     12  H3  UNL     1     -18.611 -64.552 -33.794  1.00  0.00     0.166 HD
ENDBRANCH   5   6
ENDBRANCH   3   5
BRANCH   3  13
HETATM   13  N4  UNL     1     -15.744 -65.968 -33.246  1.00  0.00    -0.404 N 
ATOM     14  H4  UNL     1     -15.699 -65.483 -34.141  1.00  0.00     0.154 HD
BRANCH  13  15
HETATM   15  C13 UNL     1     -15.489 -67.356 -33.168  1.00  0.00     0.077 A 
HETATM   16  C14 UNL     1     -14.929 -67.910 -34.511  1.00  0.00     0.027 A 
HETATM   17  C15 UNL     1     -16.226 -68.370 -33.960  1.00  0.00     0.027 A 
ENDBRANCH  13  15
ENDBRANCH   3  13
BRANCH   2  18
HETATM   18  O2  UNL     1     -13.755 -64.799 -31.880  1.00  0.00    -0.392 OA
ATOM     19  H2  UNL     1     -12.982 -64.827 -31.327  1.00  0.00     0.210 HD
ENDBRANCH   2  18
BRANCH   4  20
HETATM   20  O3  UNL     1     -15.163 -63.495 -33.469  1.00  0.00    -0.392 OA
ATOM     21  H3  UNL     1     -15.305 -62.691 -33.954  1.00  0.00     0.210 HD
ENDBRANCH   4  20
BRANCH   1  22
HETATM   22  C4  UNL     1     -14.774 -62.268 -30.848  1.00  0.00    -0.013 C 
HETATM   23  C5  UNL     1     -15.285 -61.541 -29.629  1.00  0.00     0.063 C 
BRANCH  22  24
HETATM   24  N1  UNL     1     -13.382 -62.356 -31.004  1.00  0.00    -0.394 N 
ATOM     25  H1  UNL     1     -12.913 -63.259 -30.930  1.00  0.00     0.159 HD
BRANCH  24  26
HETATM   26  C3  UNL     1     -12.630 -61.181 -31.267  1.00  0.00     0.145 C 
BRANCH  26  27
HETATM   27  C2  UNL     1     -11.832 -60.571 -30.178  1.00  0.00     0.186 C 
BRANCH  27  28
HETATM   28  O1  UNL     1     -12.376 -59.260 -29.993  1.00  0.00    -0.394 OA
HETATM   29  C1  UNL     1     -12.838 -59.106 -28.710  1.00  0.00     0.201 C 
ENDBRANCH  27  28
ENDBRANCH  26  27
ENDBRANCH  24  26
ENDBRANCH  22  24
ENDBRANCH   1  22
TORSDOF 11
ENDMDL
MODEL 5
REMARK VINA RESULT: -5.971398913      2.122      3.199
REMARK  11 active torsions:
REMARK  status: ('A' for Active; 'I' for Inactive)
REMARK    1  A    between atoms: O1_2  and  C2_3 
REMARK    2  A    between atoms: C2_3  and  C3_4 
REMARK    3  A    between atoms: C3_4  and  N1_5 
REMARK    4  A    between atoms: N1_5  and  C4_7 
REMARK    5  A    between atoms: C4_7  and  C6_9 
REMARK    6  A    between atoms: C7_10  and  O2_11 
REMARK    7  A    between atoms: C8_13  and  C9_14 
REMARK    8  A    between atoms: C8_13  and  N4_22 
REMARK    9  A    between atoms: C9_14  and  C10_15 
REMARK   10  A    between atoms: N4_22  and  C13_24 
REMARK   11  A    between atoms: C16_27  and  O3_28 
ROOT
HETATM    1  C6  UNL     1     -15.689 -63.577 -30.902  1.00  0.00     0.093 C 
HETATM    2  C7  UNL     1     -14.713 -64.680 -31.073  1.00  0.00     0.161 C 
HETATM    3  C8  UNL     1     -15.755 -65.405 -31.891  1.00  0.00     0.085 C 
HETATM    4  C16 UNL     1     -16.217 -63.951 -32.260  1.00  0.00     0.161 C 
ENDROOT
BRANCH   3   5
HETATM    5  C9  UNL     1     -16.917 -66.006 -31.180  1.00  0.00     0.094 C 
BRANCH   5   6
HETATM    6  C10 UNL     1     -16.658 -66.780 -29.978  1.00  0.00     0.028 A 
HETATM    7  C11 UNL     1     -17.095 -66.513 -28.712  1.00  0.00     0.114 A 
HETATM    8  N2  UNL     1     -16.612 -67.489 -27.896  1.00  0.00    -0.360 N 
HETATM    9  C12 UNL     1     -15.888 -68.359 -28.604  1.00  0.00     0.180 A 
ATOM     10  H2  UNL     1     -16.779 -67.548 -26.891  1.00  0.00     0.166 HD
HETATM   11  N3  UNL     1     -15.929 -67.904 -29.890  1.00  0.00    -0.354 N 
ATOM     12  H3  UNL     1     -15.467 -68.357 -30.679  1.00  0.00     0.166 HD
ENDBRANCH   5   6
ENDBRANCH   3   5
BRANCH   3  13
HETATM   13  N4  UNL     1     -15.360 -65.997 -33.116  1.00  0.00    -0.404 N 
ATOM     14  H4  UNL     1     -15.048 -65.418 -33.895  1.00  0.00     0.154 HD
BRANCH  13  15
HETATM   15  C13 UNL     1     -15.407 -67.405 -33.242  1.00  0.00     0.077 A 
HETATM   16  C14 UNL     1     -15.059 -67.860 -34.689  1.00  0.00     0.027 A 
HETATM   17  C15 UNL     1     -16.391 -68.118 -34.092  1.00  0.00     0.027 A 
ENDBRANCH  13  15
ENDBRANCH   3  13
BRANCH   2  18
HETATM   18  O2  UNL     1     -13.650 -64.335 -31.891  1.00  0.00    -0.392 OA
ATOM     19  H2  UNL     1     -13.918 -63.843 -32.658  1.00  0.00     0.210 HD
ENDBRANCH   2  18
BRANCH   4  20
HETATM   20  O3  UNL     1     -15.487 -63.459 -33.327  1.00  0.00    -0.392 OA
ATOM     21  H3  UNL     1     -15.116 -62.595 -33.196  1.00  0.00     0.210 HD
ENDBRANCH   4  20
BRANCH   1  22
HETATM   22  C4  UNL     1     -15.221 -62.175 -30.718  1.00  0.00    -0.013 C 
HETATM   23  C5  UNL     1     -15.948 -61.551 -29.553  1.00  0.00     0.063 C 
BRANCH  22  24
HETATM   24  N1  UNL     1     -13.846 -61.914 -30.828  1.00  0.00    -0.394 N 
ATOM     25  H1  UNL     1     -13.302 -62.335 -31.581  1.00  0.00     0.159 HD
BRANCH  24  26
HETATM   26  C3  UNL     1     -13.217 -61.061 -29.884  1.00  0.00     0.145 C 
BRANCH  26  27
HETATM   27  C2  UNL     1     -12.053 -60.246 -30.303  1.00  0.00     0.186 C 
BRANCH  27  28
HETATM   28  O1  UNL     1     -12.111 -59.058 -29.507  1.00  0.00    -0.394 OA
HETATM   29  C1  UNL     1     -13.187 -59.098 -28.657  1.00  0.00     0.201 C 
ENDBRANCH  27  28
ENDBRANCH  26  27
ENDBRANCH  24  26
ENDBRANCH  22  24
ENDBRANCH   1  22
TORSDOF 11
ENDMDL
