MODEL 1
REMARK VINA RESULT: -6.384589863      0.000      0.000
REMARK  11 active torsions:
REMARK  status: ('A' for Active; 'I' for Inactive)
REMARK    1  A    between atoms: C2_2  and  N1_3 
REMARK    2  A    between atoms: N1_3  and  C3_5 
REMARK    3  A    between atoms: N3_9  and  C5_11 
REMARK    4  A    between atoms: C5_11  and  C6_12 
REMARK    5  A    between atoms: C6_12  and  C7_13 
REMARK    6  A    between atoms: C7_13  and  C8_14 
REMARK    7  A    between atoms: C8_14  and  N4_15 
REMARK    8  A    between atoms: N4_15  and  C9_17 
REMARK    9  A    between atoms: C9_17  and  C10_18 
REMARK   10  A    between atoms: C10_18  and  C11_19 
REMARK   11  A    between atoms: C11_19  and  N5_20 
ROOT
HETATM    1  C3  UNL     1     -15.021 -63.608 -32.582  1.00  0.00     0.681 A 
HETATM    2  N2  UNL     1     -14.793 -64.869 -32.985  1.00  0.00    -0.175 N 
ATOM      3  H2  UNL     1     -13.859 -65.121 -33.309  1.00  0.00     0.186 HD
HETATM    4  C4  UNL     1     -15.760 -65.819 -32.977  1.00  0.00     0.147 A 
HETATM    5  N3  UNL     1     -15.507 -67.002 -33.365  1.00  0.00    -0.374 N 
ATOM      6  H3  UNL     1     -14.549 -67.172 -33.673  1.00  0.00     0.161 HD
HETATM    7  C12 UNL     1     -17.038 -65.513 -32.547  1.00  0.00     0.123 A 
HETATM    8  N6  UNL     1     -18.199 -66.184 -32.411  1.00  0.00    -0.346 N 
ATOM      9  H6  UNL     1     -18.336 -67.169 -32.639  1.00  0.00     0.167 HD
HETATM   10  C13 UNL     1     -19.150 -65.365 -31.929  1.00  0.00     0.184 A 
HETATM   11  N7  UNL     1     -18.560 -64.169 -31.769  1.00  0.00    -0.331 N 
HETATM   12  C14 UNL     1     -19.198 -62.956 -31.267  1.00  0.00     0.158 C 
HETATM   13  C15 UNL     1     -17.259 -64.215 -32.137  1.00  0.00     0.154 A 
HETATM   14  N8  UNL     1     -16.261 -63.306 -32.163  1.00  0.00    -0.174 N 
ATOM     15  H8  UNL     1     -16.457 -62.354 -31.853  1.00  0.00     0.186 HD
ENDROOT
BRANCH   5  16
HETATM   16  C5  UNL     1     -16.384 -68.120 -33.427  1.00  0.00     0.121 C 
BRANCH  16  17
HETATM   17  C6  UNL     1     -15.569 -69.349 -33.037  1.00  0.00     0.021 C 
BRANCH  17  18
HETATM   18  C7  UNL     1     -15.451 -69.332 -31.541  1.00  0.00     0.021 C 
BRANCH  18  19
HETATM   19  C8  UNL     1     -15.037 -70.730 -31.068  1.00  0.00     0.113 C 
BRANCH  19  20
HETATM   20  N4  UNL     1     -13.881 -70.702 -30.245  1.00  0.00    -0.421 N 
ATOM     21  H4  UNL     1     -13.129 -71.382 -30.356  1.00  0.00     0.153 HD
BRANCH  20  22
HETATM   22  C9  UNL     1     -13.823 -69.681 -29.258  1.00  0.00     0.115 C 
BRANCH  22  23
HETATM   23  C10 UNL     1     -13.331 -70.264 -27.960  1.00  0.00     0.046 C 
BRANCH  23  24
HETATM   24  C11 UNL     1     -11.958 -69.639 -27.688  1.00  0.00     0.231 C 
BRANCH  24  25
HETATM   25  N5  UNL     1     -10.957 -70.680 -27.749  1.00  0.00    -0.079 N 
ATOM     26  H53 UNL     1     -10.236 -70.571 -27.037  1.00  0.00     0.274 HD
ATOM     27  H52 UNL     1     -11.317 -71.586 -27.447  1.00  0.00     0.274 HD
ATOM     28  H51 UNL     1     -10.574 -70.708 -28.693  1.00  0.00     0.274 HD
ENDBRANCH  24  25
ENDBRANCH  23  24
ENDBRANCH  22  23
ENDBRANCH  20  22
ENDBRANCH  19  20
ENDBRANCH  18  19
ENDBRANCH  17  18
ENDBRANCH  16  17
ENDBRANCH   5  16
BRANCH   1  29
HETATM   29  N1  UNL     1     -14.074 -62.716 -32.599  1.00  0.00    -0.226 N 
ATOM     30  H1  UNL     1     -13.773 -62.346 -33.501  1.00  0.00     0.177 HD
BRANCH  29  31
HETATM   31  C2  UNL     1     -13.429 -62.222 -31.406  1.00  0.00     0.133 C 
HETATM   32  C1  UNL     1     -11.916 -62.206 -31.553  1.00  0.00     0.027 C 
ENDBRANCH  29  31
ENDBRANCH   1  29
TORSDOF 11
ENDMDL
MODEL 2
REMARK VINA RESULT: -6.330970386      1.555      1.623
REMARK  11 active torsions:
REMARK  status: ('A' for Active; 'I' for Inactive)
REMARK    1  A    between atoms: C2_2  and  N1_3 
REMARK    2  A    between atoms: N1_3  and  C3_5 
REMARK    3  A    between atoms: N3_9  and  C5_11 
REMARK    4  A    between atoms: C5_11  and  C6_12 
REMARK    5  A    between atoms: C6_12  and  C7_13 
REMARK    6  A    between atoms: C7_13  and  C8_14 
REMARK    7  A    between atoms: C8_14  and  N4_15 
REMARK    8  A    between atoms: N4_15  and  C9_17 
REMARK    9  A    between atoms: C9_17  and  C10_18 
REMARK   10  A    between atoms: C10_18  and  C11_19 
REMARK   11  A    between atoms: C11_19  and  N5_20 
ROOT
HETATM    1  C3  UNL     1     -14.101 -63.062 -31.892  1.00  0.00     0.681 A 
HETATM    2  N2  UNL     1     -14.279 -64.206 -32.573  1.00  0.00    -0.175 N 
ATOM      3  H2  UNL     1     -13.672 -64.406 -33.367  1.00  0.00     0.186 HD
HETATM    4  C4  UNL     1     -15.237 -65.106 -32.241  1.00  0.00     0.147 A 
HETATM    5  N3  UNL     1     -15.376 -66.179 -32.908  1.00  0.00    -0.374 N 
ATOM      6  H3  UNL     1     -14.729 -66.303 -33.687  1.00  0.00     0.161 HD
HETATM    7  C12 UNL     1     -16.080 -64.868 -31.171  1.00  0.00     0.123 A 
HETATM    8  N6  UNL     1     -17.104 -65.519 -30.583  1.00  0.00    -0.346 N 
ATOM      9  H6  UNL     1     -17.470 -66.423 -30.880  1.00  0.00     0.167 HD
HETATM   10  C13 UNL     1     -17.570 -64.802 -29.545  1.00  0.00     0.184 A 
HETATM   11  N7  UNL     1     -16.818 -63.690 -29.498  1.00  0.00    -0.331 N 
HETATM   12  C14 UNL     1     -16.950 -62.603 -28.534  1.00  0.00     0.158 C 
HETATM   13  C15 UNL     1     -15.888 -63.689 -30.482  1.00  0.00     0.154 A 
HETATM   14  N8  UNL     1     -14.918 -62.826 -30.852  1.00  0.00    -0.174 N 
ATOM     15  H8  UNL     1     -14.801 -61.962 -30.321  1.00  0.00     0.186 HD
ENDROOT
BRANCH   5  16
HETATM   16  C5  UNL     1     -16.314 -67.229 -32.711  1.00  0.00     0.121 C 
BRANCH  16  17
HETATM   17  C6  UNL     1     -15.518 -68.526 -32.610  1.00  0.00     0.021 C 
BRANCH  17  18
HETATM   18  C7  UNL     1     -15.363 -68.824 -31.147  1.00  0.00     0.021 C 
BRANCH  18  19
HETATM   19  C8  UNL     1     -15.017 -70.309 -30.986  1.00  0.00     0.113 C 
BRANCH  19  20
HETATM   20  N4  UNL     1     -13.926 -70.516 -30.102  1.00  0.00    -0.421 N 
ATOM     21  H4  UNL     1     -13.291 -71.307 -30.213  1.00  0.00     0.153 HD
BRANCH  20  22
HETATM   22  C9  UNL     1     -13.761 -69.569 -29.055  1.00  0.00     0.115 C 
BRANCH  22  23
HETATM   23  C10 UNL     1     -13.203 -70.258 -27.838  1.00  0.00     0.046 C 
BRANCH  23  24
HETATM   24  C11 UNL     1     -11.776 -69.730 -27.648  1.00  0.00     0.231 C 
BRANCH  24  25
HETATM   25  N5  UNL     1     -10.861 -70.847 -27.702  1.00  0.00    -0.079 N 
ATOM     26  H53 UNL     1      -9.915 -70.565 -27.957  1.00  0.00     0.274 HD
ATOM     27  H52 UNL     1     -10.651 -71.226 -26.779  1.00  0.00     0.274 HD
ATOM     28  H51 UNL     1     -11.243 -71.550 -28.335  1.00  0.00     0.274 HD
ENDBRANCH  24  25
ENDBRANCH  23  24
ENDBRANCH  22  23
ENDBRANCH  20  22
ENDBRANCH  19  20
ENDBRANCH  18  19
ENDBRANCH  17  18
ENDBRANCH  16  17
ENDBRANCH   5  16
BRANCH   1  29
HETATM   29  N1  UNL     1     -13.173 -62.216 -32.231  1.00  0.00    -0.226 N 
ATOM     30  H1  UNL     1     -13.293 -61.685 -33.094  1.00  0.00     0.177 HD
BRANCH  29  31
HETATM   31  C2  UNL     1     -11.982 -61.990 -31.447  1.00  0.00     0.133 C 
HETATM   32  C1  UNL     1     -12.058 -60.683 -30.676  1.00  0.00     0.027 C 
ENDBRANCH  29  31
ENDBRANCH   1  29
TORSDOF 11
ENDMDL
MODEL 3
REMARK VINA RESULT: -6.170541712      2.935      6.820
REMARK  11 active torsions:
REMARK  status: ('A' for Active; 'I' for Inactive)
REMARK    1  A    between atoms: C2_2  and  N1_3 
REMARK    2  A    between atoms: N1_3  and  C3_5 
REMARK    3  A    between atoms: N3_9  and  C5_11 
REMARK    4  A    between atoms: C5_11  and  C6_12 
REMARK    5  A    between atoms: C6_12  and  C7_13 
REMARK    6  A    between atoms: C7_13  and  C8_14 
REMARK    7  A    between atoms: C8_14  and  N4_15 
REMARK    8  A    between atoms: N4_15  and  C9_17 
REMARK    9  A    between atoms: C9_17  and  C10_18 
REMARK   10  A    between atoms: C10_18  and  C11_19 
REMARK   11  A    between atoms: C11_19  and  N5_20 
ROOT
HETATM    1  C3  UNL     1     -16.203 -68.627 -33.841  1.00  0.00     0.681 A 
HETATM    2  N2  UNL     1     -15.360 -67.633 -33.514  1.00  0.00    -0.175 N 
ATOM      3  H2  UNL     1     -14.360 -67.829 -33.475  1.00  0.00     0.186 HD
HETATM    4  C4  UNL     1     -15.792 -66.380 -33.233  1.00  0.00     0.147 A 
HETATM    5  N3  UNL     1     -14.965 -65.464 -32.927  1.00  0.00    -0.374 N 
ATOM      6  H3  UNL     1     -13.983 -65.741 -32.912  1.00  0.00     0.161 HD
HETATM    7  C12 UNL     1     -17.141 -66.079 -33.272  1.00  0.00     0.123 A 
HETATM    8  N6  UNL     1     -17.894 -64.981 -33.059  1.00  0.00    -0.346 N 
ATOM      9  H6  UNL     1     -17.531 -64.065 -32.794  1.00  0.00     0.167 HD
HETATM   10  C13 UNL     1     -19.193 -65.270 -33.247  1.00  0.00     0.184 A 
HETATM   11  N7  UNL     1     -19.237 -66.570 -33.581  1.00  0.00    -0.331 N 
HETATM   12  C14 UNL     1     -20.440 -67.341 -33.882  1.00  0.00     0.158 C 
HETATM   13  C15 UNL     1     -17.995 -67.108 -33.609  1.00  0.00     0.154 A 
HETATM   14  N8  UNL     1     -17.515 -68.340 -33.881  1.00  0.00    -0.174 N 
ATOM     15  H8  UNL     1     -18.173 -69.080 -34.126  1.00  0.00     0.186 HD
ENDROOT
BRANCH   5  16
HETATM   16  C5  UNL     1     -15.229 -64.104 -32.605  1.00  0.00     0.121 C 
BRANCH  16  17
HETATM   17  C6  UNL     1     -15.028 -63.956 -31.100  1.00  0.00     0.021 C 
BRANCH  17  18
HETATM   18  C7  UNL     1     -14.767 -62.500 -30.841  1.00  0.00     0.021 C 
BRANCH  18  19
HETATM   19  C8  UNL     1     -15.824 -61.984 -29.858  1.00  0.00     0.113 C 
BRANCH  19  20
HETATM   20  N4  UNL     1     -15.357 -60.883 -29.093  1.00  0.00    -0.421 N 
ATOM     21  H4  UNL     1     -16.001 -60.229 -28.648  1.00  0.00     0.153 HD
BRANCH  20  22
HETATM   22  C9  UNL     1     -13.948 -60.735 -28.977  1.00  0.00     0.115 C 
BRANCH  22  23
HETATM   23  C10 UNL     1     -13.629 -59.372 -28.424  1.00  0.00     0.046 C 
BRANCH  23  24
HETATM   24  C11 UNL     1     -12.419 -58.850 -29.207  1.00  0.00     0.231 C 
BRANCH  24  25
HETATM   25  N5  UNL     1     -11.880 -59.934 -29.997  1.00  0.00    -0.079 N 
ATOM     26  H53 UNL     1     -11.726 -60.779 -29.448  1.00  0.00     0.274 HD
ATOM     27  H52 UNL     1     -12.561 -60.315 -30.653  1.00  0.00     0.274 HD
ATOM     28  H51 UNL     1     -11.032 -59.608 -30.460  1.00  0.00     0.274 HD
ENDBRANCH  24  25
ENDBRANCH  23  24
ENDBRANCH  22  23
ENDBRANCH  20  22
ENDBRANCH  19  20
ENDBRANCH  18  19
ENDBRANCH  17  18
ENDBRANCH  16  17
ENDBRANCH   5  16
BRANCH   1  29
HETATM   29  N1  UNL     1     -15.762 -69.822 -34.107  1.00  0.00    -0.226 N 
ATOM     30  H1  UNL     1     -15.167 -69.947 -34.926  1.00  0.00     0.177 HD
BRANCH  29  31
HETATM   31  C2  UNL     1     -16.073 -70.979 -33.302  1.00  0.00     0.133 C 
HETATM   32  C1  UNL     1     -15.509 -70.851 -31.896  1.00  0.00     0.027 C 
ENDBRANCH  29  31
ENDBRANCH   1  29
TORSDOF 11
ENDMDL
MODEL 4
REMARK VINA RESULT: -5.969302291      2.131      7.133
REMARK  11 active torsions:
REMARK  status: ('A' for Active; 'I' for Inactive)
REMARK    1  A    between atoms: C2_2  and  N1_3 
REMARK    2  A    between atoms: N1_3  and  C3_5 
REMARK    3  A    between atoms: N3_9  and  C5_11 
REMARK    4  A    between atoms: C5_11  and  C6_12 
REMARK    5  A    between atoms: C6_12  and  C7_13 
REMARK    6  A    between atoms: C7_13  and  C8_14 
REMARK    7  A    between atoms: C8_14  and  N4_15 
REMARK    8  A    between atoms: N4_15  and  C9_17 
REMARK    9  A    between atoms: C9_17  and  C10_18 
REMARK   10  A    between atoms: C10_18  and  C11_19 
REMARK   11  A    between atoms: C11_19  and  N5_20 
ROOT
HETATM    1  C3  UNL     1     -14.134 -70.164 -29.988  1.00  0.00     0.681 A 
HETATM    2  N2  UNL     1     -14.307 -68.832 -29.981  1.00  0.00    -0.175 N 
ATOM      3  H2  UNL     1     -13.736 -68.265 -29.355  1.00  0.00     0.186 HD
HETATM    4  C4  UNL     1     -15.215 -68.214 -30.776  1.00  0.00     0.147 A 
HETATM    5  N3  UNL     1     -15.350 -66.951 -30.742  1.00  0.00    -0.374 N 
ATOM      6  H3  UNL     1     -14.741 -66.457 -30.089  1.00  0.00     0.161 HD
HETATM    7  C12 UNL     1     -16.008 -68.951 -31.636  1.00  0.00     0.123 A 
HETATM    8  N6  UNL     1     -16.975 -68.676 -32.534  1.00  0.00    -0.346 N 
ATOM      9  H6  UNL     1     -17.326 -67.743 -32.750  1.00  0.00     0.167 HD
HETATM   10  C13 UNL     1     -17.411 -69.813 -33.103  1.00  0.00     0.184 A 
HETATM   11  N7  UNL     1     -16.697 -70.803 -32.543  1.00  0.00    -0.331 N 
HETATM   12  C14 UNL     1     -16.817 -72.226 -32.844  1.00  0.00     0.158 C 
HETATM   13  C15 UNL     1     -15.821 -70.317 -31.633  1.00  0.00     0.154 A 
HETATM   14  N8  UNL     1     -14.903 -70.884 -30.823  1.00  0.00    -0.174 N 
ATOM     15  H8  UNL     1     -14.788 -71.898 -30.844  1.00  0.00     0.186 HD
ENDROOT
BRANCH   5  16
HETATM   16  C5  UNL     1     -16.240 -66.135 -31.494  1.00  0.00     0.121 C 
BRANCH  16  17
HETATM   17  C6  UNL     1     -15.407 -65.434 -32.563  1.00  0.00     0.021 C 
BRANCH  17  18
HETATM   18  C7  UNL     1     -14.304 -64.713 -31.845  1.00  0.00     0.021 C 
BRANCH  18  19
HETATM   19  C8  UNL     1     -14.661 -63.224 -31.774  1.00  0.00     0.113 C 
BRANCH  19  20
HETATM   20  N4  UNL     1     -13.645 -62.397 -32.320  1.00  0.00    -0.421 N 
ATOM     21  H4  UNL     1     -13.798 -61.852 -33.168  1.00  0.00     0.153 HD
BRANCH  20  22
HETATM   22  C9  UNL     1     -12.403 -62.367 -31.628  1.00  0.00     0.115 C 
BRANCH  22  23
HETATM   23  C10 UNL     1     -12.017 -60.939 -31.352  1.00  0.00     0.046 C 
BRANCH  23  24
HETATM   24  C11 UNL     1     -12.415 -60.647 -29.901  1.00  0.00     0.231 C 
BRANCH  24  25
HETATM   25  N5  UNL     1     -12.189 -59.244 -29.635  1.00  0.00    -0.079 N 
ATOM     26  H53 UNL     1     -12.944 -58.822 -29.094  1.00  0.00     0.274 HD
ATOM     27  H52 UNL     1     -11.435 -59.090 -28.966  1.00  0.00     0.274 HD
ATOM     28  H51 UNL     1     -12.029 -58.767 -30.521  1.00  0.00     0.274 HD
ENDBRANCH  24  25
ENDBRANCH  23  24
ENDBRANCH  22  23
ENDBRANCH  20  22
ENDBRANCH  19  20
ENDBRANCH  18  19
ENDBRANCH  17  18
ENDBRANCH  16  17
ENDBRANCH   5  16
BRANCH   1  29
HETATM   29  N1  UNL     1     -13.255 -70.732 -29.216  1.00  0.00    -0.226 N 
ATOM     30  H1  UNL     1     -12.689 -71.489 -29.600  1.00  0.00     0.177 HD
BRANCH  29  31
HETATM   31  C2  UNL     1     -13.040 -70.344 -27.842  1.00  0.00     0.133 C 
HETATM   32  C1  UNL     1     -11.622 -69.844 -27.616  1.00  0.00     0.027 C 
ENDBRANCH  29  31
ENDBRANCH   1  29
TORSDOF 11
ENDMDL
MODEL 5
REMARK VINA RESULT: -5.957576148      2.267      3.542
REMARK  11 active torsions:
REMARK  status: ('A' for Active; 'I' for Inactive)
REMARK    1  A    between atoms: C2_2  and  N1_3 
REMARK    2  A    between atoms: N1_3  and  C3_5 
REMARK    3  A    between atoms: N3_9  and  C5_11 
REMARK    4  A    between atoms: C5_11  and  C6_12 
REMARK    5  A    between atoms: C6_12  and  C7_13 
REMARK    6  A    between atoms: C7_13  and  C8_14 
REMARK    7  A    between atoms: C8_14  and  N4_15 
REMARK    8  A    between atoms: N4_15  and  C9_17 
REMARK    9  A    between atoms: C9_17  and  C10_18 
REMARK   10  A    between atoms: C10_18  and  C11_19 
REMARK   11  A    between atoms: C11_19  and  N5_20 
ROOT
HETATM    1  C3  UNL     1     -14.870 -64.161 -32.010  1.00  0.00     0.681 A 
HETATM    2  N2  UNL     1     -15.510 -64.245 -30.832  1.00  0.00    -0.175 N 
ATOM      3  H2  UNL     1     -15.518 -63.431 -30.218  1.00  0.00     0.186 HD
HETATM    4  C4  UNL     1     -16.144 -65.374 -30.430  1.00  0.00     0.147 A 
HETATM    5  N3  UNL     1     -16.739 -65.416 -29.308  1.00  0.00    -0.374 N 
ATOM      6  H3  UNL     1     -16.701 -64.560 -28.754  1.00  0.00     0.161 HD
HETATM    7  C12 UNL     1     -16.151 -66.497 -31.235  1.00  0.00     0.123 A 
HETATM    8  N6  UNL     1     -16.663 -67.742 -31.155  1.00  0.00    -0.346 N 
ATOM      9  H6  UNL     1     -17.205 -68.103 -30.370  1.00  0.00     0.167 HD
HETATM   10  C13 UNL     1     -16.354 -68.439 -32.263  1.00  0.00     0.184 A 
HETATM   11  N7  UNL     1     -15.639 -67.605 -33.036  1.00  0.00    -0.331 N 
HETATM   12  C14 UNL     1     -15.080 -67.916 -34.348  1.00  0.00     0.158 C 
HETATM   13  C15 UNL     1     -15.490 -66.398 -32.442  1.00  0.00     0.154 A 
HETATM   14  N8  UNL     1     -14.874 -65.251 -32.797  1.00  0.00    -0.174 N 
ATOM     15  H8  UNL     1     -14.393 -65.209 -33.696  1.00  0.00     0.186 HD
ENDROOT
BRANCH   5  16
HETATM   16  C5  UNL     1     -17.451 -66.500 -28.724  1.00  0.00     0.121 C 
BRANCH  16  17
HETATM   17  C6  UNL     1     -16.935 -66.655 -27.296  1.00  0.00     0.021 C 
BRANCH  17  18
HETATM   18  C7  UNL     1     -16.628 -68.112 -27.104  1.00  0.00     0.021 C 
BRANCH  18  19
HETATM   19  C8  UNL     1     -15.484 -68.239 -26.092  1.00  0.00     0.113 C 
BRANCH  19  20
HETATM   20  N4  UNL     1     -14.355 -68.906 -26.635  1.00  0.00    -0.421 N 
ATOM     21  H4  UNL     1     -13.540 -69.129 -26.064  1.00  0.00     0.153 HD
BRANCH  20  22
HETATM   22  C9  UNL     1     -14.415 -69.249 -28.014  1.00  0.00     0.115 C 
BRANCH  22  23
HETATM   23  C10 UNL     1     -13.288 -70.189 -28.347  1.00  0.00     0.046 C 
BRANCH  23  24
HETATM   24  C11 UNL     1     -12.082 -69.746 -27.510  1.00  0.00     0.231 C 
BRANCH  24  25
HETATM   25  N5  UNL     1     -10.948 -70.570 -27.865  1.00  0.00    -0.079 N 
ATOM     26  H53 UNL     1     -10.844 -70.678 -28.874  1.00  0.00     0.274 HD
ATOM     27  H52 UNL     1     -10.057 -70.108 -27.681  1.00  0.00     0.274 HD
ATOM     28  H51 UNL     1     -11.032 -71.464 -27.382  1.00  0.00     0.274 HD
ENDBRANCH  24  25
ENDBRANCH  23  24
ENDBRANCH  22  23
ENDBRANCH  20  22
ENDBRANCH  19  20
ENDBRANCH  18  19
ENDBRANCH  17  18
ENDBRANCH  16  17
ENDBRANCH   5  16
BRANCH   1  29
HETATM   29  N1  UNL     1     -14.270 -63.065 -32.373  1.00  0.00    -0.226 N 
ATOM     30  H1  UNL     1     -14.304 -62.796 -33.356  1.00  0.00     0.177 HD
BRANCH  29  31
HETATM   31  C2  UNL     1     -13.557 -62.211 -31.452  1.00  0.00     0.133 C 
HETATM   32  C1  UNL     1     -12.054 -62.279 -31.674  1.00  0.00     0.027 C 
ENDBRANCH  29  31
ENDBRANCH   1  29
TORSDOF 11
ENDMDL
