MODEL 1
REMARK VINA RESULT: -6.762642977      0.000      0.000
REMARK  11 active torsions:
REMARK  status: ('A' for Active; 'I' for Inactive)
REMARK    1  A    between atoms: C5_6  and  C6_7 
REMARK    2  A    between atoms: C6_7  and  N2_8 
REMARK    3  A    between atoms: N2_8  and  C7_10 
REMARK    4  A    between atoms: C7_10  and  C8_11 
REMARK    5  A    between atoms: C8_11  and  N3_12 
REMARK    6  A    between atoms: N3_12  and  C9_15 
REMARK    7  A    between atoms: C9_15  and  C10_16 
REMARK    8  A    between atoms: C10_16  and  C11_17 
REMARK    9  A    between atoms: C11_17  and  N4_18 
REMARK   10  A    between atoms: N4_18  and  C12_20 
REMARK   11  A    between atoms: C15_27  and  C16_28 
ROOT
HETATM    1  C8  UNL     1     -17.717 -63.907 -33.344  1.00  0.00     0.276 C 
ENDROOT
BRANCH   1   2
HETATM    2  C7  UNL     1     -18.402 -63.289 -32.207  1.00  0.00     0.087 C 
BRANCH   2   3
HETATM    3  N2  UNL     1     -17.772 -62.627 -31.166  1.00  0.00    -0.376 N 
ATOM      4  H2  UNL     1     -18.103 -61.695 -30.914  1.00  0.00     0.164 HD
BRANCH   3   5
HETATM    5  C6  UNL     1     -16.704 -63.169 -30.440  1.00  0.00     0.101 C 
BRANCH   5   6
HETATM    6  C5  UNL     1     -15.580 -62.287 -30.171  1.00  0.00     0.007 A 
HETATM    7  C4  UNL     1     -15.593 -61.341 -29.193  1.00  0.00     0.016 A 
HETATM    8  C3  UNL     1     -14.503 -60.515 -28.955  1.00  0.00     0.018 A 
HETATM    9  C2  UNL     1     -13.409 -60.702 -29.755  1.00  0.00     0.091 A 
HETATM   10  N1  UNL     1     -13.363 -61.639 -30.741  1.00  0.00    -0.359 N 
HETATM   11  C1  UNL     1     -12.131 -61.702 -31.491  1.00  0.00     0.156 C 
HETATM   12  C15 UNL     1     -14.409 -62.411 -30.951  1.00  0.00     0.060 A 
BRANCH  12  13
HETATM   13  C16 UNL     1     -14.420 -63.399 -32.004  1.00  0.00     0.111 C 
HETATM   14  N7  UNL     1     -14.059 -64.584 -32.007  1.00  0.00    -0.406 N 
ATOM     15  H72 UNL     1     -13.696 -64.897 -31.107  1.00  0.00     0.155 HD
ATOM     16  H71 UNL     1     -14.066 -65.281 -32.751  1.00  0.00     0.155 HD
ENDBRANCH  12  13
ENDBRANCH   5   6
ENDBRANCH   3   5
ENDBRANCH   2   3
ENDBRANCH   1   2
BRANCH   1  17
HETATM   17  N3  UNL     1     -17.204 -63.046 -34.379  1.00  0.00    -0.071 N 
ATOM     18  H32 UNL     1     -16.329 -62.591 -34.117  1.00  0.00     0.277 HD
ATOM     19  H31 UNL     1     -16.854 -63.564 -35.185  1.00  0.00     0.277 HD
BRANCH  17  20
HETATM   20  C9  UNL     1     -18.260 -62.088 -34.735  1.00  0.00     0.234 C 
BRANCH  20  21
HETATM   21  C10 UNL     1     -17.915 -61.355 -35.975  1.00  0.00     0.047 C 
BRANCH  21  22
HETATM   22  C11 UNL     1     -18.744 -60.076 -36.001  1.00  0.00     0.124 C 
BRANCH  22  23
HETATM   23  N4  UNL     1     -17.909 -58.986 -36.432  1.00  0.00    -0.362 N 
ATOM     24  H4  UNL     1     -16.929 -59.172 -36.646  1.00  0.00     0.162 HD
BRANCH  23  25
HETATM   25  C12 UNL     1     -18.408 -57.639 -36.574  1.00  0.00     0.171 A 
HETATM   26  N5  UNL     1     -19.473 -57.179 -37.041  1.00  0.00    -0.361 N 
HETATM   27  C13 UNL     1     -19.599 -55.743 -37.000  1.00  0.00     0.142 A 
ATOM     28  H5  UNL     1     -20.203 -57.779 -37.424  1.00  0.00     0.162 HD
HETATM   29  C14 UNL     1     -18.281 -55.287 -36.426  1.00  0.00     0.142 A 
HETATM   30  N6  UNL     1     -17.603 -56.523 -36.121  1.00  0.00    -0.361 N 
ATOM     31  H6  UNL     1     -16.697 -56.600 -35.658  1.00  0.00     0.162 HD
ENDBRANCH  23  25
ENDBRANCH  22  23
ENDBRANCH  21  22
ENDBRANCH  20  21
ENDBRANCH  17  20
ENDBRANCH   1  17
TORSDOF 11
ENDMDL
MODEL 2
REMARK VINA RESULT: -6.168097078      4.504      7.653
REMARK  11 active torsions:
REMARK  status: ('A' for Active; 'I' for Inactive)
REMARK    1  A    between atoms: C5_6  and  C6_7 
REMARK    2  A    between atoms: C6_7  and  N2_8 
REMARK    3  A    between atoms: N2_8  and  C7_10 
REMARK    4  A    between atoms: C7_10  and  C8_11 
REMARK    5  A    between atoms: C8_11  and  N3_12 
REMARK    6  A    between atoms: N3_12  and  C9_15 
REMARK    7  A    between atoms: C9_15  and  C10_16 
REMARK    8  A    between atoms: C10_16  and  C11_17 
REMARK    9  A    between atoms: C11_17  and  N4_18 
REMARK   10  A    between atoms: N4_18  and  C12_20 
REMARK   11  A    between atoms: C15_27  and  C16_28 
ROOT
HETATM    1  C8  UNL     1     -17.507 -63.979 -33.337  1.00  0.00     0.276 C 
ENDROOT
BRANCH   1   2
HETATM    2  C7  UNL     1     -16.071 -64.261 -33.312  1.00  0.00     0.087 C 
BRANCH   2   3
HETATM    3  N2  UNL     1     -15.085 -63.333 -33.014  1.00  0.00    -0.376 N 
ATOM      4  H2  UNL     1     -14.943 -62.556 -33.659  1.00  0.00     0.164 HD
BRANCH   3   5
HETATM    5  C6  UNL     1     -14.275 -63.408 -31.875  1.00  0.00     0.101 C 
BRANCH   5   6
HETATM    6  C5  UNL     1     -14.534 -62.438 -30.823  1.00  0.00     0.007 A 
HETATM    7  C4  UNL     1     -15.698 -62.393 -30.121  1.00  0.00     0.016 A 
HETATM    8  C3  UNL     1     -15.916 -61.458 -29.118  1.00  0.00     0.018 A 
HETATM    9  C2  UNL     1     -14.895 -60.581 -28.868  1.00  0.00     0.091 A 
HETATM   10  N1  UNL     1     -13.718 -60.600 -29.552  1.00  0.00    -0.359 N 
HETATM   11  C1  UNL     1     -12.749 -59.604 -29.160  1.00  0.00     0.156 C 
HETATM   12  C15 UNL     1     -13.533 -61.494 -30.500  1.00  0.00     0.060 A 
BRANCH  12  13
HETATM   13  C16 UNL     1     -12.314 -61.535 -31.273  1.00  0.00     0.111 C 
HETATM   14  N7  UNL     1     -11.893 -60.781 -32.161  1.00  0.00    -0.406 N 
ATOM     15  H72 UNL     1     -12.525 -60.008 -32.369  1.00  0.00     0.155 HD
ATOM     16  H71 UNL     1     -11.032 -60.810 -32.708  1.00  0.00     0.155 HD
ENDBRANCH  12  13
ENDBRANCH   5   6
ENDBRANCH   3   5
ENDBRANCH   2   3
ENDBRANCH   1   2
BRANCH   1  17
HETATM   17  N3  UNL     1     -18.375 -64.923 -33.994  1.00  0.00    -0.071 N 
ATOM     18  H32 UNL     1     -19.004 -64.481 -34.665  1.00  0.00     0.277 HD
ATOM     19  H31 UNL     1     -17.878 -65.527 -34.649  1.00  0.00     0.277 HD
BRANCH  17  20
HETATM   20  C9  UNL     1     -19.091 -65.679 -32.956  1.00  0.00     0.234 C 
BRANCH  20  21
HETATM   21  C10 UNL     1     -18.507 -67.030 -32.786  1.00  0.00     0.047 C 
BRANCH  21  22
HETATM   22  C11 UNL     1     -18.192 -67.575 -34.174  1.00  0.00     0.124 C 
BRANCH  22  23
HETATM   23  N4  UNL     1     -16.812 -67.980 -34.216  1.00  0.00    -0.362 N 
ATOM     24  H4  UNL     1     -16.172 -67.483 -34.837  1.00  0.00     0.162 HD
BRANCH  23  25
HETATM   25  C12 UNL     1     -16.299 -69.062 -33.410  1.00  0.00     0.171 A 
HETATM   26  N5  UNL     1     -15.840 -69.104 -32.248  1.00  0.00    -0.361 N 
HETATM   27  C13 UNL     1     -15.424 -70.407 -31.792  1.00  0.00     0.142 A 
ATOM     28  H5  UNL     1     -15.766 -68.272 -31.662  1.00  0.00     0.162 HD
HETATM   29  C14 UNL     1     -15.653 -71.293 -32.991  1.00  0.00     0.142 A 
HETATM   30  N6  UNL     1     -16.261 -70.406 -33.951  1.00  0.00    -0.361 N 
ATOM     31  H6  UNL     1     -16.610 -70.681 -34.869  1.00  0.00     0.162 HD
ENDBRANCH  23  25
ENDBRANCH  22  23
ENDBRANCH  21  22
ENDBRANCH  20  21
ENDBRANCH  17  20
ENDBRANCH   1  17
TORSDOF 11
ENDMDL
MODEL 3
REMARK VINA RESULT: -6.128976567      4.958      7.696
REMARK  11 active torsions:
REMARK  status: ('A' for Active; 'I' for Inactive)
REMARK    1  A    between atoms: C5_6  and  C6_7 
REMARK    2  A    between atoms: C6_7  and  N2_8 
REMARK    3  A    between atoms: N2_8  and  C7_10 
REMARK    4  A    between atoms: C7_10  and  C8_11 
REMARK    5  A    between atoms: C8_11  and  N3_12 
REMARK    6  A    between atoms: N3_12  and  C9_15 
REMARK    7  A    between atoms: C9_15  and  C10_16 
REMARK    8  A    between atoms: C10_16  and  C11_17 
REMARK    9  A    between atoms: C11_17  and  N4_18 
REMARK   10  A    between atoms: N4_18  and  C12_20 
REMARK   11  A    between atoms: C15_27  and  C16_28 
ROOT
HETATM    1  C8  UNL     1     -15.585 -64.127 -32.946  1.00  0.00     0.276 C 
ENDROOT
BRANCH   1   2
HETATM    2  C7  UNL     1     -14.995 -65.461 -32.824  1.00  0.00     0.087 C 
BRANCH   2   3
HETATM    3  N2  UNL     1     -15.613 -66.640 -33.208  1.00  0.00    -0.376 N 
ATOM      4  H2  UNL     1     -15.521 -66.941 -34.178  1.00  0.00     0.164 HD
BRANCH   3   5
HETATM    5  C6  UNL     1     -16.359 -67.440 -32.334  1.00  0.00     0.101 C 
BRANCH   5   6
HETATM    6  C5  UNL     1     -15.623 -68.425 -31.558  1.00  0.00     0.007 A 
HETATM    7  C4  UNL     1     -14.992 -68.131 -30.389  1.00  0.00     0.016 A 
HETATM    8  C3  UNL     1     -14.299 -69.093 -29.665  1.00  0.00     0.018 A 
HETATM    9  C2  UNL     1     -14.284 -70.357 -30.189  1.00  0.00     0.091 A 
HETATM   10  N1  UNL     1     -14.905 -70.684 -31.356  1.00  0.00    -0.359 N 
HETATM   11  C1  UNL     1     -14.790 -72.064 -31.763  1.00  0.00     0.156 C 
HETATM   12  C15 UNL     1     -15.555 -69.756 -32.026  1.00  0.00     0.060 A 
BRANCH  12  13
HETATM   13  C16 UNL     1     -16.204 -70.046 -33.283  1.00  0.00     0.111 C 
HETATM   14  N7  UNL     1     -17.320 -70.525 -33.527  1.00  0.00    -0.406 N 
ATOM     15  H72 UNL     1     -17.856 -70.746 -32.688  1.00  0.00     0.155 HD
ATOM     16  H71 UNL     1     -17.778 -70.731 -34.414  1.00  0.00     0.155 HD
ENDBRANCH  12  13
ENDBRANCH   5   6
ENDBRANCH   3   5
ENDBRANCH   2   3
ENDBRANCH   1   2
BRANCH   1  17
HETATM   17  N3  UNL     1     -15.581 -63.272 -31.787  1.00  0.00    -0.071 N 
ATOM     18  H32 UNL     1     -14.686 -62.803 -31.645  1.00  0.00     0.277 HD
ATOM     19  H31 UNL     1     -16.154 -62.437 -31.910  1.00  0.00     0.277 HD
BRANCH  17  20
HETATM   20  C9  UNL     1     -15.992 -64.077 -30.628  1.00  0.00     0.234 C 
BRANCH  20  21
HETATM   21  C10 UNL     1     -16.529 -63.217 -29.548  1.00  0.00     0.047 C 
BRANCH  21  22
HETATM   22  C11 UNL     1     -16.289 -61.766 -29.951  1.00  0.00     0.124 C 
BRANCH  22  23
HETATM   23  N4  UNL     1     -15.642 -61.080 -28.864  1.00  0.00    -0.362 N 
ATOM     24  H4  UNL     1     -16.091 -61.077 -27.948  1.00  0.00     0.162 HD
BRANCH  23  25
HETATM   25  C12 UNL     1     -14.381 -60.396 -29.023  1.00  0.00     0.171 A 
HETATM   26  N5  UNL     1     -13.936 -59.327 -28.550  1.00  0.00    -0.361 N 
HETATM   27  C13 UNL     1     -12.597 -58.979 -28.958  1.00  0.00     0.142 A 
ATOM     28  H5  UNL     1     -14.483 -58.742 -27.919  1.00  0.00     0.162 HD
HETATM   29  C14 UNL     1     -12.222 -60.076 -29.923  1.00  0.00     0.142 A 
HETATM   30  N6  UNL     1     -13.355 -60.967 -29.873  1.00  0.00    -0.361 N 
ATOM     31  H6  UNL     1     -13.424 -61.860 -30.360  1.00  0.00     0.162 HD
ENDBRANCH  23  25
ENDBRANCH  22  23
ENDBRANCH  21  22
ENDBRANCH  20  21
ENDBRANCH  17  20
ENDBRANCH   1  17
TORSDOF 11
ENDMDL
MODEL 4
REMARK VINA RESULT: -6.122133166      4.540      6.992
REMARK  11 active torsions:
REMARK  status: ('A' for Active; 'I' for Inactive)
REMARK    1  A    between atoms: C5_6  and  C6_7 
REMARK    2  A    between atoms: C6_7  and  N2_8 
REMARK    3  A    between atoms: N2_8  and  C7_10 
REMARK    4  A    between atoms: C7_10  and  C8_11 
REMARK    5  A    between atoms: C8_11  and  N3_12 
REMARK    6  A    between atoms: N3_12  and  C9_15 
REMARK    7  A    between atoms: C9_15  and  C10_16 
REMARK    8  A    between atoms: C10_16  and  C11_17 
REMARK    9  A    between atoms: C11_17  and  N4_18 
REMARK   10  A    between atoms: N4_18  and  C12_20 
REMARK   11  A    between atoms: C15_27  and  C16_28 
ROOT
HETATM    1  C8  UNL     1     -15.876 -63.961 -33.180  1.00  0.00     0.276 C 
ENDROOT
BRANCH   1   2
HETATM    2  C7  UNL     1     -17.304 -63.850 -33.485  1.00  0.00     0.087 C 
BRANCH   2   3
HETATM    3  N2  UNL     1     -18.176 -64.921 -33.602  1.00  0.00    -0.376 N 
ATOM      4  H2  UNL     1     -19.176 -64.727 -33.653  1.00  0.00     0.164 HD
BRANCH   3   5
HETATM    5  C6  UNL     1     -17.755 -66.255 -33.655  1.00  0.00     0.101 C 
BRANCH   5   6
HETATM    6  C5  UNL     1     -17.472 -66.903 -32.384  1.00  0.00     0.007 A 
HETATM    7  C4  UNL     1     -18.174 -66.650 -31.247  1.00  0.00     0.016 A 
HETATM    8  C3  UNL     1     -17.884 -67.287 -30.047  1.00  0.00     0.018 A 
HETATM    9  C2  UNL     1     -16.855 -68.188 -30.068  1.00  0.00     0.091 A 
HETATM   10  N1  UNL     1     -16.134 -68.464 -31.189  1.00  0.00    -0.359 N 
HETATM   11  C1  UNL     1     -15.082 -69.441 -31.034  1.00  0.00     0.156 C 
HETATM   12  C15 UNL     1     -16.424 -67.847 -32.315  1.00  0.00     0.060 A 
BRANCH  12  13
HETATM   13  C16 UNL     1     -15.669 -68.084 -33.523  1.00  0.00     0.111 C 
HETATM   14  N7  UNL     1     -15.761 -68.980 -34.373  1.00  0.00    -0.406 N 
ATOM     15  H72 UNL     1     -16.499 -69.655 -34.170  1.00  0.00     0.155 HD
ATOM     16  H71 UNL     1     -15.228 -69.148 -35.226  1.00  0.00     0.155 HD
ENDBRANCH  12  13
ENDBRANCH   5   6
ENDBRANCH   3   5
ENDBRANCH   2   3
ENDBRANCH   1   2
BRANCH   1  17
HETATM   17  N3  UNL     1     -15.350 -63.178 -32.091  1.00  0.00    -0.071 N 
ATOM     18  H32 UNL     1     -14.423 -62.800 -32.289  1.00  0.00     0.277 HD
ATOM     19  H31 UNL     1     -15.837 -62.290 -31.972  1.00  0.00     0.277 HD
BRANCH  17  20
HETATM   20  C9  UNL     1     -15.378 -64.009 -30.880  1.00  0.00     0.234 C 
BRANCH  20  21
HETATM   21  C10 UNL     1     -16.245 -63.404 -29.842  1.00  0.00     0.047 C 
BRANCH  21  22
HETATM   22  C11 UNL     1     -16.278 -61.900 -30.088  1.00  0.00     0.124 C 
BRANCH  22  23
HETATM   23  N4  UNL     1     -15.663 -61.230 -28.972  1.00  0.00    -0.362 N 
ATOM     24  H4  UNL     1     -16.122 -61.269 -28.062  1.00  0.00     0.162 HD
BRANCH  23  25
HETATM   25  C12 UNL     1     -14.421 -60.506 -29.095  1.00  0.00     0.171 A 
HETATM   26  N5  UNL     1     -14.014 -59.437 -28.588  1.00  0.00    -0.361 N 
HETATM   27  C13 UNL     1     -12.681 -59.040 -28.966  1.00  0.00     0.142 A 
ATOM     28  H5  UNL     1     -14.588 -58.884 -27.951  1.00  0.00     0.162 HD
HETATM   29  C14 UNL     1     -12.259 -60.101 -29.952  1.00  0.00     0.142 A 
HETATM   30  N6  UNL     1     -13.366 -61.025 -29.942  1.00  0.00    -0.361 N 
ATOM     31  H6  UNL     1     -13.402 -61.907 -30.453  1.00  0.00     0.162 HD
ENDBRANCH  23  25
ENDBRANCH  22  23
ENDBRANCH  21  22
ENDBRANCH  20  21
ENDBRANCH  17  20
ENDBRANCH   1  17
TORSDOF 11
ENDMDL
MODEL 5
REMARK VINA RESULT: -6.108693327      4.744      9.152
REMARK  11 active torsions:
REMARK  status: ('A' for Active; 'I' for Inactive)
REMARK    1  A    between atoms: C5_6  and  C6_7 
REMARK    2  A    between atoms: C6_7  and  N2_8 
REMARK    3  A    between atoms: N2_8  and  C7_10 
REMARK    4  A    between atoms: C7_10  and  C8_11 
REMARK    5  A    between atoms: C8_11  and  N3_12 
REMARK    6  A    between atoms: N3_12  and  C9_15 
REMARK    7  A    between atoms: C9_15  and  C10_16 
REMARK    8  A    between atoms: C10_16  and  C11_17 
REMARK    9  A    between atoms: C11_17  and  N4_18 
REMARK   10  A    between atoms: N4_18  and  C12_20 
REMARK   11  A    between atoms: C15_27  and  C16_28 
ROOT
HETATM    1  C8  UNL     1     -16.739 -65.897 -32.670  1.00  0.00     0.276 C 
ENDROOT
BRANCH   1   2
HETATM    2  C7  UNL     1     -16.881 -64.471 -32.973  1.00  0.00     0.087 C 
BRANCH   2   3
HETATM    3  N2  UNL     1     -15.849 -63.547 -32.939  1.00  0.00    -0.376 N 
ATOM      4  H2  UNL     1     -15.873 -62.771 -33.600  1.00  0.00     0.164 HD
BRANCH   3   5
HETATM    5  C6  UNL     1     -14.775 -63.623 -32.043  1.00  0.00     0.101 C 
BRANCH   5   6
HETATM    6  C5  UNL     1     -14.707 -62.599 -31.014  1.00  0.00     0.007 A 
HETATM    7  C4  UNL     1     -15.717 -62.359 -30.134  1.00  0.00     0.016 A 
HETATM    8  C3  UNL     1     -15.622 -61.377 -29.157  1.00  0.00     0.018 A 
HETATM    9  C2  UNL     1     -14.457 -60.660 -29.123  1.00  0.00     0.091 A 
HETATM   10  N1  UNL     1     -13.429 -60.875 -29.988  1.00  0.00    -0.359 N 
HETATM   11  C1  UNL     1     -12.273 -60.028 -29.811  1.00  0.00     0.156 C 
HETATM   12  C15 UNL     1     -13.540 -61.810 -30.908  1.00  0.00     0.060 A 
BRANCH  12  13
HETATM   13  C16 UNL     1     -12.489 -62.055 -31.867  1.00  0.00     0.111 C 
HETATM   14  N7  UNL     1     -11.591 -62.908 -31.884  1.00  0.00    -0.406 N 
ATOM     15  H72 UNL     1     -11.611 -63.532 -31.078  1.00  0.00     0.155 HD
ATOM     16  H71 UNL     1     -10.848 -63.081 -32.561  1.00  0.00     0.155 HD
ENDBRANCH  12  13
ENDBRANCH   5   6
ENDBRANCH   3   5
ENDBRANCH   2   3
ENDBRANCH   1   2
BRANCH   1  17
HETATM   17  N3  UNL     1     -16.990 -66.334 -31.320  1.00  0.00    -0.071 N 
ATOM     18  H32 UNL     1     -17.275 -65.572 -30.705  1.00  0.00     0.277 HD
ATOM     19  H31 UNL     1     -17.835 -66.900 -31.239  1.00  0.00     0.277 HD
BRANCH  17  20
HETATM   20  C9  UNL     1     -15.789 -67.034 -30.840  1.00  0.00     0.234 C 
BRANCH  20  21
HETATM   21  C10 UNL     1     -15.452 -68.175 -31.722  1.00  0.00     0.047 C 
BRANCH  21  22
HETATM   22  C11 UNL     1     -15.851 -69.454 -30.993  1.00  0.00     0.124 C 
BRANCH  22  23
HETATM   23  N4  UNL     1     -14.673 -70.245 -30.758  1.00  0.00    -0.362 N 
ATOM     24  H4  UNL     1     -14.352 -70.879 -31.491  1.00  0.00     0.162 HD
BRANCH  23  25
HETATM   25  C12 UNL     1     -13.927 -70.174 -29.524  1.00  0.00     0.171 A 
HETATM   26  N5  UNL     1     -13.524 -69.210 -28.837  1.00  0.00    -0.361 N 
HETATM   27  C13 UNL     1     -12.798 -69.562 -27.641  1.00  0.00     0.142 A 
ATOM     28  H5  UNL     1     -13.697 -68.242 -29.104  1.00  0.00     0.162 HD
HETATM   29  C14 UNL     1     -12.732 -71.068 -27.695  1.00  0.00     0.142 A 
HETATM   30  N6  UNL     1     -13.511 -71.395 -28.864  1.00  0.00    -0.361 N 
ATOM     31  H6  UNL     1     -13.735 -72.340 -29.178  1.00  0.00     0.162 HD
ENDBRANCH  23  25
ENDBRANCH  22  23
ENDBRANCH  21  22
ENDBRANCH  20  21
ENDBRANCH  17  20
ENDBRANCH   1  17
TORSDOF 11
ENDMDL
