MODEL 1
REMARK VINA RESULT: -7.071682151      0.000      0.000
REMARK  12 active torsions:
REMARK  status: ('A' for Active; 'I' for Inactive)
REMARK    1  A    between atoms: C4_6  and  N1_7 
REMARK    2  A    between atoms: N1_7  and  C5_9 
REMARK    3  A    between atoms: C5_9  and  C6_10 
REMARK    4  A    between atoms: C5_9  and  C13_17 
REMARK    5  A    between atoms: C6_10  and  C7_11 
REMARK    6  A    between atoms: C13_17  and  O3_18 
REMARK    7  A    between atoms: C13_17  and  N2_20 
REMARK    8  A    between atoms: N2_20  and  C14_22 
REMARK    9  A    between atoms: C14_22  and  C15_23 
REMARK   10  A    between atoms: C15_23  and  O4_24 
REMARK   11  A    between atoms: C15_23  and  C16_26 
REMARK   12  A    between atoms: C16_26  and  O5_27 
ROOT
HETATM    1  C5  UNL     1     -15.658 -63.806 -31.759  1.00  0.00     0.035 C 
ENDROOT
BRANCH   1   2
HETATM    2  N1  UNL     1     -16.933 -63.253 -31.866  1.00  0.00    -0.379 N 
ATOM      3  H1  UNL     1     -17.110 -62.734 -32.727  1.00  0.00     0.160 HD
BRANCH   2   4
HETATM    4  C4  UNL     1     -17.985 -63.302 -30.989  1.00  0.00     0.183 C 
HETATM    5  C1  UNL     1     -19.265 -62.815 -31.492  1.00  0.00     0.281 C 
HETATM    6  O1  UNL     1     -19.481 -61.682 -32.025  1.00  0.00    -0.263 OA
HETATM    7  O2  UNL     1     -20.270 -63.783 -31.304  1.00  0.00    -0.320 OA
HETATM    8  C2  UNL     1     -19.833 -64.461 -30.120  1.00  0.00     0.181 C 
HETATM    9  C3  UNL     1     -18.366 -64.700 -30.508  1.00  0.00     0.062 C 
ENDBRANCH   2   4
ENDBRANCH   1   2
BRANCH   1  10
HETATM   10  C6  UNL     1     -15.453 -64.847 -32.805  1.00  0.00     0.095 C 
BRANCH  10  11
HETATM   11  C7  UNL     1     -15.463 -66.246 -32.419  1.00  0.00    -0.053 A 
HETATM   12  C8  UNL     1     -15.265 -66.630 -31.110  1.00  0.00     0.007 A 
HETATM   13  C9  UNL     1     -15.251 -67.956 -30.725  1.00  0.00     0.001 A 
HETATM   14  C10 UNL     1     -15.437 -68.936 -31.653  1.00  0.00     0.000 A 
HETATM   15  C11 UNL     1     -15.642 -68.579 -32.985  1.00  0.00     0.001 A 
HETATM   16  C12 UNL     1     -15.650 -67.241 -33.344  1.00  0.00     0.007 A 
ENDBRANCH  10  11
ENDBRANCH   1  10
BRANCH   1  17
HETATM   17  C13 UNL     1     -14.550 -62.895 -31.428  1.00  0.00     0.260 C 
BRANCH  17  18
HETATM   18  O3  UNL     1     -13.968 -62.412 -32.666  1.00  0.00    -0.372 OA
ATOM     19  H3  UNL     1     -14.568 -61.787 -33.056  1.00  0.00     0.212 HD
ENDBRANCH  17  18
BRANCH  17  20
HETATM   20  N2  UNL     1     -14.663 -61.785 -30.610  1.00  0.00    -0.390 N 
ATOM     21  H2  UNL     1     -15.592 -61.473 -30.330  1.00  0.00     0.156 HD
BRANCH  20  22
HETATM   22  C14 UNL     1     -13.531 -61.066 -30.147  1.00  0.00     0.150 C 
BRANCH  22  23
HETATM   23  C15 UNL     1     -13.989 -59.912 -29.231  1.00  0.00     0.159 C 
BRANCH  23  24
HETATM   24  O4  UNL     1     -14.935 -60.371 -28.340  1.00  0.00    -0.392 OA
ATOM     25  H4  UNL     1     -14.576 -61.089 -27.831  1.00  0.00     0.210 HD
ENDBRANCH  23  24
BRANCH  23  26
HETATM   26  C16 UNL     1     -12.809 -59.348 -28.473  1.00  0.00     0.197 C 
BRANCH  26  27
HETATM   27  O5  UNL     1     -12.115 -58.405 -29.227  1.00  0.00    -0.398 OA
ATOM     28  H5  UNL     1     -11.451 -57.962 -28.712  1.00  0.00     0.209 HD
ENDBRANCH  26  27
ENDBRANCH  23  26
ENDBRANCH  22  23
ENDBRANCH  20  22
ENDBRANCH  17  20
ENDBRANCH   1  17
TORSDOF 12
ENDMDL
MODEL 2
REMARK VINA RESULT: -6.965979843      1.264      2.081
REMARK  12 active torsions:
REMARK  status: ('A' for Active; 'I' for Inactive)
REMARK    1  A    between atoms: C4_6  and  N1_7 
REMARK    2  A    between atoms: N1_7  and  C5_9 
REMARK    3  A    between atoms: C5_9  and  C6_10 
REMARK    4  A    between atoms: C5_9  and  C13_17 
REMARK    5  A    between atoms: C6_10  and  C7_11 
REMARK    6  A    between atoms: C13_17  and  O3_18 
REMARK    7  A    between atoms: C13_17  and  N2_20 
REMARK    8  A    between atoms: N2_20  and  C14_22 
REMARK    9  A    between atoms: C14_22  and  C15_23 
REMARK   10  A    between atoms: C15_23  and  O4_24 
REMARK   11  A    between atoms: C15_23  and  C16_26 
REMARK   12  A    between atoms: C16_26  and  O5_27 
ROOT
HETATM    1  C5  UNL     1     -14.750 -63.000 -31.485  1.00  0.00     0.035 C 
ENDROOT
BRANCH   1   2
HETATM    2  N1  UNL     1     -15.860 -62.337 -30.962  1.00  0.00    -0.379 N 
ATOM      3  H1  UNL     1     -15.955 -61.361 -31.242  1.00  0.00     0.160 HD
BRANCH   2   4
HETATM    4  C4  UNL     1     -16.842 -62.801 -30.126  1.00  0.00     0.183 C 
HETATM    5  C1  UNL     1     -18.147 -63.037 -30.736  1.00  0.00     0.281 C 
HETATM    6  O1  UNL     1     -18.820 -62.202 -31.418  1.00  0.00    -0.263 OA
HETATM    7  O2  UNL     1     -18.590 -64.346 -30.465  1.00  0.00    -0.320 OA
HETATM    8  C2  UNL     1     -17.999 -64.617 -29.188  1.00  0.00     0.181 C 
HETATM    9  C3  UNL     1     -16.563 -64.158 -29.485  1.00  0.00     0.062 C 
ENDBRANCH   2   4
ENDBRANCH   1   2
BRANCH   1  10
HETATM   10  C6  UNL     1     -15.084 -63.610 -32.802  1.00  0.00     0.095 C 
BRANCH  10  11
HETATM   11  C7  UNL     1     -15.708 -64.920 -32.834  1.00  0.00    -0.053 A 
HETATM   12  C8  UNL     1     -16.992 -65.091 -33.307  1.00  0.00     0.007 A 
HETATM   13  C9  UNL     1     -17.611 -66.325 -33.327  1.00  0.00     0.001 A 
HETATM   14  C10 UNL     1     -16.951 -67.425 -32.871  1.00  0.00     0.000 A 
HETATM   15  C11 UNL     1     -15.650 -67.285 -32.388  1.00  0.00     0.001 A 
HETATM   16  C12 UNL     1     -15.053 -66.035 -32.378  1.00  0.00     0.007 A 
ENDBRANCH  10  11
ENDBRANCH   1  10
BRANCH   1  17
HETATM   17  C13 UNL     1     -13.434 -62.366 -31.302  1.00  0.00     0.260 C 
BRANCH  17  18
HETATM   18  O3  UNL     1     -12.668 -62.537 -32.522  1.00  0.00    -0.372 OA
ATOM     19  H3  UNL     1     -13.237 -62.914 -33.183  1.00  0.00     0.212 HD
ENDBRANCH  17  18
BRANCH  17  20
HETATM   20  N2  UNL     1     -13.241 -61.050 -30.921  1.00  0.00    -0.390 N 
ATOM     21  H2  UNL     1     -13.941 -60.356 -31.180  1.00  0.00     0.156 HD
BRANCH  20  22
HETATM   22  C14 UNL     1     -12.105 -60.634 -30.181  1.00  0.00     0.150 C 
BRANCH  22  23
HETATM   23  C15 UNL     1     -12.542 -59.669 -29.058  1.00  0.00     0.159 C 
BRANCH  23  24
HETATM   24  O4  UNL     1     -11.953 -58.438 -29.246  1.00  0.00    -0.392 OA
ATOM     25  H4  UNL     1     -12.259 -57.830 -28.582  1.00  0.00     0.210 HD
ENDBRANCH  23  24
BRANCH  23  26
HETATM   26  C16 UNL     1     -14.046 -59.519 -29.057  1.00  0.00     0.197 C 
BRANCH  26  27
HETATM   27  O5  UNL     1     -14.671 -60.593 -28.427  1.00  0.00    -0.398 OA
ATOM     28  H5  UNL     1     -14.107 -60.996 -27.778  1.00  0.00     0.209 HD
ENDBRANCH  26  27
ENDBRANCH  23  26
ENDBRANCH  22  23
ENDBRANCH  20  22
ENDBRANCH  17  20
ENDBRANCH   1  17
TORSDOF 12
ENDMDL
MODEL 3
REMARK VINA RESULT: -6.924150559      1.423      2.413
REMARK  12 active torsions:
REMARK  status: ('A' for Active; 'I' for Inactive)
REMARK    1  A    between atoms: C4_6  and  N1_7 
REMARK    2  A    between atoms: N1_7  and  C5_9 
REMARK    3  A    between atoms: C5_9  and  C6_10 
REMARK    4  A    between atoms: C5_9  and  C13_17 
REMARK    5  A    between atoms: C6_10  and  C7_11 
REMARK    6  A    between atoms: C13_17  and  O3_18 
REMARK    7  A    between atoms: C13_17  and  N2_20 
REMARK    8  A    between atoms: N2_20  and  C14_22 
REMARK    9  A    between atoms: C14_22  and  C15_23 
REMARK   10  A    between atoms: C15_23  and  O4_24 
REMARK   11  A    between atoms: C15_23  and  C16_26 
REMARK   12  A    between atoms: C16_26  and  O5_27 
ROOT
HETATM    1  C5  UNL     1     -15.936 -62.517 -30.284  1.00  0.00     0.035 C 
ENDROOT
BRANCH   1   2
HETATM    2  N1  UNL     1     -17.108 -62.434 -31.036  1.00  0.00    -0.379 N 
ATOM      3  H1  UNL     1     -17.064 -61.811 -31.842  1.00  0.00     0.160 HD
BRANCH   2   4
HETATM    4  C4  UNL     1     -18.311 -63.066 -30.852  1.00  0.00     0.183 C 
HETATM    5  C1  UNL     1     -18.696 -64.027 -31.881  1.00  0.00     0.281 C 
HETATM    6  O1  UNL     1     -18.756 -63.806 -33.131  1.00  0.00    -0.263 OA
HETATM    7  O2  UNL     1     -19.010 -65.271 -31.302  1.00  0.00    -0.320 OA
HETATM    8  C2  UNL     1     -19.520 -64.897 -30.016  1.00  0.00     0.181 C 
HETATM    9  C3  UNL     1     -18.411 -63.922 -29.592  1.00  0.00     0.062 C 
ENDBRANCH   2   4
ENDBRANCH   1   2
BRANCH   1  10
HETATM   10  C6  UNL     1     -14.903 -63.300 -31.018  1.00  0.00     0.095 C 
BRANCH  10  11
HETATM   11  C7  UNL     1     -15.203 -64.662 -31.418  1.00  0.00    -0.053 A 
HETATM   12  C8  UNL     1     -15.169 -65.045 -32.742  1.00  0.00     0.007 A 
HETATM   13  C9  UNL     1     -15.470 -66.330 -33.145  1.00  0.00     0.001 A 
HETATM   14  C10 UNL     1     -15.816 -67.270 -32.222  1.00  0.00     0.000 A 
HETATM   15  C11 UNL     1     -15.858 -66.914 -30.874  1.00  0.00     0.001 A 
HETATM   16  C12 UNL     1     -15.552 -65.617 -30.497  1.00  0.00     0.007 A 
ENDBRANCH  10  11
ENDBRANCH   1  10
BRANCH   1  17
HETATM   17  C13 UNL     1     -15.528 -61.319 -29.533  1.00  0.00     0.260 C 
BRANCH  17  18
HETATM   18  O3  UNL     1     -16.356 -61.217 -28.345  1.00  0.00    -0.372 OA
ATOM     19  H3  UNL     1     -15.816 -60.904 -27.629  1.00  0.00     0.212 HD
ENDBRANCH  17  18
BRANCH  17  20
HETATM   20  N2  UNL     1     -14.236 -61.057 -29.111  1.00  0.00    -0.390 N 
ATOM     21  H2  UNL     1     -13.556 -61.816 -29.112  1.00  0.00     0.156 HD
BRANCH  20  22
HETATM   22  C14 UNL     1     -13.826 -59.770 -28.679  1.00  0.00     0.150 C 
BRANCH  22  23
HETATM   23  C15 UNL     1     -12.776 -59.204 -29.659  1.00  0.00     0.159 C 
BRANCH  23  24
HETATM   24  O4  UNL     1     -11.935 -58.339 -28.993  1.00  0.00    -0.392 OA
ATOM     25  H4  UNL     1     -12.243 -58.212 -28.103  1.00  0.00     0.210 HD
ENDBRANCH  23  24
BRANCH  23  26
HETATM   26  C16 UNL     1     -11.971 -60.330 -30.266  1.00  0.00     0.197 C 
BRANCH  26  27
HETATM   27  O5  UNL     1     -12.160 -60.414 -31.644  1.00  0.00    -0.398 OA
ATOM     28  H5  UNL     1     -13.030 -60.727 -31.861  1.00  0.00     0.209 HD
ENDBRANCH  26  27
ENDBRANCH  23  26
ENDBRANCH  22  23
ENDBRANCH  20  22
ENDBRANCH  17  20
ENDBRANCH   1  17
TORSDOF 12
ENDMDL
MODEL 4
REMARK VINA RESULT: -6.891262938      1.107      1.498
REMARK  12 active torsions:
REMARK  status: ('A' for Active; 'I' for Inactive)
REMARK    1  A    between atoms: C4_6  and  N1_7 
REMARK    2  A    between atoms: N1_7  and  C5_9 
REMARK    3  A    between atoms: C5_9  and  C6_10 
REMARK    4  A    between atoms: C5_9  and  C13_17 
REMARK    5  A    between atoms: C6_10  and  C7_11 
REMARK    6  A    between atoms: C13_17  and  O3_18 
REMARK    7  A    between atoms: C13_17  and  N2_20 
REMARK    8  A    between atoms: N2_20  and  C14_22 
REMARK    9  A    between atoms: C14_22  and  C15_23 
REMARK   10  A    between atoms: C15_23  and  O4_24 
REMARK   11  A    between atoms: C15_23  and  C16_26 
REMARK   12  A    between atoms: C16_26  and  O5_27 
ROOT
HETATM    1  C5  UNL     1     -15.458 -63.877 -31.972  1.00  0.00     0.035 C 
ENDROOT
BRANCH   1   2
HETATM    2  N1  UNL     1     -16.676 -63.287 -32.309  1.00  0.00    -0.379 N 
ATOM      3  H1  UNL     1     -16.606 -62.418 -32.838  1.00  0.00     0.160 HD
BRANCH   2   4
HETATM    4  C4  UNL     1     -17.953 -63.701 -32.034  1.00  0.00     0.183 C 
HETATM    5  C1  UNL     1     -18.578 -64.565 -33.031  1.00  0.00     0.281 C 
HETATM    6  O1  UNL     1     -18.693 -64.318 -34.273  1.00  0.00    -0.263 OA
HETATM    7  O2  UNL     1     -19.060 -65.743 -32.432  1.00  0.00    -0.320 OA
HETATM    8  C2  UNL     1     -19.398 -65.305 -31.109  1.00  0.00     0.181 C 
HETATM    9  C3  UNL     1     -18.106 -64.545 -30.771  1.00  0.00     0.062 C 
ENDBRANCH   2   4
ENDBRANCH   1   2
BRANCH   1  10
HETATM   10  C6  UNL     1     -15.129 -64.971 -32.927  1.00  0.00     0.095 C 
BRANCH  10  11
HETATM   11  C7  UNL     1     -15.298 -66.350 -32.506  1.00  0.00    -0.053 A 
HETATM   12  C8  UNL     1     -15.539 -67.354 -33.419  1.00  0.00     0.007 A 
HETATM   13  C9  UNL     1     -15.723 -68.668 -33.037  1.00  0.00     0.001 A 
HETATM   14  C10 UNL     1     -15.668 -69.008 -31.719  1.00  0.00     0.000 A 
HETATM   15  C11 UNL     1     -15.424 -68.015 -30.772  1.00  0.00     0.001 A 
HETATM   16  C12 UNL     1     -15.244 -66.704 -31.182  1.00  0.00     0.007 A 
ENDBRANCH  10  11
ENDBRANCH   1  10
BRANCH   1  17
HETATM   17  C13 UNL     1     -14.382 -62.988 -31.503  1.00  0.00     0.260 C 
BRANCH  17  18
HETATM   18  O3  UNL     1     -13.667 -62.482 -32.660  1.00  0.00    -0.372 OA
ATOM     19  H3  UNL     1     -12.735 -62.532 -32.482  1.00  0.00     0.212 HD
ENDBRANCH  17  18
BRANCH  17  20
HETATM   20  N2  UNL     1     -14.570 -61.897 -30.672  1.00  0.00    -0.390 N 
ATOM     21  H2  UNL     1     -15.519 -61.644 -30.400  1.00  0.00     0.156 HD
BRANCH  20  22
HETATM   22  C14 UNL     1     -13.487 -61.120 -30.186  1.00  0.00     0.150 C 
BRANCH  22  23
HETATM   23  C15 UNL     1     -14.027 -59.979 -29.297  1.00  0.00     0.159 C 
BRANCH  23  24
HETATM   24  O4  UNL     1     -15.005 -60.467 -28.457  1.00  0.00    -0.392 OA
ATOM     25  H4  UNL     1     -14.691 -60.462 -27.560  1.00  0.00     0.210 HD
ENDBRANCH  23  24
BRANCH  23  26
HETATM   26  C16 UNL     1     -12.906 -59.383 -28.478  1.00  0.00     0.197 C 
BRANCH  26  27
HETATM   27  O5  UNL     1     -12.162 -58.463 -29.214  1.00  0.00    -0.398 OA
ATOM     28  H5  UNL     1     -12.661 -58.109 -29.941  1.00  0.00     0.209 HD
ENDBRANCH  26  27
ENDBRANCH  23  26
ENDBRANCH  22  23
ENDBRANCH  20  22
ENDBRANCH  17  20
ENDBRANCH   1  17
TORSDOF 12
ENDMDL
MODEL 5
REMARK VINA RESULT: -6.868553997      1.094      1.643
REMARK  12 active torsions:
REMARK  status: ('A' for Active; 'I' for Inactive)
REMARK    1  A    between atoms: C4_6  and  N1_7 
REMARK    2  A    between atoms: N1_7  and  C5_9 
REMARK    3  A    between atoms: C5_9  and  C6_10 
REMARK    4  A    between atoms: C5_9  and  C13_17 
REMARK    5  A    between atoms: C6_10  and  C7_11 
REMARK    6  A    between atoms: C13_17  and  O3_18 
REMARK    7  A    between atoms: C13_17  and  N2_20 
REMARK    8  A    between atoms: N2_20  and  C14_22 
REMARK    9  A    between atoms: C14_22  and  C15_23 
REMARK   10  A    between atoms: C15_23  and  O4_24 
REMARK   11  A    between atoms: C15_23  and  C16_26 
REMARK   12  A    between atoms: C16_26  and  O5_27 
ROOT
HETATM    1  C5  UNL     1     -15.878 -63.495 -31.686  1.00  0.00     0.035 C 
ENDROOT
BRANCH   1   2
HETATM    2  N1  UNL     1     -16.871 -62.706 -31.107  1.00  0.00    -0.379 N 
ATOM      3  H1  UNL     1     -16.684 -61.704 -31.106  1.00  0.00     0.160 HD
BRANCH   2   4
HETATM    4  C4  UNL     1     -18.062 -63.077 -30.539  1.00  0.00     0.183 C 
HETATM    5  C1  UNL     1     -19.252 -62.902 -31.366  1.00  0.00     0.281 C 
HETATM    6  O1  UNL     1     -19.613 -61.831 -31.946  1.00  0.00    -0.263 OA
HETATM    7  O2  UNL     1     -19.981 -64.104 -31.444  1.00  0.00    -0.320 OA
HETATM    8  C2  UNL     1     -19.700 -64.721 -30.181  1.00  0.00     0.181 C 
HETATM    9  C3  UNL     1     -18.173 -64.553 -30.165  1.00  0.00     0.062 C 
ENDBRANCH   2   4
ENDBRANCH   1   2
BRANCH   1  10
HETATM   10  C6  UNL     1     -16.349 -64.051 -32.985  1.00  0.00     0.095 C 
BRANCH  10  11
HETATM   11  C7  UNL     1     -16.487 -65.489 -33.129  1.00  0.00    -0.053 A 
HETATM   12  C8  UNL     1     -17.710 -66.070 -33.386  1.00  0.00     0.007 A 
HETATM   13  C9  UNL     1     -17.866 -67.436 -33.505  1.00  0.00     0.001 A 
HETATM   14  C10 UNL     1     -16.789 -68.259 -33.369  1.00  0.00     0.000 A 
HETATM   15  C11 UNL     1     -15.538 -67.701 -33.111  1.00  0.00     0.001 A 
HETATM   16  C12 UNL     1     -15.410 -66.327 -32.995  1.00  0.00     0.007 A 
ENDBRANCH  10  11
ENDBRANCH   1  10
BRANCH   1  17
HETATM   17  C13 UNL     1     -14.487 -63.028 -31.569  1.00  0.00     0.260 C 
BRANCH  17  18
HETATM   18  O3  UNL     1     -14.018 -62.647 -32.888  1.00  0.00    -0.372 OA
ATOM     19  H3  UNL     1     -13.795 -63.437 -33.366  1.00  0.00     0.212 HD
ENDBRANCH  17  18
BRANCH  17  20
HETATM   20  N2  UNL     1     -14.065 -62.022 -30.717  1.00  0.00    -0.390 N 
ATOM     21  H2  UNL     1     -14.680 -61.731 -29.958  1.00  0.00     0.156 HD
BRANCH  20  22
HETATM   22  C14 UNL     1     -12.808 -61.383 -30.864  1.00  0.00     0.150 C 
BRANCH  22  23
HETATM   23  C15 UNL     1     -12.542 -60.477 -29.642  1.00  0.00     0.159 C 
BRANCH  23  24
HETATM   24  O4  UNL     1     -11.821 -59.369 -30.032  1.00  0.00    -0.392 OA
ATOM     25  H4  UNL     1     -12.414 -58.679 -30.307  1.00  0.00     0.210 HD
ENDBRANCH  23  24
BRANCH  23  26
HETATM   26  C16 UNL     1     -13.850 -60.040 -29.024  1.00  0.00     0.197 C 
BRANCH  26  27
HETATM   27  O5  UNL     1     -13.969 -58.652 -28.998  1.00  0.00    -0.398 OA
ATOM     28  H5  UNL     1     -14.315 -58.313 -29.815  1.00  0.00     0.209 HD
ENDBRANCH  26  27
ENDBRANCH  23  26
ENDBRANCH  22  23
ENDBRANCH  20  22
ENDBRANCH  17  20
ENDBRANCH   1  17
TORSDOF 12
ENDMDL
