MODEL 1
REMARK VINA RESULT: -5.320188028      0.000      0.000
REMARK  8 active torsions:
REMARK  status: ('A' for Active; 'I' for Inactive)
REMARK    1  A    between atoms: C2_2  and  C3_3 
REMARK    2  A    between atoms: C3_3  and  C4_4 
REMARK    3  A    between atoms: C4_4  and  N1_5 
REMARK    4  A    between atoms: N1_5  and  C5_7 
REMARK    5  A    between atoms: C6_10  and  N3_11 
REMARK    6  A    between atoms: N4_14  and  C7_15 
REMARK    7  A    between atoms: C7_15  and  C8_16 
REMARK    8  A    between atoms: C8_16  and  N5_17 
ROOT
HETATM    1  C5  UNL     1     123.420  53.134  31.557  1.00  0.00     0.707 A 
HETATM    2  N2  UNL     1     123.186  51.839  31.755  1.00  0.00    -0.020 N 
ATOM      3  H2  UNL     1     122.292  51.368  31.619  1.00  0.00     0.203 HD
HETATM    4  C6  UNL     1     124.337  51.251  32.167  1.00  0.00     0.707 A 
HETATM    5  N4  UNL     1     125.257  52.202  32.214  1.00  0.00    -0.108 N 
HETATM    6  N6  UNL     1     124.718  53.328  31.851  1.00  0.00    -0.115 N 
ATOM      7  H6  UNL     1     125.205  54.223  31.797  1.00  0.00     0.206 HD
ENDROOT
BRANCH   1   8
HETATM    8  N1  UNL     1     122.647  54.086  31.167  1.00  0.00    -0.224 N 
ATOM      9  H1  UNL     1     121.639  53.931  31.202  1.00  0.00     0.177 HD
BRANCH   8  10
HETATM   10  C4  UNL     1     123.122  55.360  30.685  1.00  0.00     0.138 C 
BRANCH  10  11
HETATM   11  C3  UNL     1     123.007  55.386  29.193  1.00  0.00     0.020 C 
BRANCH  11  12
HETATM   12  C2  UNL     1     124.271  55.792  28.497  1.00  0.00    -0.003 C 
HETATM   13  C1  UNL     1     125.423  54.883  28.739  1.00  0.00     0.005 C 
ENDBRANCH  11  12
ENDBRANCH  10  11
ENDBRANCH   8  10
ENDBRANCH   1   8
BRANCH   4  14
HETATM   14  N3  UNL     1     124.440  49.982  32.448  1.00  0.00    -0.233 N 
ATOM     15  H32 UNL     1     123.824  49.386  33.002  1.00  0.00     0.174 HD
ATOM     16  H31 UNL     1     125.205  49.391  32.121  1.00  0.00     0.174 HD
ENDBRANCH   4  14
BRANCH   5  17
HETATM   17  C7  UNL     1     126.634  52.009  32.605  1.00  0.00     0.196 C 
BRANCH  17  18
HETATM   18  C8  UNL     1     127.471  52.956  31.764  1.00  0.00     0.252 C 
BRANCH  18  19
HETATM   19  N5  UNL     1     128.188  53.865  32.626  1.00  0.00    -0.078 N 
ATOM     20  H53 UNL     1     127.584  54.283  33.333  1.00  0.00     0.274 HD
ATOM     21  H52 UNL     1     128.828  53.376  33.252  1.00  0.00     0.274 HD
ATOM     22  H51 UNL     1     128.664  54.569  32.062  1.00  0.00     0.274 HD
ENDBRANCH  18  19
ENDBRANCH  17  18
ENDBRANCH   5  17
TORSDOF 8
ENDMDL
MODEL 2
REMARK VINA RESULT: -5.211634454      1.213      1.412
REMARK  8 active torsions:
REMARK  status: ('A' for Active; 'I' for Inactive)
REMARK    1  A    between atoms: C2_2  and  C3_3 
REMARK    2  A    between atoms: C3_3  and  C4_4 
REMARK    3  A    between atoms: C4_4  and  N1_5 
REMARK    4  A    between atoms: N1_5  and  C5_7 
REMARK    5  A    between atoms: C6_10  and  N3_11 
REMARK    6  A    between atoms: N4_14  and  C7_15 
REMARK    7  A    between atoms: C7_15  and  C8_16 
REMARK    8  A    between atoms: C8_16  and  N5_17 
ROOT
HETATM    1  C5  UNL     1     124.481  52.412  31.839  1.00  0.00     0.707 A 
HETATM    2  N2  UNL     1     124.545  51.183  32.346  1.00  0.00    -0.020 N 
ATOM      3  H2  UNL     1     123.769  50.526  32.414  1.00  0.00     0.203 HD
HETATM    4  C6  UNL     1     125.817  50.952  32.759  1.00  0.00     0.707 A 
HETATM    5  N4  UNL     1     126.509  52.049  32.494  1.00  0.00    -0.108 N 
HETATM    6  N6  UNL     1     125.720  52.925  31.945  1.00  0.00    -0.115 N 
ATOM      7  H6  UNL     1     125.997  53.858  31.641  1.00  0.00     0.206 HD
ENDROOT
BRANCH   1   8
HETATM    8  N1  UNL     1     123.500  53.069  31.328  1.00  0.00    -0.224 N 
ATOM      9  H1  UNL     1     122.917  52.600  30.635  1.00  0.00     0.177 HD
BRANCH   8  10
HETATM   10  C4  UNL     1     123.175  54.430  31.679  1.00  0.00     0.138 C 
BRANCH  10  11
HETATM   11  C3  UNL     1     123.019  55.230  30.423  1.00  0.00     0.020 C 
BRANCH  11  12
HETATM   12  C2  UNL     1     124.026  54.895  29.365  1.00  0.00    -0.003 C 
HETATM   13  C1  UNL     1     124.143  55.913  28.286  1.00  0.00     0.005 C 
ENDBRANCH  11  12
ENDBRANCH  10  11
ENDBRANCH   8  10
ENDBRANCH   1   8
BRANCH   4  14
HETATM   14  N3  UNL     1     126.208  49.835  33.305  1.00  0.00    -0.233 N 
ATOM     15  H32 UNL     1     126.639  49.672  34.215  1.00  0.00     0.174 HD
ATOM     16  H31 UNL     1     126.122  48.924  32.853  1.00  0.00     0.174 HD
ENDBRANCH   4  14
BRANCH   5  17
HETATM   17  C7  UNL     1     127.914  52.234  32.773  1.00  0.00     0.196 C 
BRANCH  17  18
HETATM   18  C8  UNL     1     128.474  53.113  31.670  1.00  0.00     0.252 C 
BRANCH  18  19
HETATM   19  N5  UNL     1     129.426  54.044  32.228  1.00  0.00    -0.078 N 
ATOM     20  H53 UNL     1     130.158  53.574  32.759  1.00  0.00     0.274 HD
ATOM     21  H52 UNL     1     130.015  54.468  31.511  1.00  0.00     0.274 HD
ATOM     22  H51 UNL     1     128.935  54.742  32.786  1.00  0.00     0.274 HD
ENDBRANCH  18  19
ENDBRANCH  17  18
ENDBRANCH   5  17
TORSDOF 8
ENDMDL
MODEL 3
REMARK VINA RESULT: -4.924895179      1.741      2.486
REMARK  8 active torsions:
REMARK  status: ('A' for Active; 'I' for Inactive)
REMARK    1  A    between atoms: C2_2  and  C3_3 
REMARK    2  A    between atoms: C3_3  and  C4_4 
REMARK    3  A    between atoms: C4_4  and  N1_5 
REMARK    4  A    between atoms: N1_5  and  C5_7 
REMARK    5  A    between atoms: C6_10  and  N3_11 
REMARK    6  A    between atoms: N4_14  and  C7_15 
REMARK    7  A    between atoms: C7_15  and  C8_16 
REMARK    8  A    between atoms: C8_16  and  N5_17 
ROOT
HETATM    1  C5  UNL     1     126.208  53.280  31.521  1.00  0.00     0.707 A 
HETATM    2  N2  UNL     1     125.741  52.130  32.000  1.00  0.00    -0.020 N 
ATOM      3  H2  UNL     1     124.808  51.752  31.838  1.00  0.00     0.203 HD
HETATM    4  C6  UNL     1     126.715  51.543  32.740  1.00  0.00     0.707 A 
HETATM    5  N4  UNL     1     127.765  52.350  32.699  1.00  0.00    -0.108 N 
HETATM    6  N6  UNL     1     127.471  53.388  31.973  1.00  0.00    -0.115 N 
ATOM      7  H6  UNL     1     128.101  54.166  31.777  1.00  0.00     0.206 HD
ENDROOT
BRANCH   1   8
HETATM    8  N1  UNL     1     125.661  54.174  30.774  1.00  0.00    -0.224 N 
ATOM      9  H1  UNL     1     125.906  55.150  30.937  1.00  0.00     0.177 HD
BRANCH   8  10
HETATM   10  C4  UNL     1     124.721  53.875  29.721  1.00  0.00     0.138 C 
BRANCH  10  11
HETATM   11  C3  UNL     1     123.418  54.546  30.031  1.00  0.00     0.020 C 
BRANCH  11  12
HETATM   12  C2  UNL     1     123.119  55.720  29.150  1.00  0.00    -0.003 C 
HETATM   13  C1  UNL     1     124.215  56.074  28.208  1.00  0.00     0.005 C 
ENDBRANCH  11  12
ENDBRANCH  10  11
ENDBRANCH   8  10
ENDBRANCH   1   8
BRANCH   4  14
HETATM   14  N3  UNL     1     126.570  50.399  33.349  1.00  0.00    -0.233 N 
ATOM     15  H32 UNL     1     125.729  49.971  33.737  1.00  0.00     0.174 HD
ATOM     16  H31 UNL     1     127.337  49.749  33.521  1.00  0.00     0.174 HD
ENDBRANCH   4  14
BRANCH   5  17
HETATM   17  C7  UNL     1     129.027  52.106  33.357  1.00  0.00     0.196 C 
BRANCH  17  18
HETATM   18  C8  UNL     1     130.061  52.978  32.668  1.00  0.00     0.252 C 
BRANCH  18  19
HETATM   19  N5  UNL     1     131.289  52.964  33.426  1.00  0.00    -0.078 N 
ATOM     20  H53 UNL     1     131.551  53.895  33.751  1.00  0.00     0.274 HD
ATOM     21  H52 UNL     1     131.174  52.519  34.336  1.00  0.00     0.274 HD
ATOM     22  H51 UNL     1     132.028  52.528  32.875  1.00  0.00     0.274 HD
ENDBRANCH  18  19
ENDBRANCH  17  18
ENDBRANCH   5  17
TORSDOF 8
ENDMDL
MODEL 4
REMARK VINA RESULT: -4.904017176      1.818      2.849
REMARK  8 active torsions:
REMARK  status: ('A' for Active; 'I' for Inactive)
REMARK    1  A    between atoms: C2_2  and  C3_3 
REMARK    2  A    between atoms: C3_3  and  C4_4 
REMARK    3  A    between atoms: C4_4  and  N1_5 
REMARK    4  A    between atoms: N1_5  and  C5_7 
REMARK    5  A    between atoms: C6_10  and  N3_11 
REMARK    6  A    between atoms: N4_14  and  C7_15 
REMARK    7  A    between atoms: C7_15  and  C8_16 
REMARK    8  A    between atoms: C8_16  and  N5_17 
ROOT
HETATM    1  C5  UNL     1     126.255  53.407  31.473  1.00  0.00     0.707 A 
HETATM    2  N2  UNL     1     125.764  52.266  31.952  1.00  0.00    -0.020 N 
ATOM      3  H2  UNL     1     124.821  51.912  31.796  1.00  0.00     0.203 HD
HETATM    4  C6  UNL     1     126.731  51.653  32.681  1.00  0.00     0.707 A 
HETATM    5  N4  UNL     1     127.799  52.434  32.634  1.00  0.00    -0.108 N 
HETATM    6  N6  UNL     1     127.524  53.482  31.915  1.00  0.00    -0.115 N 
ATOM      7  H6  UNL     1     128.171  54.246  31.716  1.00  0.00     0.206 HD
ENDROOT
BRANCH   1   8
HETATM    8  N1  UNL     1     125.723  54.317  30.735  1.00  0.00    -0.224 N 
ATOM      9  H1  UNL     1     125.899  55.292  30.975  1.00  0.00     0.177 HD
BRANCH   8  10
HETATM   10  C4  UNL     1     124.892  54.038  29.589  1.00  0.00     0.138 C 
BRANCH  10  11
HETATM   11  C3  UNL     1     123.463  53.982  30.031  1.00  0.00     0.020 C 
BRANCH  11  12
HETATM   12  C2  UNL     1     123.088  55.058  31.004  1.00  0.00    -0.003 C 
HETATM   13  C1  UNL     1     122.757  54.563  32.367  1.00  0.00     0.005 C 
ENDBRANCH  11  12
ENDBRANCH  10  11
ENDBRANCH   8  10
ENDBRANCH   1   8
BRANCH   4  14
HETATM   14  N3  UNL     1     126.563  50.510  33.286  1.00  0.00    -0.233 N 
ATOM     15  H32 UNL     1     127.203  49.719  33.370  1.00  0.00     0.174 HD
ATOM     16  H31 UNL     1     125.712  50.254  33.785  1.00  0.00     0.174 HD
ENDBRANCH   4  14
BRANCH   5  17
HETATM   17  C7  UNL     1     129.060  52.157  33.280  1.00  0.00     0.196 C 
BRANCH  17  18
HETATM   18  C8  UNL     1     130.101  53.043  32.618  1.00  0.00     0.252 C 
BRANCH  18  19
HETATM   19  N5  UNL     1     131.324  53.008  33.383  1.00  0.00    -0.078 N 
ATOM     20  H53 UNL     1     131.990  52.329  33.014  1.00  0.00     0.274 HD
ATOM     21  H52 UNL     1     131.885  53.849  33.250  1.00  0.00     0.274 HD
ATOM     22  H51 UNL     1     131.109  52.840  34.366  1.00  0.00     0.274 HD
ENDBRANCH  18  19
ENDBRANCH  17  18
ENDBRANCH   5  17
TORSDOF 8
ENDMDL
MODEL 5
REMARK VINA RESULT: -4.821367607      1.569      4.634
REMARK  8 active torsions:
REMARK  status: ('A' for Active; 'I' for Inactive)
REMARK    1  A    between atoms: C2_2  and  C3_3 
REMARK    2  A    between atoms: C3_3  and  C4_4 
REMARK    3  A    between atoms: C4_4  and  N1_5 
REMARK    4  A    between atoms: N1_5  and  C5_7 
REMARK    5  A    between atoms: C6_10  and  N3_11 
REMARK    6  A    between atoms: N4_14  and  C7_15 
REMARK    7  A    between atoms: C7_15  and  C8_16 
REMARK    8  A    between atoms: C8_16  and  N5_17 
ROOT
HETATM    1  C5  UNL     1     124.560  52.562  31.953  1.00  0.00     0.707 A 
HETATM    2  N2  UNL     1     123.590  53.135  32.660  1.00  0.00    -0.020 N 
ATOM      3  H2  UNL     1     123.300  52.867  33.600  1.00  0.00     0.203 HD
HETATM    4  C6  UNL     1     123.049  54.136  31.920  1.00  0.00     0.707 A 
HETATM    5  N4  UNL     1     123.704  54.156  30.769  1.00  0.00    -0.108 N 
HETATM    6  N6  UNL     1     124.606  53.220  30.780  1.00  0.00    -0.115 N 
ATOM      7  H6  UNL     1     125.252  53.016  30.017  1.00  0.00     0.206 HD
ENDROOT
BRANCH   1   8
HETATM    8  N1  UNL     1     125.349  51.584  32.230  1.00  0.00    -0.224 N 
ATOM      9  H1  UNL     1     125.262  50.727  31.684  1.00  0.00     0.177 HD
BRANCH   8  10
HETATM   10  C4  UNL     1     126.351  51.630  33.268  1.00  0.00     0.138 C 
BRANCH  10  11
HETATM   11  C3  UNL     1     127.697  51.796  32.634  1.00  0.00     0.020 C 
BRANCH  11  12
HETATM   12  C2  UNL     1     128.099  53.226  32.439  1.00  0.00    -0.003 C 
HETATM   13  C1  UNL     1     129.379  53.407  31.702  1.00  0.00     0.005 C 
ENDBRANCH  11  12
ENDBRANCH  10  11
ENDBRANCH   8  10
ENDBRANCH   1   8
BRANCH   4  14
HETATM   14  N3  UNL     1     122.071  54.893  32.333  1.00  0.00    -0.233 N 
ATOM     15  H32 UNL     1     121.072  54.693  32.384  1.00  0.00     0.174 HD
ATOM     16  H31 UNL     1     122.199  55.843  32.680  1.00  0.00     0.174 HD
ENDBRANCH   4  14
BRANCH   5  17
HETATM   17  C7  UNL     1     123.448  55.073  29.683  1.00  0.00     0.196 C 
BRANCH  17  18
HETATM   18  C8  UNL     1     124.671  55.048  28.784  1.00  0.00     0.252 C 
BRANCH  18  19
HETATM   19  N5  UNL     1     124.309  54.530  27.486  1.00  0.00    -0.078 N 
ATOM     20  H53 UNL     1     124.829  53.686  27.249  1.00  0.00     0.274 HD
ATOM     21  H52 UNL     1     123.371  54.130  27.481  1.00  0.00     0.274 HD
ATOM     22  H51 UNL     1     124.420  55.261  26.783  1.00  0.00     0.274 HD
ENDBRANCH  18  19
ENDBRANCH  17  18
ENDBRANCH   5  17
TORSDOF 8
ENDMDL
