MODEL 1
REMARK VINA RESULT: -5.285284044      0.000      0.000
REMARK  5 active torsions:
REMARK  status: ('A' for Active; 'I' for Inactive)
REMARK    1  A    between atoms: O1_2  and  C2_3 
REMARK    2  A    between atoms: C2_3  and  C3_4 
REMARK    3  A    between atoms: C3_4  and  N1_5 
REMARK    4  A    between atoms: N1_5  and  C4_7 
REMARK    5  A    between atoms: C4_7  and  C5_8 
ROOT
HETATM    1  C5  UNL     1     126.095  53.553  31.392  1.00  0.00     0.144 C 
HETATM    2  C6  UNL     1     127.570  53.276  31.214  1.00  0.00     0.262 C 
HETATM    3  N2  UNL     1     128.237  53.547  32.440  1.00  0.00    -0.073 N 
ATOM      4  H21 UNL     1     128.018  54.488  32.767  1.00  0.00     0.277 HD
ATOM      5  H22 UNL     1     129.241  53.648  32.286  1.00  0.00     0.277 HD
HETATM    6  C7  UNL     1     127.982  52.587  33.469  1.00  0.00     0.237 C 
HETATM    7  C8  UNL     1     127.339  51.349  32.995  1.00  0.00     0.071 C 
HETATM    8  C9  UNL     1     125.940  51.405  32.578  1.00  0.00     0.058 C 
HETATM    9  N3  UNL     1     125.376  52.566  32.051  1.00  0.00    -0.392 N 
ATOM     10  H3  UNL     1     124.370  52.699  32.156  1.00  0.00     0.159 HD
ENDROOT
BRANCH   1  11
HETATM   11  C4  UNL     1     125.565  53.743  29.984  1.00  0.00     0.082 C 
BRANCH  11  12
HETATM   12  N1  UNL     1     124.383  53.052  29.656  1.00  0.00    -0.398 N 
ATOM     13  H1  UNL     1     124.398  52.117  29.246  1.00  0.00     0.158 HD
BRANCH  12  14
HETATM   14  C3  UNL     1     123.165  53.736  29.931  1.00  0.00     0.145 C 
BRANCH  14  15
HETATM   15  C2  UNL     1     123.297  55.240  29.838  1.00  0.00     0.186 C 
BRANCH  15  16
HETATM   16  O1  UNL     1     122.980  55.854  31.048  1.00  0.00    -0.394 OA
HETATM   17  C1  UNL     1     122.663  54.920  32.027  1.00  0.00     0.201 C 
ENDBRANCH  15  16
ENDBRANCH  14  15
ENDBRANCH  12  14
ENDBRANCH  11  12
ENDBRANCH   1  11
TORSDOF 5
ENDMDL
MODEL 2
REMARK VINA RESULT: -5.190636410      2.137      5.021
REMARK  5 active torsions:
REMARK  status: ('A' for Active; 'I' for Inactive)
REMARK    1  A    between atoms: O1_2  and  C2_3 
REMARK    2  A    between atoms: C2_3  and  C3_4 
REMARK    3  A    between atoms: C3_4  and  N1_5 
REMARK    4  A    between atoms: N1_5  and  C4_7 
REMARK    5  A    between atoms: C4_7  and  C5_8 
ROOT
HETATM    1  C5  UNL     1     123.488  52.535  30.977  1.00  0.00     0.144 C 
HETATM    2  C6  UNL     1     124.571  53.269  30.220  1.00  0.00     0.262 C 
HETATM    3  N2  UNL     1     124.001  53.851  29.056  1.00  0.00    -0.073 N 
ATOM      4  H21 UNL     1     123.502  53.148  28.511  1.00  0.00     0.277 HD
ATOM      5  H22 UNL     1     124.730  54.102  28.388  1.00  0.00     0.277 HD
HETATM    6  C7  UNL     1     123.154  54.974  29.319  1.00  0.00     0.237 C 
HETATM    7  C8  UNL     1     123.267  55.509  30.687  1.00  0.00     0.071 C 
HETATM    8  C9  UNL     1     122.719  54.724  31.790  1.00  0.00     0.058 C 
HETATM    9  N3  UNL     1     122.645  53.332  31.738  1.00  0.00    -0.392 N 
ATOM     10  H3  UNL     1     121.925  52.871  32.294  1.00  0.00     0.159 HD
ENDROOT
BRANCH   1  11
HETATM   11  C4  UNL     1     124.231  51.555  31.864  1.00  0.00     0.082 C 
BRANCH  11  12
HETATM   12  N1  UNL     1     125.301  52.073  32.619  1.00  0.00    -0.398 N 
ATOM     13  H1  UNL     1     125.336  53.050  32.910  1.00  0.00     0.158 HD
BRANCH  12  14
HETATM   14  C3  UNL     1     126.332  51.148  32.950  1.00  0.00     0.145 C 
BRANCH  14  15
HETATM   15  C2  UNL     1     127.721  51.729  32.798  1.00  0.00     0.186 C 
BRANCH  15  16
HETATM   16  O1  UNL     1     127.837  52.468  31.623  1.00  0.00    -0.394 OA
HETATM   17  C1  UNL     1     128.941  53.310  31.656  1.00  0.00     0.201 C 
ENDBRANCH  15  16
ENDBRANCH  14  15
ENDBRANCH  12  14
ENDBRANCH  11  12
ENDBRANCH   1  11
TORSDOF 5
ENDMDL
MODEL 3
REMARK VINA RESULT: -5.095025754      2.102      4.909
REMARK  5 active torsions:
REMARK  status: ('A' for Active; 'I' for Inactive)
REMARK    1  A    between atoms: O1_2  and  C2_3 
REMARK    2  A    between atoms: C2_3  and  C3_4 
REMARK    3  A    between atoms: C3_4  and  N1_5 
REMARK    4  A    between atoms: N1_5  and  C4_7 
REMARK    5  A    between atoms: C4_7  and  C5_8 
ROOT
HETATM    1  C5  UNL     1     124.091  52.911  30.103  1.00  0.00     0.144 C 
HETATM    2  C6  UNL     1     125.355  53.737  30.050  1.00  0.00     0.262 C 
HETATM    3  N2  UNL     1     125.627  54.071  28.695  1.00  0.00    -0.073 N 
ATOM      4  H21 UNL     1     125.642  53.231  28.115  1.00  0.00     0.277 HD
ATOM      5  H22 UNL     1     126.595  54.372  28.588  1.00  0.00     0.277 HD
HETATM    6  C7  UNL     1     124.736  55.044  28.143  1.00  0.00     0.237 C 
HETATM    7  C8  UNL     1     123.909  55.742  29.141  1.00  0.00     0.071 C 
HETATM    8  C9  UNL     1     122.835  55.002  29.799  1.00  0.00     0.058 C 
HETATM    9  N3  UNL     1     122.905  53.624  29.996  1.00  0.00    -0.392 N 
ATOM     10  H3  UNL     1     122.029  53.106  30.067  1.00  0.00     0.159 HD
ENDROOT
BRANCH   1  11
HETATM   11  C4  UNL     1     124.156  52.189  31.435  1.00  0.00     0.082 C 
BRANCH  11  12
HETATM   12  N1  UNL     1     125.212  52.546  32.295  1.00  0.00    -0.398 N 
ATOM     13  H1  UNL     1     125.371  53.511  32.586  1.00  0.00     0.158 HD
BRANCH  12  14
HETATM   14  C3  UNL     1     126.044  51.478  32.735  1.00  0.00     0.145 C 
BRANCH  14  15
HETATM   15  C2  UNL     1     127.429  51.932  33.139  1.00  0.00     0.186 C 
BRANCH  15  16
HETATM   16  O1  UNL     1     127.667  53.247  32.747  1.00  0.00    -0.394 OA
HETATM   17  C1  UNL     1     128.860  53.363  32.044  1.00  0.00     0.201 C 
ENDBRANCH  15  16
ENDBRANCH  14  15
ENDBRANCH  12  14
ENDBRANCH  11  12
ENDBRANCH   1  11
TORSDOF 5
ENDMDL
MODEL 4
REMARK VINA RESULT: -5.083340012      2.186      4.948
REMARK  5 active torsions:
REMARK  status: ('A' for Active; 'I' for Inactive)
REMARK    1  A    between atoms: O1_2  and  C2_3 
REMARK    2  A    between atoms: C2_3  and  C3_4 
REMARK    3  A    between atoms: C3_4  and  N1_5 
REMARK    4  A    between atoms: N1_5  and  C4_7 
REMARK    5  A    between atoms: C4_7  and  C5_8 
ROOT
HETATM    1  C5  UNL     1     124.648  52.559  32.162  1.00  0.00     0.144 C 
HETATM    2  C6  UNL     1     123.139  52.585  32.222  1.00  0.00     0.262 C 
HETATM    3  N2  UNL     1     122.721  53.868  32.673  1.00  0.00    -0.073 N 
ATOM      4  H21 UNL     1     123.187  54.109  33.548  1.00  0.00     0.277 HD
ATOM      5  H22 UNL     1     121.754  53.836  32.995  1.00  0.00     0.277 HD
HETATM    6  C7  UNL     1     122.895  54.910  31.709  1.00  0.00     0.237 C 
HETATM    7  C8  UNL     1     123.176  54.431  30.345  1.00  0.00     0.071 C 
HETATM    8  C9  UNL     1     124.482  53.838  30.069  1.00  0.00     0.058 C 
HETATM    9  N3  UNL     1     125.214  53.177  31.056  1.00  0.00    -0.392 N 
ATOM     10  H3  UNL     1     126.228  53.147  30.959  1.00  0.00     0.159 HD
ENDROOT
BRANCH   1  11
HETATM   11  C4  UNL     1     125.011  51.087  32.187  1.00  0.00     0.082 C 
BRANCH  11  12
HETATM   12  N1  UNL     1     126.027  50.702  33.083  1.00  0.00    -0.398 N 
ATOM     13  H1  UNL     1     125.840  50.102  33.887  1.00  0.00     0.158 HD
BRANCH  12  14
HETATM   14  C3  UNL     1     127.329  51.202  32.799  1.00  0.00     0.145 C 
BRANCH  14  15
HETATM   15  C2  UNL     1     127.702  52.398  33.645  1.00  0.00     0.186 C 
BRANCH  15  16
HETATM   16  O1  UNL     1     127.852  53.544  32.868  1.00  0.00    -0.394 OA
HETATM   17  C1  UNL     1     128.825  53.375  31.890  1.00  0.00     0.201 C 
ENDBRANCH  15  16
ENDBRANCH  14  15
ENDBRANCH  12  14
ENDBRANCH  11  12
ENDBRANCH   1  11
TORSDOF 5
ENDMDL
MODEL 5
REMARK VINA RESULT: -5.079194126      2.248      4.773
REMARK  5 active torsions:
REMARK  status: ('A' for Active; 'I' for Inactive)
REMARK    1  A    between atoms: O1_2  and  C2_3 
REMARK    2  A    between atoms: C2_3  and  C3_4 
REMARK    3  A    between atoms: C3_4  and  N1_5 
REMARK    4  A    between atoms: N1_5  and  C4_7 
REMARK    5  A    between atoms: C4_7  and  C5_8 
ROOT
HETATM    1  C5  UNL     1     123.611  54.907  31.127  1.00  0.00     0.144 C 
HETATM    2  C6  UNL     1     122.809  54.904  29.847  1.00  0.00     0.262 C 
HETATM    3  N2  UNL     1     123.208  56.015  29.054  1.00  0.00    -0.073 N 
ATOM      4  H21 UNL     1     123.148  56.879  29.592  1.00  0.00     0.277 HD
ATOM      5  H22 UNL     1     122.511  56.210  28.335  1.00  0.00     0.277 HD
HETATM    6  C7  UNL     1     124.506  55.878  28.470  1.00  0.00     0.237 C 
HETATM    7  C8  UNL     1     125.058  54.513  28.534  1.00  0.00     0.071 C 
HETATM    8  C9  UNL     1     125.489  53.995  29.830  1.00  0.00     0.058 C 
HETATM    9  N3  UNL     1     124.906  54.420  31.023  1.00  0.00    -0.392 N 
ATOM     10  H3  UNL     1     125.467  54.369  31.873  1.00  0.00     0.159 HD
ENDROOT
BRANCH   1  11
HETATM   11  C4  UNL     1     122.804  54.061  32.092  1.00  0.00     0.082 C 
BRANCH  11  12
HETATM   12  N1  UNL     1     123.495  53.032  32.761  1.00  0.00    -0.398 N 
ATOM     13  H1  UNL     1     124.096  53.218  33.565  1.00  0.00     0.158 HD
BRANCH  12  14
HETATM   14  C3  UNL     1     123.305  51.718  32.247  1.00  0.00     0.145 C 
BRANCH  14  15
HETATM   15  C2  UNL     1     124.577  50.900  32.226  1.00  0.00     0.186 C 
BRANCH  15  16
HETATM   16  O1  UNL     1     125.707  51.715  32.241  1.00  0.00    -0.394 OA
HETATM   17  C1  UNL     1     126.726  51.162  33.006  1.00  0.00     0.201 C 
ENDBRANCH  15  16
ENDBRANCH  14  15
ENDBRANCH  12  14
ENDBRANCH  11  12
ENDBRANCH   1  11
TORSDOF 5
ENDMDL
