MODEL 1
REMARK VINA RESULT: -5.510459255      0.000      0.000
REMARK  7 active torsions:
REMARK  status: ('A' for Active; 'I' for Inactive)
REMARK    1  A    between atoms: O1_2  and  C2_3 
REMARK    2  A    between atoms: C2_3  and  C3_4 
REMARK    3  A    between atoms: C3_4  and  N1_5 
REMARK    4  A    between atoms: N1_5  and  N2_6 
REMARK    5  A    between atoms: N1_5  and  C4_9 
REMARK    6  A    between atoms: C4_9  and  C5_10 
REMARK    7  A    between atoms: C7_14  and  N4_15 
ROOT
HETATM    1  C5  UNL     1     126.025  52.320  32.214  1.00  0.00     0.061 A 
HETATM    2  C6  UNL     1     126.805  51.477  33.013  1.00  0.00     0.133 A 
HETATM    3  N3  UNL     1     128.049  51.965  33.083  1.00  0.00    -0.200 N 
ATOM      4  H3  UNL     1     128.831  51.558  33.596  1.00  0.00     0.183 HD
HETATM    5  C7  UNL     1     128.074  53.082  32.356  1.00  0.00     0.676 A 
HETATM    6  N5  UNL     1     126.847  53.297  31.828  1.00  0.00    -0.193 N 
ATOM      7  H5  UNL     1     126.590  54.081  31.230  1.00  0.00     0.184 HD
ENDROOT
BRANCH   1   8
HETATM    8  C4  UNL     1     124.590  52.153  31.873  1.00  0.00     0.201 C 
BRANCH   8   9
HETATM    9  N1  UNL     1     124.253  53.106  30.871  1.00  0.00    -0.327 N 
BRANCH   9  10
HETATM   10  C3  UNL     1     123.492  54.225  31.335  1.00  0.00     0.168 C 
BRANCH  10  11
HETATM   11  C2  UNL     1     123.222  55.170  30.202  1.00  0.00     0.188 C 
BRANCH  11  12
HETATM   12  O1  UNL     1     124.401  55.511  29.531  1.00  0.00    -0.394 OA
HETATM   13  C1  UNL     1     124.116  55.954  28.232  1.00  0.00     0.201 C 
ENDBRANCH  11  12
ENDBRANCH  10  11
ENDBRANCH   9  10
BRANCH   9  14
HETATM   14  N2  UNL     1     123.985  52.649  29.638  1.00  0.00    -0.347 N 
ATOM     15  H22 UNL     1     124.694  52.781  28.917  1.00  0.00     0.176 HD
ATOM     16  H21 UNL     1     123.457  51.779  29.567  1.00  0.00     0.176 HD
ENDBRANCH   9  14
ENDBRANCH   8   9
ENDBRANCH   1   8
BRANCH   5  17
HETATM   17  N4  UNL     1     129.099  53.832  32.184  1.00  0.00    -0.234 N 
ATOM     18  H42 UNL     1     130.037  53.508  31.943  1.00  0.00     0.174 HD
ATOM     19  H41 UNL     1     129.108  54.848  32.267  1.00  0.00     0.174 HD
ENDBRANCH   5  17
TORSDOF 7
ENDMDL
MODEL 2
REMARK VINA RESULT: -5.391537064      0.766      1.220
REMARK  7 active torsions:
REMARK  status: ('A' for Active; 'I' for Inactive)
REMARK    1  A    between atoms: O1_2  and  C2_3 
REMARK    2  A    between atoms: C2_3  and  C3_4 
REMARK    3  A    between atoms: C3_4  and  N1_5 
REMARK    4  A    between atoms: N1_5  and  N2_6 
REMARK    5  A    between atoms: N1_5  and  C4_9 
REMARK    6  A    between atoms: C4_9  and  C5_10 
REMARK    7  A    between atoms: C7_14  and  N4_15 
ROOT
HETATM    1  C5  UNL     1     125.866  52.520  32.053  1.00  0.00     0.061 A 
HETATM    2  C6  UNL     1     126.657  53.521  31.479  1.00  0.00     0.133 A 
HETATM    3  N3  UNL     1     127.889  53.459  31.997  1.00  0.00    -0.200 N 
ATOM      4  H3  UNL     1     128.675  54.066  31.765  1.00  0.00     0.183 HD
HETATM    5  C7  UNL     1     127.896  52.456  32.876  1.00  0.00     0.676 A 
HETATM    6  N5  UNL     1     126.669  51.887  32.910  1.00  0.00    -0.193 N 
ATOM      7  H5  UNL     1     126.399  51.099  33.498  1.00  0.00     0.184 HD
ENDROOT
BRANCH   1   8
HETATM    8  C4  UNL     1     124.439  52.234  31.766  1.00  0.00     0.201 C 
BRANCH   8   9
HETATM    9  N1  UNL     1     124.002  53.114  30.735  1.00  0.00    -0.327 N 
BRANCH   9  10
HETATM   10  C3  UNL     1     123.146  54.174  31.170  1.00  0.00     0.168 C 
BRANCH  10  11
HETATM   11  C2  UNL     1     123.086  55.249  30.126  1.00  0.00     0.188 C 
BRANCH  11  12
HETATM   12  O1  UNL     1     124.347  55.495  29.574  1.00  0.00    -0.394 OA
HETATM   13  C1  UNL     1     124.224  55.973  28.261  1.00  0.00     0.201 C 
ENDBRANCH  11  12
ENDBRANCH  10  11
ENDBRANCH   9  10
BRANCH   9  14
HETATM   14  N2  UNL     1     123.763  52.588  29.523  1.00  0.00    -0.347 N 
ATOM     15  H22 UNL     1     123.268  51.697  29.481  1.00  0.00     0.176 HD
ATOM     16  H21 UNL     1     123.546  53.237  28.767  1.00  0.00     0.176 HD
ENDBRANCH   9  14
ENDBRANCH   8   9
ENDBRANCH   1   8
BRANCH   5  17
HETATM   17  N4  UNL     1     128.905  52.091  33.576  1.00  0.00    -0.234 N 
ATOM     18  H42 UNL     1     129.838  51.891  33.213  1.00  0.00     0.174 HD
ATOM     19  H41 UNL     1     128.903  51.952  34.586  1.00  0.00     0.174 HD
ENDBRANCH   5  17
TORSDOF 7
ENDMDL
MODEL 3
REMARK VINA RESULT: -5.339911779      0.943      1.048
REMARK  7 active torsions:
REMARK  status: ('A' for Active; 'I' for Inactive)
REMARK    1  A    between atoms: O1_2  and  C2_3 
REMARK    2  A    between atoms: C2_3  and  C3_4 
REMARK    3  A    between atoms: C3_4  and  N1_5 
REMARK    4  A    between atoms: N1_5  and  N2_6 
REMARK    5  A    between atoms: N1_5  and  C4_9 
REMARK    6  A    between atoms: C4_9  and  C5_10 
REMARK    7  A    between atoms: C7_14  and  N4_15 
ROOT
HETATM    1  C5  UNL     1     126.321  52.113  32.549  1.00  0.00     0.061 A 
HETATM    2  C6  UNL     1     127.237  51.569  33.455  1.00  0.00     0.133 A 
HETATM    3  N3  UNL     1     128.389  52.244  33.376  1.00  0.00    -0.200 N 
ATOM      4  H3  UNL     1     129.233  52.067  33.921  1.00  0.00     0.183 HD
HETATM    5  C7  UNL     1     128.227  53.191  32.451  1.00  0.00     0.676 A 
HETATM    6  N5  UNL     1     126.973  53.111  31.949  1.00  0.00    -0.193 N 
ATOM      7  H5  UNL     1     126.586  53.717  31.226  1.00  0.00     0.184 HD
ENDROOT
BRANCH   1   8
HETATM    8  C4  UNL     1     124.926  51.667  32.310  1.00  0.00     0.201 C 
BRANCH   8   9
HETATM    9  N1  UNL     1     124.257  52.671  31.552  1.00  0.00    -0.327 N 
BRANCH   9  10
HETATM   10  C3  UNL     1     123.314  53.454  32.290  1.00  0.00     0.168 C 
BRANCH  10  11
HETATM   11  C2  UNL     1     123.245  54.842  31.725  1.00  0.00     0.188 C 
BRANCH  11  12
HETATM   12  O1  UNL     1     122.544  54.866  30.515  1.00  0.00    -0.394 OA
HETATM   13  C1  UNL     1     123.195  55.691  29.587  1.00  0.00     0.201 C 
ENDBRANCH  11  12
ENDBRANCH  10  11
ENDBRANCH   9  10
BRANCH   9  14
HETATM   14  N2  UNL     1     123.960  52.394  30.273  1.00  0.00    -0.347 N 
ATOM     15  H22 UNL     1     123.296  53.005  29.796  1.00  0.00     0.176 HD
ATOM     16  H21 UNL     1     124.713  52.037  29.685  1.00  0.00     0.176 HD
ENDBRANCH   9  14
ENDBRANCH   8   9
ENDBRANCH   1   8
BRANCH   5  17
HETATM   17  N4  UNL     1     129.118  54.040  32.096  1.00  0.00    -0.234 N 
ATOM     18  H42 UNL     1     130.080  54.067  32.434  1.00  0.00     0.174 HD
ATOM     19  H41 UNL     1     128.977  54.799  31.430  1.00  0.00     0.174 HD
ENDBRANCH   5  17
TORSDOF 7
ENDMDL
MODEL 4
REMARK VINA RESULT: -5.311805690      2.648      4.685
REMARK  7 active torsions:
REMARK  status: ('A' for Active; 'I' for Inactive)
REMARK    1  A    between atoms: O1_2  and  C2_3 
REMARK    2  A    between atoms: C2_3  and  C3_4 
REMARK    3  A    between atoms: C3_4  and  N1_5 
REMARK    4  A    between atoms: N1_5  and  N2_6 
REMARK    5  A    between atoms: N1_5  and  C4_9 
REMARK    6  A    between atoms: C4_9  and  C5_10 
REMARK    7  A    between atoms: C7_14  and  N4_15 
ROOT
HETATM    1  C5  UNL     1     123.949  53.759  29.777  1.00  0.00     0.061 A 
HETATM    2  C6  UNL     1     125.307  53.945  29.504  1.00  0.00     0.133 A 
HETATM    3  N3  UNL     1     125.467  55.082  28.818  1.00  0.00    -0.200 N 
ATOM      4  H3  UNL     1     126.349  55.470  28.484  1.00  0.00     0.183 HD
HETATM    5  C7  UNL     1     124.255  55.614  28.652  1.00  0.00     0.676 A 
HETATM    6  N5  UNL     1     123.335  54.811  29.233  1.00  0.00    -0.193 N 
ATOM      7  H5  UNL     1     122.330  54.982  29.252  1.00  0.00     0.184 HD
ENDROOT
BRANCH   1   8
HETATM    8  C4  UNL     1     123.331  52.628  30.513  1.00  0.00     0.201 C 
BRANCH   8   9
HETATM    9  N1  UNL     1     123.850  52.619  31.840  1.00  0.00    -0.327 N 
BRANCH   9  10
HETATM   10  C3  UNL     1     124.326  51.348  32.292  1.00  0.00     0.168 C 
BRANCH  10  11
HETATM   11  C2  UNL     1     125.787  51.432  32.620  1.00  0.00     0.188 C 
BRANCH  11  12
HETATM   12  O1  UNL     1     126.231  52.758  32.635  1.00  0.00    -0.394 OA
HETATM   13  C1  UNL     1     127.573  52.832  32.235  1.00  0.00     0.201 C 
ENDBRANCH  11  12
ENDBRANCH  10  11
ENDBRANCH   9  10
BRANCH   9  14
HETATM   14  N2  UNL     1     123.260  53.414  32.747  1.00  0.00    -0.347 N 
ATOM     15  H22 UNL     1     122.764  52.968  33.519  1.00  0.00     0.176 HD
ATOM     16  H21 UNL     1     123.738  54.282  32.988  1.00  0.00     0.176 HD
ENDBRANCH   9  14
ENDBRANCH   8   9
ENDBRANCH   1   8
BRANCH   5  17
HETATM   17  N4  UNL     1     124.004  56.711  28.038  1.00  0.00    -0.234 N 
ATOM     18  H42 UNL     1     124.702  57.340  27.639  1.00  0.00     0.174 HD
ATOM     19  H41 UNL     1     123.075  57.095  27.872  1.00  0.00     0.174 HD
ENDBRANCH   5  17
TORSDOF 7
ENDMDL
MODEL 5
REMARK VINA RESULT: -5.267085046      2.553      3.285
REMARK  7 active torsions:
REMARK  status: ('A' for Active; 'I' for Inactive)
REMARK    1  A    between atoms: O1_2  and  C2_3 
REMARK    2  A    between atoms: C2_3  and  C3_4 
REMARK    3  A    between atoms: C3_4  and  N1_5 
REMARK    4  A    between atoms: N1_5  and  N2_6 
REMARK    5  A    between atoms: N1_5  and  C4_9 
REMARK    6  A    between atoms: C4_9  and  C5_10 
REMARK    7  A    between atoms: C7_14  and  N4_15 
ROOT
HETATM    1  C5  UNL     1     127.919  52.455  33.335  1.00  0.00     0.061 A 
HETATM    2  C6  UNL     1     128.136  53.318  32.256  1.00  0.00     0.133 A 
HETATM    3  N3  UNL     1     129.448  53.541  32.127  1.00  0.00    -0.200 N 
ATOM      4  H3  UNL     1     129.897  54.130  31.426  1.00  0.00     0.183 HD
HETATM    5  C7  UNL     1     130.061  52.847  33.088  1.00  0.00     0.676 A 
HETATM    6  N5  UNL     1     129.132  52.189  33.820  1.00  0.00    -0.193 N 
ATOM      7  H5  UNL     1     129.329  51.585  34.618  1.00  0.00     0.184 HD
ENDROOT
BRANCH   1   8
HETATM    8  C4  UNL     1     126.613  51.950  33.827  1.00  0.00     0.201 C 
BRANCH   8   9
HETATM    9  N1  UNL     1     125.896  51.407  32.723  1.00  0.00    -0.327 N 
BRANCH   9  10
HETATM   10  C3  UNL     1     124.946  52.296  32.126  1.00  0.00     0.168 C 
BRANCH  10  11
HETATM   11  C2  UNL     1     123.563  51.731  32.252  1.00  0.00     0.188 C 
BRANCH  11  12
HETATM   12  O1  UNL     1     122.675  52.671  32.786  1.00  0.00    -0.394 OA
HETATM   13  C1  UNL     1     123.012  53.964  32.359  1.00  0.00     0.201 C 
ENDBRANCH  11  12
ENDBRANCH  10  11
ENDBRANCH   9  10
BRANCH   9  14
HETATM   14  N2  UNL     1     125.577  50.104  32.764  1.00  0.00    -0.347 N 
ATOM     15  H22 UNL     1     126.283  49.432  32.461  1.00  0.00     0.176 HD
ATOM     16  H21 UNL     1     124.989  49.791  33.535  1.00  0.00     0.176 HD
ENDBRANCH   9  14
ENDBRANCH   8   9
ENDBRANCH   1   8
BRANCH   5  17
HETATM   17  N4  UNL     1     131.326  52.811  33.285  1.00  0.00    -0.234 N 
ATOM     18  H42 UNL     1     132.003  53.478  32.914  1.00  0.00     0.174 HD
ATOM     19  H41 UNL     1     131.818  52.109  33.838  1.00  0.00     0.174 HD
ENDBRANCH   5  17
TORSDOF 7
ENDMDL
