MODEL 1
REMARK VINA RESULT: -5.787321546      0.000      0.000
REMARK  7 active torsions:
REMARK  status: ('A' for Active; 'I' for Inactive)
REMARK    1  A    between atoms: C1_4  and  C2_5 
REMARK    2  A    between atoms: C2_5  and  N2_6 
REMARK    3  A    between atoms: N2_6  and  C3_8 
REMARK    4  A    between atoms: C3_8  and  C4_9 
REMARK    5  A    between atoms: C4_9  and  N3_10 
REMARK    6  A    between atoms: N3_10  and  C5_12 
REMARK    7  A    between atoms: C8_19  and  N6_20 
ROOT
HETATM    1  C5  UNL     1     126.109  52.254  32.219  1.00  0.00     0.149 A 
HETATM    2  N4  UNL     1     126.783  53.389  31.838  1.00  0.00    -0.348 N 
ATOM      3  H4  UNL     1     126.287  54.119  31.326  1.00  0.00     0.167 HD
HETATM    4  C6  UNL     1     128.070  53.550  32.127  1.00  0.00     0.107 A 
HETATM    5  C7  UNL     1     128.758  52.570  32.822  1.00  0.00     0.107 A 
HETATM    6  N5  UNL     1     128.116  51.469  33.194  1.00  0.00    -0.348 N 
ATOM      7  H5  UNL     1     128.620  50.746  33.707  1.00  0.00     0.167 HD
HETATM    8  C8  UNL     1     126.779  51.283  32.902  1.00  0.00     0.143 A 
ENDROOT
BRANCH   1   9
HETATM    9  N3  UNL     1     124.913  52.238  31.902  1.00  0.00    -0.348 N 
ATOM     10  H3  UNL     1     124.625  51.273  31.737  1.00  0.00     0.167 HD
BRANCH   9  11
HETATM   11  C4  UNL     1     123.819  53.085  31.691  1.00  0.00     0.106 C 
BRANCH  11  12
HETATM   12  C3  UNL     1     123.306  52.826  30.294  1.00  0.00     0.104 C 
BRANCH  12  13
HETATM   13  N2  UNL     1     124.041  53.270  29.213  1.00  0.00    -0.373 N 
ATOM     14  H2  UNL     1     124.169  52.645  28.417  1.00  0.00     0.164 HD
BRANCH  13  15
HETATM   15  C2  UNL     1     124.620  54.551  29.166  1.00  0.00     0.104 C 
BRANCH  15  16
HETATM   16  C1  UNL     1     123.657  55.644  28.796  1.00  0.00     0.097 C 
HETATM   17  N1  UNL     1     124.092  56.632  28.134  1.00  0.00    -0.407 N 
ATOM     18  H12 UNL     1     125.075  56.670  27.866  1.00  0.00     0.155 HD
ATOM     19  H11 UNL     1     123.438  57.374  27.884  1.00  0.00     0.155 HD
ENDBRANCH  15  16
ENDBRANCH  13  15
ENDBRANCH  12  13
ENDBRANCH  11  12
ENDBRANCH   9  11
ENDBRANCH   1   9
BRANCH   8  20
HETATM   20  N6  UNL     1     126.301  50.164  33.304  1.00  0.00    -0.382 N 
ATOM     21  H62 UNL     1     125.294  50.171  33.468  1.00  0.00     0.157 HD
ATOM     22  H61 UNL     1     126.826  49.307  33.483  1.00  0.00     0.157 HD
ENDBRANCH   8  20
TORSDOF 7
ENDMDL
MODEL 2
REMARK VINA RESULT: -5.672862212      1.627      5.295
REMARK  7 active torsions:
REMARK  status: ('A' for Active; 'I' for Inactive)
REMARK    1  A    between atoms: C1_4  and  C2_5 
REMARK    2  A    between atoms: C2_5  and  N2_6 
REMARK    3  A    between atoms: N2_6  and  C3_8 
REMARK    4  A    between atoms: C3_8  and  C4_9 
REMARK    5  A    between atoms: C4_9  and  N3_10 
REMARK    6  A    between atoms: N3_10  and  C5_12 
REMARK    7  A    between atoms: C8_19  and  N6_20 
ROOT
HETATM    1  C5  UNL     1     123.729  53.622  30.092  1.00  0.00     0.149 A 
HETATM    2  N4  UNL     1     124.423  53.698  28.910  1.00  0.00    -0.348 N 
ATOM      3  H4  UNL     1     124.921  52.877  28.566  1.00  0.00     0.167 HD
HETATM    4  C6  UNL     1     124.456  54.825  28.206  1.00  0.00     0.107 A 
HETATM    5  C7  UNL     1     123.785  55.950  28.657  1.00  0.00     0.107 A 
HETATM    6  N5  UNL     1     123.111  55.886  29.799  1.00  0.00    -0.348 N 
ATOM      7  H5  UNL     1     122.616  56.713  30.133  1.00  0.00     0.167 HD
HETATM    8  C8  UNL     1     123.066  54.724  30.544  1.00  0.00     0.143 A 
ENDROOT
BRANCH   1   9
HETATM    9  N3  UNL     1     123.766  52.512  30.637  1.00  0.00    -0.348 N 
ATOM     10  H3  UNL     1     123.330  51.824  30.024  1.00  0.00     0.167 HD
BRANCH   9  11
HETATM   11  C4  UNL     1     124.199  51.875  31.806  1.00  0.00     0.106 C 
BRANCH  11  12
HETATM   12  C3  UNL     1     125.527  52.486  32.192  1.00  0.00     0.104 C 
BRANCH  12  13
HETATM   13  N2  UNL     1     126.509  51.678  32.728  1.00  0.00    -0.373 N 
ATOM     14  H2  UNL     1     126.283  50.706  32.942  1.00  0.00     0.164 HD
BRANCH  13  15
HETATM   15  C2  UNL     1     127.811  52.141  32.991  1.00  0.00     0.104 C 
BRANCH  15  16
HETATM   16  C1  UNL     1     128.196  53.361  32.203  1.00  0.00     0.097 C 
HETATM   17  N1  UNL     1     129.391  53.773  32.276  1.00  0.00    -0.407 N 
ATOM     18  H12 UNL     1     130.064  53.278  32.861  1.00  0.00     0.155 HD
ATOM     19  H11 UNL     1     129.652  54.602  31.741  1.00  0.00     0.155 HD
ENDBRANCH  15  16
ENDBRANCH  13  15
ENDBRANCH  12  13
ENDBRANCH  11  12
ENDBRANCH   9  11
ENDBRANCH   1   9
BRANCH   8  20
HETATM   20  N6  UNL     1     122.397  54.820  31.633  1.00  0.00    -0.382 N 
ATOM     21  H62 UNL     1     122.857  54.411  32.447  1.00  0.00     0.157 HD
ATOM     22  H61 UNL     1     121.473  55.239  31.744  1.00  0.00     0.157 HD
ENDBRANCH   8  20
TORSDOF 7
ENDMDL
MODEL 3
REMARK VINA RESULT: -5.576292663      1.012      1.133
REMARK  7 active torsions:
REMARK  status: ('A' for Active; 'I' for Inactive)
REMARK    1  A    between atoms: C1_4  and  C2_5 
REMARK    2  A    between atoms: C2_5  and  N2_6 
REMARK    3  A    between atoms: N2_6  and  C3_8 
REMARK    4  A    between atoms: C3_8  and  C4_9 
REMARK    5  A    between atoms: C4_9  and  N3_10 
REMARK    6  A    between atoms: N3_10  and  C5_12 
REMARK    7  A    between atoms: C8_19  and  N6_20 
ROOT
HETATM    1  C5  UNL     1     126.211  52.351  32.185  1.00  0.00     0.149 A 
HETATM    2  N4  UNL     1     126.926  53.467  31.827  1.00  0.00    -0.348 N 
ATOM      3  H4  UNL     1     126.466  54.213  31.306  1.00  0.00     0.167 HD
HETATM    4  C6  UNL     1     128.210  53.588  32.148  1.00  0.00     0.107 A 
HETATM    5  C7  UNL     1     128.851  52.586  32.855  1.00  0.00     0.107 A 
HETATM    6  N5  UNL     1     128.168  51.503  33.207  1.00  0.00    -0.348 N 
ATOM      7  H5  UNL     1     128.638  50.763  33.728  1.00  0.00     0.167 HD
HETATM    8  C8  UNL     1     126.834  51.358  32.881  1.00  0.00     0.143 A 
ENDROOT
BRANCH   1   9
HETATM    9  N3  UNL     1     125.023  52.371  31.839  1.00  0.00    -0.348 N 
ATOM     10  H3  UNL     1     124.964  52.175  30.839  1.00  0.00     0.167 HD
BRANCH   9  11
HETATM   11  C4  UNL     1     123.733  52.570  32.344  1.00  0.00     0.106 C 
BRANCH  11  12
HETATM   12  C3  UNL     1     123.294  53.958  31.937  1.00  0.00     0.104 C 
BRANCH  12  13
HETATM   13  N2  UNL     1     122.782  54.159  30.671  1.00  0.00    -0.373 N 
ATOM     14  H2  UNL     1     122.061  53.525  30.327  1.00  0.00     0.164 HD
BRANCH  13  15
HETATM   15  C2  UNL     1     123.217  55.204  29.835  1.00  0.00     0.104 C 
BRANCH  15  16
HETATM   16  C1  UNL     1     124.484  54.901  29.088  1.00  0.00     0.097 C 
HETATM   17  N1  UNL     1     124.399  54.554  27.873  1.00  0.00    -0.407 N 
ATOM     18  H12 UNL     1     123.484  54.485  27.428  1.00  0.00     0.155 HD
ATOM     19  H11 UNL     1     125.259  54.348  27.365  1.00  0.00     0.155 HD
ENDBRANCH  15  16
ENDBRANCH  13  15
ENDBRANCH  12  13
ENDBRANCH  11  12
ENDBRANCH   9  11
ENDBRANCH   1   9
BRANCH   8  20
HETATM   20  N6  UNL     1     126.313  50.252  33.265  1.00  0.00    -0.382 N 
ATOM     21  H62 UNL     1     126.280  49.530  32.545  1.00  0.00     0.157 HD
ATOM     22  H61 UNL     1     125.929  50.049  34.189  1.00  0.00     0.157 HD
ENDBRANCH   8  20
TORSDOF 7
ENDMDL
MODEL 4
REMARK VINA RESULT: -5.538695771      1.551      5.264
REMARK  7 active torsions:
REMARK  status: ('A' for Active; 'I' for Inactive)
REMARK    1  A    between atoms: C1_4  and  C2_5 
REMARK    2  A    between atoms: C2_5  and  N2_6 
REMARK    3  A    between atoms: N2_6  and  C3_8 
REMARK    4  A    between atoms: C3_8  and  C4_9 
REMARK    5  A    between atoms: C4_9  and  N3_10 
REMARK    6  A    between atoms: N3_10  and  C5_12 
REMARK    7  A    between atoms: C8_19  and  N6_20 
ROOT
HETATM    1  C5  UNL     1     124.712  53.730  30.904  1.00  0.00     0.149 A 
HETATM    2  N4  UNL     1     123.618  54.264  31.540  1.00  0.00    -0.348 N 
ATOM      3  H4  UNL     1     123.379  53.947  32.480  1.00  0.00     0.167 HD
HETATM    4  C6  UNL     1     122.867  55.187  30.950  1.00  0.00     0.107 A 
HETATM    5  C7  UNL     1     123.176  55.630  29.675  1.00  0.00     0.107 A 
HETATM    6  N5  UNL     1     124.232  55.120  29.052  1.00  0.00    -0.348 N 
ATOM      7  H5  UNL     1     124.462  55.445  28.113  1.00  0.00     0.167 HD
HETATM    8  C8  UNL     1     125.023  54.159  29.648  1.00  0.00     0.143 A 
ENDROOT
BRANCH   1   9
HETATM    9  N3  UNL     1     125.334  52.893  31.570  1.00  0.00    -0.348 N 
ATOM     10  H3  UNL     1     126.313  52.899  31.283  1.00  0.00     0.167 HD
BRANCH   9  11
HETATM   11  C4  UNL     1     125.158  51.940  32.580  1.00  0.00     0.106 C 
BRANCH  11  12
HETATM   12  C3  UNL     1     126.499  51.290  32.831  1.00  0.00     0.104 C 
BRANCH  12  13
HETATM   13  N2  UNL     1     127.390  51.894  33.696  1.00  0.00    -0.373 N 
ATOM     14  H2  UNL     1     127.085  52.100  34.648  1.00  0.00     0.164 HD
BRANCH  13  15
HETATM   15  C2  UNL     1     128.700  52.237  33.317  1.00  0.00     0.104 C 
BRANCH  15  16
HETATM   16  C1  UNL     1     128.775  53.091  32.083  1.00  0.00     0.097 C 
HETATM   17  N1  UNL     1     129.418  54.180  32.142  1.00  0.00    -0.407 N 
ATOM     18  H12 UNL     1     129.868  54.457  33.015  1.00  0.00     0.155 HD
ATOM     19  H11 UNL     1     129.469  54.760  31.305  1.00  0.00     0.155 HD
ENDBRANCH  15  16
ENDBRANCH  13  15
ENDBRANCH  12  13
ENDBRANCH  11  12
ENDBRANCH   9  11
ENDBRANCH   1   9
BRANCH   8  20
HETATM   20  N6  UNL     1     125.992  53.745  28.918  1.00  0.00    -0.382 N 
ATOM     21  H62 UNL     1     126.225  54.361  28.139  1.00  0.00     0.157 HD
ATOM     22  H61 UNL     1     126.515  52.876  29.036  1.00  0.00     0.157 HD
ENDBRANCH   8  20
TORSDOF 7
ENDMDL
MODEL 5
REMARK VINA RESULT: -5.523993400      1.538      5.061
REMARK  7 active torsions:
REMARK  status: ('A' for Active; 'I' for Inactive)
REMARK    1  A    between atoms: C1_4  and  C2_5 
REMARK    2  A    between atoms: C2_5  and  N2_6 
REMARK    3  A    between atoms: N2_6  and  C3_8 
REMARK    4  A    between atoms: C3_8  and  C4_9 
REMARK    5  A    between atoms: C4_9  and  N3_10 
REMARK    6  A    between atoms: N3_10  and  C5_12 
REMARK    7  A    between atoms: C8_19  and  N6_20 
ROOT
HETATM    1  C5  UNL     1     124.398  54.099  30.592  1.00  0.00     0.149 A 
HETATM    2  N4  UNL     1     123.333  54.966  30.567  1.00  0.00    -0.348 N 
ATOM      3  H4  UNL     1     122.722  55.034  31.380  1.00  0.00     0.167 HD
HETATM    4  C6  UNL     1     123.089  55.718  29.499  1.00  0.00     0.107 A 
HETATM    5  C7  UNL     1     123.909  55.639  28.387  1.00  0.00     0.107 A 
HETATM    6  N5  UNL     1     124.941  54.804  28.401  1.00  0.00    -0.348 N 
ATOM      7  H5  UNL     1     125.547  54.744  27.583  1.00  0.00     0.167 HD
HETATM    8  C8  UNL     1     125.210  54.014  29.501  1.00  0.00     0.143 A 
ENDROOT
BRANCH   1   9
HETATM    9  N3  UNL     1     124.522  53.470  31.651  1.00  0.00    -0.348 N 
ATOM     10  H3  UNL     1     125.086  54.019  32.301  1.00  0.00     0.167 HD
BRANCH   9  11
HETATM   11  C4  UNL     1     124.156  52.267  32.265  1.00  0.00     0.106 C 
BRANCH  11  12
HETATM   12  C3  UNL     1     125.404  51.425  32.396  1.00  0.00     0.104 C 
BRANCH  12  13
HETATM   13  N2  UNL     1     126.463  51.901  33.144  1.00  0.00    -0.373 N 
ATOM     14  H2  UNL     1     126.303  52.142  34.122  1.00  0.00     0.164 HD
BRANCH  13  15
HETATM   15  C2  UNL     1     127.753  52.067  32.609  1.00  0.00     0.104 C 
BRANCH  15  16
HETATM   16  C1  UNL     1     128.108  53.494  32.300  1.00  0.00     0.097 C 
HETATM   17  N1  UNL     1     129.331  53.818  32.269  1.00  0.00    -0.407 N 
ATOM     18  H12 UNL     1     130.047  53.115  32.453  1.00  0.00     0.155 HD
ATOM     19  H11 UNL     1     129.572  54.786  32.060  1.00  0.00     0.155 HD
ENDBRANCH  15  16
ENDBRANCH  13  15
ENDBRANCH  12  13
ENDBRANCH  11  12
ENDBRANCH   9  11
ENDBRANCH   1   9
BRANCH   8  20
HETATM   20  N6  UNL     1     126.223  53.241  29.361  1.00  0.00    -0.382 N 
ATOM     21  H62 UNL     1     127.089  53.722  29.115  1.00  0.00     0.157 HD
ATOM     22  H61 UNL     1     126.230  52.224  29.453  1.00  0.00     0.157 HD
ENDBRANCH   8  20
TORSDOF 7
ENDMDL
