MODEL 1
REMARK VINA RESULT: -8.419274810      0.000      0.000
REMARK  7 active torsions:
REMARK  status: ('A' for Active; 'I' for Inactive)
REMARK    1  A    between atoms: C2_2  and  C3_3 
REMARK    2  A    between atoms: C3_3  and  C4_4 
REMARK    3  A    between atoms: C3_3  and  N1_10 
REMARK    4  A    between atoms: C4_4  and  C5_5 
REMARK    5  A    between atoms: N1_10  and  C10_13 
REMARK    6  A    between atoms: C10_13  and  C11_14 
REMARK    7  A    between atoms: C14_17  and  C15_18 
ROOT
HETATM    1  C11 UNL     1     -20.576  16.559 -42.751  1.00  0.00    -0.033 A 
HETATM    2  C12 UNL     1     -20.855  16.681 -44.088  1.00  0.00     0.010 A 
HETATM    3  C13 UNL     1     -21.891  15.956 -44.621  1.00  0.00     0.016 A 
HETATM    4  C14 UNL     1     -22.663  15.107 -43.862  1.00  0.00     0.011 A 
HETATM    5  C16 UNL     1     -22.378  14.988 -42.520  1.00  0.00     0.016 A 
HETATM    6  C17 UNL     1     -21.327  15.720 -41.962  1.00  0.00     0.010 A 
ENDROOT
BRANCH   1   7
HETATM    7  C10 UNL     1     -19.456  17.326 -42.105  1.00  0.00     0.271 C 
BRANCH   7   8
HETATM    8  N1  UNL     1     -19.087  18.466 -42.893  1.00  0.00    -0.067 N 
ATOM      9  H12 UNL     1     -19.406  19.329 -42.453  1.00  0.00     0.277 HD
ATOM     10  H11 UNL     1     -19.633  18.502 -43.754  1.00  0.00     0.277 HD
BRANCH   8  11
HETATM   11  C3  UNL     1     -17.661  18.531 -43.183  1.00  0.00     0.186 C 
BRANCH  11  12
HETATM   12  C2  UNL     1     -17.011  17.188 -42.983  1.00  0.00     0.028 C 
HETATM   13  C1  UNL     1     -15.626  17.335 -42.346  1.00  0.00     0.007 C 
ENDBRANCH  11  12
BRANCH  11  14
HETATM   14  C4  UNL     1     -17.313  19.251 -44.414  1.00  0.00     0.037 C 
BRANCH  14  15
HETATM   15  C5  UNL     1     -17.023  18.551 -45.658  1.00  0.00    -0.013 C 
HETATM   16  C6  UNL     1     -15.905  18.904 -46.533  1.00  0.00     0.005 C 
HETATM   17  C7  UNL     1     -16.308  18.538 -47.951  1.00  0.00     0.000 C 
HETATM   18  C8  UNL     1     -17.787  18.364 -47.943  1.00  0.00     0.000 C 
HETATM   19  C9  UNL     1     -18.242  18.752 -46.587  1.00  0.00     0.005 C 
ENDBRANCH  14  15
ENDBRANCH  11  14
ENDBRANCH   8  11
ENDBRANCH   7   8
ENDBRANCH   1   7
BRANCH   4  20
HETATM   20  C15 UNL     1     -23.764  14.343 -44.460  1.00  0.00     0.147 A 
HETATM   21  N2  UNL     1     -23.711  13.561 -45.534  1.00  0.00    -0.268 N 
HETATM   22  N3  UNL     1     -24.933  13.074 -45.715  1.00  0.00    -0.227 N 
ATOM     23  H2  UNL     1     -22.890  13.372 -46.110  1.00  0.00     0.190 HD
HETATM   24  N4  UNL     1     -25.737  13.533 -44.781  1.00  0.00    -0.227 N 
ATOM     25  H3  UNL     1     -25.207  12.439 -46.465  1.00  0.00     0.210 HD
HETATM   26  N5  UNL     1     -25.031  14.322 -43.994  1.00  0.00    -0.268 N 
ATOM     27  H4  UNL     1     -26.730  13.316 -44.683  1.00  0.00     0.210 HD
ATOM     28  H5  UNL     1     -25.380  14.827 -43.178  1.00  0.00     0.190 HD
ENDBRANCH   4  20
TORSDOF 7
ENDMDL
MODEL 2
REMARK VINA RESULT: -8.148381782      1.199      3.233
REMARK  7 active torsions:
REMARK  status: ('A' for Active; 'I' for Inactive)
REMARK    1  A    between atoms: C2_2  and  C3_3 
REMARK    2  A    between atoms: C3_3  and  C4_4 
REMARK    3  A    between atoms: C3_3  and  N1_10 
REMARK    4  A    between atoms: C4_4  and  C5_5 
REMARK    5  A    between atoms: N1_10  and  C10_13 
REMARK    6  A    between atoms: C10_13  and  C11_14 
REMARK    7  A    between atoms: C14_17  and  C15_18 
ROOT
HETATM    1  C11 UNL     1     -20.509  16.744 -42.835  1.00  0.00    -0.033 A 
HETATM    2  C12 UNL     1     -20.902  16.923 -44.135  1.00  0.00     0.010 A 
HETATM    3  C13 UNL     1     -21.931  16.162 -44.631  1.00  0.00     0.016 A 
HETATM    4  C14 UNL     1     -22.584  15.220 -43.868  1.00  0.00     0.011 A 
HETATM    5  C16 UNL     1     -22.184  15.044 -42.563  1.00  0.00     0.016 A 
HETATM    6  C17 UNL     1     -21.139  15.812 -42.043  1.00  0.00     0.010 A 
ENDROOT
BRANCH   1   7
HETATM    7  C10 UNL     1     -19.390  17.545 -42.230  1.00  0.00     0.271 C 
BRANCH   7   8
HETATM    8  N1  UNL     1     -18.619  18.204 -43.244  1.00  0.00    -0.067 N 
ATOM      9  H12 UNL     1     -18.263  19.098 -42.905  1.00  0.00     0.277 HD
ATOM     10  H11 UNL     1     -19.221  18.536 -43.998  1.00  0.00     0.277 HD
BRANCH   8  11
HETATM   11  C3  UNL     1     -17.536  17.384 -43.771  1.00  0.00     0.186 C 
BRANCH  11  12
HETATM   12  C2  UNL     1     -16.904  18.037 -44.971  1.00  0.00     0.028 C 
HETATM   13  C1  UNL     1     -17.228  19.533 -45.021  1.00  0.00     0.007 C 
ENDBRANCH  11  12
BRANCH  11  14
HETATM   14  C4  UNL     1     -16.619  16.847 -42.759  1.00  0.00     0.037 C 
BRANCH  14  15
HETATM   15  C5  UNL     1     -15.358  17.502 -42.439  1.00  0.00    -0.013 C 
HETATM   16  C6  UNL     1     -14.052  16.883 -42.670  1.00  0.00     0.005 C 
HETATM   17  C7  UNL     1     -13.097  17.441 -41.629  1.00  0.00     0.000 C 
HETATM   18  C8  UNL     1     -13.937  18.052 -40.562  1.00  0.00     0.000 C 
HETATM   19  C9  UNL     1     -15.343  17.737 -40.911  1.00  0.00     0.005 C 
ENDBRANCH  14  15
ENDBRANCH  11  14
ENDBRANCH   8  11
ENDBRANCH   7   8
ENDBRANCH   1   7
BRANCH   4  20
HETATM   20  C15 UNL     1     -23.680  14.419 -44.426  1.00  0.00     0.147 A 
HETATM   21  N2  UNL     1     -23.620  13.577 -45.453  1.00  0.00    -0.268 N 
HETATM   22  N3  UNL     1     -24.841  13.076 -45.610  1.00  0.00    -0.227 N 
ATOM     23  H2  UNL     1     -22.797  13.358 -46.014  1.00  0.00     0.190 HD
HETATM   24  N4  UNL     1     -25.650  13.585 -44.708  1.00  0.00    -0.227 N 
ATOM     25  H3  UNL     1     -25.109  12.399 -46.323  1.00  0.00     0.210 HD
HETATM   26  N5  UNL     1     -24.949  14.421 -43.964  1.00  0.00    -0.268 N 
ATOM     27  H4  UNL     1     -26.642  13.371 -44.601  1.00  0.00     0.210 HD
ATOM     28  H5  UNL     1     -25.303  14.971 -43.180  1.00  0.00     0.190 HD
ENDBRANCH   4  20
TORSDOF 7
ENDMDL
MODEL 3
REMARK VINA RESULT: -7.816265215      2.871      4.447
REMARK  7 active torsions:
REMARK  status: ('A' for Active; 'I' for Inactive)
REMARK    1  A    between atoms: C2_2  and  C3_3 
REMARK    2  A    between atoms: C3_3  and  C4_4 
REMARK    3  A    between atoms: C3_3  and  N1_10 
REMARK    4  A    between atoms: C4_4  and  C5_5 
REMARK    5  A    between atoms: N1_10  and  C10_13 
REMARK    6  A    between atoms: C10_13  and  C11_14 
REMARK    7  A    between atoms: C14_17  and  C15_18 
ROOT
HETATM    1  C11 UNL     1     -17.580  18.096 -45.003  1.00  0.00    -0.033 A 
HETATM    2  C12 UNL     1     -18.738  18.018 -45.732  1.00  0.00     0.010 A 
HETATM    3  C13 UNL     1     -19.797  17.308 -45.225  1.00  0.00     0.016 A 
HETATM    4  C14 UNL     1     -19.740  16.667 -44.007  1.00  0.00     0.011 A 
HETATM    5  C16 UNL     1     -18.574  16.749 -43.281  1.00  0.00     0.016 A 
HETATM    6  C17 UNL     1     -17.487  17.469 -43.783  1.00  0.00     0.010 A 
ENDROOT
BRANCH   1   7
HETATM    7  C10 UNL     1     -16.384  18.859 -45.500  1.00  0.00     0.271 C 
BRANCH   7   8
HETATM    8  N1  UNL     1     -16.431  19.025 -46.924  1.00  0.00    -0.067 N 
ATOM      9  H12 UNL     1     -17.380  19.238 -47.232  1.00  0.00     0.277 HD
ATOM     10  H11 UNL     1     -16.297  18.130 -47.397  1.00  0.00     0.277 HD
BRANCH   8  11
HETATM   11  C3  UNL     1     -15.491  20.018 -47.422  1.00  0.00     0.186 C 
BRANCH  11  12
HETATM   12  C2  UNL     1     -14.415  19.371 -48.252  1.00  0.00     0.028 C 
HETATM   13  C1  UNL     1     -13.030  19.909 -47.879  1.00  0.00     0.007 C 
ENDBRANCH  11  12
BRANCH  11  14
HETATM   14  C4  UNL     1     -16.108  21.228 -47.979  1.00  0.00     0.037 C 
BRANCH  14  15
HETATM   15  C5  UNL     1     -17.408  21.706 -47.528  1.00  0.00    -0.013 C 
HETATM   16  C6  UNL     1     -18.671  21.072 -47.908  1.00  0.00     0.005 C 
HETATM   17  C7  UNL     1     -19.737  22.154 -47.908  1.00  0.00     0.000 C 
HETATM   18  C8  UNL     1     -19.022  23.459 -47.933  1.00  0.00     0.000 C 
HETATM   19  C9  UNL     1     -17.581  23.139 -48.080  1.00  0.00     0.005 C 
ENDBRANCH  14  15
ENDBRANCH  11  14
ENDBRANCH   8  11
ENDBRANCH   7   8
ENDBRANCH   1   7
BRANCH   4  20
HETATM   20  C15 UNL     1     -20.888  15.913 -43.492  1.00  0.00     0.147 A 
HETATM   21  N2  UNL     1     -22.081  15.771 -44.063  1.00  0.00    -0.268 N 
HETATM   22  N3  UNL     1     -22.808  15.014 -43.249  1.00  0.00    -0.227 N 
ATOM     23  H2  UNL     1     -22.380  16.167 -44.954  1.00  0.00     0.190 HD
HETATM   24  N4  UNL     1     -22.097  14.685 -42.194  1.00  0.00    -0.227 N 
ATOM     25  H3  UNL     1     -23.773  14.730 -43.418  1.00  0.00     0.210 HD
HETATM   26  N5  UNL     1     -20.903  15.234 -42.325  1.00  0.00    -0.268 N 
ATOM     27  H4  UNL     1     -22.412  14.108 -41.413  1.00  0.00     0.210 HD
ATOM     28  H5  UNL     1     -20.130  15.158 -41.663  1.00  0.00     0.190 HD
ENDBRANCH   4  20
TORSDOF 7
ENDMDL
MODEL 4
REMARK VINA RESULT: -7.810061097      4.328      8.843
REMARK  7 active torsions:
REMARK  status: ('A' for Active; 'I' for Inactive)
REMARK    1  A    between atoms: C2_2  and  C3_3 
REMARK    2  A    between atoms: C3_3  and  C4_4 
REMARK    3  A    between atoms: C3_3  and  N1_10 
REMARK    4  A    between atoms: C4_4  and  C5_5 
REMARK    5  A    between atoms: N1_10  and  C10_13 
REMARK    6  A    between atoms: C10_13  and  C11_14 
REMARK    7  A    between atoms: C14_17  and  C15_18 
ROOT
HETATM    1  C11 UNL     1     -16.627  19.488 -46.567  1.00  0.00    -0.033 A 
HETATM    2  C12 UNL     1     -17.626  20.426 -46.576  1.00  0.00     0.010 A 
HETATM    3  C13 UNL     1     -17.383  21.652 -47.141  1.00  0.00     0.016 A 
HETATM    4  C14 UNL     1     -16.168  21.978 -47.701  1.00  0.00     0.011 A 
HETATM    5  C16 UNL     1     -15.168  21.032 -47.689  1.00  0.00     0.016 A 
HETATM    6  C17 UNL     1     -15.400  19.778 -47.118  1.00  0.00     0.010 A 
ENDROOT
BRANCH   1   7
HETATM    7  C10 UNL     1     -16.827  18.125 -45.966  1.00  0.00     0.271 C 
BRANCH   7   8
HETATM    8  N1  UNL     1     -18.034  18.074 -45.191  1.00  0.00    -0.067 N 
ATOM      9  H12 UNL     1     -18.781  17.618 -45.714  1.00  0.00     0.277 HD
ATOM     10  H11 UNL     1     -18.440  19.005 -45.093  1.00  0.00     0.277 HD
BRANCH   8  11
HETATM   11  C3  UNL     1     -17.858  17.447 -43.888  1.00  0.00     0.186 C 
BRANCH  11  12
HETATM   12  C2  UNL     1     -16.753  18.114 -43.116  1.00  0.00     0.028 C 
HETATM   13  C1  UNL     1     -15.878  17.081 -42.399  1.00  0.00     0.007 C 
ENDBRANCH  11  12
BRANCH  11  14
HETATM   14  C4  UNL     1     -19.103  17.186 -43.156  1.00  0.00     0.037 C 
BRANCH  14  15
HETATM   15  C5  UNL     1     -19.903  15.993 -43.399  1.00  0.00    -0.013 C 
HETATM   16  C6  UNL     1     -20.748  15.821 -44.581  1.00  0.00     0.005 C 
HETATM   17  C7  UNL     1     -21.904  14.919 -44.182  1.00  0.00     0.000 C 
HETATM   18  C8  UNL     1     -21.946  14.912 -42.694  1.00  0.00     0.000 C 
HETATM   19  C9  UNL     1     -20.927  15.890 -42.245  1.00  0.00     0.005 C 
ENDBRANCH  14  15
ENDBRANCH  11  14
ENDBRANCH   8  11
ENDBRANCH   7   8
ENDBRANCH   1   7
BRANCH   4  20
HETATM   20  C15 UNL     1     -15.937  23.299 -48.297  1.00  0.00     0.147 A 
HETATM   21  N2  UNL     1     -16.853  24.199 -48.640  1.00  0.00    -0.268 N 
HETATM   22  N3  UNL     1     -16.198  25.242 -49.139  1.00  0.00    -0.227 N 
ATOM     23  H2  UNL     1     -17.864  24.108 -48.540  1.00  0.00     0.190 HD
HETATM   24  N4  UNL     1     -14.905  25.009 -49.112  1.00  0.00    -0.227 N 
ATOM     25  H3  UNL     1     -16.634  26.094 -49.491  1.00  0.00     0.210 HD
HETATM   26  N5  UNL     1     -14.722  23.809 -48.594  1.00  0.00    -0.268 N 
ATOM     27  H4  UNL     1     -14.173  25.644 -49.434  1.00  0.00     0.210 HD
ATOM     28  H5  UNL     1     -13.824  23.348 -48.444  1.00  0.00     0.190 HD
ENDBRANCH   4  20
TORSDOF 7
ENDMDL
MODEL 5
REMARK VINA RESULT: -7.802829392      3.453      4.906
REMARK  7 active torsions:
REMARK  status: ('A' for Active; 'I' for Inactive)
REMARK    1  A    between atoms: C2_2  and  C3_3 
REMARK    2  A    between atoms: C3_3  and  C4_4 
REMARK    3  A    between atoms: C3_3  and  N1_10 
REMARK    4  A    between atoms: C4_4  and  C5_5 
REMARK    5  A    between atoms: N1_10  and  C10_13 
REMARK    6  A    between atoms: C10_13  and  C11_14 
REMARK    7  A    between atoms: C14_17  and  C15_18 
ROOT
HETATM    1  C11 UNL     1     -17.590  18.274 -45.196  1.00  0.00    -0.033 A 
HETATM    2  C12 UNL     1     -18.758  18.148 -45.903  1.00  0.00     0.010 A 
HETATM    3  C13 UNL     1     -19.778  17.397 -45.374  1.00  0.00     0.016 A 
HETATM    4  C14 UNL     1     -19.672  16.763 -44.157  1.00  0.00     0.011 A 
HETATM    5  C16 UNL     1     -18.497  16.893 -43.452  1.00  0.00     0.016 A 
HETATM    6  C17 UNL     1     -17.449  17.654 -43.977  1.00  0.00     0.010 A 
ENDROOT
BRANCH   1   7
HETATM    7  C10 UNL     1     -16.435  19.082 -45.718  1.00  0.00     0.271 C 
BRANCH   7   8
HETATM    8  N1  UNL     1     -16.627  19.430 -47.096  1.00  0.00    -0.067 N 
ATOM      9  H12 UNL     1     -17.591  19.719 -47.265  1.00  0.00     0.277 HD
ATOM     10  H11 UNL     1     -16.594  18.598 -47.687  1.00  0.00     0.277 HD
BRANCH   8  11
HETATM   11  C3  UNL     1     -15.693  20.440 -47.573  1.00  0.00     0.186 C 
BRANCH  11  12
HETATM   12  C2  UNL     1     -14.729  19.852 -48.568  1.00  0.00     0.028 C 
HETATM   13  C1  UNL     1     -13.301  19.843 -48.014  1.00  0.00     0.007 C 
ENDBRANCH  11  12
BRANCH  11  14
HETATM   14  C4  UNL     1     -16.305  21.725 -47.934  1.00  0.00     0.037 C 
BRANCH  14  15
HETATM   15  C5  UNL     1     -15.807  22.529 -49.042  1.00  0.00    -0.013 C 
HETATM   16  C6  UNL     1     -14.696  23.472 -48.911  1.00  0.00     0.005 C 
HETATM   17  C7  UNL     1     -14.922  24.580 -49.927  1.00  0.00     0.000 C 
HETATM   18  C8  UNL     1     -16.348  24.492 -50.344  1.00  0.00     0.000 C 
HETATM   19  C9  UNL     1     -16.966  23.448 -49.492  1.00  0.00     0.005 C 
ENDBRANCH  14  15
ENDBRANCH  11  14
ENDBRANCH   8  11
ENDBRANCH   7   8
ENDBRANCH   1   7
BRANCH   4  20
HETATM   20  C15 UNL     1     -20.780  15.966 -43.618  1.00  0.00     0.147 A 
HETATM   21  N2  UNL     1     -21.983  15.792 -44.155  1.00  0.00    -0.268 N 
HETATM   22  N3  UNL     1     -22.661  15.001 -43.331  1.00  0.00    -0.227 N 
ATOM     23  H2  UNL     1     -22.322  16.189 -45.032  1.00  0.00     0.190 HD
HETATM   24  N4  UNL     1     -21.909  14.683 -42.301  1.00  0.00    -0.227 N 
ATOM     25  H3  UNL     1     -23.621  14.688 -43.475  1.00  0.00     0.210 HD
HETATM   26  N5  UNL     1     -20.738  15.272 -42.460  1.00  0.00    -0.268 N 
ATOM     27  H4  UNL     1     -22.181  14.086 -41.519  1.00  0.00     0.210 HD
ATOM     28  H5  UNL     1     -19.943  15.214 -41.822  1.00  0.00     0.190 HD
ENDBRANCH   4  20
TORSDOF 7
ENDMDL
