MODEL 1
REMARK VINA RESULT: -7.544230467      0.000      0.000
REMARK  9 active torsions:
REMARK  status: ('A' for Active; 'I' for Inactive)
REMARK    1  A    between atoms: C2_2  and  C4_4 
REMARK    2  A    between atoms: C4_4  and  O1_5 
REMARK    3  A    between atoms: O1_5  and  C5_6 
REMARK    4  A    between atoms: C5_6  and  N1_7 
REMARK    5  A    between atoms: C5_6  and  C14_21 
REMARK    6  A    between atoms: N1_7  and  C6_9 
REMARK    7  A    between atoms: C6_9  and  C7_10 
REMARK    8  A    between atoms: C7_10  and  N2_11 
REMARK    9  A    between atoms: C7_10  and  C8_15 
ROOT
HETATM    1  N1  UNL     1     -16.504  18.080 -45.689  1.00  0.00    -0.374 N 
ATOM      2  H1  UNL     1     -17.181  17.474 -46.153  1.00  0.00     0.161 HD
ENDROOT
BRANCH   1   3
HETATM    3  C5  UNL     1     -16.021  19.208 -46.382  1.00  0.00     0.224 C 
BRANCH   3   4
HETATM    4  O1  UNL     1     -14.968  18.823 -47.273  1.00  0.00    -0.366 OA
BRANCH   4   5
HETATM    5  C4  UNL     1     -13.935  19.727 -47.139  1.00  0.00     0.174 C 
BRANCH   5   6
HETATM    6  C2  UNL     1     -13.618  20.512 -48.367  1.00  0.00     0.001 C 
HETATM    7  C1  UNL     1     -14.188  21.894 -48.374  1.00  0.00     0.011 C 
HETATM    8  C3  UNL     1     -14.006  19.695 -49.586  1.00  0.00     0.011 C 
ENDBRANCH   5   6
ENDBRANCH   4   5
ENDBRANCH   3   4
BRANCH   3   9
HETATM    9  C14 UNL     1     -16.951  20.074 -47.135  1.00  0.00     0.034 C 
HETATM   10  C15 UNL     1     -17.545  21.255 -46.478  1.00  0.00     0.009 C 
HETATM   11  C16 UNL     1     -18.075  22.137 -47.634  1.00  0.00     0.001 C 
HETATM   12  C17 UNL     1     -19.349  21.471 -48.110  1.00  0.00     0.000 C 
HETATM   13  C18 UNL     1     -19.393  19.998 -47.791  1.00  0.00     0.001 C 
HETATM   14  C19 UNL     1     -18.081  19.301 -47.794  1.00  0.00     0.009 C 
ENDBRANCH   3   9
ENDBRANCH   1   3
BRANCH   1  15
HETATM   15  C6  UNL     1     -16.093  17.758 -44.398  1.00  0.00     0.095 C 
BRANCH  15  16
HETATM   16  C7  UNL     1     -17.176  17.959 -43.337  1.00  0.00     0.254 C 
BRANCH  16  17
HETATM   17  N2  UNL     1     -17.425  19.408 -43.324  1.00  0.00    -0.066 N 
ATOM     18  H23 UNL     1     -18.377  19.663 -43.062  1.00  0.00     0.275 HD
ATOM     19  H22 UNL     1     -16.959  19.901 -42.563  1.00  0.00     0.275 HD
ATOM     20  H21 UNL     1     -17.151  19.727 -44.253  1.00  0.00     0.275 HD
ENDBRANCH  16  17
BRANCH  16  21
HETATM   21  C8  UNL     1     -18.440  17.326 -43.752  1.00  0.00    -0.023 A 
HETATM   22  C9  UNL     1     -19.217  17.762 -44.790  1.00  0.00     0.009 A 
HETATM   23  C10 UNL     1     -20.405  17.161 -45.160  1.00  0.00     0.001 A 
HETATM   24  C11 UNL     1     -20.809  16.055 -44.420  1.00  0.00     0.000 A 
HETATM   25  C12 UNL     1     -20.045  15.598 -43.373  1.00  0.00     0.001 A 
HETATM   26  C13 UNL     1     -18.873  16.220 -43.036  1.00  0.00     0.009 A 
ENDBRANCH  16  21
ENDBRANCH  15  16
ENDBRANCH   1  15
TORSDOF 9
ENDMDL
MODEL 2
REMARK VINA RESULT: -7.486535804      3.229      6.735
REMARK  9 active torsions:
REMARK  status: ('A' for Active; 'I' for Inactive)
REMARK    1  A    between atoms: C2_2  and  C4_4 
REMARK    2  A    between atoms: C4_4  and  O1_5 
REMARK    3  A    between atoms: O1_5  and  C5_6 
REMARK    4  A    between atoms: C5_6  and  N1_7 
REMARK    5  A    between atoms: C5_6  and  C14_21 
REMARK    6  A    between atoms: N1_7  and  C6_9 
REMARK    7  A    between atoms: C6_9  and  C7_10 
REMARK    8  A    between atoms: C7_10  and  N2_11 
REMARK    9  A    between atoms: C7_10  and  C8_15 
ROOT
HETATM    1  N1  UNL     1     -17.247  23.308 -48.403  1.00  0.00    -0.374 N 
ATOM      2  H1  UNL     1     -17.124  24.215 -47.953  1.00  0.00     0.161 HD
ENDROOT
BRANCH   1   3
HETATM    3  C5  UNL     1     -18.087  22.357 -47.790  1.00  0.00     0.224 C 
BRANCH   3   4
HETATM    4  O1  UNL     1     -19.345  22.301 -48.474  1.00  0.00    -0.366 OA
BRANCH   4   5
HETATM    5  C4  UNL     1     -19.934  23.545 -48.400  1.00  0.00     0.174 C 
BRANCH   5   6
HETATM    6  C2  UNL     1     -20.802  23.764 -47.207  1.00  0.00     0.001 C 
HETATM    7  C1  UNL     1     -22.258  23.541 -47.462  1.00  0.00     0.011 C 
HETATM    8  C3  UNL     1     -20.497  25.130 -46.621  1.00  0.00     0.011 C 
ENDBRANCH   5   6
ENDBRANCH   4   5
ENDBRANCH   3   4
BRANCH   3   9
HETATM    9  C14 UNL     1     -17.622  20.969 -47.593  1.00  0.00     0.034 C 
HETATM   10  C15 UNL     1     -18.556  19.847 -47.808  1.00  0.00     0.009 C 
HETATM   11  C16 UNL     1     -17.659  18.595 -47.953  1.00  0.00     0.001 C 
HETATM   12  C17 UNL     1     -17.202  18.251 -46.551  1.00  0.00     0.000 C 
HETATM   13  C18 UNL     1     -17.230  19.436 -45.620  1.00  0.00     0.001 C 
HETATM   14  C19 UNL     1     -16.950  20.753 -46.247  1.00  0.00     0.009 C 
ENDBRANCH   3   9
ENDBRANCH   1   3
BRANCH   1  15
HETATM   15  C6  UNL     1     -16.576  23.058 -49.598  1.00  0.00     0.095 C 
BRANCH  15  16
HETATM   16  C7  UNL     1     -15.053  23.093 -49.471  1.00  0.00     0.254 C 
BRANCH  16  17
HETATM   17  N2  UNL     1     -14.790  24.012 -48.355  1.00  0.00    -0.066 N 
ATOM     18  H23 UNL     1     -15.616  24.512 -48.026  1.00  0.00     0.275 HD
ATOM     19  H22 UNL     1     -14.580  23.544 -47.473  1.00  0.00     0.275 HD
ATOM     20  H21 UNL     1     -14.043  24.621 -48.689  1.00  0.00     0.275 HD
ENDBRANCH  16  17
BRANCH  16  21
HETATM   21  C8  UNL     1     -14.531  21.779 -49.056  1.00  0.00    -0.023 A 
HETATM   22  C9  UNL     1     -14.655  20.632 -49.792  1.00  0.00     0.009 A 
HETATM   23  C10 UNL     1     -14.167  19.406 -49.382  1.00  0.00     0.001 A 
HETATM   24  C11 UNL     1     -13.519  19.363 -48.153  1.00  0.00     0.000 A 
HETATM   25  C12 UNL     1     -13.381  20.503 -47.396  1.00  0.00     0.001 A 
HETATM   26  C13 UNL     1     -13.878  21.700 -47.835  1.00  0.00     0.009 A 
ENDBRANCH  16  21
ENDBRANCH  15  16
ENDBRANCH   1  15
TORSDOF 9
ENDMDL
MODEL 3
REMARK VINA RESULT: -7.472912788      1.238      2.134
REMARK  9 active torsions:
REMARK  status: ('A' for Active; 'I' for Inactive)
REMARK    1  A    between atoms: C2_2  and  C4_4 
REMARK    2  A    between atoms: C4_4  and  O1_5 
REMARK    3  A    between atoms: O1_5  and  C5_6 
REMARK    4  A    between atoms: C5_6  and  N1_7 
REMARK    5  A    between atoms: C5_6  and  C14_21 
REMARK    6  A    between atoms: N1_7  and  C6_9 
REMARK    7  A    between atoms: C6_9  and  C7_10 
REMARK    8  A    between atoms: C7_10  and  N2_11 
REMARK    9  A    between atoms: C7_10  and  C8_15 
ROOT
HETATM    1  N1  UNL     1     -17.069  19.862 -45.426  1.00  0.00    -0.374 N 
ATOM      2  H1  UNL     1     -16.758  20.273 -44.546  1.00  0.00     0.161 HD
ENDROOT
BRANCH   1   3
HETATM    3  C5  UNL     1     -16.700  20.489 -46.633  1.00  0.00     0.224 C 
BRANCH   3   4
HETATM    4  O1  UNL     1     -16.580  19.513 -47.676  1.00  0.00    -0.366 OA
BRANCH   4   5
HETATM    5  C4  UNL     1     -15.277  19.066 -47.703  1.00  0.00     0.174 C 
BRANCH   5   6
HETATM    6  C2  UNL     1     -14.297  20.008 -48.317  1.00  0.00     0.001 C 
HETATM    7  C1  UNL     1     -13.994  19.726 -49.753  1.00  0.00     0.011 C 
HETATM    8  C3  UNL     1     -13.059  20.068 -47.442  1.00  0.00     0.011 C 
ENDBRANCH   5   6
ENDBRANCH   4   5
ENDBRANCH   3   4
BRANCH   3   9
HETATM    9  C14 UNL     1     -17.497  21.614 -47.161  1.00  0.00     0.034 C 
HETATM   10  C15 UNL     1     -18.708  21.342 -47.959  1.00  0.00     0.009 C 
HETATM   11  C16 UNL     1     -19.501  22.670 -47.958  1.00  0.00     0.001 C 
HETATM   12  C17 UNL     1     -18.782  23.580 -48.932  1.00  0.00     0.000 C 
HETATM   13  C18 UNL     1     -17.334  23.208 -49.119  1.00  0.00     0.001 C 
HETATM   14  C19 UNL     1     -16.661  22.625 -47.930  1.00  0.00     0.009 C 
ENDBRANCH   3   9
ENDBRANCH   1   3
BRANCH   1  15
HETATM   15  C6  UNL     1     -17.842  18.703 -45.386  1.00  0.00     0.095 C 
BRANCH  15  16
HETATM   16  C7  UNL     1     -17.890  18.039 -44.010  1.00  0.00     0.254 C 
BRANCH  16  17
HETATM   17  N2  UNL     1     -17.902  19.156 -43.055  1.00  0.00    -0.066 N 
ATOM     18  H23 UNL     1     -17.372  19.971 -43.362  1.00  0.00     0.275 HD
ATOM     19  H22 UNL     1     -18.804  19.627 -42.979  1.00  0.00     0.275 HD
ATOM     20  H21 UNL     1     -17.571  18.752 -42.178  1.00  0.00     0.275 HD
ENDBRANCH  16  17
BRANCH  16  21
HETATM   21  C8  UNL     1     -19.161  17.318 -43.820  1.00  0.00    -0.023 A 
HETATM   22  C9  UNL     1     -19.562  16.759 -42.637  1.00  0.00     0.009 A 
HETATM   23  C10 UNL     1     -20.754  16.079 -42.480  1.00  0.00     0.001 A 
HETATM   24  C11 UNL     1     -21.571  15.971 -43.599  1.00  0.00     0.000 A 
HETATM   25  C12 UNL     1     -21.190  16.525 -44.799  1.00  0.00     0.001 A 
HETATM   26  C13 UNL     1     -20.001  17.193 -44.916  1.00  0.00     0.009 A 
ENDBRANCH  16  21
ENDBRANCH  15  16
ENDBRANCH   1  15
TORSDOF 9
ENDMDL
MODEL 4
REMARK VINA RESULT: -7.415145836      1.282      1.961
REMARK  9 active torsions:
REMARK  status: ('A' for Active; 'I' for Inactive)
REMARK    1  A    between atoms: C2_2  and  C4_4 
REMARK    2  A    between atoms: C4_4  and  O1_5 
REMARK    3  A    between atoms: O1_5  and  C5_6 
REMARK    4  A    between atoms: C5_6  and  N1_7 
REMARK    5  A    between atoms: C5_6  and  C14_21 
REMARK    6  A    between atoms: N1_7  and  C6_9 
REMARK    7  A    between atoms: C6_9  and  C7_10 
REMARK    8  A    between atoms: C7_10  and  N2_11 
REMARK    9  A    between atoms: C7_10  and  C8_15 
ROOT
HETATM    1  N1  UNL     1     -17.057  19.912 -45.494  1.00  0.00    -0.374 N 
ATOM      2  H1  UNL     1     -16.689  20.280 -44.617  1.00  0.00     0.161 HD
ENDROOT
BRANCH   1   3
HETATM    3  C5  UNL     1     -16.692  20.546 -46.698  1.00  0.00     0.224 C 
BRANCH   3   4
HETATM    4  O1  UNL     1     -16.584  19.579 -47.750  1.00  0.00    -0.366 OA
BRANCH   4   5
HETATM    5  C4  UNL     1     -15.289  19.106 -47.773  1.00  0.00     0.174 C 
BRANCH   5   6
HETATM    6  C2  UNL     1     -14.286  20.040 -48.360  1.00  0.00     0.001 C 
HETATM    7  C1  UNL     1     -13.983  19.785 -49.801  1.00  0.00     0.011 C 
HETATM    8  C3  UNL     1     -13.050  20.051 -47.479  1.00  0.00     0.011 C 
ENDBRANCH   5   6
ENDBRANCH   4   5
ENDBRANCH   3   4
BRANCH   3   9
HETATM    9  C14 UNL     1     -17.486  21.681 -47.213  1.00  0.00     0.034 C 
HETATM   10  C15 UNL     1     -18.721  21.421 -47.978  1.00  0.00     0.009 C 
HETATM   11  C16 UNL     1     -19.495  22.761 -47.964  1.00  0.00     0.001 C 
HETATM   12  C17 UNL     1     -18.788  23.655 -48.962  1.00  0.00     0.000 C 
HETATM   13  C18 UNL     1     -17.351  23.260 -49.185  1.00  0.00     0.001 C 
HETATM   14  C19 UNL     1     -16.656  22.674 -48.010  1.00  0.00     0.009 C 
ENDBRANCH   3   9
ENDBRANCH   1   3
BRANCH   1  15
HETATM   15  C6  UNL     1     -17.900  18.804 -45.454  1.00  0.00     0.095 C 
BRANCH  15  16
HETATM   16  C7  UNL     1     -17.917  18.088 -44.104  1.00  0.00     0.254 C 
BRANCH  16  17
HETATM   17  N2  UNL     1     -17.895  19.168 -43.106  1.00  0.00    -0.066 N 
ATOM     18  H23 UNL     1     -17.908  18.840 -42.140  1.00  0.00     0.275 HD
ATOM     19  H22 UNL     1     -17.004  19.661 -43.049  1.00  0.00     0.275 HD
ATOM     20  H21 UNL     1     -18.684  19.765 -43.352  1.00  0.00     0.275 HD
ENDBRANCH  16  17
BRANCH  16  21
HETATM   21  C8  UNL     1     -19.187  17.369 -43.907  1.00  0.00    -0.023 A 
HETATM   22  C9  UNL     1     -20.084  17.100 -44.904  1.00  0.00     0.009 A 
HETATM   23  C10 UNL     1     -21.276  16.431 -44.699  1.00  0.00     0.001 A 
HETATM   24  C11 UNL     1     -21.554  16.021 -43.400  1.00  0.00     0.000 A 
HETATM   25  C12 UNL     1     -20.667  16.280 -42.381  1.00  0.00     0.001 A 
HETATM   26  C13 UNL     1     -19.496  16.945 -42.623  1.00  0.00     0.009 A 
ENDBRANCH  16  21
ENDBRANCH  15  16
ENDBRANCH   1  15
TORSDOF 9
ENDMDL
MODEL 5
REMARK VINA RESULT: -7.400764405      2.426      6.491
REMARK  9 active torsions:
REMARK  status: ('A' for Active; 'I' for Inactive)
REMARK    1  A    between atoms: C2_2  and  C4_4 
REMARK    2  A    between atoms: C4_4  and  O1_5 
REMARK    3  A    between atoms: O1_5  and  C5_6 
REMARK    4  A    between atoms: C5_6  and  N1_7 
REMARK    5  A    between atoms: C5_6  and  C14_21 
REMARK    6  A    between atoms: N1_7  and  C6_9 
REMARK    7  A    between atoms: C6_9  and  C7_10 
REMARK    8  A    between atoms: C7_10  and  N2_11 
REMARK    9  A    between atoms: C7_10  and  C8_15 
ROOT
HETATM    1  N1  UNL     1     -17.143  22.408 -47.529  1.00  0.00    -0.374 N 
ATOM      2  H1  UNL     1     -16.826  23.097 -46.847  1.00  0.00     0.161 HD
ENDROOT
BRANCH   1   3
HETATM    3  C5  UNL     1     -17.769  21.235 -47.063  1.00  0.00     0.224 C 
BRANCH   3   4
HETATM    4  O1  UNL     1     -18.504  20.616 -48.127  1.00  0.00    -0.366 OA
BRANCH   4   5
HETATM    5  C4  UNL     1     -19.842  20.629 -47.794  1.00  0.00     0.174 C 
BRANCH   5   6
HETATM    6  C2  UNL     1     -20.571  19.355 -48.055  1.00  0.00     0.001 C 
HETATM    7  C1  UNL     1     -22.045  19.521 -48.245  1.00  0.00     0.011 C 
HETATM    8  C3  UNL     1     -20.214  18.354 -46.972  1.00  0.00     0.011 C 
ENDBRANCH   5   6
ENDBRANCH   4   5
ENDBRANCH   3   4
BRANCH   3   9
HETATM    9  C14 UNL     1     -16.978  20.183 -46.394  1.00  0.00     0.034 C 
HETATM   10  C15 UNL     1     -16.829  18.861 -47.034  1.00  0.00     0.009 C 
HETATM   11  C16 UNL     1     -15.627  18.199 -46.319  1.00  0.00     0.001 C 
HETATM   12  C17 UNL     1     -16.148  17.746 -44.971  1.00  0.00     0.000 C 
HETATM   13  C18 UNL     1     -17.354  18.528 -44.518  1.00  0.00     0.001 C 
HETATM   14  C19 UNL     1     -17.400  19.948 -44.953  1.00  0.00     0.009 C 
ENDBRANCH   3   9
ENDBRANCH   1   3
BRANCH   1  15
HETATM   15  C6  UNL     1     -16.938  22.664 -48.883  1.00  0.00     0.095 C 
BRANCH  15  16
HETATM   16  C7  UNL     1     -15.471  22.873 -49.257  1.00  0.00     0.254 C 
BRANCH  16  17
HETATM   17  N2  UNL     1     -14.992  23.910 -48.332  1.00  0.00    -0.066 N 
ATOM     18  H23 UNL     1     -15.726  24.324 -47.757  1.00  0.00     0.275 HD
ATOM     19  H22 UNL     1     -14.430  23.550 -47.561  1.00  0.00     0.275 HD
ATOM     20  H21 UNL     1     -14.501  24.581 -48.924  1.00  0.00     0.275 HD
ENDBRANCH  16  17
BRANCH  16  21
HETATM   21  C8  UNL     1     -14.678  21.665 -48.969  1.00  0.00    -0.023 A 
HETATM   22  C9  UNL     1     -14.702  20.527 -49.729  1.00  0.00     0.009 A 
HETATM   23  C10 UNL     1     -13.958  19.400 -49.439  1.00  0.00     0.001 A 
HETATM   24  C11 UNL     1     -13.150  19.450 -48.309  1.00  0.00     0.000 A 
HETATM   25  C12 UNL     1     -13.109  20.583 -47.530  1.00  0.00     0.001 A 
HETATM   26  C13 UNL     1     -13.860  21.682 -47.850  1.00  0.00     0.009 A 
ENDBRANCH  16  21
ENDBRANCH  15  16
ENDBRANCH   1  15
TORSDOF 9
ENDMDL
