MODEL 1
REMARK VINA RESULT: -7.911112237      0.000      0.000
REMARK  9 active torsions:
REMARK  status: ('A' for Active; 'I' for Inactive)
REMARK    1  A    between atoms: C2_3  and  N2_4 
REMARK    2  A    between atoms: C2_3  and  C14_19 
REMARK    3  A    between atoms: N2_4  and  C3_6 
REMARK    4  A    between atoms: C3_6  and  C4_7 
REMARK    5  A    between atoms: C3_6  and  C5_10 
REMARK    6  A    between atoms: C4_7  and  O1_8 
REMARK    7  A    between atoms: C5_10  and  C6_11 
REMARK    8  A    between atoms: C6_11  and  C7_12 
REMARK    9  A    between atoms: C7_12  and  C8_13 
ROOT
HETATM    1  N1  UNL     1     -14.339  19.449 -47.211  1.00  0.00    -0.190 NA
HETATM    2  C1  UNL     1     -15.291  19.221 -46.580  1.00  0.00     0.118 C 
HETATM    3  C2  UNL     1     -16.514  18.919 -45.797  1.00  0.00     0.120 C 
ENDROOT
BRANCH   3   4
HETATM    4  N2  UNL     1     -16.474  17.749 -45.074  1.00  0.00    -0.374 N 
ATOM      5  H2  UNL     1     -16.150  16.924 -45.580  1.00  0.00     0.160 HD
BRANCH   4   6
HETATM    6  C3  UNL     1     -16.815  17.547 -43.754  1.00  0.00     0.106 C 
BRANCH   6   7
HETATM    7  C4  UNL     1     -15.646  17.293 -42.789  1.00  0.00     0.189 C 
BRANCH   7   8
HETATM    8  O1  UNL     1     -15.829  18.020 -41.611  1.00  0.00    -0.399 OA
ATOM      9  H1  UNL     1     -15.261  18.782 -41.606  1.00  0.00     0.209 HD
ENDBRANCH   7   8
ENDBRANCH   6   7
BRANCH   6  10
HETATM   10  C5  UNL     1     -17.775  18.499 -43.103  1.00  0.00     0.027 C 
BRANCH  10  11
HETATM   11  C6  UNL     1     -19.078  17.862 -42.675  1.00  0.00     0.002 C 
BRANCH  11  12
HETATM   12  C7  UNL     1     -19.829  17.312 -43.851  1.00  0.00     0.005 C 
BRANCH  12  13
HETATM   13  C8  UNL     1     -20.344  15.891 -43.553  1.00  0.00    -0.014 C 
HETATM   14  C9  UNL     1     -20.956  15.946 -42.198  1.00  0.00     0.004 C 
HETATM   15  C10 UNL     1     -22.026  14.956 -41.922  1.00  0.00     0.000 C 
HETATM   16  C11 UNL     1     -23.088  15.103 -43.009  1.00  0.00     0.000 C 
HETATM   17  C12 UNL     1     -22.407  14.650 -44.293  1.00  0.00     0.000 C 
HETATM   18  C13 UNL     1     -21.255  15.524 -44.663  1.00  0.00     0.004 C 
ENDBRANCH  12  13
ENDBRANCH  11  12
ENDBRANCH  10  11
ENDBRANCH   6  10
ENDBRANCH   4   6
ENDBRANCH   3   4
BRANCH   3  19
HETATM   19  C14 UNL     1     -17.729  19.255 -46.562  1.00  0.00     0.001 A 
HETATM   20  C15 UNL     1     -18.699  18.309 -46.781  1.00  0.00     0.014 A 
HETATM   21  C16 UNL     1     -19.853  18.560 -47.482  1.00  0.00     0.001 A 
HETATM   22  C17 UNL     1     -20.053  19.820 -47.994  1.00  0.00     0.000 A 
HETATM   23  C18 UNL     1     -19.106  20.803 -47.799  1.00  0.00     0.001 A 
HETATM   24  C19 UNL     1     -17.945  20.509 -47.081  1.00  0.00     0.014 A 
ENDBRANCH   3  19
TORSDOF 9
ENDMDL
MODEL 2
REMARK VINA RESULT: -7.538329347      1.477      2.683
REMARK  9 active torsions:
REMARK  status: ('A' for Active; 'I' for Inactive)
REMARK    1  A    between atoms: C2_3  and  N2_4 
REMARK    2  A    between atoms: C2_3  and  C14_19 
REMARK    3  A    between atoms: N2_4  and  C3_6 
REMARK    4  A    between atoms: C3_6  and  C4_7 
REMARK    5  A    between atoms: C3_6  and  C5_10 
REMARK    6  A    between atoms: C4_7  and  O1_8 
REMARK    7  A    between atoms: C5_10  and  C6_11 
REMARK    8  A    between atoms: C6_11  and  C7_12 
REMARK    9  A    between atoms: C7_12  and  C8_13 
ROOT
HETATM    1  N1  UNL     1     -19.233  18.390 -47.307  1.00  0.00    -0.190 NA
HETATM    2  C1  UNL     1     -18.156  18.485 -46.873  1.00  0.00     0.118 C 
HETATM    3  C2  UNL     1     -16.785  18.632 -46.325  1.00  0.00     0.120 C 
ENDROOT
BRANCH   3   4
HETATM    4  N2  UNL     1     -16.715  18.839 -44.966  1.00  0.00    -0.374 N 
ATOM      5  H2  UNL     1     -16.217  19.679 -44.670  1.00  0.00     0.160 HD
BRANCH   4   6
HETATM    6  C3  UNL     1     -17.231  18.059 -43.955  1.00  0.00     0.106 C 
BRANCH   6   7
HETATM    7  C4  UNL     1     -16.201  17.352 -43.059  1.00  0.00     0.189 C 
BRANCH   7   8
HETATM    8  O1  UNL     1     -16.054  18.047 -41.856  1.00  0.00    -0.399 OA
ATOM      9  H1  UNL     1     -16.486  18.890 -41.911  1.00  0.00     0.209 HD
ENDBRANCH   7   8
ENDBRANCH   6   7
BRANCH   6  10
HETATM   10  C5  UNL     1     -18.312  18.628 -43.084  1.00  0.00     0.027 C 
BRANCH  10  11
HETATM   11  C6  UNL     1     -19.475  17.690 -42.853  1.00  0.00     0.002 C 
BRANCH  11  12
HETATM   12  C7  UNL     1     -19.698  16.795 -44.036  1.00  0.00     0.005 C 
BRANCH  12  13
HETATM   13  C8  UNL     1     -20.433  15.509 -43.617  1.00  0.00    -0.014 C 
HETATM   14  C9  UNL     1     -20.924  15.744 -42.232  1.00  0.00     0.004 C 
HETATM   15  C10 UNL     1     -22.130  14.980 -41.826  1.00  0.00     0.000 C 
HETATM   16  C11 UNL     1     -23.226  15.263 -42.851  1.00  0.00     0.000 C 
HETATM   17  C12 UNL     1     -22.734  14.629 -44.144  1.00  0.00     0.000 C 
HETATM   18  C13 UNL     1     -21.475  15.258 -44.641  1.00  0.00     0.004 C 
ENDBRANCH  12  13
ENDBRANCH  11  12
ENDBRANCH  10  11
ENDBRANCH   6  10
ENDBRANCH   4   6
ENDBRANCH   3   4
BRANCH   3  19
HETATM   19  C14 UNL     1     -15.939  19.437 -47.224  1.00  0.00     0.001 A 
HETATM   20  C15 UNL     1     -16.138  20.790 -47.342  1.00  0.00     0.014 A 
HETATM   21  C16 UNL     1     -15.383  21.595 -48.159  1.00  0.00     0.001 A 
HETATM   22  C17 UNL     1     -14.377  21.024 -48.901  1.00  0.00     0.000 A 
HETATM   23  C18 UNL     1     -14.140  19.668 -48.816  1.00  0.00     0.001 A 
HETATM   24  C19 UNL     1     -14.930  18.882 -47.973  1.00  0.00     0.014 A 
ENDBRANCH   3  19
TORSDOF 9
ENDMDL
MODEL 3
REMARK VINA RESULT: -7.530143194      1.500      2.588
REMARK  9 active torsions:
REMARK  status: ('A' for Active; 'I' for Inactive)
REMARK    1  A    between atoms: C2_3  and  N2_4 
REMARK    2  A    between atoms: C2_3  and  C14_19 
REMARK    3  A    between atoms: N2_4  and  C3_6 
REMARK    4  A    between atoms: C3_6  and  C4_7 
REMARK    5  A    between atoms: C3_6  and  C5_10 
REMARK    6  A    between atoms: C4_7  and  O1_8 
REMARK    7  A    between atoms: C5_10  and  C6_11 
REMARK    8  A    between atoms: C6_11  and  C7_12 
REMARK    9  A    between atoms: C7_12  and  C8_13 
ROOT
HETATM    1  N1  UNL     1     -19.289  18.440 -47.398  1.00  0.00    -0.190 NA
HETATM    2  C1  UNL     1     -18.223  18.541 -46.941  1.00  0.00     0.118 C 
HETATM    3  C2  UNL     1     -16.864  18.694 -46.365  1.00  0.00     0.120 C 
ENDROOT
BRANCH   3   4
HETATM    4  N2  UNL     1     -16.824  18.921 -45.008  1.00  0.00    -0.374 N 
ATOM      5  H2  UNL     1     -16.396  19.800 -44.716  1.00  0.00     0.160 HD
BRANCH   4   6
HETATM    6  C3  UNL     1     -17.288  18.113 -43.993  1.00  0.00     0.106 C 
BRANCH   6   7
HETATM    7  C4  UNL     1     -16.213  17.411 -43.147  1.00  0.00     0.189 C 
BRANCH   7   8
HETATM    8  O1  UNL     1     -16.084  18.046 -41.910  1.00  0.00    -0.399 OA
ATOM      9  H1  UNL     1     -15.369  17.661 -41.418  1.00  0.00     0.209 HD
ENDBRANCH   7   8
ENDBRANCH   6   7
BRANCH   6  10
HETATM   10  C5  UNL     1     -18.347  18.647 -43.073  1.00  0.00     0.027 C 
BRANCH  10  11
HETATM   11  C6  UNL     1     -19.502  17.698 -42.850  1.00  0.00     0.002 C 
BRANCH  11  12
HETATM   12  C7  UNL     1     -19.717  16.808 -44.039  1.00  0.00     0.005 C 
BRANCH  12  13
HETATM   13  C8  UNL     1     -20.439  15.513 -43.628  1.00  0.00    -0.014 C 
HETATM   14  C9  UNL     1     -20.932  15.733 -42.241  1.00  0.00     0.004 C 
HETATM   15  C10 UNL     1     -22.130  14.955 -41.840  1.00  0.00     0.000 C 
HETATM   16  C11 UNL     1     -23.230  15.233 -42.863  1.00  0.00     0.000 C 
HETATM   17  C12 UNL     1     -22.731  14.613 -44.160  1.00  0.00     0.000 C 
HETATM   18  C13 UNL     1     -21.479  15.257 -44.654  1.00  0.00     0.004 C 
ENDBRANCH  12  13
ENDBRANCH  11  12
ENDBRANCH  10  11
ENDBRANCH   6  10
ENDBRANCH   4   6
ENDBRANCH   3   4
BRANCH   3  19
HETATM   19  C14 UNL     1     -15.997  19.486 -47.257  1.00  0.00     0.001 A 
HETATM   20  C15 UNL     1     -14.975  18.886 -47.949  1.00  0.00     0.014 A 
HETATM   21  C16 UNL     1     -14.136  19.568 -48.796  1.00  0.00     0.001 A 
HETATM   22  C17 UNL     1     -14.322  20.919 -48.963  1.00  0.00     0.000 A 
HETATM   23  C18 UNL     1     -15.336  21.565 -48.288  1.00  0.00     0.001 A 
HETATM   24  C19 UNL     1     -16.169  20.838 -47.435  1.00  0.00     0.014 A 
ENDBRANCH   3  19
TORSDOF 9
ENDMDL
MODEL 4
REMARK VINA RESULT: -7.446012988      3.819      6.267
REMARK  9 active torsions:
REMARK  status: ('A' for Active; 'I' for Inactive)
REMARK    1  A    between atoms: C2_3  and  N2_4 
REMARK    2  A    between atoms: C2_3  and  C14_19 
REMARK    3  A    between atoms: N2_4  and  C3_6 
REMARK    4  A    between atoms: C3_6  and  C4_7 
REMARK    5  A    between atoms: C3_6  and  C5_10 
REMARK    6  A    between atoms: C4_7  and  O1_8 
REMARK    7  A    between atoms: C5_10  and  C6_11 
REMARK    8  A    between atoms: C6_11  and  C7_12 
REMARK    9  A    between atoms: C7_12  and  C8_13 
ROOT
HETATM    1  N1  UNL     1     -14.497  24.799 -49.999  1.00  0.00    -0.190 NA
HETATM    2  C1  UNL     1     -15.081  23.922 -49.503  1.00  0.00     0.118 C 
HETATM    3  C2  UNL     1     -15.805  22.801 -48.854  1.00  0.00     0.120 C 
ENDROOT
BRANCH   3   4
HETATM    4  N2  UNL     1     -16.676  23.167 -47.853  1.00  0.00    -0.374 N 
ATOM      5  H2  UNL     1     -16.252  23.587 -47.025  1.00  0.00     0.160 HD
BRANCH   4   6
HETATM    6  C3  UNL     1     -18.048  23.038 -47.824  1.00  0.00     0.106 C 
BRANCH   6   7
HETATM    7  C4  UNL     1     -18.840  24.113 -48.585  1.00  0.00     0.189 C 
BRANCH   7   8
HETATM    8  O1  UNL     1     -19.066  23.701 -49.900  1.00  0.00    -0.399 OA
ATOM      9  H1  UNL     1     -19.582  22.903 -49.908  1.00  0.00     0.209 HD
ENDBRANCH   7   8
ENDBRANCH   6   7
BRANCH   6  10
HETATM   10  C5  UNL     1     -18.654  21.698 -48.119  1.00  0.00     0.027 C 
BRANCH  10  11
HETATM   11  C6  UNL     1     -18.193  20.596 -47.192  1.00  0.00     0.002 C 
BRANCH  11  12
HETATM   12  C7  UNL     1     -17.945  19.320 -47.940  1.00  0.00     0.005 C 
BRANCH  12  13
HETATM   13  C8  UNL     1     -17.656  18.163 -46.966  1.00  0.00    -0.014 C 
HETATM   14  C9  UNL     1     -16.281  18.392 -46.445  1.00  0.00     0.004 C 
HETATM   15  C10 UNL     1     -15.988  17.833 -45.102  1.00  0.00     0.000 C 
HETATM   16  C11 UNL     1     -17.038  18.374 -44.134  1.00  0.00     0.000 C 
HETATM   17  C12 UNL     1     -18.350  17.747 -44.581  1.00  0.00     0.000 C 
HETATM   18  C13 UNL     1     -18.742  18.170 -45.958  1.00  0.00     0.004 C 
ENDBRANCH  12  13
ENDBRANCH  11  12
ENDBRANCH  10  11
ENDBRANCH   6  10
ENDBRANCH   4   6
ENDBRANCH   3   4
BRANCH   3  19
HETATM   19  C14 UNL     1     -14.916  21.643 -48.652  1.00  0.00     0.001 A 
HETATM   20  C15 UNL     1     -14.840  20.650 -49.597  1.00  0.00     0.014 A 
HETATM   21  C16 UNL     1     -14.030  19.548 -49.470  1.00  0.00     0.001 A 
HETATM   22  C17 UNL     1     -13.255  19.426 -48.341  1.00  0.00     0.000 A 
HETATM   23  C18 UNL     1     -13.298  20.399 -47.365  1.00  0.00     0.001 A 
HETATM   24  C19 UNL     1     -14.135  21.505 -47.531  1.00  0.00     0.014 A 
ENDBRANCH   3  19
TORSDOF 9
ENDMDL
MODEL 5
REMARK VINA RESULT: -7.394033403      5.793     10.223
REMARK  9 active torsions:
REMARK  status: ('A' for Active; 'I' for Inactive)
REMARK    1  A    between atoms: C2_3  and  N2_4 
REMARK    2  A    between atoms: C2_3  and  C14_19 
REMARK    3  A    between atoms: N2_4  and  C3_6 
REMARK    4  A    between atoms: C3_6  and  C4_7 
REMARK    5  A    between atoms: C3_6  and  C5_10 
REMARK    6  A    between atoms: C4_7  and  O1_8 
REMARK    7  A    between atoms: C5_10  and  C6_11 
REMARK    8  A    between atoms: C6_11  and  C7_12 
REMARK    9  A    between atoms: C7_12  and  C8_13 
ROOT
HETATM    1  N1  UNL     1     -19.873  20.475 -48.202  1.00  0.00    -0.190 NA
HETATM    2  C1  UNL     1     -19.063  21.238 -47.861  1.00  0.00     0.118 C 
HETATM    3  C2  UNL     1     -18.020  22.211 -47.450  1.00  0.00     0.120 C 
ENDROOT
BRANCH   3   4
HETATM    4  N2  UNL     1     -18.370  23.536 -47.578  1.00  0.00    -0.374 N 
ATOM      5  H2  UNL     1     -17.827  24.195 -47.020  1.00  0.00     0.160 HD
BRANCH   4   6
HETATM    6  C3  UNL     1     -19.359  24.087 -48.364  1.00  0.00     0.106 C 
BRANCH   6   7
HETATM    7  C4  UNL     1     -20.102  25.291 -47.763  1.00  0.00     0.189 C 
BRANCH   7   8
HETATM    8  O1  UNL     1     -19.442  25.740 -46.618  1.00  0.00    -0.399 OA
ATOM      9  H1  UNL     1     -19.391  25.042 -45.975  1.00  0.00     0.209 HD
ENDBRANCH   7   8
ENDBRANCH   6   7
BRANCH   6  10
HETATM   10  C5  UNL     1     -19.058  24.380 -49.804  1.00  0.00     0.027 C 
BRANCH  10  11
HETATM   11  C6  UNL     1     -18.217  25.617 -50.018  1.00  0.00     0.002 C 
BRANCH  11  12
HETATM   12  C7  UNL     1     -16.874  25.273 -50.591  1.00  0.00     0.005 C 
BRANCH  12  13
HETATM   13  C8  UNL     1     -15.776  26.167 -49.986  1.00  0.00    -0.014 C 
HETATM   14  C9  UNL     1     -14.637  26.132 -50.943  1.00  0.00     0.004 C 
HETATM   15  C10 UNL     1     -13.745  27.317 -50.942  1.00  0.00     0.000 C 
HETATM   16  C11 UNL     1     -14.613  28.553 -51.170  1.00  0.00     0.000 C 
HETATM   17  C12 UNL     1     -15.476  28.667 -49.922  1.00  0.00     0.000 C 
HETATM   18  C13 UNL     1     -16.387  27.497 -49.752  1.00  0.00     0.004 C 
ENDBRANCH  12  13
ENDBRANCH  11  12
ENDBRANCH  10  11
ENDBRANCH   6  10
ENDBRANCH   4   6
ENDBRANCH   3   4
BRANCH   3  19
HETATM   19  C14 UNL     1     -16.684  21.770 -47.888  1.00  0.00     0.001 A 
HETATM   20  C15 UNL     1     -16.223  20.518 -47.567  1.00  0.00     0.014 A 
HETATM   21  C16 UNL     1     -14.989  20.047 -47.947  1.00  0.00     0.001 A 
HETATM   22  C17 UNL     1     -14.170  20.867 -48.685  1.00  0.00     0.000 A 
HETATM   23  C18 UNL     1     -14.590  22.134 -49.031  1.00  0.00     0.001 A 
HETATM   24  C19 UNL     1     -15.851  22.576 -48.626  1.00  0.00     0.014 A 
ENDBRANCH   3  19
TORSDOF 9
ENDMDL
