MODEL 1
REMARK VINA RESULT: -7.326459124      0.000      0.000
REMARK  8 active torsions:
REMARK  status: ('A' for Active; 'I' for Inactive)
REMARK    1  A    between atoms: C2_2  and  C3_3 
REMARK    2  A    between atoms: C3_3  and  C5_5 
REMARK    3  A    between atoms: C6_8  and  C7_9 
REMARK    4  A    between atoms: C6_8  and  N3_22 
REMARK    5  A    between atoms: C7_9  and  N2_10 
REMARK    6  A    between atoms: N2_10  and  C8_13 
REMARK    7  A    between atoms: C8_13  and  C10_15 
REMARK    8  A    between atoms: C10_15  and  C11_16 
ROOT
HETATM    1  C5  UNL     1     -15.497  19.908 -47.744  1.00  0.00    -0.012 C 
HETATM    2  N1  UNL     1     -16.223  20.314 -46.795  1.00  0.00    -0.363 N 
ATOM      3  H1  UNL     1     -16.070  21.181 -46.279  1.00  0.00     0.161 HD
HETATM    4  C6  UNL     1     -17.309  19.379 -46.538  1.00  0.00     0.221 C 
HETATM    5  C18 UNL     1     -16.784  18.065 -47.127  1.00  0.00     0.069 C 
HETATM    6  C19 UNL     1     -15.981  18.615 -48.291  1.00  0.00     0.057 C 
ENDROOT
BRANCH   4   7
HETATM    7  C7  UNL     1     -17.460  19.250 -45.058  1.00  0.00     0.294 C 
BRANCH   7   8
HETATM    8  N2  UNL     1     -16.843  18.019 -44.617  1.00  0.00    -0.067 N 
ATOM      9  H22 UNL     1     -16.963  17.270 -45.300  1.00  0.00     0.277 HD
ATOM     10  H21 UNL     1     -15.825  18.081 -44.633  1.00  0.00     0.277 HD
BRANCH   8  11
HETATM   11  C8  UNL     1     -17.338  17.630 -43.301  1.00  0.00     0.182 C 
HETATM   12  C9  UNL     1     -16.219  17.499 -42.358  1.00  0.00     0.040 C 
BRANCH  11  13
HETATM   13  C10 UNL     1     -18.356  16.572 -43.400  1.00  0.00     0.037 C 
BRANCH  13  14
HETATM   14  C11 UNL     1     -19.789  16.904 -43.372  1.00  0.00    -0.013 C 
HETATM   15  C12 UNL     1     -20.581  16.755 -44.615  1.00  0.00     0.005 C 
HETATM   16  C13 UNL     1     -21.063  15.322 -44.834  1.00  0.00     0.000 C 
HETATM   17  C14 UNL     1     -22.060  14.926 -43.766  1.00  0.00     0.000 C 
HETATM   18  C15 UNL     1     -21.885  15.789 -42.532  1.00  0.00     0.000 C 
HETATM   19  C16 UNL     1     -20.420  15.971 -42.313  1.00  0.00     0.005 C 
ENDBRANCH  13  14
ENDBRANCH  11  13
ENDBRANCH   8  11
ENDBRANCH   7   8
ENDBRANCH   4   7
BRANCH   4  20
HETATM   20  N3  UNL     1     -18.474  19.820 -47.238  1.00  0.00    -0.051 N 
HETATM   21  C17 UNL     1     -19.473  18.808 -47.403  1.00  0.00     0.270 C 
ATOM     22  H32 UNL     1     -18.871  20.644 -46.788  1.00  0.00     0.279 HD
ATOM     23  H31 UNL     1     -18.219  20.221 -48.140  1.00  0.00     0.279 HD
ENDBRANCH   4  20
BRANCH   1  24
HETATM   24  C3  UNL     1     -14.292  20.624 -48.273  1.00  0.00     0.026 C 
HETATM   25  C4  UNL     1     -13.028  20.159 -47.615  1.00  0.00     0.016 C 
BRANCH  24  26
HETATM   26  C2  UNL     1     -14.532  22.093 -48.147  1.00  0.00     0.005 C 
HETATM   27  C1  UNL     1     -14.978  22.705 -49.455  1.00  0.00     0.006 C 
ENDBRANCH  24  26
ENDBRANCH   1  24
TORSDOF 8
ENDMDL
MODEL 2
REMARK VINA RESULT: -7.209329265      3.119      6.028
REMARK  8 active torsions:
REMARK  status: ('A' for Active; 'I' for Inactive)
REMARK    1  A    between atoms: C2_2  and  C3_3 
REMARK    2  A    between atoms: C3_3  and  C5_5 
REMARK    3  A    between atoms: C6_8  and  C7_9 
REMARK    4  A    between atoms: C6_8  and  N3_22 
REMARK    5  A    between atoms: C7_9  and  N2_10 
REMARK    6  A    between atoms: N2_10  and  C8_13 
REMARK    7  A    between atoms: C8_13  and  C10_15 
REMARK    8  A    between atoms: C10_15  and  C11_16 
ROOT
HETATM    1  C5  UNL     1     -15.355  25.602 -49.618  1.00  0.00    -0.012 C 
HETATM    2  N1  UNL     1     -15.306  24.952 -48.538  1.00  0.00    -0.363 N 
ATOM      3  H1  UNL     1     -14.817  25.259 -47.698  1.00  0.00     0.161 HD
HETATM    4  C6  UNL     1     -16.044  23.701 -48.655  1.00  0.00     0.221 C 
HETATM    5  C18 UNL     1     -16.075  23.455 -50.167  1.00  0.00     0.069 C 
HETATM    6  C19 UNL     1     -16.144  24.890 -50.654  1.00  0.00     0.057 C 
ENDROOT
BRANCH   4   7
HETATM    7  C7  UNL     1     -15.246  22.635 -47.980  1.00  0.00     0.294 C 
BRANCH   7   8
HETATM    8  N2  UNL     1     -14.636  21.785 -48.979  1.00  0.00    -0.067 N 
ATOM      9  H22 UNL     1     -15.221  21.701 -49.811  1.00  0.00     0.277 HD
ATOM     10  H21 UNL     1     -13.823  22.231 -49.406  1.00  0.00     0.277 HD
BRANCH   8  11
HETATM   11  C8  UNL     1     -14.303  20.480 -48.421  1.00  0.00     0.182 C 
HETATM   12  C9  UNL     1     -13.999  19.530 -49.500  1.00  0.00     0.040 C 
BRANCH  11  13
HETATM   13  C10 UNL     1     -15.226  20.107 -47.338  1.00  0.00     0.037 C 
BRANCH  13  14
HETATM   14  C11 UNL     1     -15.928  18.814 -47.362  1.00  0.00    -0.013 C 
HETATM   15  C12 UNL     1     -16.056  18.047 -46.100  1.00  0.00     0.005 C 
HETATM   16  C13 UNL     1     -17.237  18.511 -45.251  1.00  0.00     0.000 C 
HETATM   17  C14 UNL     1     -18.546  18.207 -45.947  1.00  0.00     0.000 C 
HETATM   18  C15 UNL     1     -18.331  18.064 -47.441  1.00  0.00     0.000 C 
HETATM   19  C16 UNL     1     -17.360  19.116 -47.860  1.00  0.00     0.005 C 
ENDBRANCH  13  14
ENDBRANCH  11  13
ENDBRANCH   8  11
ENDBRANCH   7   8
ENDBRANCH   4   7
BRANCH   4  20
HETATM   20  N3  UNL     1     -17.365  23.895 -48.145  1.00  0.00    -0.051 N 
HETATM   21  C17 UNL     1     -18.188  22.725 -48.198  1.00  0.00     0.270 C 
ATOM     22  H32 UNL     1     -17.331  24.266 -47.196  1.00  0.00     0.279 HD
ATOM     23  H31 UNL     1     -17.820  24.675 -48.619  1.00  0.00     0.279 HD
ENDBRANCH   4  20
BRANCH   1  24
HETATM   24  C3  UNL     1     -14.705  26.933 -49.850  1.00  0.00     0.026 C 
HETATM   25  C4  UNL     1     -15.700  28.053 -49.843  1.00  0.00     0.016 C 
BRANCH  24  26
HETATM   26  C2  UNL     1     -13.904  26.846 -51.108  1.00  0.00     0.005 C 
HETATM   27  C1  UNL     1     -13.212  28.151 -51.426  1.00  0.00     0.006 C 
ENDBRANCH  24  26
ENDBRANCH   1  24
TORSDOF 8
ENDMDL
MODEL 3
REMARK VINA RESULT: -7.109933050      0.983      1.585
REMARK  8 active torsions:
REMARK  status: ('A' for Active; 'I' for Inactive)
REMARK    1  A    between atoms: C2_2  and  C3_3 
REMARK    2  A    between atoms: C3_3  and  C5_5 
REMARK    3  A    between atoms: C6_8  and  C7_9 
REMARK    4  A    between atoms: C6_8  and  N3_22 
REMARK    5  A    between atoms: C7_9  and  N2_10 
REMARK    6  A    between atoms: N2_10  and  C8_13 
REMARK    7  A    between atoms: C8_13  and  C10_15 
REMARK    8  A    between atoms: C10_15  and  C11_16 
ROOT
HETATM    1  C5  UNL     1     -16.324  21.234 -47.610  1.00  0.00    -0.012 C 
HETATM    2  N1  UNL     1     -17.235  20.793 -46.856  1.00  0.00    -0.363 N 
ATOM      3  H1  UNL     1     -18.022  21.345 -46.515  1.00  0.00     0.161 HD
HETATM    4  C6  UNL     1     -17.010  19.389 -46.540  1.00  0.00     0.221 C 
HETATM    5  C18 UNL     1     -15.507  19.215 -46.781  1.00  0.00     0.069 C 
HETATM    6  C19 UNL     1     -15.322  20.187 -47.932  1.00  0.00     0.057 C 
ENDROOT
BRANCH   4   7
HETATM    7  C7  UNL     1     -17.321  19.192 -45.093  1.00  0.00     0.294 C 
BRANCH   7   8
HETATM    8  N2  UNL     1     -16.938  17.855 -44.696  1.00  0.00    -0.067 N 
ATOM      9  H22 UNL     1     -17.299  17.152 -45.342  1.00  0.00     0.277 HD
ATOM     10  H21 UNL     1     -15.941  17.693 -44.834  1.00  0.00     0.277 HD
BRANCH   8  11
HETATM   11  C8  UNL     1     -17.343  17.582 -43.322  1.00  0.00     0.182 C 
HETATM   12  C9  UNL     1     -16.162  17.500 -42.453  1.00  0.00     0.040 C 
BRANCH  11  13
HETATM   13  C10 UNL     1     -18.385  16.545 -43.263  1.00  0.00     0.037 C 
BRANCH  13  14
HETATM   14  C11 UNL     1     -19.809  16.905 -43.333  1.00  0.00    -0.013 C 
HETATM   15  C12 UNL     1     -20.505  16.817 -44.639  1.00  0.00     0.005 C 
HETATM   16  C13 UNL     1     -20.994  15.404 -44.947  1.00  0.00     0.000 C 
HETATM   17  C14 UNL     1     -22.078  14.991 -43.975  1.00  0.00     0.000 C 
HETATM   18  C15 UNL     1     -21.984  15.805 -42.699  1.00  0.00     0.000 C 
HETATM   19  C16 UNL     1     -20.538  15.948 -42.362  1.00  0.00     0.005 C 
ENDBRANCH  13  14
ENDBRANCH  11  13
ENDBRANCH   8  11
ENDBRANCH   7   8
ENDBRANCH   4   7
BRANCH   4  20
HETATM   20  N3  UNL     1     -17.767  18.585 -47.446  1.00  0.00    -0.051 N 
HETATM   21  C17 UNL     1     -19.157  18.919 -47.501  1.00  0.00     0.270 C 
ATOM     22  H32 UNL     1     -17.355  18.612 -48.378  1.00  0.00     0.279 HD
ATOM     23  H31 UNL     1     -17.645  17.595 -47.232  1.00  0.00     0.279 HD
ENDBRANCH   4  20
BRANCH   1  24
HETATM   24  C3  UNL     1     -16.242  22.637 -48.131  1.00  0.00     0.026 C 
HETATM   25  C4  UNL     1     -17.599  23.240 -48.336  1.00  0.00     0.016 C 
BRANCH  24  26
HETATM   26  C2  UNL     1     -15.394  22.627 -49.360  1.00  0.00     0.005 C 
HETATM   27  C1  UNL     1     -14.701  23.952 -49.577  1.00  0.00     0.006 C 
ENDBRANCH  24  26
ENDBRANCH   1  24
TORSDOF 8
ENDMDL
MODEL 4
REMARK VINA RESULT: -7.104258697      0.802      1.381
REMARK  8 active torsions:
REMARK  status: ('A' for Active; 'I' for Inactive)
REMARK    1  A    between atoms: C2_2  and  C3_3 
REMARK    2  A    between atoms: C3_3  and  C5_5 
REMARK    3  A    between atoms: C6_8  and  C7_9 
REMARK    4  A    between atoms: C6_8  and  N3_22 
REMARK    5  A    between atoms: C7_9  and  N2_10 
REMARK    6  A    between atoms: N2_10  and  C8_13 
REMARK    7  A    between atoms: C8_13  and  C10_15 
REMARK    8  A    between atoms: C10_15  and  C11_16 
ROOT
HETATM    1  C5  UNL     1     -16.100  20.185 -47.679  1.00  0.00    -0.012 C 
HETATM    2  N1  UNL     1     -17.194  20.184 -47.051  1.00  0.00    -0.363 N 
ATOM      3  H1  UNL     1     -17.624  21.009 -46.633  1.00  0.00     0.161 HD
HETATM    4  C6  UNL     1     -17.762  18.843 -47.005  1.00  0.00     0.221 C 
HETATM    5  C18 UNL     1     -16.543  17.942 -47.231  1.00  0.00     0.069 C 
HETATM    6  C19 UNL     1     -15.744  18.829 -48.167  1.00  0.00     0.057 C 
ENDROOT
BRANCH   4   7
HETATM    7  C7  UNL     1     -18.309  18.626 -45.633  1.00  0.00     0.294 C 
BRANCH   7   8
HETATM    8  N2  UNL     1     -17.523  17.620 -44.954  1.00  0.00    -0.067 N 
ATOM      9  H22 UNL     1     -17.549  16.726 -45.445  1.00  0.00     0.277 HD
ATOM     10  H21 UNL     1     -16.523  17.809 -45.031  1.00  0.00     0.277 HD
BRANCH   8  11
HETATM   11  C8  UNL     1     -17.939  17.483 -43.563  1.00  0.00     0.182 C 
HETATM   12  C9  UNL     1     -16.773  17.572 -42.674  1.00  0.00     0.040 C 
BRANCH  11  13
HETATM   13  C10 UNL     1     -18.919  16.398 -43.399  1.00  0.00     0.037 C 
BRANCH  13  14
HETATM   14  C11 UNL     1     -20.356  16.692 -43.297  1.00  0.00    -0.013 C 
HETATM   15  C12 UNL     1     -21.203  16.548 -44.505  1.00  0.00     0.005 C 
HETATM   16  C13 UNL     1     -21.660  15.109 -44.731  1.00  0.00     0.000 C 
HETATM   17  C14 UNL     1     -22.595  14.666 -43.626  1.00  0.00     0.000 C 
HETATM   18  C15 UNL     1     -22.383  15.508 -42.383  1.00  0.00     0.000 C 
HETATM   19  C16 UNL     1     -20.914  15.723 -42.230  1.00  0.00     0.005 C 
ENDBRANCH  13  14
ENDBRANCH  11  13
ENDBRANCH   8  11
ENDBRANCH   7   8
ENDBRANCH   4   7
BRANCH   4  20
HETATM   20  N3  UNL     1     -18.703  18.703 -48.071  1.00  0.00    -0.051 N 
HETATM   21  C17 UNL     1     -19.870  19.517 -47.928  1.00  0.00     0.270 C 
ATOM     22  H32 UNL     1     -18.254  18.876 -48.969  1.00  0.00     0.279 HD
ATOM     23  H31 UNL     1     -18.962  17.724 -48.192  1.00  0.00     0.279 HD
ENDBRANCH   4  20
BRANCH   1  24
HETATM   24  C3  UNL     1     -15.247  21.394 -47.917  1.00  0.00     0.026 C 
HETATM   25  C4  UNL     1     -15.988  22.469 -48.651  1.00  0.00     0.016 C 
BRANCH  24  26
HETATM   26  C2  UNL     1     -13.994  20.952 -48.599  1.00  0.00     0.005 C 
HETATM   27  C1  UNL     1     -12.942  20.505 -47.610  1.00  0.00     0.006 C 
ENDBRANCH  24  26
ENDBRANCH   1  24
TORSDOF 8
ENDMDL
MODEL 5
REMARK VINA RESULT: -7.098105968      3.781      6.242
REMARK  8 active torsions:
REMARK  status: ('A' for Active; 'I' for Inactive)
REMARK    1  A    between atoms: C2_2  and  C3_3 
REMARK    2  A    between atoms: C3_3  and  C5_5 
REMARK    3  A    between atoms: C6_8  and  C7_9 
REMARK    4  A    between atoms: C6_8  and  N3_22 
REMARK    5  A    between atoms: C7_9  and  N2_10 
REMARK    6  A    between atoms: N2_10  and  C8_13 
REMARK    7  A    between atoms: C8_13  and  C10_15 
REMARK    8  A    between atoms: C10_15  and  C11_16 
ROOT
HETATM    1  C5  UNL     1     -17.435  25.778 -49.325  1.00  0.00    -0.012 C 
HETATM    2  N1  UNL     1     -18.164  25.326 -48.399  1.00  0.00    -0.363 N 
ATOM      3  H1  UNL     1     -18.032  25.524 -47.408  1.00  0.00     0.161 HD
HETATM    4  C6  UNL     1     -19.221  24.482 -48.940  1.00  0.00     0.221 C 
HETATM    5  C18 UNL     1     -18.664  24.056 -50.302  1.00  0.00     0.069 C 
HETATM    6  C19 UNL     1     -17.887  25.309 -50.659  1.00  0.00     0.057 C 
ENDROOT
BRANCH   4   7
HETATM    7  C7  UNL     1     -19.356  23.292 -48.049  1.00  0.00     0.294 C 
BRANCH   7   8
HETATM    8  N2  UNL     1     -18.188  23.191 -47.201  1.00  0.00    -0.067 N 
ATOM      9  H22 UNL     1     -17.569  23.994 -47.314  1.00  0.00     0.277 HD
ATOM     10  H21 UNL     1     -18.425  23.316 -46.217  1.00  0.00     0.277 HD
BRANCH   8  11
HETATM   11  C8  UNL     1     -17.485  21.934 -47.429  1.00  0.00     0.182 C 
HETATM   12  C9  UNL     1     -16.263  22.171 -48.209  1.00  0.00     0.040 C 
BRANCH  11  13
HETATM   13  C10 UNL     1     -18.414  20.859 -47.811  1.00  0.00     0.037 C 
BRANCH  13  14
HETATM   14  C11 UNL     1     -18.363  19.549 -47.143  1.00  0.00    -0.013 C 
HETATM   15  C12 UNL     1     -17.709  18.416 -47.842  1.00  0.00     0.005 C 
HETATM   16  C13 UNL     1     -16.193  18.411 -47.657  1.00  0.00     0.000 C 
HETATM   17  C14 UNL     1     -15.834  18.149 -46.210  1.00  0.00     0.000 C 
HETATM   18  C15 UNL     1     -16.992  18.513 -45.302  1.00  0.00     0.000 C 
HETATM   19  C16 UNL     1     -17.593  19.775 -45.822  1.00  0.00     0.005 C 
ENDBRANCH  13  14
ENDBRANCH  11  13
ENDBRANCH   8  11
ENDBRANCH   7   8
ENDBRANCH   4   7
BRANCH   4  20
HETATM   20  N3  UNL     1     -20.404  25.268 -49.097  1.00  0.00    -0.051 N 
HETATM   21  C17 UNL     1     -21.434  24.967 -48.149  1.00  0.00     0.270 C 
ATOM     22  H32 UNL     1     -20.179  26.262 -49.077  1.00  0.00     0.279 HD
ATOM     23  H31 UNL     1     -20.761  25.190 -50.050  1.00  0.00     0.279 HD
ENDBRANCH   4  20
BRANCH   1  24
HETATM   24  C3  UNL     1     -16.255  26.680 -49.127  1.00  0.00     0.026 C 
HETATM   25  C4  UNL     1     -16.511  28.063 -49.645  1.00  0.00     0.016 C 
BRANCH  24  26
HETATM   26  C2  UNL     1     -15.060  26.021 -49.732  1.00  0.00     0.005 C 
HETATM   27  C1  UNL     1     -14.190  27.006 -50.478  1.00  0.00     0.006 C 
ENDBRANCH  24  26
ENDBRANCH   1  24
TORSDOF 8
ENDMDL
