MODEL 1
REMARK VINA RESULT: -8.580297308      0.000      0.000
REMARK  12 active torsions:
REMARK  status: ('A' for Active; 'I' for Inactive)
REMARK    1  A    between atoms: C2_2  and  C3_3 
REMARK    2  A    between atoms: C3_3  and  C5_5 
REMARK    3  A    between atoms: C8_9  and  C9_10 
REMARK    4  A    between atoms: C9_10  and  C10_11 
REMARK    5  A    between atoms: N1_13  and  N2_15 
REMARK    6  A    between atoms: N2_15  and  C12_17 
REMARK    7  A    between atoms: C12_17  and  N3_19 
REMARK    8  A    between atoms: N3_19  and  C13_21 
REMARK    9  A    between atoms: C13_21  and  C14_22 
REMARK   10  A    between atoms: C14_22  and  C15_23 
REMARK   11  A    between atoms: C15_23  and  C16_24 
REMARK   12  A    between atoms: C16_24  and  C17_25 
ROOT
HETATM    1  N2  UNL     1     -16.396  17.859 -12.787  1.00  0.00    -0.277 N 
ATOM      2  H2  UNL     1     -17.355  17.777 -12.451  1.00  0.00     0.189 HD
ENDROOT
BRANCH   1   3
HETATM    3  N1  UNL     1     -15.385  17.959 -11.852  1.00  0.00    -0.307 N 
HETATM    4  C10 UNL     1     -15.267  18.935 -10.983  1.00  0.00     0.000 C 
HETATM    5  C11 UNL     1     -14.126  18.823 -10.067  1.00  0.00     0.065 C 
ATOM      6  H1  UNL     1     -14.680  17.222 -11.837  1.00  0.00     0.186 HD
BRANCH   4   7
HETATM    7  C9  UNL     1     -16.243  19.997 -10.969  1.00  0.00     0.059 C 
BRANCH   7   8
HETATM    8  C8  UNL     1     -17.033  20.252  -9.717  1.00  0.00     0.005 C 
HETATM    9  C5  UNL     1     -17.804  21.461  -9.636  1.00  0.00     0.004 C 
HETATM   10  C6  UNL     1     -19.259  21.274  -9.344  1.00  0.00     0.079 C 
HETATM   11  S1  UNL     1     -19.526  19.520  -9.718  1.00  0.00    -0.168 SA
HETATM   12  C7  UNL     1     -17.814  19.011  -9.414  1.00  0.00     0.079 C 
BRANCH   9  13
HETATM   13  C3  UNL     1     -17.316  22.438  -8.534  1.00  0.00    -0.014 C 
HETATM   14  C4  UNL     1     -16.131  23.237  -8.967  1.00  0.00     0.010 C 
BRANCH  13  15
HETATM   15  C2  UNL     1     -18.441  23.268  -7.999  1.00  0.00     0.000 C 
HETATM   16  C1  UNL     1     -18.122  24.728  -8.242  1.00  0.00     0.005 C 
ENDBRANCH  13  15
ENDBRANCH   9  13
ENDBRANCH   7   8
ENDBRANCH   4   7
ENDBRANCH   1   3
BRANCH   1  17
HETATM   17  C12 UNL     1     -16.175  17.864 -14.194  1.00  0.00     0.186 C 
HETATM   18  S2  UNL     1     -17.314  17.178 -15.123  1.00  0.00    -0.040 SA
BRANCH  17  19
HETATM   19  N3  UNL     1     -15.036  18.444 -14.778  1.00  0.00    -0.366 N 
ATOM     20  H3  UNL     1     -15.010  19.463 -14.804  1.00  0.00     0.161 HD
BRANCH  19  21
HETATM   21  C13 UNL     1     -13.907  17.766 -15.339  1.00  0.00     0.122 C 
BRANCH  21  22
HETATM   22  C14 UNL     1     -13.036  17.213 -14.239  1.00  0.00     0.020 C 
BRANCH  22  23
HETATM   23  C15 UNL     1     -13.206  15.706 -14.207  1.00  0.00     0.006 C 
BRANCH  23  24
HETATM   24  C16 UNL     1     -12.021  15.102 -13.484  1.00  0.00     0.034 C 
BRANCH  24  25
HETATM   25  C17 UNL     1     -10.847  14.911 -14.382  1.00  0.00    -0.084 C 
HETATM   26  C18 UNL     1      -9.646  14.881 -13.854  1.00  0.00    -0.024 C 
HETATM   27  C19 UNL     1      -8.433  14.696 -14.668  1.00  0.00     0.027 C 
HETATM   28  C20 UNL     1      -8.674  15.286 -16.040  1.00  0.00     0.004 C 
HETATM   29  C21 UNL     1      -9.855  14.529 -16.627  1.00  0.00     0.005 C 
HETATM   30  C22 UNL     1     -11.111  14.761 -15.843  1.00  0.00     0.034 C 
ENDBRANCH  24  25
ENDBRANCH  23  24
ENDBRANCH  22  23
ENDBRANCH  21  22
ENDBRANCH  19  21
ENDBRANCH  17  19
ENDBRANCH   1  17
TORSDOF 12
ENDMDL
MODEL 2
REMARK VINA RESULT: -8.451508934      0.602      1.151
REMARK  12 active torsions:
REMARK  status: ('A' for Active; 'I' for Inactive)
REMARK    1  A    between atoms: C2_2  and  C3_3 
REMARK    2  A    between atoms: C3_3  and  C5_5 
REMARK    3  A    between atoms: C8_9  and  C9_10 
REMARK    4  A    between atoms: C9_10  and  C10_11 
REMARK    5  A    between atoms: N1_13  and  N2_15 
REMARK    6  A    between atoms: N2_15  and  C12_17 
REMARK    7  A    between atoms: C12_17  and  N3_19 
REMARK    8  A    between atoms: N3_19  and  C13_21 
REMARK    9  A    between atoms: C13_21  and  C14_22 
REMARK   10  A    between atoms: C14_22  and  C15_23 
REMARK   11  A    between atoms: C15_23  and  C16_24 
REMARK   12  A    between atoms: C16_24  and  C17_25 
ROOT
HETATM    1  N2  UNL     1     -16.353  17.835 -12.731  1.00  0.00    -0.277 N 
ATOM      2  H2  UNL     1     -17.313  17.732 -12.405  1.00  0.00     0.189 HD
ENDROOT
BRANCH   1   3
HETATM    3  N1  UNL     1     -15.352  17.939 -11.787  1.00  0.00    -0.307 N 
HETATM    4  C10 UNL     1     -15.239  18.921 -10.924  1.00  0.00     0.000 C 
HETATM    5  C11 UNL     1     -14.109  18.812  -9.995  1.00  0.00     0.065 C 
ATOM      6  H1  UNL     1     -14.650  17.199 -11.757  1.00  0.00     0.186 HD
BRANCH   4   7
HETATM    7  C9  UNL     1     -16.211  19.987 -10.929  1.00  0.00     0.059 C 
BRANCH   7   8
HETATM    8  C8  UNL     1     -17.030  20.241  -9.695  1.00  0.00     0.005 C 
HETATM    9  C5  UNL     1     -17.798  21.452  -9.628  1.00  0.00     0.004 C 
HETATM   10  C6  UNL     1     -19.260  21.269  -9.371  1.00  0.00     0.079 C 
HETATM   11  S1  UNL     1     -19.524  19.518  -9.757  1.00  0.00    -0.168 SA
HETATM   12  C7  UNL     1     -17.821  19.001  -9.414  1.00  0.00     0.079 C 
BRANCH   9  13
HETATM   13  C3  UNL     1     -17.332  22.424  -8.512  1.00  0.00    -0.014 C 
HETATM   14  C4  UNL     1     -16.118  23.199  -8.904  1.00  0.00     0.010 C 
BRANCH  13  15
HETATM   15  C2  UNL     1     -18.461  23.277  -8.022  1.00  0.00     0.000 C 
HETATM   16  C1  UNL     1     -18.106  24.730  -8.259  1.00  0.00     0.005 C 
ENDBRANCH  13  15
ENDBRANCH   9  13
ENDBRANCH   7   8
ENDBRANCH   4   7
ENDBRANCH   1   3
BRANCH   1  17
HETATM   17  C12 UNL     1     -16.121  17.864 -14.137  1.00  0.00     0.186 C 
HETATM   18  S2  UNL     1     -17.239  17.169 -15.084  1.00  0.00    -0.040 SA
BRANCH  17  19
HETATM   19  N3  UNL     1     -14.988  18.474 -14.702  1.00  0.00    -0.366 N 
ATOM     20  H3  UNL     1     -14.979  19.494 -14.709  1.00  0.00     0.161 HD
BRANCH  19  21
HETATM   21  C13 UNL     1     -13.845  17.826 -15.268  1.00  0.00     0.122 C 
BRANCH  21  22
HETATM   22  C14 UNL     1     -13.013  17.197 -14.178  1.00  0.00     0.020 C 
BRANCH  22  23
HETATM   23  C15 UNL     1     -13.049  15.691 -14.359  1.00  0.00     0.006 C 
BRANCH  23  24
HETATM   24  C16 UNL     1     -11.884  15.283 -15.235  1.00  0.00     0.034 C 
BRANCH  24  25
HETATM   25  C17 UNL     1     -10.687  14.891 -14.439  1.00  0.00    -0.084 C 
HETATM   26  C18 UNL     1     -10.854  14.493 -13.199  1.00  0.00    -0.024 C 
HETATM   27  C19 UNL     1      -9.725  14.088 -12.344  1.00  0.00     0.027 C 
HETATM   28  C20 UNL     1      -8.496  14.865 -12.762  1.00  0.00     0.004 C 
HETATM   29  C21 UNL     1      -8.242  14.509 -14.218  1.00  0.00     0.005 C 
HETATM   30  C22 UNL     1      -9.355  14.974 -15.107  1.00  0.00     0.034 C 
ENDBRANCH  24  25
ENDBRANCH  23  24
ENDBRANCH  22  23
ENDBRANCH  21  22
ENDBRANCH  19  21
ENDBRANCH  17  19
ENDBRANCH   1  17
TORSDOF 12
ENDMDL
MODEL 3
REMARK VINA RESULT: -8.363222784      0.964      1.358
REMARK  12 active torsions:
REMARK  status: ('A' for Active; 'I' for Inactive)
REMARK    1  A    between atoms: C2_2  and  C3_3 
REMARK    2  A    between atoms: C3_3  and  C5_5 
REMARK    3  A    between atoms: C8_9  and  C9_10 
REMARK    4  A    between atoms: C9_10  and  C10_11 
REMARK    5  A    between atoms: N1_13  and  N2_15 
REMARK    6  A    between atoms: N2_15  and  C12_17 
REMARK    7  A    between atoms: C12_17  and  N3_19 
REMARK    8  A    between atoms: N3_19  and  C13_21 
REMARK    9  A    between atoms: C13_21  and  C14_22 
REMARK   10  A    between atoms: C14_22  and  C15_23 
REMARK   11  A    between atoms: C15_23  and  C16_24 
REMARK   12  A    between atoms: C16_24  and  C17_25 
ROOT
HETATM    1  N2  UNL     1     -16.527  17.839 -12.979  1.00  0.00    -0.277 N 
ATOM      2  H2  UNL     1     -17.501  17.864 -12.677  1.00  0.00     0.189 HD
ENDROOT
BRANCH   1   3
HETATM    3  N1  UNL     1     -15.545  17.812 -12.009  1.00  0.00    -0.307 N 
HETATM    4  C10 UNL     1     -15.373  18.739 -11.096  1.00  0.00     0.000 C 
HETATM    5  C11 UNL     1     -14.280  18.490 -10.149  1.00  0.00     0.065 C 
ATOM      6  H1  UNL     1     -14.908  17.016 -12.002  1.00  0.00     0.186 HD
BRANCH   4   7
HETATM    7  C9  UNL     1     -16.254  19.882 -11.068  1.00  0.00     0.059 C 
BRANCH   7   8
HETATM    8  C8  UNL     1     -16.480  20.603  -9.769  1.00  0.00     0.005 C 
HETATM    9  C5  UNL     1     -16.326  22.030  -9.752  1.00  0.00     0.004 C 
HETATM   10  C6  UNL     1     -17.510  22.796  -9.252  1.00  0.00     0.079 C 
HETATM   11  S1  UNL     1     -18.851  21.580  -9.353  1.00  0.00    -0.168 SA
HETATM   12  C7  UNL     1     -17.782  20.124  -9.207  1.00  0.00     0.079 C 
BRANCH   9  13
HETATM   13  C3  UNL     1     -15.153  22.518  -8.861  1.00  0.00    -0.014 C 
HETATM   14  C4  UNL     1     -13.889  22.701  -9.635  1.00  0.00     0.010 C 
BRANCH  13  15
HETATM   15  C2  UNL     1     -15.541  23.715  -8.049  1.00  0.00     0.000 C 
HETATM   16  C1  UNL     1     -14.313  24.228  -7.327  1.00  0.00     0.005 C 
ENDBRANCH  13  15
ENDBRANCH   9  13
ENDBRANCH   7   8
ENDBRANCH   4   7
ENDBRANCH   1   3
BRANCH   1  17
HETATM   17  C12 UNL     1     -16.258  17.834 -14.378  1.00  0.00     0.186 C 
HETATM   18  S2  UNL     1     -17.374  17.160 -15.343  1.00  0.00    -0.040 SA
BRANCH  17  19
HETATM   19  N3  UNL     1     -15.090  18.393 -14.923  1.00  0.00    -0.366 N 
ATOM     20  H3  UNL     1     -15.076  19.409 -15.015  1.00  0.00     0.161 HD
BRANCH  19  21
HETATM   21  C13 UNL     1     -13.919  17.699 -15.364  1.00  0.00     0.122 C 
BRANCH  21  22
HETATM   22  C14 UNL     1     -13.134  17.201 -14.176  1.00  0.00     0.020 C 
BRANCH  22  23
HETATM   23  C15 UNL     1     -13.262  15.690 -14.120  1.00  0.00     0.006 C 
BRANCH  23  24
HETATM   24  C16 UNL     1     -12.049  15.130 -13.409  1.00  0.00     0.034 C 
BRANCH  24  25
HETATM   25  C17 UNL     1     -10.897  14.924 -14.330  1.00  0.00    -0.084 C 
HETATM   26  C18 UNL     1      -9.686  14.866 -13.825  1.00  0.00    -0.024 C 
HETATM   27  C19 UNL     1      -8.492  14.665 -14.664  1.00  0.00     0.027 C 
HETATM   28  C20 UNL     1      -8.748  15.271 -16.026  1.00  0.00     0.004 C 
HETATM   29  C21 UNL     1      -9.954  14.543 -16.596  1.00  0.00     0.005 C 
HETATM   30  C22 UNL     1     -11.190  14.793 -15.787  1.00  0.00     0.034 C 
ENDBRANCH  24  25
ENDBRANCH  23  24
ENDBRANCH  22  23
ENDBRANCH  21  22
ENDBRANCH  19  21
ENDBRANCH  17  19
ENDBRANCH   1  17
TORSDOF 12
ENDMDL
MODEL 4
REMARK VINA RESULT: -8.170859368      1.766      3.464
REMARK  12 active torsions:
REMARK  status: ('A' for Active; 'I' for Inactive)
REMARK    1  A    between atoms: C2_2  and  C3_3 
REMARK    2  A    between atoms: C3_3  and  C5_5 
REMARK    3  A    between atoms: C8_9  and  C9_10 
REMARK    4  A    between atoms: C9_10  and  C10_11 
REMARK    5  A    between atoms: N1_13  and  N2_15 
REMARK    6  A    between atoms: N2_15  and  C12_17 
REMARK    7  A    between atoms: C12_17  and  N3_19 
REMARK    8  A    between atoms: N3_19  and  C13_21 
REMARK    9  A    between atoms: C13_21  and  C14_22 
REMARK   10  A    between atoms: C14_22  and  C15_23 
REMARK   11  A    between atoms: C15_23  and  C16_24 
REMARK   12  A    between atoms: C16_24  and  C17_25 
ROOT
HETATM    1  N2  UNL     1     -16.135  18.923 -12.944  1.00  0.00    -0.277 N 
ATOM      2  H2  UNL     1     -15.640  19.810 -12.853  1.00  0.00     0.189 HD
ENDROOT
BRANCH   1   3
HETATM    3  N1  UNL     1     -16.895  18.489 -11.876  1.00  0.00    -0.307 N 
HETATM    4  C10 UNL     1     -17.143  19.198 -10.800  1.00  0.00     0.000 C 
HETATM    5  C11 UNL     1     -17.997  18.543  -9.802  1.00  0.00     0.065 C 
ATOM      6  H1  UNL     1     -17.292  17.551 -11.928  1.00  0.00     0.186 HD
BRANCH   4   7
HETATM    7  C9  UNL     1     -16.602  20.531 -10.686  1.00  0.00     0.059 C 
BRANCH   7   8
HETATM    8  C8  UNL     1     -15.556  20.812  -9.644  1.00  0.00     0.005 C 
HETATM    9  C5  UNL     1     -14.179  20.816 -10.051  1.00  0.00     0.004 C 
HETATM   10  C6  UNL     1     -13.423  22.068  -9.739  1.00  0.00     0.079 C 
HETATM   11  S1  UNL     1     -14.742  23.268  -9.414  1.00  0.00    -0.168 SA
HETATM   12  C7  UNL     1     -15.975  22.044  -8.903  1.00  0.00     0.079 C 
BRANCH   9  13
HETATM   13  C3  UNL     1     -13.335  19.688  -9.401  1.00  0.00    -0.014 C 
HETATM   14  C4  UNL     1     -13.592  18.355 -10.023  1.00  0.00     0.010 C 
BRANCH  13  15
HETATM   15  C2  UNL     1     -11.885  20.055  -9.338  1.00  0.00     0.000 C 
HETATM   16  C1  UNL     1     -11.085  18.808  -9.026  1.00  0.00     0.005 C 
ENDBRANCH  13  15
ENDBRANCH   9  13
ENDBRANCH   7   8
ENDBRANCH   4   7
ENDBRANCH   1   3
BRANCH   1  17
HETATM   17  C12 UNL     1     -16.002  18.202 -14.165  1.00  0.00     0.186 C 
HETATM   18  S2  UNL     1     -17.211  17.198 -14.566  1.00  0.00    -0.040 SA
BRANCH  17  19
HETATM   19  N3  UNL     1     -14.888  18.347 -15.009  1.00  0.00    -0.366 N 
ATOM     20  H3  UNL     1     -14.960  19.060 -15.736  1.00  0.00     0.161 HD
BRANCH  19  21
HETATM   21  C13 UNL     1     -13.663  17.609 -14.965  1.00  0.00     0.122 C 
BRANCH  21  22
HETATM   22  C14 UNL     1     -13.734  16.551 -13.892  1.00  0.00     0.020 C 
BRANCH  22  23
HETATM   23  C15 UNL     1     -12.382  16.475 -13.207  1.00  0.00     0.006 C 
BRANCH  23  24
HETATM   24  C16 UNL     1     -11.886  15.047 -13.276  1.00  0.00     0.034 C 
BRANCH  24  25
HETATM   25  C17 UNL     1     -10.773  14.880 -14.253  1.00  0.00    -0.084 C 
HETATM   26  C18 UNL     1      -9.540  14.833 -13.804  1.00  0.00    -0.024 C 
HETATM   27  C19 UNL     1      -8.383  14.670 -14.700  1.00  0.00     0.027 C 
HETATM   28  C20 UNL     1      -8.710  15.300 -16.035  1.00  0.00     0.004 C 
HETATM   29  C21 UNL     1      -9.929  14.564 -16.567  1.00  0.00     0.005 C 
HETATM   30  C22 UNL     1     -11.131  14.775 -15.697  1.00  0.00     0.034 C 
ENDBRANCH  24  25
ENDBRANCH  23  24
ENDBRANCH  22  23
ENDBRANCH  21  22
ENDBRANCH  19  21
ENDBRANCH  17  19
ENDBRANCH   1  17
TORSDOF 12
ENDMDL
MODEL 5
REMARK VINA RESULT: -7.991874940      1.456      2.208
REMARK  12 active torsions:
REMARK  status: ('A' for Active; 'I' for Inactive)
REMARK    1  A    between atoms: C2_2  and  C3_3 
REMARK    2  A    between atoms: C3_3  and  C5_5 
REMARK    3  A    between atoms: C8_9  and  C9_10 
REMARK    4  A    between atoms: C9_10  and  C10_11 
REMARK    5  A    between atoms: N1_13  and  N2_15 
REMARK    6  A    between atoms: N2_15  and  C12_17 
REMARK    7  A    between atoms: C12_17  and  N3_19 
REMARK    8  A    between atoms: N3_19  and  C13_21 
REMARK    9  A    between atoms: C13_21  and  C14_22 
REMARK   10  A    between atoms: C14_22  and  C15_23 
REMARK   11  A    between atoms: C15_23  and  C16_24 
REMARK   12  A    between atoms: C16_24  and  C17_25 
ROOT
HETATM    1  N2  UNL     1     -16.073  18.988 -12.620  1.00  0.00    -0.277 N 
ATOM      2  H2  UNL     1     -15.668  19.917 -12.506  1.00  0.00     0.189 HD
ENDROOT
BRANCH   1   3
HETATM    3  N1  UNL     1     -16.746  18.435 -11.550  1.00  0.00    -0.307 N 
HETATM    4  C10 UNL     1     -16.615  18.825 -10.303  1.00  0.00     0.000 C 
HETATM    5  C11 UNL     1     -17.450  18.109  -9.332  1.00  0.00     0.065 C 
ATOM      6  H1  UNL     1     -17.391  17.669 -11.741  1.00  0.00     0.186 HD
BRANCH   4   7
HETATM    7  C9  UNL     1     -15.714  19.907  -9.988  1.00  0.00     0.059 C 
BRANCH   7   8
HETATM    8  C8  UNL     1     -16.256  21.304  -9.876  1.00  0.00     0.005 C 
HETATM    9  C5  UNL     1     -16.703  21.756  -8.588  1.00  0.00     0.004 C 
HETATM   10  C6  UNL     1     -16.065  23.014  -8.094  1.00  0.00     0.079 C 
HETATM   11  S1  UNL     1     -14.596  23.165  -9.145  1.00  0.00    -0.168 SA
HETATM   12  C7  UNL     1     -15.276  22.224 -10.536  1.00  0.00     0.079 C 
BRANCH   9  13
HETATM   13  C3  UNL     1     -18.225  22.050  -8.527  1.00  0.00    -0.014 C 
HETATM   14  C4  UNL     1     -18.516  23.478  -8.205  1.00  0.00     0.010 C 
BRANCH  13  15
HETATM   15  C2  UNL     1     -18.930  21.551  -9.750  1.00  0.00     0.000 C 
HETATM   16  C1  UNL     1     -19.962  20.527  -9.330  1.00  0.00     0.005 C 
ENDBRANCH  13  15
ENDBRANCH   9  13
ENDBRANCH   7   8
ENDBRANCH   4   7
ENDBRANCH   1   3
BRANCH   1  17
HETATM   17  C12 UNL     1     -15.910  18.336 -13.876  1.00  0.00     0.186 C 
HETATM   18  S2  UNL     1     -16.997  17.195 -14.261  1.00  0.00    -0.040 SA
BRANCH  17  19
HETATM   19  N3  UNL     1     -14.871  18.657 -14.765  1.00  0.00    -0.366 N 
ATOM     20  H3  UNL     1     -14.947  19.554 -15.244  1.00  0.00     0.161 HD
BRANCH  19  21
HETATM   21  C13 UNL     1     -13.718  17.868 -15.074  1.00  0.00     0.122 C 
BRANCH  21  22
HETATM   22  C14 UNL     1     -13.262  17.114 -13.849  1.00  0.00     0.020 C 
BRANCH  22  23
HETATM   23  C15 UNL     1     -13.246  15.634 -14.179  1.00  0.00     0.006 C 
BRANCH  23  24
HETATM   24  C16 UNL     1     -12.078  14.993 -13.462  1.00  0.00     0.034 C 
BRANCH  24  25
HETATM   25  C17 UNL     1     -10.885  14.842 -14.343  1.00  0.00    -0.084 C 
HETATM   26  C18 UNL     1      -9.694  14.794 -13.792  1.00  0.00    -0.024 C 
HETATM   27  C19 UNL     1      -8.465  14.645 -14.590  1.00  0.00     0.027 C 
HETATM   28  C20 UNL     1      -8.680  15.291 -15.940  1.00  0.00     0.004 C 
HETATM   29  C21 UNL     1      -9.847  14.556 -16.581  1.00  0.00     0.005 C 
HETATM   30  C22 UNL     1     -11.119  14.753 -15.814  1.00  0.00     0.034 C 
ENDBRANCH  24  25
ENDBRANCH  23  24
ENDBRANCH  22  23
ENDBRANCH  21  22
ENDBRANCH  19  21
ENDBRANCH  17  19
ENDBRANCH   1  17
TORSDOF 12
ENDMDL
