MODEL 1
REMARK VINA RESULT: -8.163621534      0.000      0.000
REMARK  12 active torsions:
REMARK  status: ('A' for Active; 'I' for Inactive)
REMARK    1  A    between atoms: C2_2  and  C3_3 
REMARK    2  A    between atoms: C3_3  and  C4_4 
REMARK    3  A    between atoms: C4_4  and  C5_5 
REMARK    4  A    between atoms: C5_5  and  O1_6 
REMARK    5  A    between atoms: O1_6  and  C6_7 
REMARK    6  A    between atoms: C13_16  and  C14_17 
REMARK    7  A    between atoms: C14_17  and  C16_19 
REMARK    8  A    between atoms: C16_19  and  O2_20 
REMARK    9  A    between atoms: C16_19  and  C17_22 
REMARK   10  A    between atoms: C17_22  and  C18_23 
REMARK   11  A    between atoms: C18_23  and  C19_24 
REMARK   12  A    between atoms: C19_24  and  O3_27 
ROOT
HETATM    1  C6  UNL     1     -16.769  26.992  -4.575  1.00  0.00     0.113 C 
HETATM    2  N1  UNL     1     -17.223  28.072  -5.151  1.00  0.00    -0.374 N 
ATOM      3  H1  UNL     1     -16.845  28.988  -4.909  1.00  0.00     0.161 HD
HETATM    4  C7  UNL     1     -18.253  27.943  -6.121  1.00  0.00     0.126 C 
HETATM    5  C8  UNL     1     -18.068  26.729  -7.004  1.00  0.00     0.008 C 
HETATM    6  C9  UNL     1     -16.884  26.917  -7.877  1.00  0.00     0.007 C 
HETATM    7  C10 UNL     1     -16.733  25.680  -8.764  1.00  0.00     0.010 C 
HETATM    8  C11 UNL     1     -16.432  24.519  -7.918  1.00  0.00    -0.036 C 
HETATM    9  C12 UNL     1     -15.072  24.672  -7.251  1.00  0.00     0.016 C 
HETATM   10  C13 UNL     1     -16.433  23.150  -8.532  1.00  0.00     0.000 C 
HETATM   11  C22 UNL     1     -17.879  22.909  -8.844  1.00  0.00     0.006 C 
HETATM   12  C23 UNL     1     -18.621  23.688  -7.765  1.00  0.00     0.006 C 
HETATM   13  C24 UNL     1     -17.521  24.295  -6.880  1.00  0.00    -0.001 C 
HETATM   14  C25 UNL     1     -17.992  25.489  -6.154  1.00  0.00     0.003 C 
HETATM   15  C26 UNL     1     -17.249  25.651  -4.865  1.00  0.00     0.089 C 
ENDROOT
BRANCH  10  16
HETATM   16  C14 UNL     1     -15.471  22.860  -9.613  1.00  0.00     0.015 C 
HETATM   17  C15 UNL     1     -15.754  21.656 -10.465  1.00  0.00     0.013 C 
BRANCH  16  18
HETATM   18  C16 UNL     1     -14.076  22.820  -9.036  1.00  0.00     0.122 C 
BRANCH  18  19
HETATM   19  O2  UNL     1     -13.563  21.537  -8.939  1.00  0.00    -0.395 OA
ATOM     20  H2  UNL     1     -14.122  20.948  -8.447  1.00  0.00     0.210 HD
ENDBRANCH  18  19
BRANCH  18  21
HETATM   21  C17 UNL     1     -13.089  23.712  -9.699  1.00  0.00     0.035 C 
BRANCH  21  22
HETATM   22  C18 UNL     1     -11.861  22.833  -9.988  1.00  0.00     0.039 C 
BRANCH  22  23
HETATM   23  C19 UNL     1     -10.659  23.673 -10.316  1.00  0.00     0.051 C 
HETATM   24  C20 UNL     1      -9.359  22.932  -9.983  1.00  0.00     0.045 C 
HETATM   25  C21 UNL     1     -10.697  24.887  -9.410  1.00  0.00     0.045 C 
BRANCH  23  26
HETATM   26  O3  UNL     1     -10.649  24.055 -11.659  1.00  0.00    -0.391 OA
ATOM     27  H3  UNL     1      -9.873  24.558 -11.875  1.00  0.00     0.210 HD
ENDBRANCH  23  26
ENDBRANCH  22  23
ENDBRANCH  21  22
ENDBRANCH  18  21
ENDBRANCH  16  18
ENDBRANCH  10  16
BRANCH   1  28
HETATM   28  O1  UNL     1     -15.784  27.232  -3.661  1.00  0.00    -0.339 OA
BRANCH  28  29
HETATM   29  C5  UNL     1     -15.116  26.468  -2.761  1.00  0.00     0.177 C 
BRANCH  29  30
HETATM   30  C4  UNL     1     -13.993  25.658  -3.298  1.00  0.00     0.027 C 
BRANCH  30  31
HETATM   31  C3  UNL     1     -13.411  24.630  -2.412  1.00  0.00     0.002 C 
BRANCH  31  32
HETATM   32  C2  UNL     1     -13.927  24.680  -0.976  1.00  0.00    -0.004 C 
HETATM   33  C1  UNL     1     -12.745  24.710  -0.015  1.00  0.00     0.005 C 
ENDBRANCH  31  32
ENDBRANCH  30  31
ENDBRANCH  29  30
ENDBRANCH  28  29
ENDBRANCH   1  28
TORSDOF 12
ENDMDL
MODEL 2
REMARK VINA RESULT: -8.000748366      1.584      3.111
REMARK  12 active torsions:
REMARK  status: ('A' for Active; 'I' for Inactive)
REMARK    1  A    between atoms: C2_2  and  C3_3 
REMARK    2  A    between atoms: C3_3  and  C4_4 
REMARK    3  A    between atoms: C4_4  and  C5_5 
REMARK    4  A    between atoms: C5_5  and  O1_6 
REMARK    5  A    between atoms: O1_6  and  C6_7 
REMARK    6  A    between atoms: C13_16  and  C14_17 
REMARK    7  A    between atoms: C14_17  and  C16_19 
REMARK    8  A    between atoms: C16_19  and  O2_20 
REMARK    9  A    between atoms: C16_19  and  C17_22 
REMARK   10  A    between atoms: C17_22  and  C18_23 
REMARK   11  A    between atoms: C18_23  and  C19_24 
REMARK   12  A    between atoms: C19_24  and  O3_27 
ROOT
HETATM    1  C6  UNL     1     -17.177  26.772  -4.653  1.00  0.00     0.113 C 
HETATM    2  N1  UNL     1     -17.384  27.920  -5.237  1.00  0.00    -0.374 N 
ATOM      3  H1  UNL     1     -17.157  28.794  -4.762  1.00  0.00     0.161 HD
HETATM    4  C7  UNL     1     -17.932  27.927  -6.548  1.00  0.00     0.126 C 
HETATM    5  C8  UNL     1     -17.378  26.815  -7.412  1.00  0.00     0.008 C 
HETATM    6  C9  UNL     1     -15.948  27.071  -7.706  1.00  0.00     0.007 C 
HETATM    7  C10 UNL     1     -15.423  25.939  -8.590  1.00  0.00     0.010 C 
HETATM    8  C11 UNL     1     -15.462  24.682  -7.831  1.00  0.00    -0.036 C 
HETATM    9  C12 UNL     1     -14.492  24.726  -6.660  1.00  0.00     0.016 C 
HETATM   10  C13 UNL     1     -15.184  23.391  -8.543  1.00  0.00     0.000 C 
HETATM   11  C22 UNL     1     -16.375  23.223  -9.438  1.00  0.00     0.006 C 
HETATM   12  C23 UNL     1     -17.507  23.894  -8.669  1.00  0.00     0.006 C 
HETATM   13  C24 UNL     1     -16.872  24.370  -7.354  1.00  0.00    -0.001 C 
HETATM   14  C25 UNL     1     -17.623  25.486  -6.750  1.00  0.00     0.003 C 
HETATM   15  C26 UNL     1     -17.468  25.484  -5.261  1.00  0.00     0.089 C 
ENDROOT
BRANCH  10  16
HETATM   16  C14 UNL     1     -13.861  23.201  -9.170  1.00  0.00     0.015 C 
HETATM   17  C15 UNL     1     -13.460  24.199 -10.218  1.00  0.00     0.013 C 
BRANCH  16  18
HETATM   18  C16 UNL     1     -13.756  21.784  -9.680  1.00  0.00     0.122 C 
BRANCH  18  19
HETATM   19  O2  UNL     1     -12.560  21.171  -9.342  1.00  0.00    -0.395 OA
ATOM     20  H2  UNL     1     -11.980  21.050 -10.084  1.00  0.00     0.210 HD
ENDBRANCH  18  19
BRANCH  18  21
HETATM   21  C17 UNL     1     -14.896  20.896  -9.329  1.00  0.00     0.035 C 
BRANCH  21  22
HETATM   22  C18 UNL     1     -15.150  20.032 -10.574  1.00  0.00     0.039 C 
BRANCH  22  23
HETATM   23  C19 UNL     1     -14.922  18.576 -10.278  1.00  0.00     0.051 C 
HETATM   24  C20 UNL     1     -14.442  17.826 -11.526  1.00  0.00     0.045 C 
HETATM   25  C21 UNL     1     -16.264  17.975  -9.914  1.00  0.00     0.045 C 
BRANCH  23  26
HETATM   26  O3  UNL     1     -14.002  18.399  -9.243  1.00  0.00    -0.391 OA
ATOM     27  H3  UNL     1     -14.226  18.922  -8.482  1.00  0.00     0.210 HD
ENDBRANCH  23  26
ENDBRANCH  22  23
ENDBRANCH  21  22
ENDBRANCH  18  21
ENDBRANCH  16  18
ENDBRANCH  10  16
BRANCH   1  28
HETATM   28  O1  UNL     1     -16.649  26.883  -3.398  1.00  0.00    -0.339 OA
BRANCH  28  29
HETATM   29  C5  UNL     1     -15.390  26.912  -2.897  1.00  0.00     0.177 C 
BRANCH  29  30
HETATM   30  C4  UNL     1     -14.585  25.678  -3.082  1.00  0.00     0.027 C 
BRANCH  30  31
HETATM   31  C3  UNL     1     -13.471  25.445  -2.142  1.00  0.00     0.002 C 
BRANCH  31  32
HETATM   32  C2  UNL     1     -13.866  24.676  -0.884  1.00  0.00    -0.004 C 
HETATM   33  C1  UNL     1     -12.684  24.634   0.076  1.00  0.00     0.005 C 
ENDBRANCH  31  32
ENDBRANCH  30  31
ENDBRANCH  29  30
ENDBRANCH  28  29
ENDBRANCH   1  28
TORSDOF 12
ENDMDL
MODEL 3
REMARK VINA RESULT: -7.947702931      2.254      4.402
REMARK  12 active torsions:
REMARK  status: ('A' for Active; 'I' for Inactive)
REMARK    1  A    between atoms: C2_2  and  C3_3 
REMARK    2  A    between atoms: C3_3  and  C4_4 
REMARK    3  A    between atoms: C4_4  and  C5_5 
REMARK    4  A    between atoms: C5_5  and  O1_6 
REMARK    5  A    between atoms: O1_6  and  C6_7 
REMARK    6  A    between atoms: C13_16  and  C14_17 
REMARK    7  A    between atoms: C14_17  and  C16_19 
REMARK    8  A    between atoms: C16_19  and  O2_20 
REMARK    9  A    between atoms: C16_19  and  C17_22 
REMARK   10  A    between atoms: C17_22  and  C18_23 
REMARK   11  A    between atoms: C18_23  and  C19_24 
REMARK   12  A    between atoms: C19_24  and  O3_27 
ROOT
HETATM    1  C6  UNL     1     -15.271  28.294  -5.163  1.00  0.00     0.113 C 
HETATM    2  N1  UNL     1     -14.193  28.946  -4.820  1.00  0.00    -0.374 N 
ATOM      3  H1  UNL     1     -13.983  29.127  -3.839  1.00  0.00     0.161 HD
HETATM    4  C7  UNL     1     -13.317  29.396  -5.845  1.00  0.00     0.126 C 
HETATM    5  C8  UNL     1     -13.177  28.393  -6.969  1.00  0.00     0.008 C 
HETATM    6  C9  UNL     1     -12.450  27.194  -6.486  1.00  0.00     0.007 C 
HETATM    7  C10 UNL     1     -12.315  26.208  -7.648  1.00  0.00     0.010 C 
HETATM    8  C11 UNL     1     -13.651  25.741  -8.037  1.00  0.00    -0.036 C 
HETATM    9  C12 UNL     1     -14.287  24.924  -6.921  1.00  0.00     0.016 C 
HETATM   10  C13 UNL     1     -13.802  24.917  -9.282  1.00  0.00     0.000 C 
HETATM   11  C22 UNL     1     -13.507  25.892 -10.383  1.00  0.00     0.006 C 
HETATM   12  C23 UNL     1     -13.977  27.229  -9.822  1.00  0.00     0.006 C 
HETATM   13  C24 UNL     1     -14.548  26.904  -8.433  1.00  0.00    -0.001 C 
HETATM   14  C25 UNL     1     -14.534  28.078  -7.541  1.00  0.00     0.003 C 
HETATM   15  C26 UNL     1     -15.639  27.992  -6.536  1.00  0.00     0.089 C 
ENDROOT
BRANCH  10  16
HETATM   16  C14 UNL     1     -13.110  23.616  -9.356  1.00  0.00     0.015 C 
HETATM   17  C15 UNL     1     -11.870  23.557 -10.200  1.00  0.00     0.013 C 
BRANCH  16  18
HETATM   18  C16 UNL     1     -14.105  22.550  -9.749  1.00  0.00     0.122 C 
BRANCH  18  19
HETATM   19  O2  UNL     1     -13.949  21.371  -9.039  1.00  0.00    -0.395 OA
ATOM     20  H2  UNL     1     -14.597  21.260  -8.353  1.00  0.00     0.210 HD
ENDBRANCH  18  19
BRANCH  18  21
HETATM   21  C17 UNL     1     -15.530  22.971  -9.725  1.00  0.00     0.035 C 
BRANCH  21  22
HETATM   22  C18 UNL     1     -16.333  21.706  -9.383  1.00  0.00     0.039 C 
BRANCH  22  23
HETATM   23  C19 UNL     1     -17.704  22.056  -8.874  1.00  0.00     0.051 C 
HETATM   24  C20 UNL     1     -17.631  22.703  -7.487  1.00  0.00     0.045 C 
HETATM   25  C21 UNL     1     -18.462  20.756  -8.694  1.00  0.00     0.045 C 
BRANCH  23  26
HETATM   26  O3  UNL     1     -18.377  22.906  -9.753  1.00  0.00    -0.391 OA
ATOM     27  H3  UNL     1     -19.057  22.448 -10.232  1.00  0.00     0.210 HD
ENDBRANCH  23  26
ENDBRANCH  22  23
ENDBRANCH  21  22
ENDBRANCH  18  21
ENDBRANCH  16  18
ENDBRANCH  10  16
BRANCH   1  28
HETATM   28  O1  UNL     1     -16.038  27.911  -4.100  1.00  0.00    -0.339 OA
BRANCH  28  29
HETATM   29  C5  UNL     1     -15.950  26.926  -3.171  1.00  0.00     0.177 C 
BRANCH  29  30
HETATM   30  C4  UNL     1     -14.989  25.834  -3.467  1.00  0.00     0.027 C 
BRANCH  30  31
HETATM   31  C3  UNL     1     -13.777  25.749  -2.627  1.00  0.00     0.002 C 
BRANCH  31  32
HETATM   32  C2  UNL     1     -13.605  24.410  -1.914  1.00  0.00    -0.004 C 
HETATM   33  C1  UNL     1     -13.889  24.588  -0.428  1.00  0.00     0.005 C 
ENDBRANCH  31  32
ENDBRANCH  30  31
ENDBRANCH  29  30
ENDBRANCH  28  29
ENDBRANCH   1  28
TORSDOF 12
ENDMDL
MODEL 4
REMARK VINA RESULT: -7.901035142      5.511      8.145
REMARK  12 active torsions:
REMARK  status: ('A' for Active; 'I' for Inactive)
REMARK    1  A    between atoms: C2_2  and  C3_3 
REMARK    2  A    between atoms: C3_3  and  C4_4 
REMARK    3  A    between atoms: C4_4  and  C5_5 
REMARK    4  A    between atoms: C5_5  and  O1_6 
REMARK    5  A    between atoms: O1_6  and  C6_7 
REMARK    6  A    between atoms: C13_16  and  C14_17 
REMARK    7  A    between atoms: C14_17  and  C16_19 
REMARK    8  A    between atoms: C16_19  and  O2_20 
REMARK    9  A    between atoms: C16_19  and  C17_22 
REMARK   10  A    between atoms: C17_22  and  C18_23 
REMARK   11  A    between atoms: C18_23  and  C19_24 
REMARK   12  A    between atoms: C19_24  and  O3_27 
ROOT
HETATM    1  C6  UNL     1     -17.210  21.291  -9.444  1.00  0.00     0.113 C 
HETATM    2  N1  UNL     1     -18.226  20.615  -8.982  1.00  0.00    -0.374 N 
ATOM      3  H1  UNL     1     -19.136  21.060  -8.859  1.00  0.00     0.161 HD
HETATM    4  C7  UNL     1     -18.038  19.245  -8.654  1.00  0.00     0.126 C 
HETATM    5  C8  UNL     1     -17.139  18.532  -9.641  1.00  0.00     0.008 C 
HETATM    6  C9  UNL     1     -17.822  18.415 -10.951  1.00  0.00     0.007 C 
HETATM    7  C10 UNL     1     -16.894  17.681 -11.919  1.00  0.00     0.010 C 
HETATM    8  C11 UNL     1     -15.702  18.504 -12.157  1.00  0.00    -0.036 C 
HETATM    9  C12 UNL     1     -16.068  19.789 -12.887  1.00  0.00     0.016 C 
HETATM   10  C13 UNL     1     -14.550  17.917 -12.917  1.00  0.00     0.000 C 
HETATM   11  C22 UNL     1     -14.002  16.885 -11.977  1.00  0.00     0.006 C 
HETATM   12  C23 UNL     1     -14.300  17.455 -10.595  1.00  0.00     0.006 C 
HETATM   13  C24 UNL     1     -14.975  18.810 -10.856  1.00  0.00    -0.001 C 
HETATM   14  C25 UNL     1     -15.812  19.238  -9.721  1.00  0.00     0.003 C 
HETATM   15  C26 UNL     1     -15.885  20.732  -9.652  1.00  0.00     0.089 C 
ENDROOT
BRANCH  10  16
HETATM   16  C14 UNL     1     -14.770  17.483 -14.311  1.00  0.00     0.015 C 
HETATM   17  C15 UNL     1     -15.593  16.244 -14.511  1.00  0.00     0.013 C 
BRANCH  16  18
HETATM   18  C16 UNL     1     -13.437  17.389 -15.014  1.00  0.00     0.122 C 
BRANCH  18  19
HETATM   19  O2  UNL     1     -12.506  18.301 -14.544  1.00  0.00    -0.395 OA
ATOM     20  H2  UNL     1     -12.789  19.203 -14.634  1.00  0.00     0.210 HD
ENDBRANCH  18  19
BRANCH  18  21
HETATM   21  C17 UNL     1     -12.837  16.029 -15.057  1.00  0.00     0.035 C 
BRANCH  21  22
HETATM   22  C18 UNL     1     -11.436  16.172 -14.440  1.00  0.00     0.039 C 
BRANCH  22  23
HETATM   23  C19 UNL     1     -10.726  14.848 -14.395  1.00  0.00     0.051 C 
HETATM   24  C20 UNL     1     -10.326  14.484 -12.961  1.00  0.00     0.045 C 
HETATM   25  C21 UNL     1      -9.432  15.005 -15.168  1.00  0.00     0.045 C 
BRANCH  23  26
HETATM   26  O3  UNL     1     -11.508  13.827 -14.937  1.00  0.00    -0.391 OA
ATOM     27  H3  UNL     1     -12.124  13.482 -14.302  1.00  0.00     0.210 HD
ENDBRANCH  23  26
ENDBRANCH  22  23
ENDBRANCH  21  22
ENDBRANCH  18  21
ENDBRANCH  16  18
ENDBRANCH  10  16
BRANCH   1  28
HETATM   28  O1  UNL     1     -17.504  22.595  -9.724  1.00  0.00    -0.339 OA
BRANCH  28  29
HETATM   29  C5  UNL     1     -17.754  23.696  -8.972  1.00  0.00     0.177 C 
BRANCH  29  30
HETATM   30  C4  UNL     1     -16.840  23.921  -7.823  1.00  0.00     0.027 C 
BRANCH  30  31
HETATM   31  C3  UNL     1     -15.540  24.562  -8.104  1.00  0.00     0.002 C 
BRANCH  31  32
HETATM   32  C2  UNL     1     -14.342  23.625  -7.971  1.00  0.00    -0.004 C 
HETATM   33  C1  UNL     1     -13.562  23.613  -9.280  1.00  0.00     0.005 C 
ENDBRANCH  31  32
ENDBRANCH  30  31
ENDBRANCH  29  30
ENDBRANCH  28  29
ENDBRANCH   1  28
TORSDOF 12
ENDMDL
MODEL 5
REMARK VINA RESULT: -7.857552329      5.353      8.108
REMARK  12 active torsions:
REMARK  status: ('A' for Active; 'I' for Inactive)
REMARK    1  A    between atoms: C2_2  and  C3_3 
REMARK    2  A    between atoms: C3_3  and  C4_4 
REMARK    3  A    between atoms: C4_4  and  C5_5 
REMARK    4  A    between atoms: C5_5  and  O1_6 
REMARK    5  A    between atoms: O1_6  and  C6_7 
REMARK    6  A    between atoms: C13_16  and  C14_17 
REMARK    7  A    between atoms: C14_17  and  C16_19 
REMARK    8  A    between atoms: C16_19  and  O2_20 
REMARK    9  A    between atoms: C16_19  and  C17_22 
REMARK   10  A    between atoms: C17_22  and  C18_23 
REMARK   11  A    between atoms: C18_23  and  C19_24 
REMARK   12  A    between atoms: C19_24  and  O3_27 
ROOT
HETATM    1  C6  UNL     1     -17.316  21.269  -9.375  1.00  0.00     0.113 C 
HETATM    2  N1  UNL     1     -18.341  20.577  -8.957  1.00  0.00    -0.374 N 
ATOM      3  H1  UNL     1     -19.260  21.011  -8.865  1.00  0.00     0.161 HD
HETATM    4  C7  UNL     1     -18.150  19.207  -8.634  1.00  0.00     0.126 C 
HETATM    5  C8  UNL     1     -17.206  18.512  -9.592  1.00  0.00     0.008 C 
HETATM    6  C9  UNL     1     -17.839  18.399 -10.928  1.00  0.00     0.007 C 
HETATM    7  C10 UNL     1     -16.866  17.683 -11.866  1.00  0.00     0.010 C 
HETATM    8  C11 UNL     1     -15.676  18.522 -12.052  1.00  0.00    -0.036 C 
HETATM    9  C12 UNL     1     -16.028  19.808 -12.785  1.00  0.00     0.016 C 
HETATM   10  C13 UNL     1     -14.489  17.954 -12.773  1.00  0.00     0.000 C 
HETATM   11  C22 UNL     1     -13.965  16.920 -11.822  1.00  0.00     0.006 C 
HETATM   12  C23 UNL     1     -14.322  17.474 -10.448  1.00  0.00     0.006 C 
HETATM   13  C24 UNL     1     -15.001  18.824 -10.723  1.00  0.00    -0.001 C 
HETATM   14  C25 UNL     1     -15.885  19.234  -9.616  1.00  0.00     0.003 C 
HETATM   15  C26 UNL     1     -15.978  20.726  -9.537  1.00  0.00     0.089 C 
ENDROOT
BRANCH  10  16
HETATM   16  C14 UNL     1     -14.652  17.530 -14.178  1.00  0.00     0.015 C 
HETATM   17  C15 UNL     1     -15.800  16.610 -14.477  1.00  0.00     0.013 C 
BRANCH  16  18
HETATM   18  C16 UNL     1     -13.342  16.969 -14.679  1.00  0.00     0.122 C 
BRANCH  18  19
HETATM   19  O2  UNL     1     -12.286  17.857 -14.554  1.00  0.00    -0.395 OA
ATOM     20  H2  UNL     1     -12.120  18.354 -15.347  1.00  0.00     0.210 HD
ENDBRANCH  18  19
BRANCH  18  21
HETATM   21  C17 UNL     1     -12.960  15.647 -14.116  1.00  0.00     0.035 C 
BRANCH  21  22
HETATM   22  C18 UNL     1     -11.615  15.289 -14.768  1.00  0.00     0.039 C 
BRANCH  22  23
HETATM   23  C19 UNL     1     -10.516  15.233 -13.745  1.00  0.00     0.051 C 
HETATM   24  C20 UNL     1      -9.171  14.891 -14.396  1.00  0.00     0.045 C 
HETATM   25  C21 UNL     1     -10.833  14.087 -12.806  1.00  0.00     0.045 C 
BRANCH  23  26
HETATM   26  O3  UNL     1     -10.404  16.434 -13.043  1.00  0.00    -0.391 OA
ATOM     27  H3  UNL     1     -11.131  16.560 -12.445  1.00  0.00     0.210 HD
ENDBRANCH  23  26
ENDBRANCH  22  23
ENDBRANCH  21  22
ENDBRANCH  18  21
ENDBRANCH  16  18
ENDBRANCH  10  16
BRANCH   1  28
HETATM   28  O1  UNL     1     -17.614  22.572  -9.656  1.00  0.00    -0.339 OA
BRANCH  28  29
HETATM   29  C5  UNL     1     -17.513  23.738  -8.971  1.00  0.00     0.177 C 
BRANCH  29  30
HETATM   30  C4  UNL     1     -18.549  23.977  -7.934  1.00  0.00     0.027 C 
BRANCH  30  31
HETATM   31  C3  UNL     1     -18.349  25.124  -7.026  1.00  0.00     0.002 C 
BRANCH  31  32
HETATM   32  C2  UNL     1     -18.405  26.484  -7.716  1.00  0.00    -0.004 C 
HETATM   33  C1  UNL     1     -19.251  27.439  -6.885  1.00  0.00     0.005 C 
ENDBRANCH  31  32
ENDBRANCH  30  31
ENDBRANCH  29  30
ENDBRANCH  28  29
ENDBRANCH   1  28
TORSDOF 12
ENDMDL
