MODEL 1
REMARK VINA RESULT: -8.386587032      0.000      0.000
REMARK  8 active torsions:
REMARK  status: ('A' for Active; 'I' for Inactive)
REMARK    1  A    between atoms: C2_2  and  C3_3 
REMARK    2  A    between atoms: C3_3  and  C4_4 
REMARK    3  A    between atoms: C3_3  and  C20_31 
REMARK    4  A    between atoms: C5_8  and  C6_9 
REMARK    5  A    between atoms: N2_11  and  C8_12 
REMARK    6  A    between atoms: C8_12  and  C9_13 
REMARK    7  A    between atoms: C20_31  and  O2_32 
REMARK    8  A    between atoms: C20_31  and  C21_34 
ROOT
HETATM    1  C4  UNL     1       1.358  -9.523   8.700  1.00  0.00     0.329 C 
HETATM    2  N1  UNL     1       0.697 -10.756   9.074  1.00  0.00    -0.038 N 
ATOM      3  H11 UNL     1      -0.296 -10.656   9.285  1.00  0.00     0.281 HD
ATOM      4  H12 UNL     1       0.964 -11.118   9.990  1.00  0.00     0.281 HD
HETATM    5  C5  UNL     1       0.996 -11.659   7.949  1.00  0.00     0.247 C 
HETATM    6  C15 UNL     1       0.326 -11.091   6.752  1.00  0.00     0.051 C 
HETATM    7  C16 UNL     1      -1.173 -11.197   6.799  1.00  0.00     0.010 C 
HETATM    8  C17 UNL     1      -1.668  -9.798   6.584  1.00  0.00     0.003 C 
HETATM    9  C18 UNL     1      -0.577  -9.149   5.780  1.00  0.00     0.032 C 
HETATM   10  C19 UNL     1       0.661  -9.656   6.491  1.00  0.00     0.130 C 
HETATM   11  O1  UNL     1       0.838  -8.889   7.612  1.00  0.00    -0.353 OA
ENDROOT
BRANCH   5  12
HETATM   12  C6  UNL     1       0.677 -13.056   8.210  1.00  0.00     0.075 A 
HETATM   13  C7  UNL     1       0.061 -13.480   9.384  1.00  0.00     0.140 A 
HETATM   14  N2  UNL     1      -0.092 -14.808   9.299  1.00  0.00    -0.283 N 
HETATM   15  N3  UNL     1       0.394 -15.180   8.152  1.00  0.00    -0.240 N 
HETATM   16  N4  UNL     1       0.866 -14.166   7.465  1.00  0.00    -0.287 N 
ATOM     17  H3  UNL     1       0.407 -16.146   7.825  1.00  0.00     0.208 HD
ATOM     18  H4  UNL     1       1.295 -14.209   6.540  1.00  0.00     0.188 HD
BRANCH  14  19
HETATM   19  C8  UNL     1      -0.710 -15.623  10.357  1.00  0.00     0.188 C 
BRANCH  19  20
HETATM   20  C9  UNL     1      -0.253 -15.074  11.644  1.00  0.00    -0.037 A 
HETATM   21  C10 UNL     1      -1.172 -14.627  12.555  1.00  0.00     0.011 A 
HETATM   22  C11 UNL     1      -0.732 -14.112  13.763  1.00  0.00     0.026 A 
HETATM   23  C12 UNL     1       0.618 -14.045  14.057  1.00  0.00     0.055 A 
HETATM   24 CL1  UNL     1       1.119 -13.386  15.598  1.00  0.00    -0.083 Cl
HETATM   25  C13 UNL     1       1.547 -14.493  13.145  1.00  0.00     0.056 A 
HETATM   26 CL2  UNL     1       3.252 -14.408  13.518  1.00  0.00    -0.083 Cl
HETATM   27  C14 UNL     1       1.082 -15.008  11.934  1.00  0.00     0.034 A 
ENDBRANCH  19  20
ENDBRANCH  14  19
ENDBRANCH   5  12
BRANCH   1  28
HETATM   28  C3  UNL     1       1.484  -8.536   9.840  1.00  0.00     0.075 C 
BRANCH  28  29
HETATM   29  C2  UNL     1       0.991  -7.182   9.391  1.00  0.00     0.007 C 
HETATM   30  C1  UNL     1       2.096  -6.125   9.620  1.00  0.00     0.006 C 
ENDBRANCH  28  29
BRANCH  28  31
HETATM   31  C20 UNL     1       0.788  -8.986  11.068  1.00  0.00     0.159 C 
BRANCH  31  32
HETATM   32  O2  UNL     1      -0.217  -8.058  11.393  1.00  0.00    -0.390 OA
ATOM     33  H2  UNL     1      -0.880  -8.065  10.712  1.00  0.00     0.210 HD
ENDBRANCH  31  32
BRANCH  31  34
HETATM   34  C21 UNL     1       1.709  -9.250  12.175  1.00  0.00    -0.029 A 
HETATM   35  C22 UNL     1       1.805 -10.513  12.770  1.00  0.00     0.011 A 
HETATM   36  C23 UNL     1       2.659 -10.734  13.824  1.00  0.00     0.024 A 
HETATM   37  C24 UNL     1       3.448  -9.731  14.335  1.00  0.00     0.034 A 
HETATM   38 CL3  UNL     1       4.532 -10.040  15.686  1.00  0.00    -0.084 Cl
HETATM   39  C25 UNL     1       3.366  -8.486  13.764  1.00  0.00     0.024 A 
HETATM   40  C26 UNL     1       2.510  -8.278  12.711  1.00  0.00     0.011 A 
ENDBRANCH  31  34
ENDBRANCH  28  31
ENDBRANCH   1  28
TORSDOF 8
ENDMDL
MODEL 2
REMARK VINA RESULT: -8.355277372      3.365      6.162
REMARK  8 active torsions:
REMARK  status: ('A' for Active; 'I' for Inactive)
REMARK    1  A    between atoms: C2_2  and  C3_3 
REMARK    2  A    between atoms: C3_3  and  C4_4 
REMARK    3  A    between atoms: C3_3  and  C20_31 
REMARK    4  A    between atoms: C5_8  and  C6_9 
REMARK    5  A    between atoms: N2_11  and  C8_12 
REMARK    6  A    between atoms: C8_12  and  C9_13 
REMARK    7  A    between atoms: C20_31  and  O2_32 
REMARK    8  A    between atoms: C20_31  and  C21_34 
ROOT
HETATM    1  C4  UNL     1       2.131 -10.970  11.735  1.00  0.00     0.329 C 
HETATM    2  N1  UNL     1       1.243 -10.799  10.605  1.00  0.00    -0.038 N 
ATOM      3  H11 UNL     1       0.281 -10.566  10.853  1.00  0.00     0.281 HD
ATOM      4  H12 UNL     1       1.017 -11.662  10.109  1.00  0.00     0.281 HD
HETATM    5  C5  UNL     1       1.926  -9.784   9.784  1.00  0.00     0.247 C 
HETATM    6  C15 UNL     1       1.947  -8.531  10.581  1.00  0.00     0.051 C 
HETATM    7  C16 UNL     1       0.593  -7.896  10.733  1.00  0.00     0.010 C 
HETATM    8  C17 UNL     1       0.407  -7.728  12.211  1.00  0.00     0.003 C 
HETATM    9  C18 UNL     1       1.809  -7.610  12.740  1.00  0.00     0.032 C 
HETATM   10  C19 UNL     1       2.518  -8.693  11.954  1.00  0.00     0.130 C 
HETATM   11  O1  UNL     1       2.241  -9.891  12.559  1.00  0.00    -0.353 OA
ENDROOT
BRANCH   5  12
HETATM   12  C6  UNL     1       1.374  -9.635   8.445  1.00  0.00     0.075 A 
HETATM   13  C7  UNL     1       0.768 -10.685   7.759  1.00  0.00     0.140 A 
HETATM   14  N2  UNL     1       0.369 -10.212   6.572  1.00  0.00    -0.283 N 
HETATM   15  N3  UNL     1       0.702  -8.955   6.526  1.00  0.00    -0.240 N 
HETATM   16  N4  UNL     1       1.305  -8.565   7.624  1.00  0.00    -0.287 N 
ATOM     17  H3  UNL     1       0.515  -8.346   5.730  1.00  0.00     0.208 HD
ATOM     18  H4  UNL     1       1.658  -7.628   7.820  1.00  0.00     0.188 HD
BRANCH  14  19
HETATM   19  C8  UNL     1      -0.318 -11.030   5.561  1.00  0.00     0.188 C 
BRANCH  19  20
HETATM   20  C9  UNL     1      -1.744 -11.056   5.925  1.00  0.00    -0.037 A 
HETATM   21  C10 UNL     1      -2.514  -9.941   5.731  1.00  0.00     0.011 A 
HETATM   22  C11 UNL     1      -3.855  -9.977   6.078  1.00  0.00     0.026 A 
HETATM   23  C12 UNL     1      -4.420 -11.119   6.614  1.00  0.00     0.055 A 
HETATM   24 CL1  UNL     1      -6.118 -11.109   7.034  1.00  0.00    -0.083 Cl
HETATM   25  C13 UNL     1      -3.650 -12.244   6.812  1.00  0.00     0.056 A 
HETATM   26 CL2  UNL     1      -4.366 -13.686   7.489  1.00  0.00    -0.083 Cl
HETATM   27  C14 UNL     1      -2.302 -12.187   6.456  1.00  0.00     0.034 A 
ENDBRANCH  19  20
ENDBRANCH  14  19
ENDBRANCH   5  12
BRANCH   1  28
HETATM   28  C3  UNL     1       1.824 -12.200  12.562  1.00  0.00     0.075 C 
BRANCH  28  29
HETATM   29  C2  UNL     1       3.066 -12.632  13.303  1.00  0.00     0.007 C 
HETATM   30  C1  UNL     1       3.508 -14.028  12.806  1.00  0.00     0.006 C 
ENDBRANCH  28  29
BRANCH  28  31
HETATM   31  C20 UNL     1       0.684 -12.000  13.487  1.00  0.00     0.159 C 
BRANCH  31  32
HETATM   32  O2  UNL     1      -0.096 -10.924  13.031  1.00  0.00    -0.390 OA
ATOM     33  H2  UNL     1      -0.475 -10.475  13.779  1.00  0.00     0.210 HD
ENDBRANCH  31  32
BRANCH  31  34
HETATM   34  C21 UNL     1       1.106 -11.856  14.881  1.00  0.00    -0.029 A 
HETATM   35  C22 UNL     1       1.206 -12.957  15.740  1.00  0.00     0.011 A 
HETATM   36  C23 UNL     1       1.582 -12.797  17.053  1.00  0.00     0.024 A 
HETATM   37  C24 UNL     1       1.872 -11.559  17.574  1.00  0.00     0.034 A 
HETATM   38 CL3  UNL     1       2.349 -11.381  19.257  1.00  0.00    -0.084 Cl
HETATM   39  C25 UNL     1       1.779 -10.468  16.746  1.00  0.00     0.024 A 
HETATM   40  C26 UNL     1       1.404 -10.641  15.437  1.00  0.00     0.011 A 
ENDBRANCH  31  34
ENDBRANCH  28  31
ENDBRANCH   1  28
TORSDOF 8
ENDMDL
MODEL 3
REMARK VINA RESULT: -8.302424330      0.737      1.378
REMARK  8 active torsions:
REMARK  status: ('A' for Active; 'I' for Inactive)
REMARK    1  A    between atoms: C2_2  and  C3_3 
REMARK    2  A    between atoms: C3_3  and  C4_4 
REMARK    3  A    between atoms: C3_3  and  C20_31 
REMARK    4  A    between atoms: C5_8  and  C6_9 
REMARK    5  A    between atoms: N2_11  and  C8_12 
REMARK    6  A    between atoms: C8_12  and  C9_13 
REMARK    7  A    between atoms: C20_31  and  O2_32 
REMARK    8  A    between atoms: C20_31  and  C21_34 
ROOT
HETATM    1  C4  UNL     1       1.390  -9.554   8.737  1.00  0.00     0.329 C 
HETATM    2  N1  UNL     1       0.732 -10.796   9.085  1.00  0.00    -0.038 N 
ATOM      3  H11 UNL     1      -0.262 -10.704   9.295  1.00  0.00     0.281 HD
ATOM      4  H12 UNL     1       0.997 -11.176   9.994  1.00  0.00     0.281 HD
HETATM    5  C5  UNL     1       1.037 -11.676   7.943  1.00  0.00     0.247 C 
HETATM    6  C15 UNL     1       0.369 -11.086   6.755  1.00  0.00     0.051 C 
HETATM    7  C16 UNL     1      -1.130 -11.197   6.795  1.00  0.00     0.010 C 
HETATM    8  C17 UNL     1      -1.629  -9.796   6.607  1.00  0.00     0.003 C 
HETATM    9  C18 UNL     1      -0.537  -9.128   5.820  1.00  0.00     0.032 C 
HETATM   10  C19 UNL     1       0.699  -9.646   6.524  1.00  0.00     0.130 C 
HETATM   11  O1  UNL     1       0.870  -8.900   7.661  1.00  0.00    -0.353 OA
ENDROOT
BRANCH   5  12
HETATM   12  C6  UNL     1       0.722 -13.078   8.175  1.00  0.00     0.075 A 
HETATM   13  C7  UNL     1       0.253 -13.552   9.397  1.00  0.00     0.140 A 
HETATM   14  N2  UNL     1       0.059 -14.871   9.269  1.00  0.00    -0.283 N 
HETATM   15  N3  UNL     1       0.383 -15.192   8.051  1.00  0.00    -0.240 N 
HETATM   16  N4  UNL     1       0.786 -14.153   7.358  1.00  0.00    -0.287 N 
ATOM     17  H3  UNL     1       0.331 -16.140   7.679  1.00  0.00     0.208 HD
ATOM     18  H4  UNL     1       1.091 -14.155   6.385  1.00  0.00     0.188 HD
BRANCH  14  19
HETATM   19  C8  UNL     1      -0.436 -15.729  10.356  1.00  0.00     0.188 C 
BRANCH  19  20
HETATM   20  C9  UNL     1       0.620 -15.774  11.382  1.00  0.00    -0.037 A 
HETATM   21  C10 UNL     1       1.728 -16.553  11.181  1.00  0.00     0.011 A 
HETATM   22  C11 UNL     1       2.715 -16.588  12.151  1.00  0.00     0.026 A 
HETATM   23  C12 UNL     1       2.594 -15.850  13.314  1.00  0.00     0.055 A 
HETATM   24 CL1  UNL     1       3.871 -15.931  14.508  1.00  0.00    -0.083 Cl
HETATM   25  C13 UNL     1       1.482 -15.065  13.522  1.00  0.00     0.056 A 
HETATM   26 CL2  UNL     1       1.331 -14.132  14.992  1.00  0.00    -0.083 Cl
HETATM   27  C14 UNL     1       0.500 -15.043  12.532  1.00  0.00     0.034 A 
ENDBRANCH  19  20
ENDBRANCH  14  19
ENDBRANCH   5  12
BRANCH   1  28
HETATM   28  C3  UNL     1       1.509  -8.590   9.897  1.00  0.00     0.075 C 
BRANCH  28  29
HETATM   29  C2  UNL     1       0.969  -7.241   9.489  1.00  0.00     0.007 C 
HETATM   30  C1  UNL     1       2.078  -6.174   9.630  1.00  0.00     0.006 C 
ENDBRANCH  28  29
BRANCH  28  31
HETATM   31  C20 UNL     1       0.849  -9.087  11.127  1.00  0.00     0.159 C 
BRANCH  31  32
HETATM   32  O2  UNL     1      -0.202  -8.219  11.469  1.00  0.00    -0.390 OA
ATOM     33  H2  UNL     1      -1.024  -8.696  11.432  1.00  0.00     0.210 HD
ENDBRANCH  31  32
BRANCH  31  34
HETATM   34  C21 UNL     1       1.793  -9.308  12.224  1.00  0.00    -0.029 A 
HETATM   35  C22 UNL     1       1.817 -10.507  12.947  1.00  0.00     0.011 A 
HETATM   36  C23 UNL     1       2.695 -10.685  13.990  1.00  0.00     0.024 A 
HETATM   37  C24 UNL     1       3.580  -9.701  14.364  1.00  0.00     0.034 A 
HETATM   38 CL3  UNL     1       4.693  -9.954  15.702  1.00  0.00    -0.084 Cl
HETATM   39  C25 UNL     1       3.570  -8.520  13.666  1.00  0.00     0.024 A 
HETATM   40  C26 UNL     1       2.688  -8.354  12.626  1.00  0.00     0.011 A 
ENDBRANCH  31  34
ENDBRANCH  28  31
ENDBRANCH   1  28
TORSDOF 8
ENDMDL
MODEL 4
REMARK VINA RESULT: -8.197399847      2.889      6.495
REMARK  8 active torsions:
REMARK  status: ('A' for Active; 'I' for Inactive)
REMARK    1  A    between atoms: C2_2  and  C3_3 
REMARK    2  A    between atoms: C3_3  and  C4_4 
REMARK    3  A    between atoms: C3_3  and  C20_31 
REMARK    4  A    between atoms: C5_8  and  C6_9 
REMARK    5  A    between atoms: N2_11  and  C8_12 
REMARK    6  A    between atoms: C8_12  and  C9_13 
REMARK    7  A    between atoms: C20_31  and  O2_32 
REMARK    8  A    between atoms: C20_31  and  C21_34 
ROOT
HETATM    1  C4  UNL     1       0.743 -14.623  11.355  1.00  0.00     0.329 C 
HETATM    2  N1  UNL     1       1.584 -13.639  10.705  1.00  0.00    -0.038 N 
ATOM      3  H11 UNL     1       2.127 -13.999   9.920  1.00  0.00     0.281 HD
ATOM      4  H12 UNL     1       2.386 -13.336  11.258  1.00  0.00     0.281 HD
HETATM    5  C5  UNL     1       0.641 -12.562  10.354  1.00  0.00     0.247 C 
HETATM    6  C15 UNL     1      -0.305 -13.128   9.360  1.00  0.00     0.051 C 
HETATM    7  C16 UNL     1       0.322 -13.392   8.019  1.00  0.00     0.010 C 
HETATM    8  C17 UNL     1       0.025 -14.832   7.728  1.00  0.00     0.003 C 
HETATM    9  C18 UNL     1      -1.245 -15.099   8.486  1.00  0.00     0.032 C 
HETATM   10  C19 UNL     1      -0.963 -14.398   9.799  1.00  0.00     0.130 C 
HETATM   11  O1  UNL     1      -0.174 -15.229  10.551  1.00  0.00    -0.353 OA
ENDROOT
BRANCH   5  12
HETATM   12  C6  UNL     1       1.285 -11.325   9.935  1.00  0.00     0.075 A 
HETATM   13  C7  UNL     1       1.141 -10.129  10.633  1.00  0.00     0.140 A 
HETATM   14  N2  UNL     1       1.861  -9.200   9.990  1.00  0.00    -0.283 N 
HETATM   15  N3  UNL     1       2.413  -9.781   8.966  1.00  0.00    -0.240 N 
HETATM   16  N4  UNL     1       2.097 -11.053   8.891  1.00  0.00    -0.287 N 
ATOM     17  H3  UNL     1       3.019  -9.304   8.299  1.00  0.00     0.208 HD
ATOM     18  H4  UNL     1       2.408 -11.713   8.178  1.00  0.00     0.188 HD
BRANCH  14  19
HETATM   19  C8  UNL     1       1.958  -7.800  10.429  1.00  0.00     0.188 C 
BRANCH  19  20
HETATM   20  C9  UNL     1       3.098  -7.719  11.358  1.00  0.00    -0.037 A 
HETATM   21  C10 UNL     1       4.261  -7.119  10.955  1.00  0.00     0.011 A 
HETATM   22  C11 UNL     1       5.327  -7.049  11.836  1.00  0.00     0.026 A 
HETATM   23  C12 UNL     1       5.230  -7.575  13.111  1.00  0.00     0.055 A 
HETATM   24 CL1  UNL     1       6.606  -7.459  14.184  1.00  0.00    -0.083 Cl
HETATM   25  C13 UNL     1       4.063  -8.180  13.523  1.00  0.00     0.056 A 
HETATM   26 CL2  UNL     1       3.942  -8.844  15.135  1.00  0.00    -0.083 Cl
HETATM   27  C14 UNL     1       3.001  -8.240  12.619  1.00  0.00     0.034 A 
ENDBRANCH  19  20
ENDBRANCH  14  19
ENDBRANCH   5  12
BRANCH   1  28
HETATM   28  C3  UNL     1       1.523 -15.680  12.106  1.00  0.00     0.075 C 
BRANCH  28  29
HETATM   29  C2  UNL     1       1.886 -16.802  11.165  1.00  0.00     0.007 C 
HETATM   30  C1  UNL     1       1.196 -18.108  11.624  1.00  0.00     0.006 C 
ENDBRANCH  28  29
BRANCH  28  31
HETATM   31  C20 UNL     1       2.721 -15.135  12.786  1.00  0.00     0.159 C 
BRANCH  31  32
HETATM   32  O2  UNL     1       3.500 -16.200  13.270  1.00  0.00    -0.390 OA
ATOM     33  H2  UNL     1       3.110 -16.533  14.071  1.00  0.00     0.210 HD
ENDBRANCH  31  32
BRANCH  31  34
HETATM   34  C21 UNL     1       2.387 -14.150  13.817  1.00  0.00    -0.029 A 
HETATM   35  C22 UNL     1       2.843 -12.829  13.751  1.00  0.00     0.011 A 
HETATM   36  C23 UNL     1       2.538 -11.925  14.741  1.00  0.00     0.024 A 
HETATM   37  C24 UNL     1       1.778 -12.280  15.831  1.00  0.00     0.034 A 
HETATM   38 CL3  UNL     1       1.402 -11.106  17.085  1.00  0.00    -0.084 Cl
HETATM   39  C25 UNL     1       1.322 -13.572  15.912  1.00  0.00     0.024 A 
HETATM   40  C26 UNL     1       1.634 -14.464  14.915  1.00  0.00     0.011 A 
ENDBRANCH  31  34
ENDBRANCH  28  31
ENDBRANCH   1  28
TORSDOF 8
ENDMDL
MODEL 5
REMARK VINA RESULT: -8.187298486      3.454      5.916
REMARK  8 active torsions:
REMARK  status: ('A' for Active; 'I' for Inactive)
REMARK    1  A    between atoms: C2_2  and  C3_3 
REMARK    2  A    between atoms: C3_3  and  C4_4 
REMARK    3  A    between atoms: C3_3  and  C20_31 
REMARK    4  A    between atoms: C5_8  and  C6_9 
REMARK    5  A    between atoms: N2_11  and  C8_12 
REMARK    6  A    between atoms: C8_12  and  C9_13 
REMARK    7  A    between atoms: C20_31  and  O2_32 
REMARK    8  A    between atoms: C20_31  and  C21_34 
ROOT
HETATM    1  C4  UNL     1       1.604 -10.805   9.967  1.00  0.00     0.329 C 
HETATM    2  N1  UNL     1       0.536 -10.398   9.078  1.00  0.00    -0.038 N 
ATOM      3  H11 UNL     1      -0.195  -9.842   9.523  1.00  0.00     0.281 HD
ATOM      4  H12 UNL     1      -0.077 -11.157   8.778  1.00  0.00     0.281 HD
HETATM    5  C5  UNL     1       1.244  -9.715   7.982  1.00  0.00     0.247 C 
HETATM    6  C15 UNL     1       1.878  -8.506   8.568  1.00  0.00     0.051 C 
HETATM    7  C16 UNL     1       0.890  -7.444   8.961  1.00  0.00     0.010 C 
HETATM    8  C17 UNL     1       1.186  -7.152  10.402  1.00  0.00     0.003 C 
HETATM    9  C18 UNL     1       2.643  -7.490  10.546  1.00  0.00     0.032 C 
HETATM   10  C19 UNL     1       2.729  -8.785   9.767  1.00  0.00     0.130 C 
HETATM   11  O1  UNL     1       2.271  -9.789  10.581  1.00  0.00    -0.353 OA
ENDROOT
BRANCH   5  12
HETATM   12  C6  UNL     1       0.416  -9.452   6.814  1.00  0.00     0.075 A 
HETATM   13  C7  UNL     1      -0.970  -9.592   6.827  1.00  0.00     0.140 A 
HETATM   14  N2  UNL     1      -1.417  -9.270   5.607  1.00  0.00    -0.283 N 
HETATM   15  N3  UNL     1      -0.381  -8.950   4.888  1.00  0.00    -0.240 N 
HETATM   16  N4  UNL     1       0.738  -9.044   5.567  1.00  0.00    -0.287 N 
ATOM     17  H3  UNL     1      -0.433  -8.661   3.911  1.00  0.00     0.208 HD
ATOM     18  H4  UNL     1       1.676  -8.846   5.219  1.00  0.00     0.188 HD
BRANCH  14  19
HETATM   19  C8  UNL     1      -2.838  -9.296   5.230  1.00  0.00     0.188 C 
BRANCH  19  20
HETATM   20  C9  UNL     1      -3.404 -10.540   5.777  1.00  0.00    -0.037 A 
HETATM   21  C10 UNL     1      -4.524 -10.487   6.564  1.00  0.00     0.011 A 
HETATM   22  C11 UNL     1      -5.048 -11.664   7.074  1.00  0.00     0.026 A 
HETATM   23  C12 UNL     1      -4.457 -12.883   6.799  1.00  0.00     0.055 A 
HETATM   24 CL1  UNL     1      -5.160 -14.338   7.468  1.00  0.00    -0.083 Cl
HETATM   25  C13 UNL     1      -3.331 -12.942   6.009  1.00  0.00     0.056 A 
HETATM   26 CL2  UNL     1      -2.585 -14.484   5.662  1.00  0.00    -0.083 Cl
HETATM   27  C14 UNL     1      -2.819 -11.746   5.505  1.00  0.00     0.034 A 
ENDBRANCH  19  20
ENDBRANCH  14  19
ENDBRANCH   5  12
BRANCH   1  28
HETATM   28  C3  UNL     1       1.172 -11.817  11.005  1.00  0.00     0.075 C 
BRANCH  28  29
HETATM   29  C2  UNL     1       0.359 -12.903  10.344  1.00  0.00     0.007 C 
HETATM   30  C1  UNL     1      -0.916 -13.177  11.174  1.00  0.00     0.006 C 
ENDBRANCH  28  29
BRANCH  28  31
HETATM   31  C20 UNL     1       2.310 -12.381  11.767  1.00  0.00     0.159 C 
BRANCH  31  32
HETATM   32  O2  UNL     1       2.488 -13.726  11.402  1.00  0.00    -0.390 OA
ATOM     33  H2  UNL     1       1.652 -14.176  11.454  1.00  0.00     0.210 HD
ENDBRANCH  31  32
BRANCH  31  34
HETATM   34  C21 UNL     1       2.173 -12.189  13.212  1.00  0.00    -0.029 A 
HETATM   35  C22 UNL     1       1.433 -13.073  14.007  1.00  0.00     0.011 A 
HETATM   36  C23 UNL     1       1.297 -12.862  15.359  1.00  0.00     0.024 A 
HETATM   37  C24 UNL     1       1.877 -11.782  15.981  1.00  0.00     0.034 A 
HETATM   38 CL3  UNL     1       1.687 -11.534  17.713  1.00  0.00    -0.084 Cl
HETATM   39  C25 UNL     1       2.606 -10.905  15.217  1.00  0.00     0.024 A 
HETATM   40  C26 UNL     1       2.735 -11.128  13.868  1.00  0.00     0.011 A 
ENDBRANCH  31  34
ENDBRANCH  28  31
ENDBRANCH   1  28
TORSDOF 8
ENDMDL
