MODEL 1
REMARK VINA RESULT: -7.606865625      0.000      0.000
REMARK  13 active torsions:
REMARK  status: ('A' for Active; 'I' for Inactive)
REMARK    1  A    between atoms: C2_2  and  C3_3 
REMARK    2  A    between atoms: C3_3  and  N1_4 
REMARK    3  A    between atoms: N1_4  and  C4_5 
REMARK    4  A    between atoms: N1_4  and  C7_8 
REMARK    5  A    between atoms: C4_5  and  C5_6 
REMARK    6  A    between atoms: C7_8  and  O1_9 
REMARK    7  A    between atoms: C7_8  and  C8_11 
REMARK    8  A    between atoms: C11_14  and  N2_15 
REMARK    9  A    between atoms: C14_24  and  C15_25 
REMARK   10  A    between atoms: C16_26  and  C17_27 
REMARK   11  A    between atoms: C17_27  and  O2_28 
REMARK   12  A    between atoms: C17_27  and  C18_30 
REMARK   13  A    between atoms: C17_27  and  C25_37 
ROOT
HETATM    1  C8  UNL     1       2.750  -8.705  14.278  1.00  0.00     0.058 A 
HETATM    2  C9  UNL     1       2.801  -7.910  13.187  1.00  0.00     0.041 A 
HETATM    3  C10 UNL     1       2.292  -8.357  12.019  1.00  0.00     0.043 A 
HETATM    4  C11 UNL     1       2.250  -7.686  10.777  1.00  0.00     0.115 A 
HETATM    5  N3  UNL     1       1.714  -8.237   9.679  1.00  0.00    -0.318 N 
HETATM    6  C12 UNL     1       1.192  -9.470   9.730  1.00  0.00     0.116 A 
HETATM    7  N4  UNL     1       1.205 -10.151  10.880  1.00  0.00    -0.335 N 
ATOM      8  H4  UNL     1       0.805 -11.088  10.913  1.00  0.00     0.168 HD
HETATM    9  C13 UNL     1       1.748  -9.607  12.016  1.00  0.00     0.090 A 
HETATM   10  S1  UNL     1       1.956 -10.122  13.622  1.00  0.00    -0.067 SA
HETATM   11  C14 UNL     1       0.654  -9.847   8.368  1.00  0.00    -0.012 C 
HETATM   12  C26 UNL     1       0.342  -8.514   7.828  1.00  0.00     0.062 C 
HETATM   13  C27 UNL     1       1.575  -7.732   8.323  1.00  0.00     0.137 C 
ENDROOT
BRANCH  11  14
HETATM   14  C15 UNL     1       0.576 -11.048   7.903  1.00  0.00     0.010 C 
HETATM   15  C16 UNL     1       0.331 -11.765   6.698  1.00  0.00     0.021 C 
BRANCH  15  16
HETATM   16  C17 UNL     1      -0.198 -11.313   5.433  1.00  0.00     0.177 C 
BRANCH  16  17
HETATM   17  O2  UNL     1       0.604 -10.364   4.794  1.00  0.00    -0.377 OA
ATOM     18  H2  UNL     1       0.242  -9.486   4.806  1.00  0.00     0.211 HD
ENDBRANCH  16  17
BRANCH  16  19
HETATM   19  C18 UNL     1      -0.017 -12.511   4.409  1.00  0.00     0.033 C 
HETATM   20  C19 UNL     1       0.686 -12.173   3.178  1.00  0.00     0.008 C 
HETATM   21  C20 UNL     1       0.004 -12.823   1.977  1.00  0.00     0.000 C 
HETATM   22  C21 UNL     1       0.116 -14.290   1.904  1.00  0.00     0.000 C 
HETATM   23  C22 UNL     1       0.797 -14.984   3.028  1.00  0.00     0.000 C 
HETATM   24  C23 UNL     1       0.010 -14.926   4.323  1.00  0.00     0.000 C 
HETATM   25  C24 UNL     1       0.553 -13.701   5.084  1.00  0.00     0.008 C 
ENDBRANCH  16  19
BRANCH  16  26
HETATM   26  C25 UNL     1      -1.616 -10.918   5.421  1.00  0.00     0.422 C 
HETATM   27  F1  UNL     1      -1.775  -9.513   5.443  1.00  0.00    -0.167 F 
HETATM   28  F2  UNL     1      -2.310 -11.415   4.309  1.00  0.00    -0.167 F 
HETATM   29  F3  UNL     1      -2.306 -11.367   6.501  1.00  0.00    -0.167 F 
ENDBRANCH  16  26
ENDBRANCH  15  16
ENDBRANCH  11  14
BRANCH   4  30
HETATM   30  N2  UNL     1       2.729  -6.491  10.628  1.00  0.00    -0.385 N 
ATOM     31  H22 UNL     1       3.711  -6.375  10.878  1.00  0.00     0.157 HD
ATOM     32  H21 UNL     1       2.157  -5.721  10.281  1.00  0.00     0.157 HD
ENDBRANCH   4  30
BRANCH   1  33
HETATM   33  C7  UNL     1       3.186  -8.566  15.652  1.00  0.00     0.155 C 
BRANCH  33  34
HETATM   34  N1  UNL     1       4.095  -9.347  16.330  1.00  0.00    -0.361 N 
BRANCH  34  35
HETATM   35  C3  UNL     1       5.465  -9.407  15.714  1.00  0.00     0.124 C 
BRANCH  35  36
HETATM   36  C2  UNL     1       6.022  -8.019  15.704  1.00  0.00     0.015 C 
HETATM   37  C1  UNL     1       6.390  -7.596  14.322  1.00  0.00     0.006 C 
ENDBRANCH  35  36
ENDBRANCH  34  35
BRANCH  34  38
HETATM   38  C4  UNL     1       3.965 -10.107  17.526  1.00  0.00     0.124 C 
BRANCH  38  39
HETATM   39  C5  UNL     1       2.577 -10.744  17.621  1.00  0.00     0.015 C 
HETATM   40  C6  UNL     1       2.293 -11.185  19.041  1.00  0.00     0.006 C 
ENDBRANCH  38  39
ENDBRANCH  34  38
ENDBRANCH  33  34
BRANCH  33  41
HETATM   41  O1  UNL     1       2.629  -7.571  16.283  1.00  0.00    -0.345 OA
ATOM     42  H1  UNL     1       2.667  -6.706  15.892  1.00  0.00     0.219 HD
ENDBRANCH  33  41
ENDBRANCH   1  33
TORSDOF 13
ENDMDL
MODEL 2
REMARK VINA RESULT: -7.559388966      3.939      5.502
REMARK  13 active torsions:
REMARK  status: ('A' for Active; 'I' for Inactive)
REMARK    1  A    between atoms: C2_2  and  C3_3 
REMARK    2  A    between atoms: C3_3  and  N1_4 
REMARK    3  A    between atoms: N1_4  and  C4_5 
REMARK    4  A    between atoms: N1_4  and  C7_8 
REMARK    5  A    between atoms: C4_5  and  C5_6 
REMARK    6  A    between atoms: C7_8  and  O1_9 
REMARK    7  A    between atoms: C7_8  and  C8_11 
REMARK    8  A    between atoms: C11_14  and  N2_15 
REMARK    9  A    between atoms: C14_24  and  C15_25 
REMARK   10  A    between atoms: C16_26  and  C17_27 
REMARK   11  A    between atoms: C17_27  and  O2_28 
REMARK   12  A    between atoms: C17_27  and  C18_30 
REMARK   13  A    between atoms: C17_27  and  C25_37 
ROOT
HETATM    1  C8  UNL     1       0.597 -13.714  14.968  1.00  0.00     0.058 A 
HETATM    2  C9  UNL     1       1.499 -12.723  15.140  1.00  0.00     0.041 A 
HETATM    3  C10 UNL     1       1.413 -11.612  14.377  1.00  0.00     0.043 A 
HETATM    4  C11 UNL     1       2.251 -10.475  14.401  1.00  0.00     0.115 A 
HETATM    5  N3  UNL     1       2.065  -9.426  13.590  1.00  0.00    -0.318 N 
HETATM    6  C12 UNL     1       1.054  -9.425  12.710  1.00  0.00     0.116 A 
HETATM    7  N4  UNL     1       0.230 -10.475  12.644  1.00  0.00    -0.335 N 
ATOM      8  H4  UNL     1      -0.538 -10.469  11.973  1.00  0.00     0.168 HD
HETATM    9  C13 UNL     1       0.401 -11.560  13.465  1.00  0.00     0.090 A 
HETATM   10  S1  UNL     1      -0.397 -13.044  13.690  1.00  0.00    -0.067 SA
HETATM   11  C14 UNL     1       1.066  -8.132  11.929  1.00  0.00    -0.012 C 
HETATM   12  C26 UNL     1       1.708  -7.237  12.905  1.00  0.00     0.062 C 
HETATM   13  C27 UNL     1       2.800  -8.179  13.449  1.00  0.00     0.137 C 
ENDROOT
BRANCH  11  14
HETATM   14  C15 UNL     1       0.635  -7.984  10.721  1.00  0.00     0.010 C 
HETATM   15  C16 UNL     1       0.501  -8.685   9.489  1.00  0.00     0.021 C 
BRANCH  15  16
HETATM   16  C17 UNL     1       1.087  -9.932   9.056  1.00  0.00     0.177 C 
BRANCH  16  17
HETATM   17  O2  UNL     1       0.541 -11.057   9.678  1.00  0.00    -0.377 OA
ATOM     18  H2  UNL     1       0.288 -11.744   9.073  1.00  0.00     0.211 HD
ENDBRANCH  16  17
BRANCH  16  19
HETATM   19  C18 UNL     1       0.564 -10.192   7.581  1.00  0.00     0.033 C 
HETATM   20  C19 UNL     1      -0.144 -11.451   7.388  1.00  0.00     0.008 C 
HETATM   21  C20 UNL     1       0.278 -12.107   6.077  1.00  0.00     0.000 C 
HETATM   22  C21 UNL     1      -0.160 -11.413   4.853  1.00  0.00     0.000 C 
HETATM   23  C22 UNL     1      -0.884 -10.125   5.016  1.00  0.00     0.000 C 
HETATM   24  C23 UNL     1      -0.001  -9.013   5.548  1.00  0.00     0.000 C 
HETATM   25  C24 UNL     1      -0.197  -9.025   7.077  1.00  0.00     0.008 C 
ENDBRANCH  16  19
BRANCH  16  26
HETATM   26  C25 UNL     1       2.558  -9.988   9.031  1.00  0.00     0.422 C 
HETATM   27  F1  UNL     1       3.038 -11.316   9.097  1.00  0.00    -0.167 F 
HETATM   28  F2  UNL     1       3.106  -9.387   7.890  1.00  0.00    -0.167 F 
HETATM   29  F3  UNL     1       3.137  -9.353  10.082  1.00  0.00    -0.167 F 
ENDBRANCH  16  26
ENDBRANCH  15  16
ENDBRANCH  11  14
BRANCH   4  30
HETATM   30  N2  UNL     1       3.255 -10.382  15.217  1.00  0.00    -0.385 N 
ATOM     31  H22 UNL     1       3.236 -11.017  16.015  1.00  0.00     0.157 HD
ATOM     32  H21 UNL     1       4.013  -9.716  15.064  1.00  0.00     0.157 HD
ENDBRANCH   4  30
BRANCH   1  33
HETATM   33  C7  UNL     1       0.389 -15.009  15.581  1.00  0.00     0.155 C 
BRANCH  33  34
HETATM   34  N1  UNL     1       1.346 -15.918  15.974  1.00  0.00    -0.361 N 
BRANCH  34  35
HETATM   35  C3  UNL     1       2.085 -16.588  14.849  1.00  0.00     0.124 C 
BRANCH  35  36
HETATM   36  C2  UNL     1       3.480 -16.046  14.835  1.00  0.00     0.015 C 
HETATM   37  C1  UNL     1       3.797 -15.414  13.521  1.00  0.00     0.006 C 
ENDBRANCH  35  36
ENDBRANCH  34  35
BRANCH  34  38
HETATM   38  C4  UNL     1       1.765 -16.332  17.270  1.00  0.00     0.124 C 
BRANCH  38  39
HETATM   39  C5  UNL     1       1.917 -15.131  18.204  1.00  0.00     0.015 C 
HETATM   40  C6  UNL     1       2.013 -15.591  19.645  1.00  0.00     0.006 C 
ENDBRANCH  38  39
ENDBRANCH  34  38
ENDBRANCH  33  34
BRANCH  33  41
HETATM   41  O1  UNL     1      -0.866 -15.309  15.765  1.00  0.00    -0.345 OA
ATOM     42  H1  UNL     1      -1.376 -15.605  15.020  1.00  0.00     0.219 HD
ENDBRANCH  33  41
ENDBRANCH   1  33
TORSDOF 13
ENDMDL
MODEL 3
REMARK VINA RESULT: -7.537659800      0.218      2.184
REMARK  13 active torsions:
REMARK  status: ('A' for Active; 'I' for Inactive)
REMARK    1  A    between atoms: C2_2  and  C3_3 
REMARK    2  A    between atoms: C3_3  and  N1_4 
REMARK    3  A    between atoms: N1_4  and  C4_5 
REMARK    4  A    between atoms: N1_4  and  C7_8 
REMARK    5  A    between atoms: C4_5  and  C5_6 
REMARK    6  A    between atoms: C7_8  and  O1_9 
REMARK    7  A    between atoms: C7_8  and  C8_11 
REMARK    8  A    between atoms: C11_14  and  N2_15 
REMARK    9  A    between atoms: C14_24  and  C15_25 
REMARK   10  A    between atoms: C16_26  and  C17_27 
REMARK   11  A    between atoms: C17_27  and  O2_28 
REMARK   12  A    between atoms: C17_27  and  C18_30 
REMARK   13  A    between atoms: C17_27  and  C25_37 
ROOT
HETATM    1  C8  UNL     1       2.808  -8.688  14.167  1.00  0.00     0.058 A 
HETATM    2  C9  UNL     1       2.827  -7.897  13.073  1.00  0.00     0.041 A 
HETATM    3  C10 UNL     1       2.297  -8.353  11.918  1.00  0.00     0.043 A 
HETATM    4  C11 UNL     1       2.220  -7.688  10.675  1.00  0.00     0.115 A 
HETATM    5  N3  UNL     1       1.667  -8.248   9.591  1.00  0.00    -0.318 N 
HETATM    6  C12 UNL     1       1.160  -9.486   9.657  1.00  0.00     0.116 A 
HETATM    7  N4  UNL     1       1.206 -10.163  10.809  1.00  0.00    -0.335 N 
ATOM      8  H4  UNL     1       0.817 -11.105  10.853  1.00  0.00     0.168 HD
HETATM    9  C13 UNL     1       1.767  -9.609  11.931  1.00  0.00     0.090 A 
HETATM   10  S1  UNL     1       2.016 -10.117  13.534  1.00  0.00    -0.067 SA
HETATM   11  C14 UNL     1       0.597  -9.874   8.309  1.00  0.00    -0.012 C 
HETATM   12  C26 UNL     1       0.258  -8.547   7.771  1.00  0.00     0.062 C 
HETATM   13  C27 UNL     1       1.493  -7.749   8.236  1.00  0.00     0.137 C 
ENDROOT
BRANCH  11  14
HETATM   14  C15 UNL     1       0.522 -11.078   7.849  1.00  0.00     0.010 C 
HETATM   15  C16 UNL     1       0.286 -11.802   6.646  1.00  0.00     0.021 C 
BRANCH  15  16
HETATM   16  C17 UNL     1      -0.233 -11.355   5.375  1.00  0.00     0.177 C 
BRANCH  16  17
HETATM   17  O2  UNL     1       0.590 -10.435   4.722  1.00  0.00    -0.377 OA
ATOM     18  H2  UNL     1       1.139  -9.928   5.309  1.00  0.00     0.211 HD
ENDBRANCH  16  17
BRANCH  16  19
HETATM   19  C18 UNL     1      -0.081 -12.573   4.368  1.00  0.00     0.033 C 
HETATM   20  C19 UNL     1       0.748 -12.309   3.200  1.00  0.00     0.008 C 
HETATM   21  C20 UNL     1       0.109 -12.902   1.946  1.00  0.00     0.000 C 
HETATM   22  C21 UNL     1       0.091 -14.374   1.882  1.00  0.00     0.000 C 
HETATM   23  C22 UNL     1       0.611 -15.119   3.058  1.00  0.00     0.000 C 
HETATM   24  C23 UNL     1      -0.270 -14.981   4.284  1.00  0.00     0.000 C 
HETATM   25  C24 UNL     1       0.320 -13.805   5.088  1.00  0.00     0.008 C 
ENDBRANCH  16  19
BRANCH  16  26
HETATM   26  C25 UNL     1      -1.643 -10.928   5.358  1.00  0.00     0.422 C 
HETATM   27  F1  UNL     1      -2.374 -11.475   6.437  1.00  0.00    -0.167 F 
HETATM   28  F2  UNL     1      -1.789  -9.535   5.399  1.00  0.00    -0.167 F 
HETATM   29  F3  UNL     1      -2.309 -11.324   4.244  1.00  0.00    -0.167 F 
ENDBRANCH  16  26
ENDBRANCH  15  16
ENDBRANCH  11  14
BRANCH   4  30
HETATM   30  N2  UNL     1       2.683  -6.488  10.511  1.00  0.00    -0.385 N 
ATOM     31  H22 UNL     1       3.399  -6.197  11.177  1.00  0.00     0.157 HD
ATOM     32  H21 UNL     1       2.350  -5.880   9.763  1.00  0.00     0.157 HD
ENDBRANCH   4  30
BRANCH   1  33
HETATM   33  C7  UNL     1       3.273  -8.539  15.531  1.00  0.00     0.155 C 
BRANCH  33  34
HETATM   34  N1  UNL     1       4.323  -9.191  16.138  1.00  0.00    -0.361 N 
BRANCH  34  35
HETATM   35  C3  UNL     1       3.963  -9.956  17.381  1.00  0.00     0.124 C 
BRANCH  35  36
HETATM   36  C2  UNL     1       2.720 -10.737  17.091  1.00  0.00     0.015 C 
HETATM   37  C1  UNL     1       2.040 -11.154  18.351  1.00  0.00     0.006 C 
ENDBRANCH  35  36
ENDBRANCH  34  35
BRANCH  34  38
HETATM   38  C4  UNL     1       5.700  -9.273  15.787  1.00  0.00     0.124 C 
BRANCH  38  39
HETATM   39  C5  UNL     1       6.291  -7.880  15.564  1.00  0.00     0.015 C 
HETATM   40  C6  UNL     1       6.368  -7.569  14.083  1.00  0.00     0.006 C 
ENDBRANCH  38  39
ENDBRANCH  34  38
ENDBRANCH  33  34
BRANCH  33  41
HETATM   41  O1  UNL     1       2.589  -7.677  16.229  1.00  0.00    -0.345 OA
ATOM     42  H1  UNL     1       1.690  -7.886  16.453  1.00  0.00     0.219 HD
ENDBRANCH  33  41
ENDBRANCH   1  33
TORSDOF 13
ENDMDL
MODEL 4
REMARK VINA RESULT: -7.496484108      3.873      9.096
REMARK  13 active torsions:
REMARK  status: ('A' for Active; 'I' for Inactive)
REMARK    1  A    between atoms: C2_2  and  C3_3 
REMARK    2  A    between atoms: C3_3  and  N1_4 
REMARK    3  A    between atoms: N1_4  and  C4_5 
REMARK    4  A    between atoms: N1_4  and  C7_8 
REMARK    5  A    between atoms: C4_5  and  C5_6 
REMARK    6  A    between atoms: C7_8  and  O1_9 
REMARK    7  A    between atoms: C7_8  and  C8_11 
REMARK    8  A    between atoms: C11_14  and  N2_15 
REMARK    9  A    between atoms: C14_24  and  C15_25 
REMARK   10  A    between atoms: C16_26  and  C17_27 
REMARK   11  A    between atoms: C17_27  and  O2_28 
REMARK   12  A    between atoms: C17_27  and  C18_30 
REMARK   13  A    between atoms: C17_27  and  C25_37 
ROOT
HETATM    1  C8  UNL     1       0.013  -9.596   6.769  1.00  0.00     0.058 A 
HETATM    2  C9  UNL     1       0.456  -8.544   7.491  1.00  0.00     0.041 A 
HETATM    3  C10 UNL     1       0.931  -8.751   8.738  1.00  0.00     0.043 A 
HETATM    4  C11 UNL     1       1.435  -7.794   9.646  1.00  0.00     0.115 A 
HETATM    5  N3  UNL     1       1.882  -8.124  10.865  1.00  0.00    -0.318 N 
HETATM    6  C12 UNL     1       1.863  -9.402  11.268  1.00  0.00     0.116 A 
HETATM    7  N4  UNL     1       1.396 -10.349  10.449  1.00  0.00    -0.335 N 
ATOM      8  H4  UNL     1       1.384 -11.321  10.761  1.00  0.00     0.168 HD
HETATM    9  C13 UNL     1       0.934 -10.035   9.197  1.00  0.00     0.090 A 
HETATM   10  S1  UNL     1       0.281 -10.911   7.894  1.00  0.00    -0.067 SA
HETATM   11  C14 UNL     1       2.423  -9.499  12.668  1.00  0.00    -0.012 C 
HETATM   12  C26 UNL     1       3.317  -8.330  12.679  1.00  0.00     0.062 C 
HETATM   13  C27 UNL     1       2.427  -7.310  11.940  1.00  0.00     0.137 C 
ENDROOT
BRANCH  11  14
HETATM   14  C15 UNL     1       2.098 -10.391  13.543  1.00  0.00     0.010 C 
HETATM   15  C16 UNL     1       1.884 -11.791  13.685  1.00  0.00     0.021 C 
BRANCH  15  16
HETATM   16  C17 UNL     1       1.738 -12.819  12.681  1.00  0.00     0.177 C 
BRANCH  16  17
HETATM   17  O2  UNL     1       2.632 -12.696  11.615  1.00  0.00    -0.377 OA
ATOM     18  H2  UNL     1       2.334 -13.114  10.815  1.00  0.00     0.211 HD
ENDBRANCH  16  17
BRANCH  16  19
HETATM   19  C18 UNL     1       2.302 -14.159  13.318  1.00  0.00     0.033 C 
HETATM   20  C19 UNL     1       3.611 -14.573  12.829  1.00  0.00     0.008 C 
HETATM   21  C20 UNL     1       3.640 -16.080  12.591  1.00  0.00     0.000 C 
HETATM   22  C21 UNL     1       3.580 -16.913  13.806  1.00  0.00     0.000 C 
HETATM   23  C22 UNL     1       3.416 -16.216  15.109  1.00  0.00     0.000 C 
HETATM   24  C23 UNL     1       2.055 -15.568  15.266  1.00  0.00     0.000 C 
HETATM   25  C24 UNL     1       2.233 -14.110  14.797  1.00  0.00     0.008 C 
ENDBRANCH  16  19
BRANCH  16  26
HETATM   26  C25 UNL     1       0.368 -13.083  12.211  1.00  0.00     0.422 C 
HETATM   27  F1  UNL     1      -0.157 -14.278  12.755  1.00  0.00    -0.167 F 
HETATM   28  F2  UNL     1      -0.521 -12.043  12.513  1.00  0.00    -0.167 F 
HETATM   29  F3  UNL     1       0.285 -13.243  10.865  1.00  0.00    -0.167 F 
ENDBRANCH  16  26
ENDBRANCH  15  16
ENDBRANCH  11  14
BRANCH   4  30
HETATM   30  N2  UNL     1       1.495  -6.534   9.349  1.00  0.00    -0.385 N 
ATOM     31  H22 UNL     1       1.352  -6.305   8.365  1.00  0.00     0.157 HD
ATOM     32  H21 UNL     1       1.672  -5.821  10.057  1.00  0.00     0.157 HD
ENDBRANCH   4  30
BRANCH   1  33
HETATM   33  C7  UNL     1      -0.552  -9.746   5.444  1.00  0.00     0.155 C 
BRANCH  33  34
HETATM   34  N1  UNL     1      -1.338 -10.774   4.975  1.00  0.00    -0.361 N 
BRANCH  34  35
HETATM   35  C3  UNL     1      -0.822 -11.457   3.739  1.00  0.00     0.124 C 
BRANCH  35  36
HETATM   36  C2  UNL     1       0.526 -12.020   4.059  1.00  0.00     0.015 C 
HETATM   37  C1  UNL     1       0.409 -13.342   4.741  1.00  0.00     0.006 C 
ENDBRANCH  35  36
ENDBRANCH  34  35
BRANCH  34  38
HETATM   38  C4  UNL     1      -2.561 -11.313   5.466  1.00  0.00     0.124 C 
BRANCH  38  39
HETATM   39  C5  UNL     1      -3.497 -10.201   5.940  1.00  0.00     0.015 C 
HETATM   40  C6  UNL     1      -4.694 -10.788   6.660  1.00  0.00     0.006 C 
ENDBRANCH  38  39
ENDBRANCH  34  38
ENDBRANCH  33  34
BRANCH  33  41
HETATM   41  O1  UNL     1      -0.255  -8.770   4.632  1.00  0.00    -0.345 OA
ATOM     42  H1  UNL     1       0.659  -8.609   4.431  1.00  0.00     0.219 HD
ENDBRANCH  33  41
ENDBRANCH   1  33
TORSDOF 13
ENDMDL
MODEL 5
REMARK VINA RESULT: -7.473719945      3.989      9.396
REMARK  13 active torsions:
REMARK  status: ('A' for Active; 'I' for Inactive)
REMARK    1  A    between atoms: C2_2  and  C3_3 
REMARK    2  A    between atoms: C3_3  and  N1_4 
REMARK    3  A    between atoms: N1_4  and  C4_5 
REMARK    4  A    between atoms: N1_4  and  C7_8 
REMARK    5  A    between atoms: C4_5  and  C5_6 
REMARK    6  A    between atoms: C7_8  and  O1_9 
REMARK    7  A    between atoms: C7_8  and  C8_11 
REMARK    8  A    between atoms: C11_14  and  N2_15 
REMARK    9  A    between atoms: C14_24  and  C15_25 
REMARK   10  A    between atoms: C16_26  and  C17_27 
REMARK   11  A    between atoms: C17_27  and  O2_28 
REMARK   12  A    between atoms: C17_27  and  C18_30 
REMARK   13  A    between atoms: C17_27  and  C25_37 
ROOT
HETATM    1  C8  UNL     1       0.181  -9.822   6.630  1.00  0.00     0.058 A 
HETATM    2  C9  UNL     1       0.544  -8.747   7.362  1.00  0.00     0.041 A 
HETATM    3  C10 UNL     1       0.952  -8.924   8.637  1.00  0.00     0.043 A 
HETATM    4  C11 UNL     1       1.368  -7.939   9.561  1.00  0.00     0.115 A 
HETATM    5  N3  UNL     1       1.754  -8.240  10.808  1.00  0.00    -0.318 N 
HETATM    6  C12 UNL     1       1.756  -9.512  11.225  1.00  0.00     0.116 A 
HETATM    7  N4  UNL     1       1.371 -10.485  10.393  1.00  0.00    -0.335 N 
ATOM      8  H4  UNL     1       1.375 -11.453  10.716  1.00  0.00     0.168 HD
HETATM    9  C13 UNL     1       0.972 -10.202   9.112  1.00  0.00     0.090 A 
HETATM   10  S1  UNL     1       0.428 -11.115   7.786  1.00  0.00    -0.067 SA
HETATM   11  C14 UNL     1       2.236  -9.574  12.657  1.00  0.00    -0.012 C 
HETATM   12  C26 UNL     1       3.086  -8.374  12.704  1.00  0.00     0.062 C 
HETATM   13  C27 UNL     1       2.207  -7.394  11.901  1.00  0.00     0.137 C 
ENDROOT
BRANCH  11  14
HETATM   14  C15 UNL     1       1.891 -10.467  13.523  1.00  0.00     0.010 C 
HETATM   15  C16 UNL     1       1.727 -11.873  13.673  1.00  0.00     0.021 C 
BRANCH  15  16
HETATM   16  C17 UNL     1       1.690 -12.920  12.679  1.00  0.00     0.177 C 
BRANCH  16  17
HETATM   17  O2  UNL     1       2.650 -12.776  11.674  1.00  0.00    -0.377 OA
ATOM     18  H2  UNL     1       3.458 -12.374  11.971  1.00  0.00     0.211 HD
ENDBRANCH  16  17
BRANCH  16  19
HETATM   19  C18 UNL     1       2.261 -14.227  13.374  1.00  0.00     0.033 C 
HETATM   20  C19 UNL     1       3.583 -14.640  12.925  1.00  0.00     0.008 C 
HETATM   21  C20 UNL     1       3.638 -16.155  12.743  1.00  0.00     0.000 C 
HETATM   22  C21 UNL     1       3.567 -16.943  13.986  1.00  0.00     0.000 C 
HETATM   23  C22 UNL     1       3.370 -16.202  15.259  1.00  0.00     0.000 C 
HETATM   24  C23 UNL     1       1.997 -15.568  15.368  1.00  0.00     0.000 C 
HETATM   25  C24 UNL     1       2.164 -14.126  14.849  1.00  0.00     0.008 C 
ENDBRANCH  16  19
BRANCH  16  26
HETATM   26  C25 UNL     1       0.367 -13.245  12.121  1.00  0.00     0.422 C 
HETATM   27  F1  UNL     1      -0.153 -14.445  12.656  1.00  0.00    -0.167 F 
HETATM   28  F2  UNL     1      -0.577 -12.231  12.334  1.00  0.00    -0.167 F 
HETATM   29  F3  UNL     1       0.385 -13.438  10.777  1.00  0.00    -0.167 F 
ENDBRANCH  16  26
ENDBRANCH  15  16
ENDBRANCH  11  14
BRANCH   4  30
HETATM   30  N2  UNL     1       1.401  -6.681   9.250  1.00  0.00    -0.385 N 
ATOM     31  H22 UNL     1       0.497  -6.249   9.059  1.00  0.00     0.157 HD
ATOM     32  H21 UNL     1       2.278  -6.161   9.204  1.00  0.00     0.157 HD
ENDBRANCH   4  30
BRANCH   1  33
HETATM   33  C7  UNL     1      -0.299 -10.007   5.276  1.00  0.00     0.155 C 
BRANCH  33  34
HETATM   34  N1  UNL     1      -1.566  -9.767   4.791  1.00  0.00    -0.361 N 
BRANCH  34  35
HETATM   35  C3  UNL     1      -1.693  -9.815   3.294  1.00  0.00     0.124 C 
BRANCH  35  36
HETATM   36  C2  UNL     1      -3.055  -9.310   2.936  1.00  0.00     0.015 C 
HETATM   37  C1  UNL     1      -3.043  -8.619   1.615  1.00  0.00     0.006 C 
ENDBRANCH  35  36
ENDBRANCH  34  35
BRANCH  34  38
HETATM   38  C4  UNL     1      -2.787  -9.488   5.467  1.00  0.00     0.124 C 
BRANCH  38  39
HETATM   39  C5  UNL     1      -3.286 -10.718   6.226  1.00  0.00     0.015 C 
HETATM   40  C6  UNL     1      -4.774 -10.609   6.491  1.00  0.00     0.006 C 
ENDBRANCH  38  39
ENDBRANCH  34  38
ENDBRANCH  33  34
BRANCH  33  41
HETATM   41  O1  UNL     1       0.607 -10.453   4.452  1.00  0.00    -0.345 OA
ATOM     42  H1  UNL     1       1.399 -10.836   4.813  1.00  0.00     0.219 HD
ENDBRANCH  33  41
ENDBRANCH   1  33
TORSDOF 13
ENDMDL
