MODEL 1
REMARK VINA RESULT: -8.004312868      0.000      0.000
REMARK  10 active torsions:
REMARK  status: ('A' for Active; 'I' for Inactive)
REMARK    1  A    between atoms: C2_2  and  O1_3 
REMARK    2  A    between atoms: O1_3  and  C3_4 
REMARK    3  A    between atoms: C9_13  and  N3_14 
REMARK    4  A    between atoms: N3_14  and  C10_16 
REMARK    5  A    between atoms: C12_18  and  O2_19 
REMARK    6  A    between atoms: C17_27  and  O3_28 
REMARK    7  A    between atoms: C19_30  and  O4_31 
REMARK    8  A    between atoms: O4_31  and  C20_32 
REMARK    9  A    between atoms: C20_32  and  C21_33 
REMARK   10  A    between atoms: C21_33  and  N4_34 
ROOT
HETATM    1  C3  UNL     1       2.327 -11.076  15.810  1.00  0.00     0.107 A 
HETATM    2  C4  UNL     1       3.285 -10.151  15.530  1.00  0.00     0.070 A 
HETATM    3  C5  UNL     1       3.302  -9.453  14.329  1.00  0.00     0.050 A 
HETATM    4  N1  UNL     1       4.265  -8.525  14.133  1.00  0.00    -0.363 N 
ATOM      5  H1  UNL     1       4.972  -8.375  14.852  1.00  0.00     0.165 HD
HETATM    6  C6  UNL     1       4.303  -7.802  13.013  1.00  0.00     0.113 A 
HETATM    7  C7  UNL     1       3.341  -8.003  12.033  1.00  0.00     0.087 A 
HETATM    8  C8  UNL     1       3.428  -7.177  10.829  1.00  0.00     0.103 C 
HETATM    9  N2  UNL     1       3.526  -6.508   9.899  1.00  0.00    -0.191 NA
HETATM   10  C9  UNL     1       2.355  -8.944  12.217  1.00  0.00     0.070 A 
HETATM   11  C16 UNL     1       2.320  -9.715  13.411  1.00  0.00     0.055 A 
HETATM   12  C17 UNL     1       1.328 -10.647  13.647  1.00  0.00     0.119 A 
HETATM   13  C19 UNL     1       1.331 -11.337  14.864  1.00  0.00     0.136 A 
ENDROOT
BRANCH  10  14
HETATM   14  N3  UNL     1       1.447  -9.117  11.400  1.00  0.00    -0.353 N 
ATOM     15  H3  UNL     1       0.580  -8.747  11.790  1.00  0.00     0.166 HD
BRANCH  14  16
HETATM   16  C10 UNL     1       1.189  -9.629  10.154  1.00  0.00     0.057 A 
HETATM   17  C11 UNL     1       1.453 -10.975   9.861  1.00  0.00     0.069 A 
HETATM   18  C12 UNL     1       1.233 -11.478   8.610  1.00  0.00     0.089 A 
HETATM   19  C13 UNL     1       0.746 -10.704   7.574  1.00  0.00     0.068 A 
HETATM   20 CL1  UNL     1       0.466 -11.354   5.975  1.00  0.00    -0.081 Cl
HETATM   21  C14 UNL     1       0.481  -9.380   7.842  1.00  0.00     0.052 A 
HETATM   22  C15 UNL     1       0.696  -8.867   9.091  1.00  0.00     0.062 A 
HETATM   23 CL2  UNL     1       0.316  -7.176   9.341  1.00  0.00    -0.082 Cl
BRANCH  18  24
HETATM   24  O2  UNL     1       1.507 -12.830   8.345  1.00  0.00    -0.359 OA
ATOM     25  H2  UNL     1       1.056 -13.271   7.635  1.00  0.00     0.217 HD
ENDBRANCH  18  24
ENDBRANCH  14  16
ENDBRANCH  10  14
BRANCH  12  26
HETATM   26  O3  UNL     1       0.347 -10.915  12.736  1.00  0.00    -0.352 OA
HETATM   27  C18 UNL     1      -1.039 -10.992  12.901  1.00  0.00     0.210 C 
ENDBRANCH  12  26
BRANCH  13  28
HETATM   28  O4  UNL     1       0.375 -12.283  15.202  1.00  0.00    -0.344 OA
BRANCH  28  29
HETATM   29  C20 UNL     1       0.485 -13.667  15.180  1.00  0.00     0.206 C 
BRANCH  29  30
HETATM   30  C21 UNL     1       0.138 -14.284  13.888  1.00  0.00     0.299 C 
BRANCH  30  31
HETATM   31  N4  UNL     1       1.254 -15.091  13.350  1.00  0.00     0.090 N 
HETATM   32  C22 UNL     1       1.603 -14.499  12.089  1.00  0.00     0.272 C 
HETATM   33  C23 UNL     1       2.825 -13.607  12.243  1.00  0.00     0.030 C 
HETATM   34  C24 UNL     1       3.993 -14.552  12.539  1.00  0.00     0.003 C 
HETATM   35  C25 UNL     1       3.664 -15.326  13.790  1.00  0.00     0.030 C 
HETATM   36  C26 UNL     1       2.301 -15.039  14.332  1.00  0.00     0.272 C 
ENDBRANCH  30  31
ENDBRANCH  29  30
ENDBRANCH  28  29
ENDBRANCH  13  28
BRANCH   1  37
HETATM   37  O1  UNL     1       2.389 -11.718  17.031  1.00  0.00    -0.348 OA
BRANCH  37  38
HETATM   38  C2  UNL     1       1.782 -11.190  18.168  1.00  0.00     0.171 C 
HETATM   39  C1  UNL     1       2.682 -11.116  19.358  1.00  0.00     0.034 C 
ENDBRANCH  37  38
ENDBRANCH   1  37
TORSDOF 10
ENDMDL
MODEL 2
REMARK VINA RESULT: -7.555259299      3.130      6.886
REMARK  10 active torsions:
REMARK  status: ('A' for Active; 'I' for Inactive)
REMARK    1  A    between atoms: C2_2  and  O1_3 
REMARK    2  A    between atoms: O1_3  and  C3_4 
REMARK    3  A    between atoms: C9_13  and  N3_14 
REMARK    4  A    between atoms: N3_14  and  C10_16 
REMARK    5  A    between atoms: C12_18  and  O2_19 
REMARK    6  A    between atoms: C17_27  and  O3_28 
REMARK    7  A    between atoms: C19_30  and  O4_31 
REMARK    8  A    between atoms: O4_31  and  C20_32 
REMARK    9  A    between atoms: C20_32  and  C21_33 
REMARK   10  A    between atoms: C21_33  and  N4_34 
ROOT
HETATM    1  C3  UNL     1       0.950  -8.421  10.121  1.00  0.00     0.107 A 
HETATM    2  C4  UNL     1       0.820  -9.040   8.916  1.00  0.00     0.070 A 
HETATM    3  C5  UNL     1       0.691 -10.419   8.810  1.00  0.00     0.050 A 
HETATM    4  N1  UNL     1       0.533 -10.961   7.581  1.00  0.00    -0.363 N 
ATOM      5  H1  UNL     1       0.541 -10.357   6.760  1.00  0.00     0.165 HD
HETATM    6  C6  UNL     1       0.367 -12.276   7.429  1.00  0.00     0.113 A 
HETATM    7  C7  UNL     1       0.355 -13.101   8.545  1.00  0.00     0.087 A 
HETATM    8  C8  UNL     1       0.162 -14.532   8.318  1.00  0.00     0.103 C 
HETATM    9  N2  UNL     1       0.005 -15.651   8.101  1.00  0.00    -0.191 NA
HETATM   10  C9  UNL     1       0.515 -12.563   9.802  1.00  0.00     0.070 A 
HETATM   11  C16 UNL     1       0.695 -11.162   9.959  1.00  0.00     0.055 A 
HETATM   12  C17 UNL     1       0.826 -10.581  11.206  1.00  0.00     0.119 A 
HETATM   13  C19 UNL     1       0.955  -9.191  11.288  1.00  0.00     0.136 A 
ENDROOT
BRANCH  10  14
HETATM   14  N3  UNL     1       0.454 -13.249  10.824  1.00  0.00    -0.353 N 
ATOM     15  H3  UNL     1      -0.343 -12.939  11.381  1.00  0.00     0.166 HD
BRANCH  14  16
HETATM   16  C10 UNL     1       1.075 -14.281  11.480  1.00  0.00     0.057 A 
HETATM   17  C11 UNL     1       2.446 -14.225  11.774  1.00  0.00     0.069 A 
HETATM   18  C12 UNL     1       3.076 -15.268  12.391  1.00  0.00     0.089 A 
HETATM   19  C13 UNL     1       2.412 -16.423  12.760  1.00  0.00     0.068 A 
HETATM   20 CL1  UNL     1       3.224 -17.754  13.551  1.00  0.00    -0.081 Cl
HETATM   21  C14 UNL     1       1.066 -16.497  12.480  1.00  0.00     0.052 A 
HETATM   22  C15 UNL     1       0.426 -15.459  11.863  1.00  0.00     0.062 A 
HETATM   23 CL2  UNL     1      -1.290 -15.638  11.561  1.00  0.00    -0.082 Cl
BRANCH  18  24
HETATM   24  O2  UNL     1       4.450 -15.184  12.673  1.00  0.00    -0.359 OA
ATOM     25  H2  UNL     1       4.756 -15.315  13.562  1.00  0.00     0.217 HD
ENDBRANCH  18  24
ENDBRANCH  14  16
ENDBRANCH  10  14
BRANCH  12  26
HETATM   26  O3  UNL     1       0.834 -11.317  12.357  1.00  0.00    -0.352 OA
HETATM   27  C18 UNL     1      -0.081 -11.345  13.413  1.00  0.00     0.210 C 
ENDBRANCH  12  26
BRANCH  13  28
HETATM   28  O4  UNL     1       1.083  -8.510  12.489  1.00  0.00    -0.344 OA
BRANCH  28  29
HETATM   29  C20 UNL     1       2.243  -8.093  13.126  1.00  0.00     0.206 C 
BRANCH  29  30
HETATM   30  C21 UNL     1       2.521  -8.780  14.399  1.00  0.00     0.299 C 
BRANCH  30  31
HETATM   31  N4  UNL     1       3.677  -8.185  15.101  1.00  0.00     0.090 N 
HETATM   32  C22 UNL     1       3.983  -9.070  16.190  1.00  0.00     0.272 C 
HETATM   33  C23 UNL     1       5.153  -9.972  15.827  1.00  0.00     0.030 C 
HETATM   34  C24 UNL     1       6.375  -9.053  15.749  1.00  0.00     0.003 C 
HETATM   35  C25 UNL     1       6.100  -7.994  14.713  1.00  0.00     0.030 C 
HETATM   36  C26 UNL     1       4.727  -8.070  14.128  1.00  0.00     0.272 C 
ENDBRANCH  30  31
ENDBRANCH  29  30
ENDBRANCH  28  29
ENDBRANCH  13  28
BRANCH   1  37
HETATM   37  O1  UNL     1       1.071  -7.045  10.129  1.00  0.00    -0.348 OA
BRANCH  37  38
HETATM   38  C2  UNL     1       2.142  -6.399   9.516  1.00  0.00     0.171 C 
HETATM   39  C1  UNL     1       3.351  -6.272  10.383  1.00  0.00     0.034 C 
ENDBRANCH  37  38
ENDBRANCH   1  37
TORSDOF 10
ENDMDL
MODEL 3
REMARK VINA RESULT: -7.541483363      1.289      1.553
REMARK  10 active torsions:
REMARK  status: ('A' for Active; 'I' for Inactive)
REMARK    1  A    between atoms: C2_2  and  O1_3 
REMARK    2  A    between atoms: O1_3  and  C3_4 
REMARK    3  A    between atoms: C9_13  and  N3_14 
REMARK    4  A    between atoms: N3_14  and  C10_16 
REMARK    5  A    between atoms: C12_18  and  O2_19 
REMARK    6  A    between atoms: C17_27  and  O3_28 
REMARK    7  A    between atoms: C19_30  and  O4_31 
REMARK    8  A    between atoms: O4_31  and  C20_32 
REMARK    9  A    between atoms: C20_32  and  C21_33 
REMARK   10  A    between atoms: C21_33  and  N4_34 
ROOT
HETATM    1  C3  UNL     1       2.253 -10.973  15.782  1.00  0.00     0.107 A 
HETATM    2  C4  UNL     1       3.143 -10.003  15.435  1.00  0.00     0.070 A 
HETATM    3  C5  UNL     1       3.118  -9.398  14.184  1.00  0.00     0.050 A 
HETATM    4  N1  UNL     1       4.012  -8.419  13.922  1.00  0.00    -0.363 N 
ATOM      5  H1  UNL     1       4.701  -8.163  14.629  1.00  0.00     0.165 HD
HETATM    6  C6  UNL     1       4.007  -7.782  12.750  1.00  0.00     0.113 A 
HETATM    7  C7  UNL     1       3.070  -8.127  11.785  1.00  0.00     0.087 A 
HETATM    8  C8  UNL     1       3.106  -7.389  10.523  1.00  0.00     0.103 C 
HETATM    9  N2  UNL     1       3.163  -6.787   9.545  1.00  0.00    -0.191 NA
HETATM   10  C9  UNL     1       2.154  -9.122  12.038  1.00  0.00     0.070 A 
HETATM   11  C16 UNL     1       2.166  -9.800  13.287  1.00  0.00     0.055 A 
HETATM   12  C17 UNL     1       1.243 -10.783  13.590  1.00  0.00     0.119 A 
HETATM   13  C19 UNL     1       1.287 -11.377  14.856  1.00  0.00     0.136 A 
ENDROOT
BRANCH  10  14
HETATM   14  N3  UNL     1       1.269  -9.422  11.234  1.00  0.00    -0.353 N 
ATOM     15  H3  UNL     1       0.364  -9.353  11.700  1.00  0.00     0.166 HD
BRANCH  14  16
HETATM   16  C10 UNL     1       1.067  -9.816   9.936  1.00  0.00     0.057 A 
HETATM   17  C11 UNL     1       0.398  -8.982   9.027  1.00  0.00     0.069 A 
HETATM   18  C12 UNL     1       0.161  -9.389   7.744  1.00  0.00     0.089 A 
HETATM   19  C13 UNL     1       0.559 -10.624   7.271  1.00  0.00     0.068 A 
HETATM   20 CL1  UNL     1       0.253 -11.137   5.628  1.00  0.00    -0.081 Cl
HETATM   21  C14 UNL     1       1.217 -11.456   8.148  1.00  0.00     0.052 A 
HETATM   22  C15 UNL     1       1.460 -11.061   9.433  1.00  0.00     0.062 A 
HETATM   23 CL2  UNL     1       2.317 -12.181  10.472  1.00  0.00    -0.082 Cl
BRANCH  18  24
HETATM   24  O2  UNL     1      -0.511  -8.532   6.856  1.00  0.00    -0.359 OA
ATOM     25  H2  UNL     1      -1.230  -8.867   6.333  1.00  0.00     0.217 HD
ENDBRANCH  18  24
ENDBRANCH  14  16
ENDBRANCH  10  14
BRANCH  12  26
HETATM   26  O3  UNL     1       0.293 -11.191  12.699  1.00  0.00    -0.352 OA
HETATM   27  C18 UNL     1      -1.102 -11.178  12.801  1.00  0.00     0.210 C 
ENDBRANCH  12  26
BRANCH  13  28
HETATM   28  O4  UNL     1       0.401 -12.363  15.262  1.00  0.00    -0.344 OA
BRANCH  28  29
HETATM   29  C20 UNL     1       0.598 -13.737  15.304  1.00  0.00     0.206 C 
BRANCH  29  30
HETATM   30  C21 UNL     1       0.257 -14.439  14.054  1.00  0.00     0.299 C 
BRANCH  30  31
HETATM   31  N4  UNL     1       1.251 -15.482  13.726  1.00  0.00     0.090 N 
HETATM   32  C22 UNL     1       1.978 -14.997  12.586  1.00  0.00     0.272 C 
HETATM   33  C23 UNL     1       3.310 -14.405  13.022  1.00  0.00     0.030 C 
HETATM   34  C24 UNL     1       4.148 -15.588  13.514  1.00  0.00     0.003 C 
HETATM   35  C25 UNL     1       3.402 -16.255  14.640  1.00  0.00     0.030 C 
HETATM   36  C26 UNL     1       2.055 -15.661  14.902  1.00  0.00     0.272 C 
ENDBRANCH  30  31
ENDBRANCH  29  30
ENDBRANCH  28  29
ENDBRANCH  13  28
BRANCH   1  37
HETATM   37  O1  UNL     1       2.351 -11.515  17.048  1.00  0.00    -0.348 OA
BRANCH  37  38
HETATM   38  C2  UNL     1       1.898 -10.832  18.175  1.00  0.00     0.171 C 
HETATM   39  C1  UNL     1       2.648 -11.157  19.425  1.00  0.00     0.034 C 
ENDBRANCH  37  38
ENDBRANCH   1  37
TORSDOF 10
ENDMDL
MODEL 4
REMARK VINA RESULT: -7.359106078      0.679      1.072
REMARK  10 active torsions:
REMARK  status: ('A' for Active; 'I' for Inactive)
REMARK    1  A    between atoms: C2_2  and  O1_3 
REMARK    2  A    between atoms: O1_3  and  C3_4 
REMARK    3  A    between atoms: C9_13  and  N3_14 
REMARK    4  A    between atoms: N3_14  and  C10_16 
REMARK    5  A    between atoms: C12_18  and  O2_19 
REMARK    6  A    between atoms: C17_27  and  O3_28 
REMARK    7  A    between atoms: C19_30  and  O4_31 
REMARK    8  A    between atoms: O4_31  and  C20_32 
REMARK    9  A    between atoms: C20_32  and  C21_33 
REMARK   10  A    between atoms: C21_33  and  N4_34 
ROOT
HETATM    1  C3  UNL     1       2.357 -11.013  15.851  1.00  0.00     0.107 A 
HETATM    2  C4  UNL     1       3.305 -10.084  15.551  1.00  0.00     0.070 A 
HETATM    3  C5  UNL     1       3.311  -9.406  14.339  1.00  0.00     0.050 A 
HETATM    4  N1  UNL     1       4.265  -8.472  14.124  1.00  0.00    -0.363 N 
ATOM      5  H1  UNL     1       4.974  -8.304  14.837  1.00  0.00     0.165 HD
HETATM    6  C6  UNL     1       4.292  -7.768  12.992  1.00  0.00     0.113 A 
HETATM    7  C7  UNL     1       3.327  -7.993  12.019  1.00  0.00     0.087 A 
HETATM    8  C8  UNL     1       3.401  -7.186  10.803  1.00  0.00     0.103 C 
HETATM    9  N2  UNL     1       3.490  -6.531   9.861  1.00  0.00    -0.191 NA
HETATM   10  C9  UNL     1       2.350  -8.940  12.224  1.00  0.00     0.070 A 
HETATM   11  C16 UNL     1       2.328  -9.691  13.430  1.00  0.00     0.055 A 
HETATM   12  C17 UNL     1       1.345 -10.628  13.686  1.00  0.00     0.119 A 
HETATM   13  C19 UNL     1       1.359 -11.298  14.914  1.00  0.00     0.136 A 
ENDROOT
BRANCH  10  14
HETATM   14  N3  UNL     1       1.441  -9.134  11.414  1.00  0.00    -0.353 N 
ATOM     15  H3  UNL     1       0.570  -8.774  11.805  1.00  0.00     0.166 HD
BRANCH  14  16
HETATM   16  C10 UNL     1       1.183  -9.662  10.174  1.00  0.00     0.057 A 
HETATM   17  C11 UNL     1       1.448 -11.012   9.898  1.00  0.00     0.069 A 
HETATM   18  C12 UNL     1       1.229 -11.530   8.653  1.00  0.00     0.089 A 
HETATM   19  C13 UNL     1       0.741 -10.770   7.607  1.00  0.00     0.068 A 
HETATM   20 CL1  UNL     1       0.462 -11.440   6.017  1.00  0.00    -0.081 Cl
HETATM   21  C14 UNL     1       0.475  -9.443   7.859  1.00  0.00     0.052 A 
HETATM   22  C15 UNL     1       0.690  -8.913   9.101  1.00  0.00     0.062 A 
HETATM   23 CL2  UNL     1       0.309  -7.220   9.330  1.00  0.00    -0.082 Cl
BRANCH  18  24
HETATM   24  O2  UNL     1       1.503 -12.886   8.406  1.00  0.00    -0.359 OA
ATOM     25  H2  UNL     1       1.256 -13.272   7.574  1.00  0.00     0.217 HD
ENDBRANCH  18  24
ENDBRANCH  14  16
ENDBRANCH  10  14
BRANCH  12  26
HETATM   26  O3  UNL     1       0.362 -10.920  12.783  1.00  0.00    -0.352 OA
HETATM   27  C18 UNL     1      -0.990 -11.210  12.987  1.00  0.00     0.210 C 
ENDBRANCH  12  26
BRANCH  13  28
HETATM   28  O4  UNL     1       0.414 -12.247  15.272  1.00  0.00    -0.344 OA
BRANCH  28  29
HETATM   29  C20 UNL     1       0.520 -13.630  15.227  1.00  0.00     0.206 C 
BRANCH  29  30
HETATM   30  C21 UNL     1       1.607 -14.131  14.369  1.00  0.00     0.299 C 
BRANCH  30  31
HETATM   31  N4  UNL     1       1.157 -15.247  13.511  1.00  0.00     0.090 N 
HETATM   32  C22 UNL     1      -0.004 -14.771  12.812  1.00  0.00     0.272 C 
HETATM   33  C23 UNL     1       0.367 -14.340  11.401  1.00  0.00     0.030 C 
HETATM   34  C24 UNL     1       0.739 -15.627  10.660  1.00  0.00     0.003 C 
HETATM   35  C25 UNL     1       1.878 -16.281  11.397  1.00  0.00     0.030 C 
HETATM   36  C26 UNL     1       2.264 -15.573  12.655  1.00  0.00     0.272 C 
ENDBRANCH  30  31
ENDBRANCH  29  30
ENDBRANCH  28  29
ENDBRANCH  13  28
BRANCH   1  37
HETATM   37  O1  UNL     1       2.430 -11.635  17.082  1.00  0.00    -0.348 OA
BRANCH  37  38
HETATM   38  C2  UNL     1       1.818 -11.096  18.212  1.00  0.00     0.171 C 
HETATM   39  C1  UNL     1       2.590 -11.300  19.475  1.00  0.00     0.034 C 
ENDBRANCH  37  38
ENDBRANCH   1  37
TORSDOF 10
ENDMDL
MODEL 5
REMARK VINA RESULT: -7.338499424      2.951      6.193
REMARK  10 active torsions:
REMARK  status: ('A' for Active; 'I' for Inactive)
REMARK    1  A    between atoms: C2_2  and  O1_3 
REMARK    2  A    between atoms: O1_3  and  C3_4 
REMARK    3  A    between atoms: C9_13  and  N3_14 
REMARK    4  A    between atoms: N3_14  and  C10_16 
REMARK    5  A    between atoms: C12_18  and  O2_19 
REMARK    6  A    between atoms: C17_27  and  O3_28 
REMARK    7  A    between atoms: C19_30  and  O4_31 
REMARK    8  A    between atoms: O4_31  and  C20_32 
REMARK    9  A    between atoms: C20_32  and  C21_33 
REMARK   10  A    between atoms: C21_33  and  N4_34 
ROOT
HETATM    1  C3  UNL     1       2.275  -8.021  11.347  1.00  0.00     0.107 A 
HETATM    2  C4  UNL     1       2.083  -8.323  10.034  1.00  0.00     0.070 A 
HETATM    3  C5  UNL     1       1.667  -9.583   9.624  1.00  0.00     0.050 A 
HETATM    4  N1  UNL     1       1.466  -9.801   8.305  1.00  0.00    -0.363 N 
ATOM      5  H1  UNL     1       1.648  -9.052   7.638  1.00  0.00     0.165 HD
HETATM    6  C6  UNL     1       1.031 -10.982   7.864  1.00  0.00     0.113 A 
HETATM    7  C7  UNL     1       0.780 -12.004   8.770  1.00  0.00     0.087 A 
HETATM    8  C8  UNL     1       0.298 -13.274   8.230  1.00  0.00     0.103 C 
HETATM    9  N2  UNL     1      -0.082 -14.257   7.770  1.00  0.00    -0.191 NA
HETATM   10  C9  UNL     1       0.981 -11.797  10.115  1.00  0.00     0.070 A 
HETATM   11  C16 UNL     1       1.448 -10.538  10.580  1.00  0.00     0.055 A 
HETATM   12  C17 UNL     1       1.631 -10.281  11.926  1.00  0.00     0.119 A 
HETATM   13  C19 UNL     1       2.050  -9.005  12.315  1.00  0.00     0.136 A 
ENDROOT
BRANCH  10  14
HETATM   14  N3  UNL     1       0.718 -12.656  10.960  1.00  0.00    -0.353 N 
ATOM     15  H3  UNL     1      -0.092 -12.349  11.499  1.00  0.00     0.166 HD
BRANCH  14  16
HETATM   16  C10 UNL     1       1.126 -13.877  11.434  1.00  0.00     0.057 A 
HETATM   17  C11 UNL     1       2.470 -14.107  11.767  1.00  0.00     0.069 A 
HETATM   18  C12 UNL     1       2.886 -15.333  12.201  1.00  0.00     0.089 A 
HETATM   19  C13 UNL     1       2.024 -16.404  12.337  1.00  0.00     0.068 A 
HETATM   20 CL1  UNL     1       2.563 -17.971  12.895  1.00  0.00    -0.081 Cl
HETATM   21  C14 UNL     1       0.701 -16.198  12.015  1.00  0.00     0.052 A 
HETATM   22  C15 UNL     1       0.273 -14.975  11.580  1.00  0.00     0.062 A 
HETATM   23 CL2  UNL     1      -1.429 -14.804  11.209  1.00  0.00    -0.082 Cl
BRANCH  18  24
HETATM   24  O2  UNL     1       4.238 -15.533  12.527  1.00  0.00    -0.359 OA
ATOM     25  H2  UNL     1       4.791 -14.786  12.718  1.00  0.00     0.217 HD
ENDBRANCH  18  24
ENDBRANCH  14  16
ENDBRANCH  10  14
BRANCH  12  26
HETATM   26  O3  UNL     1       1.417 -11.230  12.885  1.00  0.00    -0.352 OA
HETATM   27  C18 UNL     1       0.369 -11.363  13.801  1.00  0.00     0.210 C 
ENDBRANCH  12  26
BRANCH  13  28
HETATM   28  O4  UNL     1       2.253  -8.643  13.638  1.00  0.00    -0.344 OA
BRANCH  28  29
HETATM   29  C20 UNL     1       3.423  -8.712  14.382  1.00  0.00     0.206 C 
BRANCH  29  30
HETATM   30  C21 UNL     1       3.525  -9.899  15.248  1.00  0.00     0.299 C 
BRANCH  30  31
HETATM   31  N4  UNL     1       3.035  -9.623  16.615  1.00  0.00     0.090 N 
HETATM   32  C22 UNL     1       1.751 -10.258  16.715  1.00  0.00     0.272 C 
HETATM   33  C23 UNL     1       1.874 -11.589  17.440  1.00  0.00     0.030 C 
HETATM   34  C24 UNL     1       2.225 -11.241  18.889  1.00  0.00     0.003 C 
HETATM   35  C25 UNL     1       3.507 -10.449  18.885  1.00  0.00     0.030 C 
HETATM   36  C26 UNL     1       4.023 -10.151  17.514  1.00  0.00     0.272 C 
ENDBRANCH  30  31
ENDBRANCH  29  30
ENDBRANCH  28  29
ENDBRANCH  13  28
BRANCH   1  37
HETATM   37  O1  UNL     1       2.686  -6.740  11.661  1.00  0.00    -0.348 OA
BRANCH  37  38
HETATM   38  C2  UNL     1       3.873  -6.209  11.161  1.00  0.00     0.171 C 
HETATM   39  C1  UNL     1       5.098  -6.941  11.602  1.00  0.00     0.034 C 
ENDBRANCH  37  38
ENDBRANCH   1  37
TORSDOF 10
ENDMDL
