MODEL 1
REMARK VINA RESULT: -8.874226344      0.000      0.000
REMARK  8 active torsions:
REMARK  status: ('A' for Active; 'I' for Inactive)
REMARK    1  A    between atoms: C5_7  and  N2_8 
REMARK    2  A    between atoms: N2_8  and  C6_10 
REMARK    3  A    between atoms: C12_18  and  C13_19 
REMARK    4  A    between atoms: C13_19  and  N3_20 
REMARK    5  A    between atoms: N4_29  and  C21_30 
REMARK    6  A    between atoms: C21_30  and  O1_31 
REMARK    7  A    between atoms: O1_31  and  C22_32 
REMARK    8  A    between atoms: C22_32  and  C23_33 
ROOT
HETATM    1  C1  UNL     1       1.767 -15.827  14.287  1.00  0.00     0.089 C 
HETATM    2  C2  UNL     1       1.836 -14.407  13.785  1.00  0.00     0.086 A 
HETATM    3  N1  UNL     1       2.352 -13.412  14.559  1.00  0.00    -0.344 N 
ATOM      4  H1  UNL     1       2.736 -13.522  15.498  1.00  0.00     0.167 HD
HETATM    5  C3  UNL     1       2.266 -12.257  13.868  1.00  0.00     0.063 A 
HETATM    6  C4  UNL     1       2.628 -10.947  14.148  1.00  0.00     0.062 A 
HETATM    7  C5  UNL     1       2.433  -9.931  13.267  1.00  0.00     0.043 A 
HETATM    8  C12 UNL     1       1.844 -10.244  12.034  1.00  0.00    -0.012 A 
HETATM    9  C19 UNL     1       1.487 -11.544  11.758  1.00  0.00     0.043 A 
HETATM   10  C20 UNL     1       1.691 -12.566  12.663  1.00  0.00     0.069 A 
HETATM   11  N4  UNL     1       1.424 -13.908  12.616  1.00  0.00    -0.290 N 
ENDROOT
BRANCH  11  12
HETATM   12  C21 UNL     1       0.839 -14.590  11.492  1.00  0.00     0.235 C 
BRANCH  12  13
HETATM   13  O1  UNL     1      -0.531 -14.596  11.434  1.00  0.00    -0.346 OA
BRANCH  13  14
HETATM   14  C22 UNL     1      -1.012 -13.990  10.321  1.00  0.00     0.181 C 
BRANCH  14  15
HETATM   15  C23 UNL     1      -0.233 -14.327   9.064  1.00  0.00     0.017 C 
HETATM   16  C24 UNL     1      -0.198 -13.089   8.200  1.00  0.00     0.034 C 
HETATM   17  C25 UNL     1       0.690 -13.321   6.975  1.00  0.00     0.232 C 
HETATM   18  N5  UNL     1       0.895 -14.732   6.780  1.00  0.00    -0.075 N 
HETATM   19  C26 UNL     1      -0.336 -15.478   6.874  1.00  0.00     0.237 C 
ATOM     20  H52 UNL     1       1.373 -14.918   5.899  1.00  0.00     0.277 HD
ATOM     21  H51 UNL     1       1.597 -15.096   7.424  1.00  0.00     0.277 HD
HETATM   22  C27 UNL     1      -0.942 -15.410   8.269  1.00  0.00     0.013 C 
HETATM   23  C28 UNL     1      -2.406 -15.160   8.108  1.00  0.00     0.012 C 
ENDBRANCH  14  15
ENDBRANCH  13  14
ENDBRANCH  12  13
ENDBRANCH  11  12
BRANCH   8  24
HETATM   24  C13 UNL     1       1.649  -9.139  11.087  1.00  0.00     0.158 C 
BRANCH  24  25
HETATM   25  N3  UNL     1       2.348  -9.188   9.863  1.00  0.00    -0.406 N 
HETATM   26  C14 UNL     1       1.992 -10.201   8.930  1.00  0.00     0.117 C 
HETATM   27  C15 UNL     1       1.307  -9.664   7.692  1.00  0.00     0.022 C 
HETATM   28  C16 UNL     1       0.409  -8.500   8.023  1.00  0.00     0.040 C 
HETATM   29  C17 UNL     1       1.272  -7.396   8.579  1.00  0.00     0.187 C 
HETATM   30  F1  UNL     1       0.555  -6.611   9.463  1.00  0.00    -0.248 F 
HETATM   31  C18 UNL     1       2.539  -7.930   9.215  1.00  0.00     0.154 C 
ENDBRANCH  24  25
ENDBRANCH   8  24
BRANCH   7  32
HETATM   32  N2  UNL     1       2.801  -8.594  13.536  1.00  0.00    -0.353 N 
ATOM     33  H2  UNL     1       2.159  -7.844  13.279  1.00  0.00     0.166 HD
BRANCH  32  34
HETATM   34  C6  UNL     1       4.037  -8.260  14.154  1.00  0.00     0.076 A 
HETATM   35  C7  UNL     1       5.080  -7.747  13.413  1.00  0.00     0.062 A 
HETATM   36 CL1  UNL     1       4.904  -7.495  11.674  1.00  0.00    -0.082 Cl
HETATM   37  C8  UNL     1       6.269  -7.433  14.050  1.00  0.00     0.026 A 
HETATM   38  C9  UNL     1       6.451  -7.613  15.403  1.00  0.00     0.003 A 
HETATM   39  C10 UNL     1       5.416  -8.123  16.150  1.00  0.00     0.026 A 
HETATM   40  C11 UNL     1       4.234  -8.437  15.527  1.00  0.00     0.062 A 
HETATM   41 CL2  UNL     1       2.887  -9.095  16.469  1.00  0.00    -0.082 Cl
ENDBRANCH  32  34
ENDBRANCH   7  32
TORSDOF 8
ENDMDL
MODEL 2
REMARK VINA RESULT: -8.847243365      0.080      1.488
REMARK  8 active torsions:
REMARK  status: ('A' for Active; 'I' for Inactive)
REMARK    1  A    between atoms: C5_7  and  N2_8 
REMARK    2  A    between atoms: N2_8  and  C6_10 
REMARK    3  A    between atoms: C12_18  and  C13_19 
REMARK    4  A    between atoms: C13_19  and  N3_20 
REMARK    5  A    between atoms: N4_29  and  C21_30 
REMARK    6  A    between atoms: C21_30  and  O1_31 
REMARK    7  A    between atoms: O1_31  and  C22_32 
REMARK    8  A    between atoms: C22_32  and  C23_33 
ROOT
HETATM    1  C1  UNL     1       1.682 -15.797  14.304  1.00  0.00     0.089 C 
HETATM    2  C2  UNL     1       1.767 -14.379  13.797  1.00  0.00     0.086 A 
HETATM    3  N1  UNL     1       2.308 -13.390  14.563  1.00  0.00    -0.344 N 
ATOM      4  H1  UNL     1       2.702 -13.504  15.497  1.00  0.00     0.167 HD
HETATM    5  C3  UNL     1       2.231 -12.235  13.870  1.00  0.00     0.063 A 
HETATM    6  C4  UNL     1       2.616 -10.930  14.143  1.00  0.00     0.062 A 
HETATM    7  C5  UNL     1       2.425  -9.913  13.262  1.00  0.00     0.043 A 
HETATM    8  C12 UNL     1       1.816 -10.220  12.038  1.00  0.00    -0.012 A 
HETATM    9  C19 UNL     1       1.436 -11.515  11.769  1.00  0.00     0.043 A 
HETATM   10  C20 UNL     1       1.635 -12.538  12.673  1.00  0.00     0.069 A 
HETATM   11  N4  UNL     1       1.348 -13.876  12.632  1.00  0.00    -0.290 N 
ENDROOT
BRANCH  11  12
HETATM   12  C21 UNL     1       0.738 -14.551  11.518  1.00  0.00     0.235 C 
BRANCH  12  13
HETATM   13  O1  UNL     1      -0.631 -14.500  11.454  1.00  0.00    -0.346 OA
BRANCH  13  14
HETATM   14  C22 UNL     1      -1.081 -13.892  10.330  1.00  0.00     0.181 C 
BRANCH  14  15
HETATM   15  C23 UNL     1      -0.297 -14.263   9.085  1.00  0.00     0.017 C 
HETATM   16  C24 UNL     1      -0.198 -13.029   8.221  1.00  0.00     0.034 C 
HETATM   17  C25 UNL     1       0.699 -13.299   7.011  1.00  0.00     0.232 C 
HETATM   18  N5  UNL     1       0.851 -14.718   6.820  1.00  0.00    -0.075 N 
HETATM   19  C26 UNL     1      -0.411 -15.413   6.895  1.00  0.00     0.237 C 
ATOM     20  H52 UNL     1       1.335 -14.924   5.947  1.00  0.00     0.277 HD
ATOM     21  H51 UNL     1       1.527 -15.109   7.476  1.00  0.00     0.277 HD
HETATM   22  C27 UNL     1      -1.037 -15.318   8.280  1.00  0.00     0.013 C 
HETATM   23  C28 UNL     1      -2.486 -15.009   8.096  1.00  0.00     0.012 C 
ENDBRANCH  14  15
ENDBRANCH  13  14
ENDBRANCH  12  13
ENDBRANCH  11  12
BRANCH   8  24
HETATM   24  C13 UNL     1       1.625  -9.114  11.090  1.00  0.00     0.158 C 
BRANCH  24  25
HETATM   25  N3  UNL     1       2.366  -9.139   9.890  1.00  0.00    -0.406 N 
HETATM   26  C14 UNL     1       2.076 -10.162   8.947  1.00  0.00     0.117 C 
HETATM   27  C15 UNL     1       1.414  -9.650   7.687  1.00  0.00     0.022 C 
HETATM   28  C16 UNL     1       0.466  -8.517   7.986  1.00  0.00     0.040 C 
HETATM   29  C17 UNL     1       1.271  -7.384   8.570  1.00  0.00     0.187 C 
HETATM   30  F1  UNL     1       0.499  -6.625   9.429  1.00  0.00    -0.248 F 
HETATM   31  C18 UNL     1       2.535  -7.875   9.248  1.00  0.00     0.154 C 
ENDBRANCH  24  25
ENDBRANCH   8  24
BRANCH   7  32
HETATM   32  N2  UNL     1       2.817  -8.581  13.523  1.00  0.00    -0.353 N 
ATOM     33  H2  UNL     1       2.206  -7.820  13.227  1.00  0.00     0.166 HD
BRANCH  32  34
HETATM   34  C6  UNL     1       4.035  -8.268  14.186  1.00  0.00     0.076 A 
HETATM   35  C7  UNL     1       4.167  -8.458  15.544  1.00  0.00     0.062 A 
HETATM   36 CL1  UNL     1       2.822  -9.095  16.495  1.00  0.00    -0.082 Cl
HETATM   37  C8  UNL     1       5.369  -8.142  16.155  1.00  0.00     0.026 A 
HETATM   38  C9  UNL     1       6.444  -7.642  15.455  1.00  0.00     0.003 A 
HETATM   39  C10 UNL     1       6.321  -7.450  14.099  1.00  0.00     0.026 A 
HETATM   40  C11 UNL     1       5.133  -7.761  13.485  1.00  0.00     0.062 A 
HETATM   41 CL2  UNL     1       4.952  -7.522  11.741  1.00  0.00    -0.082 Cl
ENDBRANCH  32  34
ENDBRANCH   7  32
TORSDOF 8
ENDMDL
MODEL 3
REMARK VINA RESULT: -8.796000479      2.010      3.274
REMARK  8 active torsions:
REMARK  status: ('A' for Active; 'I' for Inactive)
REMARK    1  A    between atoms: C5_7  and  N2_8 
REMARK    2  A    between atoms: N2_8  and  C6_10 
REMARK    3  A    between atoms: C12_18  and  C13_19 
REMARK    4  A    between atoms: C13_19  and  N3_20 
REMARK    5  A    between atoms: N4_29  and  C21_30 
REMARK    6  A    between atoms: C21_30  and  O1_31 
REMARK    7  A    between atoms: O1_31  and  C22_32 
REMARK    8  A    between atoms: C22_32  and  C23_33 
ROOT
HETATM    1  C1  UNL     1       1.149 -15.355  11.148  1.00  0.00     0.089 C 
HETATM    2  C2  UNL     1       1.258 -13.866  11.364  1.00  0.00     0.086 A 
HETATM    3  N1  UNL     1       1.911 -13.360  12.447  1.00  0.00    -0.344 N 
ATOM      4  H1  UNL     1       2.379 -13.903  13.172  1.00  0.00     0.167 HD
HETATM    5  C3  UNL     1       1.829 -12.014  12.392  1.00  0.00     0.063 A 
HETATM    6  C4  UNL     1       2.299 -10.994  13.208  1.00  0.00     0.062 A 
HETATM    7  C5  UNL     1       2.082  -9.681  12.935  1.00  0.00     0.043 A 
HETATM    8  C12 UNL     1       1.353  -9.370  11.779  1.00  0.00    -0.012 A 
HETATM    9  C19 UNL     1       0.889 -10.383  10.971  1.00  0.00     0.043 A 
HETATM   10  C20 UNL     1       1.117 -11.713  11.261  1.00  0.00     0.069 A 
HETATM   11  N4  UNL     1       0.763 -12.871  10.623  1.00  0.00    -0.290 N 
ENDROOT
BRANCH  11  12
HETATM   12  C21 UNL     1       0.026 -12.936   9.389  1.00  0.00     0.235 C 
BRANCH  12  13
HETATM   13  O1  UNL     1       0.630 -12.376   8.292  1.00  0.00    -0.346 OA
BRANCH  13  14
HETATM   14  C22 UNL     1      -0.154 -12.409   7.188  1.00  0.00     0.181 C 
BRANCH  14  15
HETATM   15  C23 UNL     1      -0.688 -11.047   6.784  1.00  0.00     0.017 C 
HETATM   16  C24 UNL     1      -2.115 -11.232   6.326  1.00  0.00     0.034 C 
HETATM   17  C25 UNL     1      -2.758  -9.875   6.032  1.00  0.00     0.232 C 
HETATM   18  N5  UNL     1      -1.737  -8.873   5.876  1.00  0.00    -0.075 N 
HETATM   19  C26 UNL     1      -0.669  -9.315   5.014  1.00  0.00     0.237 C 
ATOM     20  H52 UNL     1      -2.132  -7.991   5.552  1.00  0.00     0.277 HD
ATOM     21  H51 UNL     1      -1.378  -8.567   6.781  1.00  0.00     0.277 HD
HETATM   22  C27 UNL     1       0.094 -10.493   5.605  1.00  0.00     0.013 C 
HETATM   23  C28 UNL     1       0.296 -11.490   4.511  1.00  0.00     0.012 C 
ENDBRANCH  14  15
ENDBRANCH  13  14
ENDBRANCH  12  13
ENDBRANCH  11  12
BRANCH   8  24
HETATM   24  C13 UNL     1       1.134  -7.947  11.489  1.00  0.00     0.158 C 
BRANCH  24  25
HETATM   25  N3  UNL     1       2.025  -7.310  10.600  1.00  0.00    -0.406 N 
HETATM   26  C14 UNL     1       3.252  -7.963  10.303  1.00  0.00     0.117 C 
HETATM   27  C15 UNL     1       3.332  -8.475   8.881  1.00  0.00     0.022 C 
HETATM   28  C16 UNL     1       1.995  -8.983   8.404  1.00  0.00     0.040 C 
HETATM   29  C17 UNL     1       1.031  -7.824   8.416  1.00  0.00     0.187 C 
HETATM   30  F1  UNL     1      -0.262  -8.264   8.630  1.00  0.00    -0.248 F 
HETATM   31  C18 UNL     1       1.429  -6.764   9.423  1.00  0.00     0.154 C 
ENDBRANCH  24  25
ENDBRANCH   8  24
BRANCH   7  32
HETATM   32  N2  UNL     1       2.559  -8.633  13.753  1.00  0.00    -0.353 N 
ATOM     33  H2  UNL     1       2.052  -7.748  13.767  1.00  0.00     0.166 HD
BRANCH  32  34
HETATM   34  C6  UNL     1       3.723  -8.772  14.558  1.00  0.00     0.076 A 
HETATM   35  C7  UNL     1       3.661  -9.398  15.783  1.00  0.00     0.062 A 
HETATM   36 CL1  UNL     1       2.131 -10.043  16.384  1.00  0.00    -0.082 Cl
HETATM   37  C8  UNL     1       4.817  -9.515  16.539  1.00  0.00     0.026 A 
HETATM   38  C9  UNL     1       6.030  -9.028  16.111  1.00  0.00     0.003 A 
HETATM   39  C10 UNL     1       6.101  -8.402  14.889  1.00  0.00     0.026 A 
HETATM   40  C11 UNL     1       4.961  -8.282  14.133  1.00  0.00     0.062 A 
HETATM   41 CL2  UNL     1       5.028  -7.479  12.557  1.00  0.00    -0.082 Cl
ENDBRANCH  32  34
ENDBRANCH   7  32
TORSDOF 8
ENDMDL
MODEL 4
REMARK VINA RESULT: -8.791708590      2.011      2.931
REMARK  8 active torsions:
REMARK  status: ('A' for Active; 'I' for Inactive)
REMARK    1  A    between atoms: C5_7  and  N2_8 
REMARK    2  A    between atoms: N2_8  and  C6_10 
REMARK    3  A    between atoms: C12_18  and  C13_19 
REMARK    4  A    between atoms: C13_19  and  N3_20 
REMARK    5  A    between atoms: N4_29  and  C21_30 
REMARK    6  A    between atoms: C21_30  and  O1_31 
REMARK    7  A    between atoms: O1_31  and  C22_32 
REMARK    8  A    between atoms: C22_32  and  C23_33 
ROOT
HETATM    1  C1  UNL     1       1.151 -15.375  11.134  1.00  0.00     0.089 C 
HETATM    2  C2  UNL     1       1.258 -13.887  11.353  1.00  0.00     0.086 A 
HETATM    3  N1  UNL     1       1.909 -13.382  12.438  1.00  0.00    -0.344 N 
ATOM      4  H1  UNL     1       2.378 -13.926  13.163  1.00  0.00     0.167 HD
HETATM    5  C3  UNL     1       1.827 -12.036  12.386  1.00  0.00     0.063 A 
HETATM    6  C4  UNL     1       2.295 -11.018  13.204  1.00  0.00     0.062 A 
HETATM    7  C5  UNL     1       2.076  -9.704  12.933  1.00  0.00     0.043 A 
HETATM    8  C12 UNL     1       1.348  -9.391  11.777  1.00  0.00    -0.012 A 
HETATM    9  C19 UNL     1       0.886 -10.403  10.967  1.00  0.00     0.043 A 
HETATM   10  C20 UNL     1       1.116 -11.733  11.254  1.00  0.00     0.069 A 
HETATM   11  N4  UNL     1       0.763 -12.890  10.614  1.00  0.00    -0.290 N 
ENDROOT
BRANCH  11  12
HETATM   12  C21 UNL     1       0.028 -12.954   9.379  1.00  0.00     0.235 C 
BRANCH  12  13
HETATM   13  O1  UNL     1       0.636 -12.398   8.282  1.00  0.00    -0.346 OA
BRANCH  13  14
HETATM   14  C22 UNL     1      -0.147 -12.428   7.177  1.00  0.00     0.181 C 
BRANCH  14  15
HETATM   15  C23 UNL     1      -0.674 -11.064   6.771  1.00  0.00     0.017 C 
HETATM   16  C24 UNL     1      -2.105 -11.240   6.322  1.00  0.00     0.034 C 
HETATM   17  C25 UNL     1      -2.740  -9.880   6.026  1.00  0.00     0.232 C 
HETATM   18  N5  UNL     1      -1.713  -8.886   5.861  1.00  0.00    -0.075 N 
HETATM   19  C26 UNL     1      -0.653  -9.339   4.994  1.00  0.00     0.237 C 
ATOM     20  H52 UNL     1      -2.103  -8.002   5.536  1.00  0.00     0.277 HD
ATOM     21  H51 UNL     1      -1.346  -8.579   6.762  1.00  0.00     0.277 HD
HETATM   22  C27 UNL     1       0.105 -10.520   5.585  1.00  0.00     0.013 C 
HETATM   23  C28 UNL     1       0.293 -11.522   4.494  1.00  0.00     0.012 C 
ENDBRANCH  14  15
ENDBRANCH  13  14
ENDBRANCH  12  13
ENDBRANCH  11  12
BRANCH   8  24
HETATM   24  C13 UNL     1       1.128  -7.968  11.490  1.00  0.00     0.158 C 
BRANCH  24  25
HETATM   25  N3  UNL     1       2.016  -7.330  10.598  1.00  0.00    -0.406 N 
HETATM   26  C14 UNL     1       3.240  -7.985  10.292  1.00  0.00     0.117 C 
HETATM   27  C15 UNL     1       3.312  -8.492   8.869  1.00  0.00     0.022 C 
HETATM   28  C16 UNL     1       1.972  -8.996   8.397  1.00  0.00     0.040 C 
HETATM   29  C17 UNL     1       1.010  -7.835   8.418  1.00  0.00     0.187 C 
HETATM   30  F1  UNL     1      -0.282  -8.273   8.637  1.00  0.00    -0.248 F 
HETATM   31  C18 UNL     1       1.416  -6.779   9.426  1.00  0.00     0.154 C 
ENDBRANCH  24  25
ENDBRANCH   8  24
BRANCH   7  32
HETATM   32  N2  UNL     1       2.551  -8.657  13.754  1.00  0.00    -0.353 N 
ATOM     33  H2  UNL     1       2.038  -7.776  13.776  1.00  0.00     0.166 HD
BRANCH  32  34
HETATM   34  C6  UNL     1       3.721  -8.792  14.550  1.00  0.00     0.076 A 
HETATM   35  C7  UNL     1       4.931  -8.298  14.114  1.00  0.00     0.062 A 
HETATM   36 CL1  UNL     1       5.057  -7.486  12.552  1.00  0.00    -0.082 Cl
HETATM   37  C8  UNL     1       6.049  -8.448  14.919  1.00  0.00     0.026 A 
HETATM   38  C9  UNL     1       5.998  -9.074  16.143  1.00  0.00     0.003 A 
HETATM   39  C10 UNL     1       4.795  -9.569  16.587  1.00  0.00     0.026 A 
HETATM   40  C11 UNL     1       3.682  -9.425  15.796  1.00  0.00     0.062 A 
HETATM   41 CL2  UNL     1       2.121 -10.054  16.346  1.00  0.00    -0.082 Cl
ENDBRANCH  32  34
ENDBRANCH   7  32
TORSDOF 8
ENDMDL
MODEL 5
REMARK VINA RESULT: -8.649983087      1.919      3.475
REMARK  8 active torsions:
REMARK  status: ('A' for Active; 'I' for Inactive)
REMARK    1  A    between atoms: C5_7  and  N2_8 
REMARK    2  A    between atoms: N2_8  and  C6_10 
REMARK    3  A    between atoms: C12_18  and  C13_19 
REMARK    4  A    between atoms: C13_19  and  N3_20 
REMARK    5  A    between atoms: N4_29  and  C21_30 
REMARK    6  A    between atoms: C21_30  and  O1_31 
REMARK    7  A    between atoms: O1_31  and  C22_32 
REMARK    8  A    between atoms: C22_32  and  C23_33 
ROOT
HETATM    1  C1  UNL     1       2.755 -16.326  13.749  1.00  0.00     0.089 C 
HETATM    2  C2  UNL     1       2.621 -14.870  13.378  1.00  0.00     0.086 A 
HETATM    3  N1  UNL     1       3.012 -13.888  14.237  1.00  0.00    -0.344 N 
ATOM      4  H1  UNL     1       3.425 -14.028  15.159  1.00  0.00     0.167 HD
HETATM    5  C3  UNL     1       2.757 -12.697  13.654  1.00  0.00     0.063 A 
HETATM    6  C4  UNL     1       2.943 -11.381  14.051  1.00  0.00     0.062 A 
HETATM    7  C5  UNL     1       2.595 -10.326  13.268  1.00  0.00     0.043 A 
HETATM    8  C12 UNL     1       2.030 -10.605  12.016  1.00  0.00    -0.012 A 
HETATM    9  C19 UNL     1       1.848 -11.911  11.625  1.00  0.00     0.043 A 
HETATM   10  C20 UNL     1       2.206 -12.973  12.431  1.00  0.00     0.069 A 
HETATM   11  N4  UNL     1       2.123 -14.329  12.262  1.00  0.00    -0.290 N 
ENDROOT
BRANCH  11  12
HETATM   12  C21 UNL     1       1.615 -14.981  11.085  1.00  0.00     0.235 C 
BRANCH  12  13
HETATM   13  O1  UNL     1       0.596 -15.879  11.282  1.00  0.00    -0.346 OA
BRANCH  13  14
HETATM   14  C22 UNL     1      -0.590 -15.278  11.541  1.00  0.00     0.181 C 
BRANCH  14  15
HETATM   15  C23 UNL     1      -1.334 -15.886  12.715  1.00  0.00     0.017 C 
HETATM   16  C24 UNL     1      -2.806 -15.617  12.514  1.00  0.00     0.034 C 
HETATM   17  C25 UNL     1      -3.627 -16.322  13.595  1.00  0.00     0.232 C 
HETATM   18  N5  UNL     1      -2.777 -16.684  14.698  1.00  0.00    -0.075 N 
HETATM   19  C26 UNL     1      -1.921 -15.596  15.103  1.00  0.00     0.237 C 
ATOM     20  H52 UNL     1      -3.321 -17.037  15.485  1.00  0.00     0.277 HD
ATOM     21  H51 UNL     1      -2.234 -17.521  14.488  1.00  0.00     0.277 HD
HETATM   22  C27 UNL     1      -0.927 -15.213  14.014  1.00  0.00     0.013 C 
HETATM   23  C28 UNL     1      -0.911 -13.723  13.926  1.00  0.00     0.012 C 
ENDBRANCH  14  15
ENDBRANCH  13  14
ENDBRANCH  12  13
ENDBRANCH  11  12
BRANCH   8  24
HETATM   24  C13 UNL     1       1.669  -9.457  11.175  1.00  0.00     0.158 C 
BRANCH  24  25
HETATM   25  N3  UNL     1       2.021  -9.502   9.810  1.00  0.00    -0.406 N 
HETATM   26  C14 UNL     1       1.003  -9.819   8.868  1.00  0.00     0.117 C 
HETATM   27  C15 UNL     1       0.613  -8.651   7.989  1.00  0.00     0.022 C 
HETATM   28  C16 UNL     1       0.649  -7.353   8.754  1.00  0.00     0.040 C 
HETATM   29  C17 UNL     1       2.068  -7.124   9.208  1.00  0.00     0.187 C 
HETATM   30  F1  UNL     1       2.096  -6.390  10.378  1.00  0.00    -0.248 F 
HETATM   31  C18 UNL     1       2.835  -8.423   9.350  1.00  0.00     0.154 C 
ENDBRANCH  24  25
ENDBRANCH   8  24
BRANCH   7  32
HETATM   32  N2  UNL     1       2.784  -8.981  13.656  1.00  0.00    -0.353 N 
ATOM     33  H2  UNL     1       2.041  -8.306  13.473  1.00  0.00     0.166 HD
BRANCH  32  34
HETATM   34  C6  UNL     1       3.974  -8.538  14.294  1.00  0.00     0.076 A 
HETATM   35  C7  UNL     1       4.172  -8.748  15.641  1.00  0.00     0.062 A 
HETATM   36 CL1  UNL     1       2.947  -9.573  16.609  1.00  0.00    -0.082 Cl
HETATM   37  C8  UNL     1       5.346  -8.302  16.228  1.00  0.00     0.026 A 
HETATM   38  C9  UNL     1       6.328  -7.654  15.513  1.00  0.00     0.003 A 
HETATM   39  C10 UNL     1       6.139  -7.441  14.168  1.00  0.00     0.026 A 
HETATM   40  C11 UNL     1       4.979  -7.880  13.579  1.00  0.00     0.062 A 
HETATM   41 CL2  UNL     1       4.714  -7.616  11.849  1.00  0.00    -0.082 Cl
ENDBRANCH  32  34
ENDBRANCH   7  32
TORSDOF 8
ENDMDL
