MODEL 1
REMARK VINA RESULT: -9.174711902      0.000      0.000
REMARK  9 active torsions:
REMARK  status: ('A' for Active; 'I' for Inactive)
REMARK    1  A    between atoms: C1_2  and  C2_3 
REMARK    2  A    between atoms: C1_2  and  O3_14 
REMARK    3  A    between atoms: C2_3  and  N1_4 
REMARK       I    between atoms: N1_4  and  C3_6 
REMARK    4  A    between atoms: C3_6  and  C4_8 
REMARK    5  A    between atoms: O3_14  and  C10_15 
REMARK    6  A    between atoms: C10_15  and  C11_16 
REMARK    7  A    between atoms: C14_19  and  C15_20 
REMARK    8  A    between atoms: C16_24  and  C17_25 
REMARK       I    between atoms: C17_25  and  N3_27 
REMARK    9  A    between atoms: N3_27  and  C18_29 
ROOT
HETATM    1  C11 UNL     1       5.228  -8.852  15.356  1.00  0.00     0.078 A 
HETATM    2  C12 UNL     1       6.330  -8.075  15.067  1.00  0.00     0.038 A 
HETATM    3  C13 UNL     1       6.111  -7.470  13.848  1.00  0.00     0.043 A 
HETATM    4  C14 UNL     1       4.850  -7.920  13.440  1.00  0.00     0.113 A 
HETATM    5  O6  UNL     1       4.409  -8.709  14.361  1.00  0.00    -0.310 OA
ENDROOT
BRANCH   4   6
HETATM    6  C15 UNL     1       4.175  -7.544  12.188  1.00  0.00     0.156 A 
HETATM    7  O4  UNL     1       4.460  -6.581  11.376  1.00  0.00    -0.233 OA
HETATM    8  N2  UNL     1       3.639  -6.553  10.364  1.00  0.00    -0.253 N 
HETATM    9  C16 UNL     1       2.730  -7.558  10.484  1.00  0.00     0.147 A 
ATOM     10  H2  UNL     1       3.673  -5.880   9.598  1.00  0.00     0.195 HD
HETATM   11  C24 UNL     1       3.079  -8.192  11.657  1.00  0.00     0.106 A 
HETATM   12 CL2  UNL     1       2.218  -9.592  12.306  1.00  0.00    -0.078 Cl
BRANCH   9  13
HETATM   13  C17 UNL     1       1.626  -7.875   9.550  1.00  0.00     0.276 C 
HETATM   14  O5  UNL     1       0.751  -7.023   9.444  1.00  0.00    -0.266 OA
HETATM   15  N3  UNL     1       1.661  -9.091   8.873  1.00  0.00    -0.320 N 
ATOM     16  H3  UNL     1       2.461  -9.691   9.074  1.00  0.00     0.169 HD
BRANCH  15  17
HETATM   17  C18 UNL     1       0.731  -9.596   7.947  1.00  0.00     0.057 A 
HETATM   18  C19 UNL     1      -0.021  -8.809   7.111  1.00  0.00     0.034 A 
HETATM   19  C20 UNL     1      -0.936  -9.367   6.201  1.00  0.00     0.044 A 
HETATM   20  C21 UNL     1      -1.108 -10.727   6.119  1.00  0.00     0.118 A 
HETATM   21  F1  UNL     1      -1.997 -11.254   5.233  1.00  0.00    -0.206 F 
HETATM   22  C22 UNL     1      -0.354 -11.515   6.956  1.00  0.00     0.068 A 
HETATM   23  C23 UNL     1       0.543 -10.986   7.849  1.00  0.00     0.063 A 
HETATM   24 CL1  UNL     1       1.494 -12.019   8.909  1.00  0.00    -0.082 Cl
ENDBRANCH  15  17
ENDBRANCH   9  13
ENDBRANCH   4   6
BRANCH   1  25
HETATM   25  C10 UNL     1       5.034  -9.682  16.572  1.00  0.00     0.243 C 
BRANCH  25  26
HETATM   26  O3  UNL     1       3.794  -9.376  17.171  1.00  0.00    -0.314 OA
BRANCH  26  27
HETATM   27  C1  UNL     1       2.756 -10.309  17.175  1.00  0.00     0.277 C 
HETATM   28  O1  UNL     1       2.601 -10.942  18.245  1.00  0.00    -0.263 OA
BRANCH  27  29
HETATM   29  C2  UNL     1       1.899 -10.529  15.984  1.00  0.00     0.233 C 
BRANCH  29  30
HETATM   30  N1  UNL     1       2.005 -11.843  15.429  1.00  0.00    -0.351 N 
HETATM   31  C3  UNL     1       0.932 -12.418  14.709  1.00  0.00     0.222 C 
HETATM   32  O2  UNL     1      -0.156 -11.791  14.536  1.00  0.00    -0.273 OA
ATOM     33  H1  UNL     1       2.867 -12.373  15.555  1.00  0.00     0.163 HD
BRANCH  31  34
HETATM   34  C4  UNL     1       1.074 -13.786  14.140  1.00  0.00     0.078 C 
HETATM   35  C5  UNL     1       1.196 -13.660  12.632  1.00  0.00     0.014 C 
HETATM   36  C6  UNL     1       2.585 -13.166  12.228  1.00  0.00     0.001 C 
HETATM   37  C7  UNL     1       3.680 -14.010  12.795  1.00  0.00     0.000 C 
HETATM   38  C8  UNL     1       3.204 -15.052  13.772  1.00  0.00     0.001 C 
HETATM   39  C9  UNL     1       2.237 -14.468  14.776  1.00  0.00     0.014 C 
ENDBRANCH  31  34
ENDBRANCH  29  30
ENDBRANCH  27  29
ENDBRANCH  26  27
ENDBRANCH  25  26
ENDBRANCH   1  25
TORSDOF 9
ENDMDL
MODEL 2
REMARK VINA RESULT: -8.832040526      0.679      1.010
REMARK  9 active torsions:
REMARK  status: ('A' for Active; 'I' for Inactive)
REMARK    1  A    between atoms: C1_2  and  C2_3 
REMARK    2  A    between atoms: C1_2  and  O3_14 
REMARK    3  A    between atoms: C2_3  and  N1_4 
REMARK       I    between atoms: N1_4  and  C3_6 
REMARK    4  A    between atoms: C3_6  and  C4_8 
REMARK    5  A    between atoms: O3_14  and  C10_15 
REMARK    6  A    between atoms: C10_15  and  C11_16 
REMARK    7  A    between atoms: C14_19  and  C15_20 
REMARK    8  A    between atoms: C16_24  and  C17_25 
REMARK       I    between atoms: C17_25  and  N3_27 
REMARK    9  A    between atoms: N3_27  and  C18_29 
ROOT
HETATM    1  C11 UNL     1       5.043  -8.646  15.153  1.00  0.00     0.078 A 
HETATM    2  C12 UNL     1       6.213  -8.026  14.766  1.00  0.00     0.038 A 
HETATM    3  C13 UNL     1       6.008  -7.481  13.517  1.00  0.00     0.043 A 
HETATM    4  C14 UNL     1       4.686  -7.803  13.192  1.00  0.00     0.113 A 
HETATM    5  O6  UNL     1       4.201  -8.472  14.183  1.00  0.00    -0.310 OA
ENDROOT
BRANCH   4   6
HETATM    6  C15 UNL     1       4.002  -7.434  11.943  1.00  0.00     0.156 A 
HETATM    7  O4  UNL     1       4.214  -6.415  11.178  1.00  0.00    -0.233 OA
HETATM    8  N2  UNL     1       3.410  -6.414  10.152  1.00  0.00    -0.253 N 
HETATM    9  C16 UNL     1       2.591  -7.499  10.211  1.00  0.00     0.147 A 
ATOM     10  H2  UNL     1       3.398  -5.708   9.416  1.00  0.00     0.195 HD
HETATM   11  C24 UNL     1       2.975  -8.150  11.363  1.00  0.00     0.106 A 
HETATM   12 CL2  UNL     1       2.230  -9.647  11.935  1.00  0.00    -0.078 Cl
BRANCH   9  13
HETATM   13  C17 UNL     1       1.535  -7.870   9.243  1.00  0.00     0.276 C 
HETATM   14  O5  UNL     1       0.615  -7.068   9.118  1.00  0.00    -0.266 OA
HETATM   15  N3  UNL     1       1.658  -9.074   8.557  1.00  0.00    -0.320 N 
ATOM     16  H3  UNL     1       2.486  -9.629   8.776  1.00  0.00     0.169 HD
BRANCH  15  17
HETATM   17  C18 UNL     1       0.786  -9.623   7.600  1.00  0.00     0.057 A 
HETATM   18  C19 UNL     1       0.312  -8.933   6.513  1.00  0.00     0.034 A 
HETATM   19  C20 UNL     1      -0.557  -9.531   5.584  1.00  0.00     0.044 A 
HETATM   20  C21 UNL     1      -0.963 -10.834   5.736  1.00  0.00     0.118 A 
HETATM   21  F1  UNL     1      -1.805 -11.401   4.829  1.00  0.00    -0.206 F 
HETATM   22  C22 UNL     1      -0.487 -11.525   6.825  1.00  0.00     0.068 A 
HETATM   23  C23 UNL     1       0.362 -10.956   7.740  1.00  0.00     0.063 A 
HETATM   24 CL1  UNL     1       0.954 -11.865   9.124  1.00  0.00    -0.082 Cl
ENDBRANCH  15  17
ENDBRANCH   9  13
ENDBRANCH   4   6
BRANCH   1  25
HETATM   25  C10 UNL     1       4.811  -9.365  16.430  1.00  0.00     0.243 C 
BRANCH  25  26
HETATM   26  O3  UNL     1       3.444  -9.308  16.774  1.00  0.00    -0.314 OA
BRANCH  26  27
HETATM   27  C1  UNL     1       2.836 -10.364  17.455  1.00  0.00     0.277 C 
HETATM   28  O1  UNL     1       3.182 -10.509  18.650  1.00  0.00    -0.263 OA
BRANCH  27  29
HETATM   29  C2  UNL     1       1.846 -11.251  16.795  1.00  0.00     0.233 C 
BRANCH  29  30
HETATM   30  N1  UNL     1       2.149 -11.538  15.427  1.00  0.00    -0.351 N 
HETATM   31  C3  UNL     1       1.414 -12.510  14.707  1.00  0.00     0.222 C 
HETATM   32  O2  UNL     1       0.470 -13.158  15.252  1.00  0.00    -0.273 OA
ATOM     33  H1  UNL     1       2.904 -11.035  14.963  1.00  0.00     0.163 HD
BRANCH  31  34
HETATM   34  C4  UNL     1       1.749 -12.784  13.283  1.00  0.00     0.078 C 
HETATM   35  C5  UNL     1       3.215 -13.168  13.208  1.00  0.00     0.014 C 
HETATM   36  C6  UNL     1       3.440 -14.595  13.709  1.00  0.00     0.001 C 
HETATM   37  C7  UNL     1       2.578 -15.591  13.005  1.00  0.00     0.000 C 
HETATM   38  C8  UNL     1       1.559 -14.975  12.083  1.00  0.00     0.001 C 
HETATM   39  C9  UNL     1       0.831 -13.831  12.751  1.00  0.00     0.014 C 
ENDBRANCH  31  34
ENDBRANCH  29  30
ENDBRANCH  27  29
ENDBRANCH  26  27
ENDBRANCH  25  26
ENDBRANCH   1  25
TORSDOF 9
ENDMDL
MODEL 3
REMARK VINA RESULT: -8.608475073      3.704      7.671
REMARK  9 active torsions:
REMARK  status: ('A' for Active; 'I' for Inactive)
REMARK    1  A    between atoms: C1_2  and  C2_3 
REMARK    2  A    between atoms: C1_2  and  O3_14 
REMARK    3  A    between atoms: C2_3  and  N1_4 
REMARK       I    between atoms: N1_4  and  C3_6 
REMARK    4  A    between atoms: C3_6  and  C4_8 
REMARK    5  A    between atoms: O3_14  and  C10_15 
REMARK    6  A    between atoms: C10_15  and  C11_16 
REMARK    7  A    between atoms: C14_19  and  C15_20 
REMARK    8  A    between atoms: C16_24  and  C17_25 
REMARK       I    between atoms: C17_25  and  N3_27 
REMARK    9  A    between atoms: N3_27  and  C18_29 
ROOT
HETATM    1  C11 UNL     1       0.497 -10.519   7.582  1.00  0.00     0.078 A 
HETATM    2  C12 UNL     1       0.243  -9.213   7.220  1.00  0.00     0.038 A 
HETATM    3  C13 UNL     1       0.768  -8.395   8.197  1.00  0.00     0.043 A 
HETATM    4  C14 UNL     1       1.333  -9.265   9.135  1.00  0.00     0.113 A 
HETATM    5  O6  UNL     1       1.136 -10.467   8.709  1.00  0.00    -0.310 OA
ENDROOT
BRANCH   4   6
HETATM    6  C15 UNL     1       2.020  -8.858  10.371  1.00  0.00     0.156 A 
HETATM    7  O4  UNL     1       3.085  -8.139  10.501  1.00  0.00    -0.233 OA
HETATM    8  N2  UNL     1       3.404  -7.983  11.755  1.00  0.00    -0.253 N 
HETATM    9  C16 UNL     1       2.504  -8.635  12.541  1.00  0.00     0.147 A 
ATOM     10  H2  UNL     1       4.206  -7.452  12.096  1.00  0.00     0.195 HD
HETATM   11  C24 UNL     1       1.618  -9.194  11.646  1.00  0.00     0.106 A 
HETATM   12 CL2  UNL     1       0.225 -10.167  12.130  1.00  0.00    -0.078 Cl
BRANCH   9  13
HETATM   13  C17 UNL     1       2.503  -8.708  14.019  1.00  0.00     0.276 C 
HETATM   14  O5  UNL     1       2.342  -7.645  14.609  1.00  0.00    -0.266 OA
HETATM   15  N3  UNL     1       2.681  -9.950  14.621  1.00  0.00    -0.320 N 
ATOM     16  H3  UNL     1       2.803 -10.739  13.987  1.00  0.00     0.169 HD
BRANCH  15  17
HETATM   17  C18 UNL     1       2.713 -10.253  15.994  1.00  0.00     0.057 A 
HETATM   18  C19 UNL     1       1.669 -10.827  16.675  1.00  0.00     0.034 A 
HETATM   19  C20 UNL     1       1.755 -11.112  18.049  1.00  0.00     0.044 A 
HETATM   20  C21 UNL     1       2.894 -10.823  18.758  1.00  0.00     0.118 A 
HETATM   21  F1  UNL     1       2.965 -11.105  20.088  1.00  0.00    -0.206 F 
HETATM   22  C22 UNL     1       3.940 -10.249  18.075  1.00  0.00     0.068 A 
HETATM   23  C23 UNL     1       3.872  -9.965  16.735  1.00  0.00     0.063 A 
HETATM   24 CL1  UNL     1       5.227  -9.229  15.888  1.00  0.00    -0.082 Cl
ENDBRANCH  15  17
ENDBRANCH   9  13
ENDBRANCH   4   6
BRANCH   1  25
HETATM   25  C10 UNL     1       0.109 -11.733   6.821  1.00  0.00     0.243 C 
BRANCH  25  26
HETATM   26  O3  UNL     1       0.713 -12.873   7.391  1.00  0.00    -0.314 OA
BRANCH  26  27
HETATM   27  C1  UNL     1      -0.026 -13.746   8.190  1.00  0.00     0.277 C 
HETATM   28  O1  UNL     1      -0.478 -14.760   7.612  1.00  0.00    -0.263 OA
BRANCH  27  29
HETATM   29  C2  UNL     1      -0.257 -13.478   9.632  1.00  0.00     0.233 C 
BRANCH  29  30
HETATM   30  N1  UNL     1       0.938 -13.197  10.366  1.00  0.00    -0.351 N 
HETATM   31  C3  UNL     1       1.574 -14.200  11.135  1.00  0.00     0.222 C 
HETATM   32  O2  UNL     1       1.103 -15.376  11.200  1.00  0.00    -0.273 OA
ATOM     33  H1  UNL     1       1.338 -12.259  10.335  1.00  0.00     0.163 HD
BRANCH  31  34
HETATM   34  C4  UNL     1       2.819 -13.879  11.884  1.00  0.00     0.078 C 
HETATM   35  C5  UNL     1       2.466 -12.901  12.990  1.00  0.00     0.014 C 
HETATM   36  C6  UNL     1       1.753 -13.605  14.145  1.00  0.00     0.001 C 
HETATM   37  C7  UNL     1       2.528 -14.767  14.672  1.00  0.00     0.000 C 
HETATM   38  C8  UNL     1       3.750 -15.107  13.859  1.00  0.00     0.001 C 
HETATM   39  C9  UNL     1       3.437 -15.141  12.381  1.00  0.00     0.014 C 
ENDBRANCH  31  34
ENDBRANCH  29  30
ENDBRANCH  27  29
ENDBRANCH  26  27
ENDBRANCH  25  26
ENDBRANCH   1  25
TORSDOF 9
ENDMDL
MODEL 4
REMARK VINA RESULT: -8.539729215      1.476      2.073
REMARK  9 active torsions:
REMARK  status: ('A' for Active; 'I' for Inactive)
REMARK    1  A    between atoms: C1_2  and  C2_3 
REMARK    2  A    between atoms: C1_2  and  O3_14 
REMARK    3  A    between atoms: C2_3  and  N1_4 
REMARK       I    between atoms: N1_4  and  C3_6 
REMARK    4  A    between atoms: C3_6  and  C4_8 
REMARK    5  A    between atoms: O3_14  and  C10_15 
REMARK    6  A    between atoms: C10_15  and  C11_16 
REMARK    7  A    between atoms: C14_19  and  C15_20 
REMARK    8  A    between atoms: C16_24  and  C17_25 
REMARK       I    between atoms: C17_25  and  N3_27 
REMARK    9  A    between atoms: N3_27  and  C18_29 
ROOT
HETATM    1  C11 UNL     1       4.306  -8.152  13.593  1.00  0.00     0.078 A 
HETATM    2  C12 UNL     1       5.295  -7.402  12.993  1.00  0.00     0.038 A 
HETATM    3  C13 UNL     1       4.912  -7.163  11.690  1.00  0.00     0.043 A 
HETATM    4  C14 UNL     1       3.672  -7.797  11.554  1.00  0.00     0.113 A 
HETATM    5  O6  UNL     1       3.394  -8.341  12.690  1.00  0.00    -0.310 OA
ENDROOT
BRANCH   4   6
HETATM    6  C15 UNL     1       2.858  -7.821  10.329  1.00  0.00     0.156 A 
HETATM    7  O4  UNL     1       2.688  -6.886   9.455  1.00  0.00    -0.233 OA
HETATM    8  N2  UNL     1       1.893  -7.269   8.495  1.00  0.00    -0.253 N 
HETATM    9  C16 UNL     1       1.488  -8.548   8.720  1.00  0.00     0.147 A 
ATOM     10  H2  UNL     1       1.617  -6.697   7.697  1.00  0.00     0.195 HD
HETATM   11  C24 UNL     1       2.111  -8.898   9.899  1.00  0.00     0.106 A 
HETATM   12 CL2  UNL     1       1.932 -10.479  10.667  1.00  0.00    -0.078 Cl
BRANCH   9  13
HETATM   13  C17 UNL     1       0.583  -9.356   7.872  1.00  0.00     0.276 C 
HETATM   14  O5  UNL     1      -0.329  -8.745   7.327  1.00  0.00    -0.266 OA
HETATM   15  N3  UNL     1       0.827 -10.721   7.757  1.00  0.00    -0.320 N 
ATOM     16  H3  UNL     1       1.629 -11.077   8.277  1.00  0.00     0.169 HD
BRANCH  15  17
HETATM   17  C18 UNL     1       0.106 -11.673   7.013  1.00  0.00     0.057 A 
HETATM   18  C19 UNL     1      -0.118 -11.578   5.662  1.00  0.00     0.034 A 
HETATM   19  C20 UNL     1      -0.844 -12.560   4.967  1.00  0.00     0.044 A 
HETATM   20  C21 UNL     1      -1.356 -13.653   5.620  1.00  0.00     0.118 A 
HETATM   21  F1  UNL     1      -2.057 -14.597   4.934  1.00  0.00    -0.206 F 
HETATM   22  C22 UNL     1      -1.131 -13.748   6.973  1.00  0.00     0.068 A 
HETATM   23  C23 UNL     1      -0.425 -12.799   7.666  1.00  0.00     0.063 A 
HETATM   24 CL1  UNL     1      -0.153 -12.947   9.398  1.00  0.00    -0.082 Cl
ENDBRANCH  15  17
ENDBRANCH   9  13
ENDBRANCH   4   6
BRANCH   1  25
HETATM   25  C10 UNL     1       4.301  -8.638  14.995  1.00  0.00     0.243 C 
BRANCH  25  26
HETATM   26  O3  UNL     1       3.115  -9.357  15.252  1.00  0.00    -0.314 OA
BRANCH  26  27
HETATM   27  C1  UNL     1       2.878  -9.913  16.510  1.00  0.00     0.277 C 
HETATM   28  O1  UNL     1       3.740  -9.667  17.383  1.00  0.00    -0.263 OA
BRANCH  27  29
HETATM   29  C2  UNL     1       1.677 -10.743  16.783  1.00  0.00     0.233 C 
BRANCH  29  30
HETATM   30  N1  UNL     1       1.721 -12.039  16.179  1.00  0.00    -0.351 N 
HETATM   31  C3  UNL     1       0.827 -12.388  15.138  1.00  0.00     0.222 C 
HETATM   32  O2  UNL     1      -0.040 -11.567  14.713  1.00  0.00    -0.273 OA
ATOM     33  H1  UNL     1       2.406 -12.721  16.502  1.00  0.00     0.163 HD
BRANCH  31  34
HETATM   34  C4  UNL     1       0.900 -13.743  14.526  1.00  0.00     0.078 C 
HETATM   35  C5  UNL     1       1.190 -13.577  13.046  1.00  0.00     0.014 C 
HETATM   36  C6  UNL     1       2.654 -13.207  12.806  1.00  0.00     0.001 C 
HETATM   37  C7  UNL     1       3.599 -14.172  13.442  1.00  0.00     0.000 C 
HETATM   38  C8  UNL     1       2.929 -15.197  14.319  1.00  0.00     0.001 C 
HETATM   39  C9  UNL     1       1.921 -14.556  15.245  1.00  0.00     0.014 C 
ENDBRANCH  31  34
ENDBRANCH  29  30
ENDBRANCH  27  29
ENDBRANCH  26  27
ENDBRANCH  25  26
ENDBRANCH   1  25
TORSDOF 9
ENDMDL
MODEL 5
REMARK VINA RESULT: -8.535106528      2.284      5.363
REMARK  9 active torsions:
REMARK  status: ('A' for Active; 'I' for Inactive)
REMARK    1  A    between atoms: C1_2  and  C2_3 
REMARK    2  A    between atoms: C1_2  and  O3_14 
REMARK    3  A    between atoms: C2_3  and  N1_4 
REMARK       I    between atoms: N1_4  and  C3_6 
REMARK    4  A    between atoms: C3_6  and  C4_8 
REMARK    5  A    between atoms: O3_14  and  C10_15 
REMARK    6  A    between atoms: C10_15  and  C11_16 
REMARK    7  A    between atoms: C14_19  and  C15_20 
REMARK    8  A    between atoms: C16_24  and  C17_25 
REMARK       I    between atoms: C17_25  and  N3_27 
REMARK    9  A    between atoms: N3_27  and  C18_29 
ROOT
HETATM    1  C11 UNL     1       3.267 -10.273  15.783  1.00  0.00     0.078 A 
HETATM    2  C12 UNL     1       2.153 -10.869  16.335  1.00  0.00     0.038 A 
HETATM    3  C13 UNL     1       1.644 -11.753  15.408  1.00  0.00     0.043 A 
HETATM    4  C14 UNL     1       2.496 -11.650  14.303  1.00  0.00     0.113 A 
HETATM    5  O6  UNL     1       3.402 -10.781  14.597  1.00  0.00    -0.310 OA
ENDROOT
BRANCH   4   6
HETATM    6  C15 UNL     1       2.360 -12.408  13.049  1.00  0.00     0.156 A 
HETATM    7  O4  UNL     1       3.162 -13.288  12.547  1.00  0.00    -0.233 OA
HETATM    8  N2  UNL     1       2.712 -13.752  11.415  1.00  0.00    -0.253 N 
HETATM    9  C16 UNL     1       1.526 -13.156  11.115  1.00  0.00     0.147 A 
ATOM     10  H2  UNL     1       3.178 -14.455  10.842  1.00  0.00     0.195 HD
HETATM   11  C24 UNL     1       1.305 -12.294  12.168  1.00  0.00     0.106 A 
HETATM   12 CL2  UNL     1      -0.115 -11.251  12.295  1.00  0.00    -0.078 Cl
BRANCH   9  13
HETATM   13  C17 UNL     1       0.686 -13.398   9.921  1.00  0.00     0.276 C 
HETATM   14  O5  UNL     1      -0.396 -13.936  10.127  1.00  0.00    -0.266 OA
HETATM   15  N3  UNL     1       1.174 -13.008   8.677  1.00  0.00    -0.320 N 
ATOM     16  H3  UNL     1       2.097 -12.573   8.677  1.00  0.00     0.169 HD
BRANCH  15  17
HETATM   17  C18 UNL     1       0.554 -13.137   7.421  1.00  0.00     0.057 A 
HETATM   18  C19 UNL     1       0.388 -14.333   6.770  1.00  0.00     0.034 A 
HETATM   19  C20 UNL     1      -0.241 -14.406   5.515  1.00  0.00     0.044 A 
HETATM   20  C21 UNL     1      -0.713 -13.275   4.896  1.00  0.00     0.118 A 
HETATM   21  F1  UNL     1      -1.321 -13.359   3.681  1.00  0.00    -0.206 F 
HETATM   22  C22 UNL     1      -0.547 -12.077   5.550  1.00  0.00     0.068 A 
HETATM   23  C23 UNL     1       0.064 -11.989   6.774  1.00  0.00     0.063 A 
HETATM   24 CL1  UNL     1       0.263 -10.441   7.587  1.00  0.00    -0.082 Cl
ENDBRANCH  15  17
ENDBRANCH   9  13
ENDBRANCH   4   6
BRANCH   1  25
HETATM   25  C10 UNL     1       4.130  -9.254  16.431  1.00  0.00     0.243 C 
BRANCH  25  26
HETATM   26  O3  UNL     1       4.326  -8.163  15.559  1.00  0.00    -0.314 OA
BRANCH  26  27
HETATM   27  C1  UNL     1       5.555  -7.967  14.929  1.00  0.00     0.277 C 
HETATM   28  O1  UNL     1       6.562  -8.319  15.584  1.00  0.00    -0.263 OA
BRANCH  27  29
HETATM   29  C2  UNL     1       5.651  -7.376  13.570  1.00  0.00     0.233 C 
BRANCH  29  30
HETATM   30  N1  UNL     1       4.763  -7.967  12.619  1.00  0.00    -0.351 N 
HETATM   31  C3  UNL     1       4.230  -7.208  11.550  1.00  0.00     0.222 C 
HETATM   32  O2  UNL     1       4.520  -5.982  11.405  1.00  0.00    -0.273 OA
ATOM     33  H1  UNL     1       4.510  -8.951  12.711  1.00  0.00     0.163 HD
BRANCH  31  34
HETATM   34  C4  UNL     1       3.312  -7.852  10.572  1.00  0.00     0.078 C 
HETATM   35  C5  UNL     1       2.505  -8.907  11.306  1.00  0.00     0.014 C 
HETATM   36  C6  UNL     1       1.413  -8.271  12.166  1.00  0.00     0.001 C 
HETATM   37  C7  UNL     1       0.529  -7.356  11.384  1.00  0.00     0.000 C 
HETATM   38  C8  UNL     1       0.993  -7.118   9.971  1.00  0.00     0.001 C 
HETATM   39  C9  UNL     1       2.472  -6.808   9.920  1.00  0.00     0.014 C 
ENDBRANCH  31  34
ENDBRANCH  29  30
ENDBRANCH  27  29
ENDBRANCH  26  27
ENDBRANCH  25  26
ENDBRANCH   1  25
TORSDOF 9
ENDMDL
