MODEL 1
REMARK VINA RESULT: -7.254718644      0.000      0.000
REMARK  3 active torsions:
REMARK  status: ('A' for Active; 'I' for Inactive)
REMARK    1  A    between atoms: C2_2  and  N1_3 
REMARK       I    between atoms: N1_3  and  C4_5 
REMARK    2  A    between atoms: C4_5  and  C5_7 
REMARK    3  A    between atoms: C10_12  and  C11_13 
REMARK       I    between atoms: C11_13  and  N2_15 
ROOT
HETATM    1  C5  UNL     1      -9.839  50.214  -4.484  1.00  0.00     0.097 C 
HETATM    2  C6  UNL     1     -10.623  50.420  -5.793  1.00  0.00     0.030 C 
HETATM    3  C7  UNL     1     -10.567  51.881  -6.069  1.00  0.00    -0.007 C 
HETATM    4  C8  UNL     1     -11.878  52.575  -5.711  1.00  0.00     0.016 C 
HETATM    5  C9  UNL     1     -12.662  52.696  -7.015  1.00  0.00     0.016 C 
HETATM    6  C10 UNL     1     -11.848  51.892  -8.002  1.00  0.00     0.087 C 
HETATM    7  C13 UNL     1     -10.445  52.225  -7.537  1.00  0.00    -0.020 C 
HETATM    8  C14 UNL     1      -9.401  51.429  -8.241  1.00  0.00     0.017 C 
HETATM    9  C15 UNL     1     -10.121  53.689  -7.606  1.00  0.00     0.014 C 
HETATM   10  C16 UNL     1      -8.717  53.865  -7.067  1.00  0.00     0.028 C 
HETATM   11  C17 UNL     1      -8.583  53.268  -5.711  1.00  0.00    -0.022 C 
HETATM   12  C18 UNL     1      -9.434  52.359  -5.261  1.00  0.00    -0.059 C 
HETATM   13  C19 UNL     1      -9.566  51.584  -3.968  1.00  0.00     0.100 C 
HETATM   14 BR1  UNL     1      -8.084  51.768  -2.804  1.00  0.00    -0.086 Br
ENDROOT
BRANCH   1  15
HETATM   15  C4  UNL     1      -8.613  49.447  -4.741  1.00  0.00     0.225 C 
HETATM   16  N1  UNL     1      -8.191  48.391  -3.899  1.00  0.00    -0.356 N 
HETATM   17  C3  UNL     1      -6.952  47.667  -4.256  1.00  0.00     0.152 C 
HETATM   18  O1  UNL     1      -7.921  49.746  -5.752  1.00  0.00    -0.273 OA
BRANCH  16  19
HETATM   19  C2  UNL     1      -8.868  47.956  -2.713  1.00  0.00     0.120 C 
HETATM   20  C1  UNL     1     -10.033  47.054  -3.109  1.00  0.00     0.026 C 
ENDBRANCH  16  19
ENDBRANCH   1  15
BRANCH   6  21
HETATM   21  C11 UNL     1     -12.114  52.185  -9.403  1.00  0.00     0.222 C 
HETATM   22  O2  UNL     1     -12.941  53.074  -9.707  1.00  0.00    -0.273 OA
HETATM   23  N2  UNL     1     -11.462  51.492 -10.453  1.00  0.00    -0.365 N 
HETATM   24  C12 UNL     1     -11.714  51.770 -11.852  1.00  0.00     0.149 C 
ATOM     25  H2  UNL     1     -10.787  50.766 -10.213  1.00  0.00     0.161 HD
ENDBRANCH   6  21
TORSDOF 3
ENDMDL
MODEL 2
REMARK VINA RESULT: -7.097022367      1.298      1.433
REMARK  3 active torsions:
REMARK  status: ('A' for Active; 'I' for Inactive)
REMARK    1  A    between atoms: C2_2  and  N1_3 
REMARK       I    between atoms: N1_3  and  C4_5 
REMARK    2  A    between atoms: C4_5  and  C5_7 
REMARK    3  A    between atoms: C10_12  and  C11_13 
REMARK       I    between atoms: C11_13  and  N2_15 
ROOT
HETATM    1  C5  UNL     1      -9.057  49.215  -4.677  1.00  0.00     0.097 C 
HETATM    2  C6  UNL     1      -9.939  49.803  -5.794  1.00  0.00     0.030 C 
HETATM    3  C7  UNL     1      -9.685  51.269  -5.776  1.00  0.00    -0.007 C 
HETATM    4  C8  UNL     1     -10.824  52.032  -5.103  1.00  0.00     0.016 C 
HETATM    5  C9  UNL     1     -11.719  52.537  -6.232  1.00  0.00     0.016 C 
HETATM    6  C10 UNL     1     -11.155  51.870  -7.466  1.00  0.00     0.087 C 
HETATM    7  C13 UNL     1      -9.674  51.909  -7.147  1.00  0.00    -0.020 C 
HETATM    8  C14 UNL     1      -8.852  51.158  -8.137  1.00  0.00     0.017 C 
HETATM    9  C15 UNL     1      -9.135  53.298  -6.964  1.00  0.00     0.014 C 
HETATM   10  C16 UNL     1      -7.669  53.168  -6.605  1.00  0.00     0.028 C 
HETATM   11  C17 UNL     1      -7.481  52.275  -5.430  1.00  0.00    -0.022 C 
HETATM   12  C18 UNL     1      -8.410  51.407  -5.056  1.00  0.00    -0.059 C 
HETATM   13  C19 UNL     1      -8.518  50.391  -3.940  1.00  0.00     0.100 C 
HETATM   14 BR1  UNL     1      -6.906  50.121  -2.985  1.00  0.00    -0.086 Br
ENDROOT
BRANCH   1  15
HETATM   15  C4  UNL     1      -8.003  48.371  -5.255  1.00  0.00     0.225 C 
HETATM   16  N1  UNL     1      -7.714  47.077  -4.760  1.00  0.00    -0.356 N 
HETATM   17  C3  UNL     1      -6.646  46.299  -5.423  1.00  0.00     0.152 C 
HETATM   18  O1  UNL     1      -7.339  48.824  -6.227  1.00  0.00    -0.273 OA
BRANCH  16  19
HETATM   19  C2  UNL     1      -8.374  46.446  -3.655  1.00  0.00     0.120 C 
HETATM   20  C1  UNL     1      -7.325  45.793  -2.758  1.00  0.00     0.026 C 
ENDBRANCH  16  19
ENDBRANCH   1  15
BRANCH   6  21
HETATM   21  C11 UNL     1     -11.525  52.497  -8.727  1.00  0.00     0.222 C 
HETATM   22  O2  UNL     1     -11.982  53.662  -8.733  1.00  0.00    -0.273 OA
HETATM   23  N2  UNL     1     -11.387  51.826  -9.968  1.00  0.00    -0.365 N 
HETATM   24  C12 UNL     1     -11.750  52.433 -11.232  1.00  0.00     0.149 C 
ATOM     25  H2  UNL     1     -11.015  50.876  -9.971  1.00  0.00     0.161 HD
ENDBRANCH   6  21
TORSDOF 3
ENDMDL
MODEL 3
REMARK VINA RESULT: -6.754191500      2.228      3.266
REMARK  3 active torsions:
REMARK  status: ('A' for Active; 'I' for Inactive)
REMARK    1  A    between atoms: C2_2  and  N1_3 
REMARK       I    between atoms: N1_3  and  C4_5 
REMARK    2  A    between atoms: C4_5  and  C5_7 
REMARK    3  A    between atoms: C10_12  and  C11_13 
REMARK       I    between atoms: C11_13  and  N2_15 
ROOT
HETATM    1  C5  UNL     1      -8.354  52.739  -3.758  1.00  0.00     0.097 C 
HETATM    2  C6  UNL     1      -9.485  52.816  -4.799  1.00  0.00     0.030 C 
HETATM    3  C7  UNL     1      -8.866  52.423  -6.094  1.00  0.00    -0.007 C 
HETATM    4  C8  UNL     1      -8.589  53.635  -6.979  1.00  0.00     0.016 C 
HETATM    5  C9  UNL     1      -9.764  53.727  -7.949  1.00  0.00     0.016 C 
HETATM    6  C10 UNL     1     -10.737  52.690  -7.438  1.00  0.00     0.087 C 
HETATM    7  C13 UNL     1      -9.775  51.609  -6.988  1.00  0.00    -0.020 C 
HETATM    8  C14 UNL     1     -10.456  50.494  -6.273  1.00  0.00     0.017 C 
HETATM    9  C15 UNL     1      -8.915  51.072  -8.095  1.00  0.00     0.014 C 
HETATM   10  C16 UNL     1      -7.983  50.047  -7.483  1.00  0.00     0.028 C 
HETATM   11  C17 UNL     1      -7.227  50.623  -6.339  1.00  0.00    -0.022 C 
HETATM   12  C18 UNL     1      -7.637  51.712  -5.707  1.00  0.00    -0.059 C 
HETATM   13  C19 UNL     1      -7.108  52.521  -4.544  1.00  0.00     0.100 C 
HETATM   14 BR1  UNL     1      -5.665  51.705  -3.630  1.00  0.00    -0.086 Br
ENDROOT
BRANCH   1  15
HETATM   15  C4  UNL     1      -8.619  51.658  -2.799  1.00  0.00     0.225 C 
HETATM   16  N1  UNL     1      -8.396  51.807  -1.409  1.00  0.00    -0.356 N 
HETATM   17  C3  UNL     1      -8.713  50.666  -0.525  1.00  0.00     0.152 C 
HETATM   18  O1  UNL     1      -9.064  50.563  -3.240  1.00  0.00    -0.273 OA
BRANCH  16  19
HETATM   19  C2  UNL     1      -7.880  52.985  -0.775  1.00  0.00     0.120 C 
HETATM   20  C1  UNL     1      -8.349  53.012   0.677  1.00  0.00     0.026 C 
ENDBRANCH  16  19
ENDBRANCH   1  15
BRANCH   6  21
HETATM   21  C11 UNL     1     -11.737  52.256  -8.403  1.00  0.00     0.222 C 
HETATM   22  O2  UNL     1     -12.856  51.860  -8.006  1.00  0.00    -0.273 OA
HETATM   23  N2  UNL     1     -11.488  52.264  -9.798  1.00  0.00    -0.365 N 
HETATM   24  C12 UNL     1     -12.470  51.837 -10.773  1.00  0.00     0.149 C 
ATOM     25  H2  UNL     1     -10.578  52.586 -10.130  1.00  0.00     0.161 HD
ENDBRANCH   6  21
TORSDOF 3
ENDMDL
MODEL 4
REMARK VINA RESULT: -6.561476381      2.842      4.731
REMARK  3 active torsions:
REMARK  status: ('A' for Active; 'I' for Inactive)
REMARK    1  A    between atoms: C2_2  and  N1_3 
REMARK       I    between atoms: N1_3  and  C4_5 
REMARK    2  A    between atoms: C4_5  and  C5_7 
REMARK    3  A    between atoms: C10_12  and  C11_13 
REMARK       I    between atoms: C11_13  and  N2_15 
ROOT
HETATM    1  C5  UNL     1      -6.652  53.328  -5.389  1.00  0.00     0.097 C 
HETATM    2  C6  UNL     1      -7.929  53.421  -6.244  1.00  0.00     0.030 C 
HETATM    3  C7  UNL     1      -8.442  52.028  -6.351  1.00  0.00    -0.007 C 
HETATM    4  C8  UNL     1      -8.126  51.412  -7.711  1.00  0.00     0.016 C 
HETATM    5  C9  UNL     1      -9.384  51.587  -8.557  1.00  0.00     0.016 C 
HETATM    6  C10 UNL     1     -10.273  52.465  -7.706  1.00  0.00     0.087 C 
HETATM    7  C13 UNL     1      -9.951  51.926  -6.327  1.00  0.00    -0.020 C 
HETATM    8  C14 UNL     1     -10.576  52.725  -5.236  1.00  0.00     0.017 C 
HETATM    9  C15 UNL     1     -10.277  50.470  -6.160  1.00  0.00     0.014 C 
HETATM   10  C16 UNL     1      -9.856  50.072  -4.760  1.00  0.00     0.028 C 
HETATM   11  C17 UNL     1      -8.431  50.418  -4.509  1.00  0.00    -0.022 C 
HETATM   12  C18 UNL     1      -7.790  51.316  -5.242  1.00  0.00    -0.059 C 
HETATM   13  C19 UNL     1      -6.383  51.872  -5.239  1.00  0.00     0.100 C 
HETATM   14 BR1  UNL     1      -5.353  51.354  -3.737  1.00  0.00    -0.086 Br
ENDROOT
BRANCH   1  15
HETATM   15  C4  UNL     1      -6.852  54.007  -4.102  1.00  0.00     0.225 C 
HETATM   16  N1  UNL     1      -5.896  54.900  -3.561  1.00  0.00    -0.356 N 
HETATM   17  C3  UNL     1      -6.201  55.548  -2.268  1.00  0.00     0.152 C 
HETATM   18  O1  UNL     1      -7.917  53.782  -3.466  1.00  0.00    -0.273 OA
BRANCH  16  19
HETATM   19  C2  UNL     1      -4.640  55.235  -4.165  1.00  0.00     0.120 C 
HETATM   20  C1  UNL     1      -4.433  56.744  -4.075  1.00  0.00     0.026 C 
ENDBRANCH  16  19
ENDBRANCH   1  15
BRANCH   6  21
HETATM   21  C11 UNL     1     -11.685  52.437  -8.059  1.00  0.00     0.222 C 
HETATM   22  O2  UNL     1     -12.533  52.922  -7.277  1.00  0.00    -0.273 OA
HETATM   23  N2  UNL     1     -12.144  51.872  -9.275  1.00  0.00    -0.365 N 
HETATM   24  C12 UNL     1     -13.544  51.835  -9.643  1.00  0.00     0.149 C 
ATOM     25  H2  UNL     1     -11.459  51.474  -9.918  1.00  0.00     0.161 HD
ENDBRANCH   6  21
TORSDOF 3
ENDMDL
MODEL 5
REMARK VINA RESULT: -6.305160561      2.342      3.299
REMARK  3 active torsions:
REMARK  status: ('A' for Active; 'I' for Inactive)
REMARK    1  A    between atoms: C2_2  and  N1_3 
REMARK       I    between atoms: N1_3  and  C4_5 
REMARK    2  A    between atoms: C4_5  and  C5_7 
REMARK    3  A    between atoms: C10_12  and  C11_13 
REMARK       I    between atoms: C11_13  and  N2_15 
ROOT
HETATM    1  C5  UNL     1      -8.356  52.159  -3.204  1.00  0.00     0.097 C 
HETATM    2  C6  UNL     1      -9.340  52.428  -4.358  1.00  0.00     0.030 C 
HETATM    3  C7  UNL     1      -8.567  52.189  -5.607  1.00  0.00    -0.007 C 
HETATM    4  C8  UNL     1      -8.145  53.498  -6.269  1.00  0.00     0.016 C 
HETATM    5  C9  UNL     1      -9.181  53.775  -7.356  1.00  0.00     0.016 C 
HETATM    6  C10 UNL     1     -10.240  52.721  -7.123  1.00  0.00     0.087 C 
HETATM    7  C13 UNL     1      -9.373  51.548  -6.715  1.00  0.00    -0.020 C 
HETATM    8  C14 UNL     1     -10.171  50.376  -6.256  1.00  0.00     0.017 C 
HETATM    9  C15 UNL     1      -8.390  51.130  -7.770  1.00  0.00     0.014 C 
HETATM   10  C16 UNL     1      -7.573  49.990  -7.198  1.00  0.00     0.028 C 
HETATM   11  C17 UNL     1      -6.958  50.370  -5.898  1.00  0.00    -0.022 C 
HETATM   12  C18 UNL     1      -7.419  51.379  -5.174  1.00  0.00    -0.059 C 
HETATM   13  C19 UNL     1      -7.024  51.996  -3.850  1.00  0.00     0.100 C 
HETATM   14 BR1  UNL     1      -5.734  50.999  -2.888  1.00  0.00    -0.086 Br
ENDROOT
BRANCH   1  15
HETATM   15  C4  UNL     1      -8.772  50.969  -2.449  1.00  0.00     0.225 C 
HETATM   16  N1  UNL     1      -8.775  50.933  -1.035  1.00  0.00    -0.356 N 
HETATM   17  C3  UNL     1      -9.231  49.694  -0.369  1.00  0.00     0.152 C 
HETATM   18  O1  UNL     1      -9.140  49.950  -3.095  1.00  0.00    -0.273 OA
BRANCH  16  19
HETATM   19  C2  UNL     1      -8.367  52.007  -0.178  1.00  0.00     0.120 C 
HETATM   20  C1  UNL     1      -9.166  51.936   1.121  1.00  0.00     0.026 C 
ENDBRANCH  16  19
ENDBRANCH   1  15
BRANCH   6  21
HETATM   21  C11 UNL     1     -11.116  52.469  -8.258  1.00  0.00     0.222 C 
HETATM   22  O2  UNL     1     -10.648  52.471  -9.419  1.00  0.00    -0.273 OA
HETATM   23  N2  UNL     1     -12.502  52.218  -8.096  1.00  0.00    -0.365 N 
HETATM   24  C12 UNL     1     -13.389  51.965  -9.212  1.00  0.00     0.149 C 
ATOM     25  H2  UNL     1     -12.890  52.216  -7.152  1.00  0.00     0.161 HD
ENDBRANCH   6  21
TORSDOF 3
ENDMDL
