MODEL 1
REMARK VINA RESULT: -7.032820051      0.000      0.000
REMARK  3 active torsions:
REMARK  status: ('A' for Active; 'I' for Inactive)
REMARK    1  A    between atoms: C11_11  and  N1_12 
REMARK    2  A    between atoms: N1_12  and  C12_14 
REMARK    3  A    between atoms: N2_28  and  C24_29 
ROOT
HETATM    1  C1  UNL     1      -2.815  52.981  -7.504  1.00  0.00     0.013 C 
HETATM    2  C2  UNL     1      -3.786  51.839  -7.766  1.00  0.00     0.014 C 
HETATM    3  C3  UNL     1      -4.028  51.068  -6.469  1.00  0.00     0.095 C 
HETATM    4  C4  UNL     1      -5.329  51.445  -6.102  1.00  0.00     0.013 C 
HETATM    5  C5  UNL     1      -5.648  52.934  -5.977  1.00  0.00     0.007 C 
HETATM    6  C6  UNL     1      -7.075  53.165  -5.530  1.00  0.00     0.009 C 
HETATM    7  C7  UNL     1      -7.934  52.132  -6.158  1.00  0.00     0.030 C 
HETATM    8  C8  UNL     1      -7.303  51.805  -7.524  1.00  0.00    -0.002 C 
HETATM    9  C9  UNL     1      -8.468  51.136  -8.237  1.00  0.00     0.015 C 
HETATM   10  C10 UNL     1      -9.706  51.425  -7.464  1.00  0.00     0.049 C 
HETATM   11  C11 UNL     1     -10.919  51.697  -8.267  1.00  0.00     0.091 C 
HETATM   12  C13 UNL     1     -11.752  52.737  -7.553  1.00  0.00     0.026 C 
HETATM   13  C14 UNL     1     -11.671  52.613  -6.050  1.00  0.00     0.009 C 
HETATM   14  C15 UNL     1     -10.278  52.776  -5.518  1.00  0.00     0.022 C 
HETATM   15  C16 UNL     1     -10.103  51.798  -4.379  1.00  0.00     0.013 C 
HETATM   16  C17 UNL     1      -9.284  52.609  -6.602  1.00  0.00     0.116 C 
HETATM   17  F1  UNL     1      -9.107  53.752  -7.344  1.00  0.00    -0.242 F 
HETATM   18  C18 UNL     1      -6.199  50.807  -7.206  1.00  0.00    -0.004 C 
HETATM   19  C19 UNL     1      -5.630  50.290  -8.407  1.00  0.00     0.006 C 
HETATM   20  C20 UNL     1      -4.265  49.750  -8.637  1.00  0.00     0.011 C 
HETATM   21  C21 UNL     1      -3.117  50.672  -8.447  1.00  0.00    -0.023 C 
HETATM   22  C22 UNL     1      -2.397  51.053  -9.697  1.00  0.00     0.017 C 
HETATM   23  C23 UNL     1      -2.135  50.369  -7.301  1.00  0.00     0.135 C 
HETATM   24  N2  UNL     1      -2.726  51.039  -6.125  1.00  0.00    -0.353 N 
ENDROOT
BRANCH  11  25
HETATM   25  N1  UNL     1     -10.664  52.125  -9.616  1.00  0.00    -0.363 N 
ATOM     26  H1  UNL     1      -9.725  52.449  -9.849  1.00  0.00     0.162 HD
BRANCH  25  27
HETATM   27  C12 UNL     1     -11.638  52.122 -10.634  1.00  0.00     0.348 C 
HETATM   28  O1  UNL     1     -11.339  52.487 -11.791  1.00  0.00    -0.284 OA
ENDBRANCH  25  27
ENDBRANCH  11  25
BRANCH  24  29
HETATM   29  C24 UNL     1      -1.986  51.469  -5.024  1.00  0.00     0.351 C 
HETATM   30  O2  UNL     1      -2.499  52.148  -4.074  1.00  0.00    -0.284 OA
ENDBRANCH  24  29
TORSDOF 3
ENDMDL
MODEL 2
REMARK VINA RESULT: -6.754965894      3.807      7.617
REMARK  3 active torsions:
REMARK  status: ('A' for Active; 'I' for Inactive)
REMARK    1  A    between atoms: C11_11  and  N1_12 
REMARK    2  A    between atoms: N1_12  and  C12_14 
REMARK    3  A    between atoms: N2_28  and  C24_29 
ROOT
HETATM    1  C1  UNL     1      -9.262  52.946  -7.687  1.00  0.00     0.013 C 
HETATM    2  C2  UNL     1      -8.987  52.665  -6.217  1.00  0.00     0.014 C 
HETATM    3  C3  UNL     1      -7.996  51.508  -6.096  1.00  0.00     0.095 C 
HETATM    4  C4  UNL     1      -6.807  52.135  -5.697  1.00  0.00     0.013 C 
HETATM    5  C5  UNL     1      -6.273  53.289  -6.543  1.00  0.00     0.007 C 
HETATM    6  C6  UNL     1      -4.964  53.821  -6.002  1.00  0.00     0.009 C 
HETATM    7  C7  UNL     1      -5.015  53.768  -4.521  1.00  0.00     0.030 C 
HETATM    8  C8  UNL     1      -6.484  53.997  -4.122  1.00  0.00    -0.002 C 
HETATM    9  C9  UNL     1      -6.339  54.385  -2.659  1.00  0.00     0.015 C 
HETATM   10  C10 UNL     1      -4.907  54.703  -2.409  1.00  0.00     0.049 C 
HETATM   11  C11 UNL     1      -4.648  55.846  -1.505  1.00  0.00     0.091 C 
HETATM   12  C13 UNL     1      -3.412  56.574  -1.980  1.00  0.00     0.026 C 
HETATM   13  C14 UNL     1      -2.384  55.641  -2.577  1.00  0.00     0.009 C 
HETATM   14  C15 UNL     1      -2.892  54.885  -3.768  1.00  0.00     0.022 C 
HETATM   15  C16 UNL     1      -2.326  53.485  -3.701  1.00  0.00     0.013 C 
HETATM   16  C17 UNL     1      -4.371  54.926  -3.819  1.00  0.00     0.116 C 
HETATM   17  F1  UNL     1      -4.854  56.083  -4.379  1.00  0.00    -0.242 F 
HETATM   18  C18 UNL     1      -7.138  52.631  -4.272  1.00  0.00    -0.004 C 
HETATM   19  C19 UNL     1      -8.475  52.659  -3.778  1.00  0.00     0.006 C 
HETATM   20  C20 UNL     1      -9.632  51.811  -4.166  1.00  0.00     0.011 C 
HETATM   21  C21 UNL     1     -10.111  51.896  -5.569  1.00  0.00    -0.023 C 
HETATM   22  C22 UNL     1     -11.444  52.542  -5.745  1.00  0.00     0.017 C 
HETATM   23  C23 UNL     1      -9.970  50.644  -6.452  1.00  0.00     0.135 C 
HETATM   24  N2  UNL     1      -8.612  50.751  -7.025  1.00  0.00    -0.353 N 
ENDROOT
BRANCH  11  25
HETATM   25  N1  UNL     1      -5.739  56.776  -1.384  1.00  0.00    -0.363 N 
ATOM     26  H1  UNL     1      -6.679  56.401  -1.254  1.00  0.00     0.162 HD
BRANCH  25  27
HETATM   27  C12 UNL     1      -5.583  58.175  -1.434  1.00  0.00     0.348 C 
HETATM   28  O1  UNL     1      -5.572  58.846  -0.379  1.00  0.00    -0.284 OA
ENDBRANCH  25  27
ENDBRANCH  11  25
BRANCH  24  29
HETATM   29  C24 UNL     1      -8.230  50.160  -8.228  1.00  0.00     0.351 C 
HETATM   30  O2  UNL     1      -7.027  50.182  -8.653  1.00  0.00    -0.284 OA
ENDBRANCH  24  29
TORSDOF 3
ENDMDL
MODEL 3
REMARK VINA RESULT: -6.701264944      3.868      7.110
REMARK  3 active torsions:
REMARK  status: ('A' for Active; 'I' for Inactive)
REMARK    1  A    between atoms: C11_11  and  N1_12 
REMARK    2  A    between atoms: N1_12  and  C12_14 
REMARK    3  A    between atoms: N2_28  and  C24_29 
ROOT
HETATM    1  C1  UNL     1      -8.029  51.028  -7.752  1.00  0.00     0.013 C 
HETATM    2  C2  UNL     1      -8.392  51.842  -6.518  1.00  0.00     0.014 C 
HETATM    3  C3  UNL     1      -8.116  51.016  -5.263  1.00  0.00     0.095 C 
HETATM    4  C4  UNL     1      -6.968  51.615  -4.723  1.00  0.00     0.013 C 
HETATM    5  C5  UNL     1      -5.738  51.769  -5.616  1.00  0.00     0.007 C 
HETATM    6  C6  UNL     1      -4.578  52.388  -4.867  1.00  0.00     0.009 C 
HETATM    7  C7  UNL     1      -5.116  53.404  -3.930  1.00  0.00     0.030 C 
HETATM    8  C8  UNL     1      -6.371  53.997  -4.596  1.00  0.00    -0.002 C 
HETATM    9  C9  UNL     1      -6.542  55.288  -3.810  1.00  0.00     0.015 C 
HETATM   10  C10 UNL     1      -5.281  55.540  -3.061  1.00  0.00     0.049 C 
HETATM   11  C11 UNL     1      -4.844  56.952  -2.990  1.00  0.00     0.091 C 
HETATM   12  C13 UNL     1      -3.334  56.998  -3.033  1.00  0.00     0.026 C 
HETATM   13  C14 UNL     1      -2.698  55.817  -2.337  1.00  0.00     0.009 C 
HETATM   14  C15 UNL     1      -3.081  54.498  -2.938  1.00  0.00     0.022 C 
HETATM   15  C16 UNL     1      -3.251  53.508  -1.810  1.00  0.00     0.013 C 
HETATM   16  C17 UNL     1      -4.285  54.644  -3.788  1.00  0.00     0.116 C 
HETATM   17  F1  UNL     1      -3.996  55.108  -5.048  1.00  0.00    -0.242 F 
HETATM   18  C18 UNL     1      -7.478  53.003  -4.278  1.00  0.00    -0.004 C 
HETATM   19  C19 UNL     1      -8.742  53.510  -4.699  1.00  0.00     0.006 C 
HETATM   20  C20 UNL     1      -9.965  52.762  -5.092  1.00  0.00     0.011 C 
HETATM   21  C21 UNL     1      -9.881  51.879  -6.283  1.00  0.00    -0.023 C 
HETATM   22  C22 UNL     1     -10.654  52.343  -7.472  1.00  0.00     0.017 C 
HETATM   23  C23 UNL     1     -10.039  50.363  -6.065  1.00  0.00     0.135 C 
HETATM   24  N2  UNL     1      -8.673  49.893  -5.758  1.00  0.00    -0.353 N 
ENDROOT
BRANCH  11  25
HETATM   25  N1  UNL     1      -5.382  57.801  -4.019  1.00  0.00    -0.363 N 
ATOM     26  H1  UNL     1      -6.350  57.656  -4.304  1.00  0.00     0.162 HD
BRANCH  25  27
HETATM   27  C12 UNL     1      -4.647  58.820  -4.655  1.00  0.00     0.348 C 
HETATM   28  O1  UNL     1      -5.030  59.282  -5.752  1.00  0.00    -0.284 OA
ENDBRANCH  25  27
ENDBRANCH  11  25
BRANCH  24  29
HETATM   29  C24 UNL     1      -8.233  48.590  -5.981  1.00  0.00     0.351 C 
HETATM   30  O2  UNL     1      -7.030  48.224  -5.764  1.00  0.00    -0.284 OA
ENDBRANCH  24  29
TORSDOF 3
ENDMDL
MODEL 4
REMARK VINA RESULT: -6.651644003      4.401      7.125
REMARK  3 active torsions:
REMARK  status: ('A' for Active; 'I' for Inactive)
REMARK    1  A    between atoms: C11_11  and  N1_12 
REMARK    2  A    between atoms: N1_12  and  C12_14 
REMARK    3  A    between atoms: N2_28  and  C24_29 
ROOT
HETATM    1  C1  UNL     1      -7.440  49.879  -5.869  1.00  0.00     0.013 C 
HETATM    2  C2  UNL     1      -8.091  51.251  -5.763  1.00  0.00     0.014 C 
HETATM    3  C3  UNL     1      -9.046  51.271  -4.571  1.00  0.00     0.095 C 
HETATM    4  C4  UNL     1      -8.370  52.056  -3.623  1.00  0.00     0.013 C 
HETATM    5  C5  UNL     1      -6.945  51.665  -3.238  1.00  0.00     0.007 C 
HETATM    6  C6  UNL     1      -6.382  52.584  -2.176  1.00  0.00     0.009 C 
HETATM    7  C7  UNL     1      -6.876  53.957  -2.436  1.00  0.00     0.030 C 
HETATM    8  C8  UNL     1      -7.028  54.089  -3.962  1.00  0.00    -0.002 C 
HETATM    9  C9  UNL     1      -7.070  55.600  -4.128  1.00  0.00     0.015 C 
HETATM   10  C10 UNL     1      -6.600  56.214  -2.857  1.00  0.00     0.049 C 
HETATM   11  C11 UNL     1      -5.748  57.416  -2.997  1.00  0.00     0.091 C 
HETATM   12  C13 UNL     1      -4.713  57.411  -1.895  1.00  0.00     0.026 C 
HETATM   13  C14 UNL     1      -5.239  56.819  -0.609  1.00  0.00     0.009 C 
HETATM   14  C15 UNL     1      -5.686  55.395  -0.751  1.00  0.00     0.022 C 
HETATM   15  C16 UNL     1      -6.925  55.213   0.094  1.00  0.00     0.013 C 
HETATM   16  C17 UNL     1      -5.885  55.052  -2.177  1.00  0.00     0.116 C 
HETATM   17  F1  UNL     1      -4.714  54.723  -2.816  1.00  0.00    -0.242 F 
HETATM   18  C18 UNL     1      -8.380  53.459  -4.267  1.00  0.00    -0.004 C 
HETATM   19  C19 UNL     1      -8.728  53.657  -5.636  1.00  0.00     0.006 C 
HETATM   20  C20 UNL     1      -9.608  52.833  -6.504  1.00  0.00     0.011 C 
HETATM   21  C21 UNL     1      -9.196  51.432  -6.773  1.00  0.00    -0.023 C 
HETATM   22  C22 UNL     1      -8.764  51.156  -8.175  1.00  0.00     0.017 C 
HETATM   23  C23 UNL     1     -10.089  50.304  -6.227  1.00  0.00     0.135 C 
HETATM   24  N2  UNL     1      -9.589  50.071  -4.857  1.00  0.00    -0.353 N 
ENDROOT
BRANCH  11  25
HETATM   25  N1  UNL     1      -5.095  57.545  -4.272  1.00  0.00    -0.363 N 
ATOM     26  H1  UNL     1      -5.037  56.719  -4.868  1.00  0.00     0.162 HD
BRANCH  25  27
HETATM   27  C12 UNL     1      -4.533  58.747  -4.744  1.00  0.00     0.348 C 
HETATM   28  O1  UNL     1      -5.000  59.304  -5.761  1.00  0.00    -0.284 OA
ENDBRANCH  25  27
ENDBRANCH  11  25
BRANCH  24  29
HETATM   29  C24 UNL     1      -9.725  48.863  -4.176  1.00  0.00     0.351 C 
HETATM   30  O2  UNL     1     -10.239  48.784  -3.011  1.00  0.00    -0.284 OA
ENDBRANCH  24  29
TORSDOF 3
ENDMDL
MODEL 5
REMARK VINA RESULT: -6.538713923      1.200      1.346
REMARK  3 active torsions:
REMARK  status: ('A' for Active; 'I' for Inactive)
REMARK    1  A    between atoms: C11_11  and  N1_12 
REMARK    2  A    between atoms: N1_12  and  C12_14 
REMARK    3  A    between atoms: N2_28  and  C24_29 
ROOT
HETATM    1  C1  UNL     1      -3.148  52.036  -9.163  1.00  0.00     0.013 C 
HETATM    2  C2  UNL     1      -4.267  51.007  -9.095  1.00  0.00     0.014 C 
HETATM    3  C3  UNL     1      -4.244  50.317  -7.733  1.00  0.00     0.095 C 
HETATM    4  C4  UNL     1      -5.359  50.856  -7.073  1.00  0.00     0.013 C 
HETATM    5  C5  UNL     1      -5.479  52.375  -6.969  1.00  0.00     0.007 C 
HETATM    6  C6  UNL     1      -6.709  52.787  -6.192  1.00  0.00     0.009 C 
HETATM    7  C7  UNL     1      -7.804  51.839  -6.513  1.00  0.00     0.030 C 
HETATM    8  C8  UNL     1      -7.585  51.392  -7.970  1.00  0.00    -0.002 C 
HETATM    9  C9  UNL     1      -8.957  50.839  -8.321  1.00  0.00     0.015 C 
HETATM   10  C10 UNL     1      -9.917  51.297  -7.280  1.00  0.00     0.049 C 
HETATM   11  C11 UNL     1     -11.261  51.680  -7.766  1.00  0.00     0.091 C 
HETATM   12  C13 UNL     1     -11.770  52.835  -6.934  1.00  0.00     0.026 C 
HETATM   13  C14 UNL     1     -11.315  52.757  -5.495  1.00  0.00     0.009 C 
HETATM   14  C15 UNL     1      -9.823  52.775  -5.344  1.00  0.00     0.022 C 
HETATM   15  C16 UNL     1      -9.462  51.826  -4.226  1.00  0.00     0.013 C 
HETATM   16  C17 UNL     1      -9.166  52.455  -6.631  1.00  0.00     0.116 C 
HETATM   17  F1  UNL     1      -9.070  53.541  -7.467  1.00  0.00    -0.242 F 
HETATM   18  C18 UNL     1      -6.546  50.284  -7.878  1.00  0.00    -0.004 C 
HETATM   19  C19 UNL     1      -6.364  49.661  -9.148  1.00  0.00     0.006 C 
HETATM   20  C20 UNL     1      -5.168  48.958  -9.680  1.00  0.00     0.011 C 
HETATM   21  C21 UNL     1      -3.921  49.746  -9.846  1.00  0.00    -0.023 C 
HETATM   22  C22 UNL     1      -3.513  49.995 -11.260  1.00  0.00     0.017 C 
HETATM   23  C23 UNL     1      -2.712  49.371  -8.969  1.00  0.00     0.135 C 
HETATM   24  N2  UNL     1      -2.906  50.148  -7.728  1.00  0.00    -0.353 N 
ENDROOT
BRANCH  11  25
HETATM   25  N1  UNL     1     -11.321  52.026  -9.160  1.00  0.00    -0.363 N 
ATOM     26  H1  UNL     1     -10.473  51.926  -9.718  1.00  0.00     0.162 HD
BRANCH  25  27
HETATM   27  C12 UNL     1     -12.485  52.496  -9.800  1.00  0.00     0.348 C 
HETATM   28  O1  UNL     1     -13.236  51.700 -10.405  1.00  0.00    -0.284 OA
ENDBRANCH  25  27
ENDBRANCH  11  25
BRANCH  24  29
HETATM   29  C24 UNL     1      -1.867  50.528  -6.881  1.00  0.00     0.351 C 
HETATM   30  O2  UNL     1      -2.053  51.252  -5.847  1.00  0.00    -0.284 OA
ENDBRANCH  24  29
TORSDOF 3
ENDMDL
