MODEL 1
REMARK VINA RESULT: -5.381972899      0.000      0.000
REMARK  3 active torsions:
REMARK  status: ('A' for Active; 'I' for Inactive)
REMARK    1  A    between atoms: C2_2  and  N1_3 
REMARK    2  A    between atoms: C2_2  and  C12_22 
REMARK       I    between atoms: N1_3  and  C3_5 
REMARK       I    between atoms: C3_5  and  N2_7 
REMARK       I    between atoms: N2_7  and  C4_9 
REMARK       I    between atoms: C4_9  and  N3_11 
REMARK    3  A    between atoms: N3_11  and  C5_13 
ROOT
HETATM    1  N1  UNL     1      14.182  14.263  66.287  1.00  0.00    -0.333 N 
ATOM      2  H1  UNL     1      14.757  14.896  66.845  1.00  0.00     0.165 HD
HETATM    3  C3  UNL     1      14.680  13.618  65.226  1.00  0.00     0.324 C 
HETATM    4  O1  UNL     1      14.094  12.803  64.506  1.00  0.00    -0.247 OA
HETATM    5  N2  UNL     1      16.261  13.824  64.699  1.00  0.00    -0.261 N 
ATOM      6  H2  UNL     1      16.767  13.359  63.945  1.00  0.00     0.175 HD
HETATM    7  C4  UNL     1      16.670  14.784  65.562  1.00  0.00     0.324 C 
HETATM    8  O2  UNL     1      16.065  15.647  66.187  1.00  0.00    -0.247 OA
HETATM    9  N3  UNL     1      18.133  14.844  65.843  1.00  0.00    -0.337 N 
ATOM     10  H3  UNL     1      18.764  14.171  65.408  1.00  0.00     0.164 HD
ENDROOT
BRANCH   1  11
HETATM   11  C2  UNL     1      12.713  14.006  66.627  1.00  0.00     0.134 C 
HETATM   12  C1  UNL     1      12.268  15.107  67.485  1.00  0.00     0.039 C 
BRANCH  11  13
HETATM   13  C12 UNL     1      12.704  12.660  67.341  1.00  0.00     0.056 A 
HETATM   14  C13 UNL     1      13.334  12.500  68.549  1.00  0.00     0.098 A 
HETATM   15  S1  UNL     1      13.031  10.844  68.866  1.00  0.00    -0.009 SA
HETATM   16  N5  UNL     1      12.151  10.485  67.481  1.00  0.00    -0.270 N 
HETATM   17  N6  UNL     1      12.117  11.618  66.835  1.00  0.00    -0.296 N 
ATOM     18  H5  UNL     1      11.739   9.592  67.210  1.00  0.00     0.195 HD
ATOM     19  H6  UNL     1      11.634  11.685  65.939  1.00  0.00     0.187 HD
ENDBRANCH  11  13
ENDBRANCH   1  11
BRANCH   9  20
HETATM   20  C5  UNL     1      18.649  15.837  66.714  1.00  0.00     0.104 C 
HETATM   21  C6  UNL     1      19.734  15.261  67.637  1.00  0.00     0.139 C 
HETATM   22  N4  UNL     1      20.016  16.261  68.613  1.00  0.00    -0.418 N 
HETATM   23  C7  UNL     1      19.427  17.540  68.389  1.00  0.00     0.122 C 
ATOM     24  H4  UNL     1      20.606  16.072  69.424  1.00  0.00     0.153 HD
HETATM   25  C8  UNL     1      19.571  18.069  66.972  1.00  0.00    -0.030 C 
HETATM   26  C9  UNL     1      20.981  18.618  66.786  1.00  0.00     0.016 C 
HETATM   27  C10 UNL     1      18.551  19.156  66.739  1.00  0.00     0.016 C 
HETATM   28  C11 UNL     1      19.344  16.952  65.971  1.00  0.00     0.037 C 
ENDBRANCH   9  20
TORSDOF 3
ENDMDL
MODEL 2
REMARK VINA RESULT: -5.133216459      4.133      6.053
REMARK  3 active torsions:
REMARK  status: ('A' for Active; 'I' for Inactive)
REMARK    1  A    between atoms: C2_2  and  N1_3 
REMARK    2  A    between atoms: C2_2  and  C12_22 
REMARK       I    between atoms: N1_3  and  C3_5 
REMARK       I    between atoms: C3_5  and  N2_7 
REMARK       I    between atoms: N2_7  and  C4_9 
REMARK       I    between atoms: C4_9  and  N3_11 
REMARK    3  A    between atoms: N3_11  and  C5_13 
ROOT
HETATM    1  N1  UNL     1      14.155  13.424  66.461  1.00  0.00    -0.333 N 
ATOM      2  H1  UNL     1      14.564  14.072  67.135  1.00  0.00     0.165 HD
HETATM    3  C3  UNL     1      12.832  13.247  66.375  1.00  0.00     0.324 C 
HETATM    4  O1  UNL     1      12.227  12.525  65.576  1.00  0.00    -0.247 OA
HETATM    5  N2  UNL     1      11.744  14.033  67.383  1.00  0.00    -0.261 N 
ATOM      6  H2  UNL     1      10.724  14.022  67.384  1.00  0.00     0.175 HD
HETATM    7  C4  UNL     1      12.609  14.685  68.194  1.00  0.00     0.324 C 
HETATM    8  O2  UNL     1      13.768  14.458  68.523  1.00  0.00    -0.247 OA
HETATM    9  N3  UNL     1      12.105  15.933  68.837  1.00  0.00    -0.337 N 
ATOM     10  H3  UNL     1      11.160  16.261  68.640  1.00  0.00     0.164 HD
ENDROOT
BRANCH   1  11
HETATM   11  C2  UNL     1      15.027  12.611  65.502  1.00  0.00     0.134 C 
HETATM   12  C1  UNL     1      16.288  12.333  66.194  1.00  0.00     0.039 C 
BRANCH  11  13
HETATM   13  C12 UNL     1      15.207  13.505  64.281  1.00  0.00     0.056 A 
HETATM   14  C13 UNL     1      16.358  14.230  64.105  1.00  0.00     0.098 A 
HETATM   15  S1  UNL     1      16.019  15.040  62.633  1.00  0.00    -0.009 SA
HETATM   16  N5  UNL     1      14.485  14.415  62.357  1.00  0.00    -0.270 N 
HETATM   17  N6  UNL     1      14.285  13.625  63.375  1.00  0.00    -0.296 N 
ATOM     18  H5  UNL     1      13.857  14.608  61.576  1.00  0.00     0.195 HD
ATOM     19  H6  UNL     1      13.410  13.106  63.460  1.00  0.00     0.187 HD
ENDBRANCH  11  13
ENDBRANCH   1  11
BRANCH   9  20
HETATM   20  C5  UNL     1      12.938  16.663  69.723  1.00  0.00     0.104 C 
HETATM   21  C6  UNL     1      13.551  17.890  69.030  1.00  0.00     0.139 C 
HETATM   22  N4  UNL     1      14.536  18.414  69.918  1.00  0.00    -0.418 N 
HETATM   23  C7  UNL     1      14.565  17.848  71.226  1.00  0.00     0.122 C 
ATOM     24  H4  UNL     1      15.182  19.150  69.633  1.00  0.00     0.153 HD
HETATM   25  C8  UNL     1      13.207  17.717  71.895  1.00  0.00    -0.030 C 
HETATM   26  C9  UNL     1      12.780  19.080  72.427  1.00  0.00     0.016 C 
HETATM   27  C10 UNL     1      13.301  16.720  73.023  1.00  0.00     0.016 C 
HETATM   28  C11 UNL     1      12.174  17.237  70.892  1.00  0.00     0.037 C 
ENDBRANCH   9  20
TORSDOF 3
ENDMDL
MODEL 3
REMARK VINA RESULT: -5.030985320      2.333      3.499
REMARK  3 active torsions:
REMARK  status: ('A' for Active; 'I' for Inactive)
REMARK    1  A    between atoms: C2_2  and  N1_3 
REMARK    2  A    between atoms: C2_2  and  C12_22 
REMARK       I    between atoms: N1_3  and  C3_5 
REMARK       I    between atoms: C3_5  and  N2_7 
REMARK       I    between atoms: N2_7  and  C4_9 
REMARK       I    between atoms: C4_9  and  N3_11 
REMARK    3  A    between atoms: N3_11  and  C5_13 
ROOT
HETATM    1  N1  UNL     1      16.687  14.734  64.839  1.00  0.00    -0.333 N 
ATOM      2  H1  UNL     1      16.626  15.735  65.025  1.00  0.00     0.165 HD
HETATM    3  C3  UNL     1      17.608  13.967  65.434  1.00  0.00     0.324 C 
HETATM    4  O1  UNL     1      17.749  12.745  65.315  1.00  0.00    -0.247 OA
HETATM    5  N2  UNL     1      18.756  14.582  66.492  1.00  0.00    -0.261 N 
ATOM      6  H2  UNL     1      19.468  14.100  67.041  1.00  0.00     0.175 HD
HETATM    7  C4  UNL     1      18.464  15.902  66.409  1.00  0.00     0.324 C 
HETATM    8  O2  UNL     1      17.945  16.581  65.530  1.00  0.00    -0.247 OA
HETATM    9  N3  UNL     1      18.822  16.737  67.591  1.00  0.00    -0.337 N 
ATOM     10  H3  UNL     1      19.245  16.304  68.412  1.00  0.00     0.164 HD
ENDROOT
BRANCH   1  11
HETATM   11  C2  UNL     1      15.731  14.041  63.867  1.00  0.00     0.134 C 
HETATM   12  C1  UNL     1      15.615  14.900  62.686  1.00  0.00     0.039 C 
BRANCH  11  13
HETATM   13  C12 UNL     1      14.419  13.910  64.633  1.00  0.00     0.056 A 
HETATM   14  C13 UNL     1      14.166  14.691  65.732  1.00  0.00     0.098 A 
HETATM   15  S1  UNL     1      12.614  14.128  66.190  1.00  0.00    -0.009 SA
HETATM   16  N5  UNL     1      12.406  12.976  64.986  1.00  0.00    -0.270 N 
HETATM   17  N6  UNL     1      13.505  13.056  64.288  1.00  0.00    -0.296 N 
ATOM     18  H5  UNL     1      11.607  12.358  64.837  1.00  0.00     0.195 HD
ATOM     19  H6  UNL     1      13.644  12.452  63.478  1.00  0.00     0.187 HD
ENDBRANCH  11  13
ENDBRANCH   1  11
BRANCH   9  20
HETATM   20  C5  UNL     1      18.576  18.134  67.575  1.00  0.00     0.104 C 
HETATM   21  C6  UNL     1      17.294  18.484  68.348  1.00  0.00     0.139 C 
HETATM   22  N4  UNL     1      17.015  19.856  68.079  1.00  0.00    -0.418 N 
HETATM   23  C7  UNL     1      18.030  20.579  67.386  1.00  0.00     0.122 C 
ATOM     24  H4  UNL     1      16.141  20.294  68.366  1.00  0.00     0.153 HD
HETATM   25  C8  UNL     1      19.437  20.378  67.923  1.00  0.00    -0.030 C 
HETATM   26  C9  UNL     1      19.613  21.219  69.183  1.00  0.00     0.016 C 
HETATM   27  C10 UNL     1      20.436  20.793  66.872  1.00  0.00     0.016 C 
HETATM   28  C11 UNL     1      19.660  18.919  68.273  1.00  0.00     0.037 C 
ENDBRANCH   9  20
TORSDOF 3
ENDMDL
MODEL 4
REMARK VINA RESULT: -5.030882482      3.979      5.831
REMARK  3 active torsions:
REMARK  status: ('A' for Active; 'I' for Inactive)
REMARK    1  A    between atoms: C2_2  and  N1_3 
REMARK    2  A    between atoms: C2_2  and  C12_22 
REMARK       I    between atoms: N1_3  and  C3_5 
REMARK       I    between atoms: C3_5  and  N2_7 
REMARK       I    between atoms: N2_7  and  C4_9 
REMARK       I    between atoms: C4_9  and  N3_11 
REMARK    3  A    between atoms: N3_11  and  C5_13 
ROOT
HETATM    1  N1  UNL     1      12.729  11.023  70.103  1.00  0.00    -0.333 N 
ATOM      2  H1  UNL     1      13.109  10.924  69.162  1.00  0.00     0.165 HD
HETATM    3  C3  UNL     1      12.618  12.220  70.691  1.00  0.00     0.324 C 
HETATM    4  O1  UNL     1      12.140  12.463  71.804  1.00  0.00    -0.247 OA
HETATM    5  N2  UNL     1      13.128  13.641  69.957  1.00  0.00    -0.261 N 
ATOM      6  H2  UNL     1      13.053  14.608  70.275  1.00  0.00     0.175 HD
HETATM    7  C4  UNL     1      13.667  13.136  68.823  1.00  0.00     0.324 C 
HETATM    8  O2  UNL     1      14.150  12.043  68.551  1.00  0.00    -0.247 OA
HETATM    9  N3  UNL     1      13.701  14.046  67.642  1.00  0.00    -0.337 N 
ATOM     10  H3  UNL     1      13.313  14.986  67.712  1.00  0.00     0.164 HD
ENDROOT
BRANCH   1  11
HETATM   11  C2  UNL     1      12.259   9.810  70.909  1.00  0.00     0.134 C 
HETATM   12  C1  UNL     1      13.458   9.113  71.381  1.00  0.00     0.039 C 
BRANCH  11  13
HETATM   13  C12 UNL     1      11.442   8.980  69.926  1.00  0.00     0.056 A 
HETATM   14  C13 UNL     1      10.663   7.938  70.363  1.00  0.00     0.098 A 
HETATM   15  S1  UNL     1      10.010   7.368  68.885  1.00  0.00    -0.009 SA
HETATM   16  N5  UNL     1      10.751   8.463  67.850  1.00  0.00    -0.270 N 
HETATM   17  N6  UNL     1      11.459   9.214  68.649  1.00  0.00    -0.296 N 
ATOM     18  H5  UNL     1      10.667   8.527  66.835  1.00  0.00     0.195 HD
ATOM     19  H6  UNL     1      12.021   9.977  68.273  1.00  0.00     0.187 HD
ENDBRANCH  11  13
ENDBRANCH   1  11
BRANCH   9  20
HETATM   20  C5  UNL     1      14.273  13.605  66.421  1.00  0.00     0.104 C 
HETATM   21  C6  UNL     1      13.231  13.581  65.292  1.00  0.00     0.139 C 
HETATM   22  N4  UNL     1      13.838  12.914  64.188  1.00  0.00    -0.418 N 
HETATM   23  C7  UNL     1      15.231  12.642  64.308  1.00  0.00     0.122 C 
ATOM     24  H4  UNL     1      13.305  12.649  63.360  1.00  0.00     0.153 HD
HETATM   25  C8  UNL     1      16.070  13.809  64.800  1.00  0.00    -0.030 C 
HETATM   26  C9  UNL     1      16.298  14.780  63.646  1.00  0.00     0.016 C 
HETATM   27  C10 UNL     1      17.390  13.293  65.318  1.00  0.00     0.016 C 
HETATM   28  C11 UNL     1      15.348  14.538  65.918  1.00  0.00     0.037 C 
ENDBRANCH   9  20
TORSDOF 3
ENDMDL
MODEL 5
REMARK VINA RESULT: -4.985860399      4.185      6.651
REMARK  3 active torsions:
REMARK  status: ('A' for Active; 'I' for Inactive)
REMARK    1  A    between atoms: C2_2  and  N1_3 
REMARK    2  A    between atoms: C2_2  and  C12_22 
REMARK       I    between atoms: N1_3  and  C3_5 
REMARK       I    between atoms: C3_5  and  N2_7 
REMARK       I    between atoms: N2_7  and  C4_9 
REMARK       I    between atoms: C4_9  and  N3_11 
REMARK    3  A    between atoms: N3_11  and  C5_13 
ROOT
HETATM    1  N1  UNL     1      13.309   8.575  68.966  1.00  0.00    -0.333 N 
ATOM      2  H1  UNL     1      13.659   8.907  68.066  1.00  0.00     0.165 HD
HETATM    3  C3  UNL     1      12.893   9.426  69.911  1.00  0.00     0.324 C 
HETATM    4  O1  UNL     1      12.416   9.138  71.014  1.00  0.00    -0.247 OA
HETATM    5  N2  UNL     1      12.947  11.092  69.720  1.00  0.00    -0.261 N 
ATOM      6  H2  UNL     1      12.618  11.835  70.337  1.00  0.00     0.175 HD
HETATM    7  C4  UNL     1      13.555  11.168  68.513  1.00  0.00     0.324 C 
HETATM    8  O2  UNL     1      14.314  10.410  67.919  1.00  0.00    -0.247 OA
HETATM    9  N3  UNL     1      13.278  12.390  67.705  1.00  0.00    -0.337 N 
ATOM     10  H3  UNL     1      12.645  13.105  68.063  1.00  0.00     0.164 HD
ENDROOT
BRANCH   1  11
HETATM   11  C2  UNL     1      13.237   7.083  69.295  1.00  0.00     0.134 C 
HETATM   12  C1  UNL     1      14.356   6.433  68.609  1.00  0.00     0.039 C 
BRANCH  11  13
HETATM   13  C12 UNL     1      11.879   6.631  68.771  1.00  0.00     0.056 A 
HETATM   14  C13 UNL     1      10.880   6.259  69.633  1.00  0.00     0.098 A 
HETATM   15  S1  UNL     1       9.631   5.841  68.537  1.00  0.00    -0.009 SA
HETATM   16  N5  UNL     1      10.445   6.162  67.104  1.00  0.00    -0.270 N 
HETATM   17  N6  UNL     1      11.620   6.569  67.500  1.00  0.00    -0.296 N 
ATOM     18  H5  UNL     1      10.102   6.062  66.148  1.00  0.00     0.195 HD
ATOM     19  H6  UNL     1      12.329   6.835  66.817  1.00  0.00     0.187 HD
ENDBRANCH  11  13
ENDBRANCH   1  11
BRANCH   9  20
HETATM   20  C5  UNL     1      13.896  12.562  66.440  1.00  0.00     0.104 C 
HETATM   21  C6  UNL     1      13.023  13.411  65.502  1.00  0.00     0.139 C 
HETATM   22  N4  UNL     1      13.612  13.329  64.207  1.00  0.00    -0.418 N 
HETATM   23  C7  UNL     1      14.892  12.704  64.138  1.00  0.00     0.122 C 
ATOM     24  H4  UNL     1      13.145  13.696  63.378  1.00  0.00     0.153 HD
HETATM   25  C8  UNL     1      15.887  13.169  65.188  1.00  0.00    -0.030 C 
HETATM   26  C9  UNL     1      16.456  14.521  64.771  1.00  0.00     0.016 C 
HETATM   27  C10 UNL     1      16.993  12.151  65.314  1.00  0.00     0.016 C 
HETATM   28  C11 UNL     1      15.197  13.322  66.531  1.00  0.00     0.037 C 
ENDBRANCH   9  20
TORSDOF 3
ENDMDL
