MODEL 1
REMARK VINA RESULT: -5.366356155      0.000      0.000
REMARK  3 active torsions:
REMARK  status: ('A' for Active; 'I' for Inactive)
REMARK    1  A    between atoms: O1_2  and  N1_3 
REMARK    2  A    between atoms: C5_10  and  C6_11 
REMARK       I    between atoms: C6_11  and  N3_13 
REMARK    3  A    between atoms: N3_13  and  C7_15 
ROOT
HETATM    1  N1  UNL     1      13.325  17.004  68.962  1.00  0.00    -0.250 N 
ATOM      2  H1  UNL     1      13.834  17.853  68.717  1.00  0.00     0.196 HD
HETATM    3  C2  UNL     1      13.770  15.948  68.391  1.00  0.00     0.149 A 
HETATM    4  N2  UNL     1      14.844  16.108  67.552  1.00  0.00    -0.324 N 
ATOM      5  H2  UNL     1      15.240  17.038  67.413  1.00  0.00     0.169 HD
HETATM    6  C3  UNL     1      15.371  15.072  66.921  1.00  0.00     0.130 A 
HETATM    7  C4  UNL     1      14.842  13.814  67.105  1.00  0.00     0.090 A 
HETATM    8  C5  UNL     1      13.730  13.601  67.961  1.00  0.00     0.086 A 
HETATM    9  C10 UNL     1      13.195  14.715  68.612  1.00  0.00     0.108 A 
HETATM   10  C11 UNL     1      12.052  14.625  69.458  1.00  0.00     0.104 C 
HETATM   11  N4  UNL     1      11.098  14.592  70.148  1.00  0.00    -0.191 NA
HETATM   12  N5  UNL     1      15.465  12.695  66.489  1.00  0.00    -0.376 N 
ATOM     13  H5  UNL     1      15.558  11.798  66.965  1.00  0.00     0.160 HD
HETATM   14  C12 UNL     1      15.965  12.907  65.140  1.00  0.00     0.039 C 
HETATM   15  C13 UNL     1      16.744  11.678  64.732  1.00  0.00     0.039 C 
HETATM   16  C14 UNL     1      14.788  13.120  64.227  1.00  0.00     0.039 C 
HETATM   17  C15 UNL     1      16.839  14.128  65.091  1.00  0.00     0.151 C 
HETATM   18  N6  UNL     1      16.485  15.157  66.025  1.00  0.00    -0.372 N 
ATOM     19  H6  UNL     1      17.060  15.999  66.053  1.00  0.00     0.161 HD
ENDROOT
BRANCH   8  20
HETATM   20  C6  UNL     1      13.140  12.299  68.040  1.00  0.00     0.256 C 
HETATM   21  O2  UNL     1      12.264  12.016  67.135  1.00  0.00    -0.268 OA
HETATM   22  N3  UNL     1      13.283  11.211  68.880  1.00  0.00    -0.353 N 
ATOM     23  H3  UNL     1      13.950  11.260  69.650  1.00  0.00     0.163 HD
BRANCH  22  24
HETATM   24  C7  UNL     1      12.476   9.956  68.683  1.00  0.00     0.076 C 
HETATM   25  C8  UNL     1      11.760   9.591  69.940  1.00  0.00     0.032 C 
HETATM   26  C9  UNL     1      13.334   8.832  68.246  1.00  0.00     0.032 C 
ENDBRANCH  22  24
ENDBRANCH   8  20
BRANCH   1  27
HETATM   27  O1  UNL     1      12.327  17.201  69.811  1.00  0.00    -0.284 OA
HETATM   28  C1  UNL     1      12.340  18.089  70.919  1.00  0.00     0.237 C 
ENDBRANCH   1  27
TORSDOF 3
ENDMDL
MODEL 2
REMARK VINA RESULT: -4.865939488      3.207      5.531
REMARK  3 active torsions:
REMARK  status: ('A' for Active; 'I' for Inactive)
REMARK    1  A    between atoms: O1_2  and  N1_3 
REMARK    2  A    between atoms: C5_10  and  C6_11 
REMARK       I    between atoms: C6_11  and  N3_13 
REMARK    3  A    between atoms: N3_13  and  C7_15 
ROOT
HETATM    1  N1  UNL     1      11.446   9.584  67.876  1.00  0.00    -0.250 N 
ATOM      2  H1  UNL     1      10.556   9.973  67.564  1.00  0.00     0.196 HD
HETATM    3  C2  UNL     1      12.453  10.341  67.652  1.00  0.00     0.149 A 
HETATM    4  N2  UNL     1      12.195  11.542  67.038  1.00  0.00    -0.324 N 
ATOM      5  H2  UNL     1      11.237  11.783  66.785  1.00  0.00     0.169 HD
HETATM    6  C3  UNL     1      13.174  12.389  66.769  1.00  0.00     0.130 A 
HETATM    7  C4  UNL     1      14.471  12.071  67.108  1.00  0.00     0.090 A 
HETATM    8  C5  UNL     1      14.785  10.840  67.742  1.00  0.00     0.086 A 
HETATM    9  C10 UNL     1      13.729   9.967  68.011  1.00  0.00     0.108 A 
HETATM   10  C11 UNL     1      13.934   8.686  68.602  1.00  0.00     0.104 C 
HETATM   11  N4  UNL     1      14.067   7.614  69.071  1.00  0.00    -0.191 NA
HETATM   12  N5  UNL     1      15.505  13.021  66.891  1.00  0.00    -0.376 N 
ATOM     13  H5  UNL     1      16.264  13.156  67.559  1.00  0.00     0.160 HD
HETATM   14  C12 UNL     1      15.414  13.791  65.661  1.00  0.00     0.039 C 
HETATM   15  C13 UNL     1      16.484  14.859  65.699  1.00  0.00     0.039 C 
HETATM   16  C14 UNL     1      15.633  12.858  64.501  1.00  0.00     0.039 C 
HETATM   17  C15 UNL     1      14.052  14.411  65.530  1.00  0.00     0.151 C 
HETATM   18  N6  UNL     1      12.989  13.655  66.125  1.00  0.00    -0.372 N 
ATOM     19  H6  UNL     1      12.046  14.041  66.088  1.00  0.00     0.161 HD
ENDROOT
BRANCH   8  20
HETATM   20  C6  UNL     1      16.154  10.498  67.977  1.00  0.00     0.256 C 
HETATM   21  O2  UNL     1      16.690  10.994  69.042  1.00  0.00    -0.268 OA
HETATM   22  N3  UNL     1      17.095   9.727  67.322  1.00  0.00    -0.353 N 
ATOM     23  H3  UNL     1      16.835   9.248  66.460  1.00  0.00     0.163 HD
BRANCH  22  24
HETATM   24  C7  UNL     1      18.497   9.580  67.852  1.00  0.00     0.076 C 
HETATM   25  C8  UNL     1      19.478  10.213  66.922  1.00  0.00     0.032 C 
HETATM   26  C9  UNL     1      18.843   8.155  68.057  1.00  0.00     0.032 C 
ENDBRANCH  22  24
ENDBRANCH   8  20
BRANCH   1  27
HETATM   27  O1  UNL     1      11.342   8.388  68.438  1.00  0.00    -0.284 OA
HETATM   28  C1  UNL     1      10.465   7.349  68.027  1.00  0.00     0.237 C 
ENDBRANCH   1  27
TORSDOF 3
ENDMDL
MODEL 3
REMARK VINA RESULT: -4.818902876      3.366      5.438
REMARK  3 active torsions:
REMARK  status: ('A' for Active; 'I' for Inactive)
REMARK    1  A    between atoms: O1_2  and  N1_3 
REMARK    2  A    between atoms: C5_10  and  C6_11 
REMARK       I    between atoms: C6_11  and  N3_13 
REMARK    3  A    between atoms: N3_13  and  C7_15 
ROOT
HETATM    1  N1  UNL     1      11.446   9.590  67.876  1.00  0.00    -0.250 N 
ATOM      2  H1  UNL     1      10.562   9.950  67.516  1.00  0.00     0.196 HD
HETATM    3  C2  UNL     1      12.449  10.353  67.652  1.00  0.00     0.149 A 
HETATM    4  N2  UNL     1      12.196  11.520  66.976  1.00  0.00    -0.324 N 
ATOM      5  H2  UNL     1      11.243  11.734  66.680  1.00  0.00     0.169 HD
HETATM    6  C3  UNL     1      13.171  12.371  66.703  1.00  0.00     0.130 A 
HETATM    7  C4  UNL     1      14.459  12.088  67.099  1.00  0.00     0.090 A 
HETATM    8  C5  UNL     1      14.769  10.893  67.799  1.00  0.00     0.086 A 
HETATM    9  C10 UNL     1      13.717  10.015  68.072  1.00  0.00     0.108 A 
HETATM   10  C11 UNL     1      13.920   8.766  68.726  1.00  0.00     0.104 C 
HETATM   11  N4  UNL     1      14.053   7.718  69.248  1.00  0.00    -0.191 NA
HETATM   12  N5  UNL     1      15.486  13.045  66.876  1.00  0.00    -0.376 N 
ATOM     13  H5  UNL     1      16.220  13.221  67.562  1.00  0.00     0.160 HD
HETATM   14  C12 UNL     1      15.427  13.757  65.609  1.00  0.00     0.039 C 
HETATM   15  C13 UNL     1      16.479  14.842  65.635  1.00  0.00     0.039 C 
HETATM   16  C14 UNL     1      15.699  12.777  64.501  1.00  0.00     0.039 C 
HETATM   17  C15 UNL     1      14.061  14.349  65.404  1.00  0.00     0.151 C 
HETATM   18  N6  UNL     1      12.990  13.603  65.996  1.00  0.00    -0.372 N 
ATOM     19  H6  UNL     1      12.043  13.971  65.910  1.00  0.00     0.161 HD
ENDROOT
BRANCH   8  20
HETATM   20  C6  UNL     1      16.134  10.584  68.096  1.00  0.00     0.256 C 
HETATM   21  O2  UNL     1      16.871  10.238  67.094  1.00  0.00    -0.268 OA
HETATM   22  N3  UNL     1      16.904  10.566  69.244  1.00  0.00    -0.353 N 
ATOM     23  H3  UNL     1      16.480  10.826  70.134  1.00  0.00     0.163 HD
BRANCH  22  24
HETATM   24  C7  UNL     1      18.357  10.170  69.209  1.00  0.00     0.076 C 
HETATM   25  C8  UNL     1      18.590   8.961  70.051  1.00  0.00     0.032 C 
HETATM   26  C9  UNL     1      19.223  11.279  69.665  1.00  0.00     0.032 C 
ENDBRANCH  22  24
ENDBRANCH   8  20
BRANCH   1  27
HETATM   27  O1  UNL     1      11.340   8.419  68.487  1.00  0.00    -0.284 OA
HETATM   28  C1  UNL     1      10.477   7.357  68.108  1.00  0.00     0.237 C 
ENDBRANCH   1  27
TORSDOF 3
ENDMDL
MODEL 4
REMARK VINA RESULT: -4.748355303      2.812      4.891
REMARK  3 active torsions:
REMARK  status: ('A' for Active; 'I' for Inactive)
REMARK    1  A    between atoms: O1_2  and  N1_3 
REMARK    2  A    between atoms: C5_10  and  C6_11 
REMARK       I    between atoms: C6_11  and  N3_13 
REMARK    3  A    between atoms: N3_13  and  C7_15 
ROOT
HETATM    1  N1  UNL     1      11.020  15.282  69.767  1.00  0.00    -0.250 N 
ATOM      2  H1  UNL     1      10.184  14.786  69.457  1.00  0.00     0.196 HD
HETATM    3  C2  UNL     1      11.984  15.252  68.926  1.00  0.00     0.149 A 
HETATM    4  N2  UNL     1      11.759  14.574  67.755  1.00  0.00    -0.324 N 
ATOM      5  H2  UNL     1      10.857  14.125  67.598  1.00  0.00     0.169 HD
HETATM    6  C3  UNL     1      12.698  14.493  66.827  1.00  0.00     0.130 A 
HETATM    7  C4  UNL     1      13.919  15.097  67.031  1.00  0.00     0.090 A 
HETATM    8  C5  UNL     1      14.198  15.808  68.227  1.00  0.00     0.086 A 
HETATM    9  C10 UNL     1      13.186  15.874  69.188  1.00  0.00     0.108 A 
HETATM   10  C11 UNL     1      13.372  16.521  70.444  1.00  0.00     0.104 C 
HETATM   11  N4  UNL     1      13.495  17.030  71.499  1.00  0.00    -0.191 NA
HETATM   12  N5  UNL     1      14.892  15.077  65.995  1.00  0.00    -0.376 N 
ATOM     13  H5  UNL     1      15.484  15.883  65.793  1.00  0.00     0.160 HD
HETATM   14  C12 UNL     1      14.993  13.838  65.241  1.00  0.00     0.039 C 
HETATM   15  C13 UNL     1      15.939  14.071  64.085  1.00  0.00     0.039 C 
HETATM   16  C14 UNL     1      15.523  12.767  66.156  1.00  0.00     0.039 C 
HETATM   17  C15 UNL     1      13.639  13.418  64.741  1.00  0.00     0.151 C 
HETATM   18  N6  UNL     1      12.544  13.798  65.584  1.00  0.00    -0.372 N 
ATOM     19  H6  UNL     1      11.600  13.560  65.282  1.00  0.00     0.161 HD
ENDROOT
BRANCH   8  20
HETATM   20  C6  UNL     1      15.513  16.326  68.449  1.00  0.00     0.256 C 
HETATM   21  O2  UNL     1      16.446  15.453  68.633  1.00  0.00    -0.268 OA
HETATM   22  N3  UNL     1      16.067  17.591  68.514  1.00  0.00    -0.353 N 
ATOM     23  H3  UNL     1      15.468  18.405  68.377  1.00  0.00     0.163 HD
BRANCH  22  24
HETATM   24  C7  UNL     1      17.535  17.792  68.782  1.00  0.00     0.076 C 
HETATM   25  C8  UNL     1      17.734  18.642  69.993  1.00  0.00     0.032 C 
HETATM   26  C9  UNL     1      18.211  18.407  67.617  1.00  0.00     0.032 C 
ENDBRANCH  22  24
ENDBRANCH   8  20
BRANCH   1  27
HETATM   27  O1  UNL     1      10.903  15.836  70.966  1.00  0.00    -0.284 OA
HETATM   28  C1  UNL     1       9.850  15.605  71.889  1.00  0.00     0.237 C 
ENDBRANCH   1  27
TORSDOF 3
ENDMDL
MODEL 5
REMARK VINA RESULT: -4.698493882      2.684      5.349
REMARK  3 active torsions:
REMARK  status: ('A' for Active; 'I' for Inactive)
REMARK    1  A    between atoms: O1_2  and  N1_3 
REMARK    2  A    between atoms: C5_10  and  C6_11 
REMARK       I    between atoms: C6_11  and  N3_13 
REMARK    3  A    between atoms: N3_13  and  C7_15 
ROOT
HETATM    1  N1  UNL     1      13.779  14.419  64.214  1.00  0.00    -0.250 N 
ATOM      2  H1  UNL     1      13.134  15.153  63.924  1.00  0.00     0.196 HD
HETATM    3  C2  UNL     1      13.642  14.060  65.435  1.00  0.00     0.149 A 
HETATM    4  N2  UNL     1      12.667  14.699  66.160  1.00  0.00    -0.324 N 
ATOM      5  H2  UNL     1      12.102  15.422  65.715  1.00  0.00     0.169 HD
HETATM    6  C3  UNL     1      12.453  14.391  67.428  1.00  0.00     0.130 A 
HETATM    7  C4  UNL     1      13.213  13.416  68.035  1.00  0.00     0.090 A 
HETATM    8  C5  UNL     1      14.233  12.729  67.327  1.00  0.00     0.086 A 
HETATM    9  C10 UNL     1      14.435  13.078  65.990  1.00  0.00     0.108 A 
HETATM   10  C11 UNL     1      15.460  12.487  65.196  1.00  0.00     0.104 C 
HETATM   11  N4  UNL     1      16.309  12.034  64.516  1.00  0.00    -0.191 NA
HETATM   12  N5  UNL     1      12.921  13.033  69.373  1.00  0.00    -0.376 N 
ATOM     13  H5  UNL     1      12.965  12.061  69.678  1.00  0.00     0.160 HD
HETATM   14  C12 UNL     1      12.554  14.110  70.278  1.00  0.00     0.039 C 
HETATM   15  C13 UNL     1      12.110  13.492  71.584  1.00  0.00     0.039 C 
HETATM   16  C14 UNL     1      13.760  14.986  70.485  1.00  0.00     0.039 C 
HETATM   17  C15 UNL     1      11.452  14.941  69.684  1.00  0.00     0.151 C 
HETATM   18  N6  UNL     1      11.463  15.017  68.252  1.00  0.00    -0.372 N 
ATOM     19  H6  UNL     1      10.723  15.548  67.793  1.00  0.00     0.161 HD
ENDROOT
BRANCH   8  20
HETATM   20  C6  UNL     1      15.073  11.802  68.022  1.00  0.00     0.256 C 
HETATM   21  O2  UNL     1      15.920  12.313  68.851  1.00  0.00    -0.268 OA
HETATM   22  N3  UNL     1      15.209  10.427  68.035  1.00  0.00    -0.353 N 
ATOM     23  H3  UNL     1      14.603   9.860  67.442  1.00  0.00     0.163 HD
BRANCH  22  24
HETATM   24  C7  UNL     1      16.232   9.748  68.906  1.00  0.00     0.076 C 
HETATM   25  C8  UNL     1      17.230   9.019  68.068  1.00  0.00     0.032 C 
HETATM   26  C9  UNL     1      15.589   8.812  69.855  1.00  0.00     0.032 C 
ENDBRANCH  22  24
ENDBRANCH   8  20
BRANCH   1  27
HETATM   27  O1  UNL     1      14.602  14.016  63.257  1.00  0.00    -0.284 OA
HETATM   28  C1  UNL     1      15.311  14.859  62.361  1.00  0.00     0.237 C 
ENDBRANCH   1  27
TORSDOF 3
ENDMDL
