MODEL 1
REMARK VINA RESULT: -4.956952720      0.000      0.000
REMARK  5 active torsions:
REMARK  status: ('A' for Active; 'I' for Inactive)
REMARK    1  A    between atoms: C2_2  and  O1_3 
REMARK    2  A    between atoms: O1_3  and  C3_4 
REMARK    3  A    between atoms: C3_4  and  C4_6 
REMARK    4  A    between atoms: C7_11  and  N2_12 
REMARK    5  A    between atoms: N2_12  and  C8_14 
ROOT
HETATM    1  C4  UNL     1      18.362  16.189  67.301  1.00  0.00     0.184 A 
HETATM    2  N1  UNL     1      18.046  15.174  66.454  1.00  0.00    -0.333 N 
ATOM      3  H1  UNL     1      18.700  14.611  65.911  1.00  0.00     0.168 HD
HETATM    4  C5  UNL     1      16.710  15.054  66.467  1.00  0.00     0.096 A 
HETATM    5  C6  UNL     1      15.687  14.307  65.912  1.00  0.00     0.084 A 
HETATM    6  C7  UNL     1      15.646  13.266  65.017  1.00  0.00     0.133 A 
HETATM    7  N3  UNL     1      14.426  12.778  64.702  1.00  0.00    -0.176 N 
ATOM      8  H3  UNL     1      14.350  12.005  64.041  1.00  0.00     0.186 HD
HETATM    9  C11 UNL     1      13.306  13.296  65.247  1.00  0.00     0.679 A 
HETATM   10  N4  UNL     1      12.165  12.795  64.914  1.00  0.00    -0.234 N 
ATOM     11  H41 UNL     1      11.318  13.186  65.327  1.00  0.00     0.174 HD
ATOM     12  H42 UNL     1      12.145  12.021  64.249  1.00  0.00     0.174 HD
HETATM   13  N5  UNL     1      13.331  14.303  66.114  1.00  0.00    -0.176 N 
ATOM     14  H5  UNL     1      12.468  14.676  66.510  1.00  0.00     0.186 HD
HETATM   15  C12 UNL     1      14.523  14.817  66.453  1.00  0.00     0.141 A 
HETATM   16  N6  UNL     1      14.824  15.817  67.289  1.00  0.00    -0.321 N 
HETATM   17  C13 UNL     1      13.885  16.615  68.060  1.00  0.00     0.159 C 
HETATM   18  C14 UNL     1      16.157  15.999  67.330  1.00  0.00     0.139 A 
HETATM   19  N7  UNL     1      17.214  16.665  67.812  1.00  0.00    -0.321 N 
ATOM     20  H7  UNL     1      17.155  17.434  68.480  1.00  0.00     0.169 HD
ENDROOT
BRANCH   1  21
HETATM   21  C3  UNL     1      19.704  16.688  67.615  1.00  0.00     0.327 C 
HETATM   22  O2  UNL     1      20.184  16.441  68.749  1.00  0.00    -0.256 OA
BRANCH  21  23
HETATM   23  O1  UNL     1      20.465  17.412  66.739  1.00  0.00    -0.316 OA
BRANCH  23  24
HETATM   24  C2  UNL     1      20.022  18.496  65.966  1.00  0.00     0.175 C 
HETATM   25  C1  UNL     1      19.616  19.685  66.772  1.00  0.00     0.034 C 
ENDBRANCH  23  24
ENDBRANCH  21  23
ENDBRANCH   1  21
BRANCH   6  26
HETATM   26  N2  UNL     1      16.726  12.787  64.510  1.00  0.00    -0.371 N 
ATOM     27  H2  UNL     1      17.305  13.395  63.930  1.00  0.00     0.161 HD
BRANCH  26  28
HETATM   28  C8  UNL     1      17.156  11.422  64.727  1.00  0.00     0.075 C 
HETATM   29  C9  UNL     1      18.523  11.220  64.144  1.00  0.00     0.031 C 
HETATM   30  C10 UNL     1      17.251  11.221  66.224  1.00  0.00     0.031 C 
ENDBRANCH  26  28
ENDBRANCH   6  26
TORSDOF 5
ENDMDL
MODEL 2
REMARK VINA RESULT: -4.902012644      3.673      4.841
REMARK  5 active torsions:
REMARK  status: ('A' for Active; 'I' for Inactive)
REMARK    1  A    between atoms: C2_2  and  O1_3 
REMARK    2  A    between atoms: O1_3  and  C3_4 
REMARK    3  A    between atoms: C3_4  and  C4_6 
REMARK    4  A    between atoms: C7_11  and  N2_12 
REMARK    5  A    between atoms: N2_12  and  C8_14 
ROOT
HETATM    1  C4  UNL     1      13.434  18.014  68.286  1.00  0.00     0.184 A 
HETATM    2  N1  UNL     1      13.570  17.115  67.276  1.00  0.00    -0.333 N 
ATOM      3  H1  UNL     1      13.898  17.311  66.330  1.00  0.00     0.168 HD
HETATM    4  C5  UNL     1      13.189  15.922  67.757  1.00  0.00     0.096 A 
HETATM    5  C6  UNL     1      13.048  14.600  67.379  1.00  0.00     0.084 A 
HETATM    6  C7  UNL     1      13.273  13.915  66.209  1.00  0.00     0.133 A 
HETATM    7  N3  UNL     1      13.013  12.589  66.217  1.00  0.00    -0.176 N 
ATOM      8  H3  UNL     1      13.166  12.043  65.369  1.00  0.00     0.186 HD
HETATM    9  C11 UNL     1      12.553  11.975  67.327  1.00  0.00     0.679 A 
HETATM   10  N4  UNL     1      12.319  10.708  67.283  1.00  0.00    -0.234 N 
ATOM     11  H41 UNL     1      11.971  10.243  68.123  1.00  0.00     0.174 HD
ATOM     12  H42 UNL     1      12.490  10.208  66.410  1.00  0.00     0.174 HD
HETATM   13  N5  UNL     1      12.330  12.626  68.464  1.00  0.00    -0.176 N 
ATOM     14  H5  UNL     1      11.980  12.137  69.288  1.00  0.00     0.186 HD
HETATM   15  C12 UNL     1      12.576  13.944  68.499  1.00  0.00     0.141 A 
HETATM   16  N6  UNL     1      12.439  14.821  69.500  1.00  0.00    -0.321 N 
HETATM   17  C13 UNL     1      11.970  14.534  70.846  1.00  0.00     0.159 C 
HETATM   18  C14 UNL     1      12.804  16.050  69.090  1.00  0.00     0.139 A 
HETATM   19  N7  UNL     1      12.974  17.350  69.361  1.00  0.00    -0.321 N 
ATOM     20  H7  UNL     1      12.780  17.781  70.265  1.00  0.00     0.169 HD
ENDROOT
BRANCH   1  21
HETATM   21  C3  UNL     1      13.729  19.448  68.235  1.00  0.00     0.327 C 
HETATM   22  O2  UNL     1      14.684  19.887  68.922  1.00  0.00    -0.256 OA
BRANCH  21  23
HETATM   23  O1  UNL     1      13.019  20.339  67.479  1.00  0.00    -0.316 OA
BRANCH  23  24
HETATM   24  C2  UNL     1      12.900  21.716  67.724  1.00  0.00     0.175 C 
HETATM   25  C1  UNL     1      11.488  22.183  67.860  1.00  0.00     0.034 C 
ENDBRANCH  23  24
ENDBRANCH  21  23
ENDBRANCH   1  21
BRANCH   6  26
HETATM   26  N2  UNL     1      13.713  14.519  65.163  1.00  0.00    -0.371 N 
ATOM     27  H2  UNL     1      13.279  15.402  64.891  1.00  0.00     0.161 HD
BRANCH  26  28
HETATM   28  C8  UNL     1      14.797  14.001  64.356  1.00  0.00     0.075 C 
HETATM   29  C9  UNL     1      14.769  14.638  62.998  1.00  0.00     0.031 C 
HETATM   30  C10 UNL     1      16.087  14.406  65.036  1.00  0.00     0.031 C 
ENDBRANCH  26  28
ENDBRANCH   6  26
TORSDOF 5
ENDMDL
MODEL 3
REMARK VINA RESULT: -4.894724791      4.175      5.949
REMARK  5 active torsions:
REMARK  status: ('A' for Active; 'I' for Inactive)
REMARK    1  A    between atoms: C2_2  and  O1_3 
REMARK    2  A    between atoms: O1_3  and  C3_4 
REMARK    3  A    between atoms: C3_4  and  C4_6 
REMARK    4  A    between atoms: C7_11  and  N2_12 
REMARK    5  A    between atoms: N2_12  and  C8_14 
ROOT
HETATM    1  C4  UNL     1      13.774  12.695  68.494  1.00  0.00     0.184 A 
HETATM    2  N1  UNL     1      14.317  13.200  67.355  1.00  0.00    -0.333 N 
ATOM      3  H1  UNL     1      14.034  14.055  66.876  1.00  0.00     0.168 HD
HETATM    4  C5  UNL     1      15.293  12.361  66.978  1.00  0.00     0.096 A 
HETATM    5  C6  UNL     1      16.247  12.185  65.993  1.00  0.00     0.084 A 
HETATM    6  C7  UNL     1      16.604  12.901  64.876  1.00  0.00     0.133 A 
HETATM    7  N3  UNL     1      17.615  12.404  64.129  1.00  0.00    -0.176 N 
ATOM      8  H3  UNL     1      17.911  12.904  63.291  1.00  0.00     0.186 HD
HETATM    9  C11 UNL     1      18.239  11.259  64.474  1.00  0.00     0.679 A 
HETATM   10  N4  UNL     1      19.198  10.826  63.728  1.00  0.00    -0.234 N 
ATOM     11  H41 UNL     1      19.671   9.960  63.989  1.00  0.00     0.174 HD
ATOM     12  H42 UNL     1      19.456  11.365  62.901  1.00  0.00     0.174 HD
HETATM   13  N5  UNL     1      17.903  10.557  65.551  1.00  0.00    -0.176 N 
ATOM     14  H5  UNL     1      18.392   9.693  65.788  1.00  0.00     0.186 HD
HETATM   15  C12 UNL     1      16.904  11.016  66.320  1.00  0.00     0.141 A 
HETATM   16  N6  UNL     1      16.377  10.511  67.441  1.00  0.00    -0.321 N 
HETATM   17  C13 UNL     1      16.785   9.290  68.118  1.00  0.00     0.159 C 
HETATM   18  C14 UNL     1      15.383  11.304  67.882  1.00  0.00     0.139 A 
HETATM   19  N7  UNL     1      14.430  11.560  68.788  1.00  0.00    -0.321 N 
ATOM     20  H7  UNL     1      14.229  10.970  69.595  1.00  0.00     0.169 HD
ENDROOT
BRANCH   1  21
HETATM   21  C3  UNL     1      12.674  13.267  69.275  1.00  0.00     0.327 C 
HETATM   22  O2  UNL     1      12.376  12.731  70.371  1.00  0.00    -0.256 OA
BRANCH  21  23
HETATM   23  O1  UNL     1      11.950  14.357  68.875  1.00  0.00    -0.316 OA
BRANCH  23  24
HETATM   24  C2  UNL     1      12.250  15.697  69.166  1.00  0.00     0.175 C 
HETATM   25  C1  UNL     1      12.907  16.425  68.040  1.00  0.00     0.034 C 
ENDBRANCH  23  24
ENDBRANCH  21  23
ENDBRANCH   1  21
BRANCH   6  26
HETATM   26  N2  UNL     1      15.996  13.990  64.566  1.00  0.00    -0.371 N 
ATOM     27  H2  UNL     1      16.290  14.858  65.015  1.00  0.00     0.161 HD
BRANCH  26  28
HETATM   28  C8  UNL     1      14.913  14.039  63.607  1.00  0.00     0.075 C 
HETATM   29  C9  UNL     1      13.704  14.666  64.237  1.00  0.00     0.031 C 
HETATM   30  C10 UNL     1      15.366  14.931  62.473  1.00  0.00     0.031 C 
ENDBRANCH  26  28
ENDBRANCH   6  26
TORSDOF 5
ENDMDL
MODEL 4
REMARK VINA RESULT: -4.840356391      3.834      6.736
REMARK  5 active torsions:
REMARK  status: ('A' for Active; 'I' for Inactive)
REMARK    1  A    between atoms: C2_2  and  O1_3 
REMARK    2  A    between atoms: O1_3  and  C3_4 
REMARK    3  A    between atoms: C3_4  and  C4_6 
REMARK    4  A    between atoms: C7_11  and  N2_12 
REMARK    5  A    between atoms: N2_12  and  C8_14 
ROOT
HETATM    1  C4  UNL     1      12.834  14.728  66.601  1.00  0.00     0.184 A 
HETATM    2  N1  UNL     1      13.637  15.733  67.039  1.00  0.00    -0.333 N 
ATOM      3  H1  UNL     1      14.422  16.146  66.535  1.00  0.00     0.168 HD
HETATM    4  C5  UNL     1      13.205  16.079  68.261  1.00  0.00     0.096 A 
HETATM    5  C6  UNL     1      13.474  16.956  69.295  1.00  0.00     0.084 A 
HETATM    6  C7  UNL     1      14.415  17.938  69.488  1.00  0.00     0.133 A 
HETATM    7  N3  UNL     1      14.367  18.608  70.661  1.00  0.00    -0.176 N 
ATOM      8  H3  UNL     1      15.048  19.345  70.846  1.00  0.00     0.186 HD
HETATM    9  C11 UNL     1      13.434  18.319  71.592  1.00  0.00     0.679 A 
HETATM   10  N4  UNL     1      13.431  18.987  72.695  1.00  0.00    -0.234 N 
ATOM     11  H41 UNL     1      12.725  18.769  73.399  1.00  0.00     0.174 HD
ATOM     12  H42 UNL     1      14.133  19.715  72.829  1.00  0.00     0.174 HD
HETATM   13  N5  UNL     1      12.519  17.371  71.417  1.00  0.00    -0.176 N 
ATOM     14  H5  UNL     1      11.826  17.172  72.139  1.00  0.00     0.186 HD
HETATM   15  C12 UNL     1      12.532  16.682  70.267  1.00  0.00     0.141 A 
HETATM   16  N6  UNL     1      11.736  15.693  69.844  1.00  0.00    -0.321 N 
HETATM   17  C13 UNL     1      10.619  15.110  70.570  1.00  0.00     0.159 C 
HETATM   18  C14 UNL     1      12.112  15.290  68.616  1.00  0.00     0.139 A 
HETATM   19  N7  UNL     1      11.929  14.482  67.564  1.00  0.00    -0.321 N 
ATOM     20  H7  UNL     1      11.199  13.773  67.502  1.00  0.00     0.169 HD
ENDROOT
BRANCH   1  21
HETATM   21  C3  UNL     1      12.921  14.026  65.318  1.00  0.00     0.327 C 
HETATM   22  O2  UNL     1      12.435  12.872  65.233  1.00  0.00    -0.256 OA
BRANCH  21  23
HETATM   23  O1  UNL     1      13.507  14.560  64.203  1.00  0.00    -0.316 OA
BRANCH  23  24
HETATM   24  C2  UNL     1      14.715  14.142  63.627  1.00  0.00     0.175 C 
HETATM   25  C1  UNL     1      15.891  14.265  64.538  1.00  0.00     0.034 C 
ENDBRANCH  23  24
ENDBRANCH  21  23
ENDBRANCH   1  21
BRANCH   6  26
HETATM   26  N2  UNL     1      15.294  18.198  68.588  1.00  0.00    -0.371 N 
ATOM     27  H2  UNL     1      14.993  18.662  67.730  1.00  0.00     0.161 HD
BRANCH  26  28
HETATM   28  C8  UNL     1      16.695  17.862  68.739  1.00  0.00     0.075 C 
HETATM   29  C9  UNL     1      17.037  16.702  67.852  1.00  0.00     0.031 C 
HETATM   30  C10 UNL     1      17.490  19.061  68.270  1.00  0.00     0.031 C 
ENDBRANCH  26  28
ENDBRANCH   6  26
TORSDOF 5
ENDMDL
MODEL 5
REMARK VINA RESULT: -4.766342818      0.858      3.713
REMARK  5 active torsions:
REMARK  status: ('A' for Active; 'I' for Inactive)
REMARK    1  A    between atoms: C2_2  and  O1_3 
REMARK    2  A    between atoms: O1_3  and  C3_4 
REMARK    3  A    between atoms: C3_4  and  C4_6 
REMARK    4  A    between atoms: C7_11  and  N2_12 
REMARK    5  A    between atoms: N2_12  and  C8_14 
ROOT
HETATM    1  C4  UNL     1      18.401  15.744  66.853  1.00  0.00     0.184 A 
HETATM    2  N1  UNL     1      17.082  16.034  67.001  1.00  0.00    -0.333 N 
ATOM      3  H1  UNL     1      16.689  16.852  67.469  1.00  0.00     0.168 HD
HETATM    4  C5  UNL     1      16.393  15.044  66.416  1.00  0.00     0.096 A 
HETATM    5  C6  UNL     1      15.098  14.633  66.157  1.00  0.00     0.084 A 
HETATM    6  C7  UNL     1      13.859  15.156  66.442  1.00  0.00     0.133 A 
HETATM    7  N3  UNL     1      12.786  14.453  66.017  1.00  0.00    -0.176 N 
ATOM      8  H3  UNL     1      11.849  14.805  66.207  1.00  0.00     0.186 HD
HETATM    9  C11 UNL     1      12.935  13.292  65.345  1.00  0.00     0.679 A 
HETATM   10  N4  UNL     1      11.880  12.658  64.961  1.00  0.00    -0.234 N 
ATOM     11  H41 UNL     1      11.992  11.780  64.453  1.00  0.00     0.174 HD
ATOM     12  H42 UNL     1      10.965  13.055  65.177  1.00  0.00     0.174 HD
HETATM   13  N5  UNL     1      14.127  12.775  65.064  1.00  0.00    -0.176 N 
ATOM     14  H5  UNL     1      14.211  11.895  64.555  1.00  0.00     0.186 HD
HETATM   15  C12 UNL     1      15.218  13.443  65.468  1.00  0.00     0.141 A 
HETATM   16  N6  UNL     1      16.515  13.148  65.318  1.00  0.00    -0.321 N 
HETATM   17  C13 UNL     1      17.066  11.981  64.649  1.00  0.00     0.159 C 
HETATM   18  C14 UNL     1      17.274  14.104  65.884  1.00  0.00     0.139 A 
HETATM   19  N7  UNL     1      18.489  14.583  66.182  1.00  0.00    -0.321 N 
ATOM     20  H7  UNL     1      19.366  14.127  65.931  1.00  0.00     0.169 HD
ENDROOT
BRANCH   1  21
HETATM   21  C3  UNL     1      19.537  16.537  67.331  1.00  0.00     0.327 C 
HETATM   22  O2  UNL     1      19.951  16.345  68.501  1.00  0.00    -0.256 OA
BRANCH  21  23
HETATM   23  O1  UNL     1      20.172  17.481  66.571  1.00  0.00    -0.316 OA
BRANCH  23  24
HETATM   24  C2  UNL     1      19.554  18.532  65.877  1.00  0.00     0.175 C 
HETATM   25  C1  UNL     1      18.823  19.489  66.760  1.00  0.00     0.034 C 
ENDBRANCH  23  24
ENDBRANCH  21  23
ENDBRANCH   1  21
BRANCH   6  26
HETATM   26  N2  UNL     1      13.741  16.264  67.082  1.00  0.00    -0.371 N 
ATOM     27  H2  UNL     1      14.171  17.102  66.692  1.00  0.00     0.161 HD
BRANCH  26  28
HETATM   28  C8  UNL     1      13.021  16.373  68.334  1.00  0.00     0.075 C 
HETATM   29  C9  UNL     1      13.565  15.383  69.321  1.00  0.00     0.031 C 
HETATM   30  C10 UNL     1      13.280  17.763  68.873  1.00  0.00     0.031 C 
ENDBRANCH  26  28
ENDBRANCH   6  26
TORSDOF 5
ENDMDL
