MODEL 1
REMARK VINA RESULT: -5.601010961      0.000      0.000
REMARK  6 active torsions:
REMARK  status: ('A' for Active; 'I' for Inactive)
REMARK    1  A    between atoms: C2_2  and  C8_13 
REMARK    2  A    between atoms: N1_3  and  N2_5 
REMARK       I    between atoms: N2_5  and  C3_6 
REMARK    3  A    between atoms: C3_6  and  O2_8 
REMARK    4  A    between atoms: O2_8  and  C4_9 
REMARK    5  A    between atoms: C10_22  and  N6_23 
REMARK    6  A    between atoms: N6_23  and  C11_25 
ROOT
HETATM    1  C8  UNL     1      12.997  11.333  67.380  1.00  0.00     0.161 A 
HETATM    2  N3  UNL     1      12.257  12.028  66.499  1.00  0.00    -0.174 N 
ATOM      3  H3  UNL     1      11.266  11.802  66.414  1.00  0.00     0.186 HD
HETATM    4  C9  UNL     1      12.760  13.015  65.718  1.00  0.00     0.692 A 
HETATM    5  N4  UNL     1      12.099  13.674  64.852  1.00  0.00    -0.234 N 
ATOM      6  H41 UNL     1      12.479  14.416  64.263  1.00  0.00     0.174 HD
ATOM      7  H42 UNL     1      11.108  13.451  64.768  1.00  0.00     0.174 HD
HETATM    8  N5  UNL     1      14.097  13.315  65.832  1.00  0.00    -0.023 N 
ATOM      9  H5  UNL     1      14.517  14.050  65.262  1.00  0.00     0.203 HD
HETATM   10  C10 UNL     1      14.831  12.625  66.701  1.00  0.00     0.694 A 
HETATM   11  N7  UNL     1      14.289  11.655  67.458  1.00  0.00    -0.174 N 
ATOM     12  H7  UNL     1      14.886  11.148  68.112  1.00  0.00     0.186 HD
ENDROOT
BRANCH   1  13
HETATM   13  C2  UNL     1      12.395  10.307  68.268  1.00  0.00     0.080 C 
HETATM   14  C1  UNL     1      12.701  10.424  69.711  1.00  0.00     0.075 C 
HETATM   15  N1  UNL     1      11.661   9.451  67.777  1.00  0.00    -0.231 N 
ATOM     16  H1  UNL     1      11.656   9.636  66.773  1.00  0.00     0.202 HD
BRANCH  15  17
HETATM   17  N2  UNL     1      10.914   8.453  67.944  1.00  0.00    -0.258 NA
HETATM   18  C3  UNL     1      10.108   7.374  68.125  1.00  0.00     0.459 C 
HETATM   19  O1  UNL     1       9.984   6.310  67.412  1.00  0.00    -0.219 OA
BRANCH  18  20
HETATM   20  O2  UNL     1       9.238   7.320  69.236  1.00  0.00    -0.281 OA
BRANCH  20  21
HETATM   21  C4  UNL     1       9.633   7.093  70.542  1.00  0.00     0.062 C 
HETATM   22  C5  UNL     1      10.794   6.167  70.741  1.00  0.00     0.046 C 
HETATM   23  C6  UNL     1       8.444   6.410  71.239  1.00  0.00     0.046 C 
HETATM   24  C7  UNL     1       9.883   8.388  71.306  1.00  0.00     0.046 C 
ENDBRANCH  20  21
ENDBRANCH  18  20
ENDBRANCH  15  17
ENDBRANCH   1  13
BRANCH  10  25
HETATM   25  N6  UNL     1      16.094  12.887  66.802  1.00  0.00    -0.221 N 
ATOM     26  H6  UNL     1      16.382  13.812  67.118  1.00  0.00     0.178 HD
BRANCH  25  27
HETATM   27  C11 UNL     1      17.110  11.905  66.481  1.00  0.00     0.099 C 
HETATM   28  C12 UNL     1      16.949  11.294  65.112  1.00  0.00     0.026 C 
HETATM   29  C13 UNL     1      17.939  12.295  64.575  1.00  0.00     0.004 C 
HETATM   30  C14 UNL     1      18.355  12.606  65.981  1.00  0.00     0.026 C 
ENDBRANCH  25  27
ENDBRANCH  10  25
TORSDOF 6
ENDMDL
MODEL 2
REMARK VINA RESULT: -5.414525782      6.453      8.992
REMARK  6 active torsions:
REMARK  status: ('A' for Active; 'I' for Inactive)
REMARK    1  A    between atoms: C2_2  and  C8_13 
REMARK    2  A    between atoms: N1_3  and  N2_5 
REMARK       I    between atoms: N2_5  and  C3_6 
REMARK    3  A    between atoms: C3_6  and  O2_8 
REMARK    4  A    between atoms: O2_8  and  C4_9 
REMARK    5  A    between atoms: C10_22  and  N6_23 
REMARK    6  A    between atoms: N6_23  and  C11_25 
ROOT
HETATM    1  C8  UNL     1      12.846  14.934  67.300  1.00  0.00     0.161 A 
HETATM    2  N3  UNL     1      12.439  13.691  67.610  1.00  0.00    -0.174 N 
ATOM      3  H3  UNL     1      12.128  13.507  68.564  1.00  0.00     0.186 HD
HETATM    4  C9  UNL     1      12.421  12.669  66.721  1.00  0.00     0.692 A 
HETATM    5  N4  UNL     1      12.072  11.473  66.984  1.00  0.00    -0.234 N 
ATOM      6  H41 UNL     1      12.059  10.704  66.314  1.00  0.00     0.174 HD
ATOM      7  H42 UNL     1      11.758  11.289  67.937  1.00  0.00     0.174 HD
HETATM    8  N5  UNL     1      12.844  12.918  65.436  1.00  0.00    -0.023 N 
ATOM      9  H5  UNL     1      12.848  12.177  64.735  1.00  0.00     0.203 HD
HETATM   10  C10 UNL     1      13.250  14.147  65.130  1.00  0.00     0.694 A 
HETATM   11  N7  UNL     1      13.250  15.133  66.045  1.00  0.00    -0.174 N 
ATOM     12  H7  UNL     1      13.570  16.062  65.770  1.00  0.00     0.186 HD
ENDROOT
BRANCH   1  13
HETATM   13  C2  UNL     1      12.787  16.044  68.284  1.00  0.00     0.080 C 
HETATM   14  C1  UNL     1      12.113  15.750  69.568  1.00  0.00     0.075 C 
HETATM   15  N1  UNL     1      13.318  17.117  68.003  1.00  0.00    -0.231 N 
ATOM     16  H1  UNL     1      13.686  17.004  67.058  1.00  0.00     0.202 HD
BRANCH  15  17
HETATM   17  N2  UNL     1      13.616  18.290  68.347  1.00  0.00    -0.258 NA
HETATM   18  C3  UNL     1      13.939  19.557  68.719  1.00  0.00     0.459 C 
HETATM   19  O1  UNL     1      14.831  19.969  69.550  1.00  0.00    -0.219 OA
BRANCH  18  20
HETATM   20  O2  UNL     1      13.247  20.654  68.162  1.00  0.00    -0.281 OA
BRANCH  20  21
HETATM   21  C4  UNL     1      12.540  21.596  68.885  1.00  0.00     0.062 C 
HETATM   22  C5  UNL     1      11.879  21.120  70.143  1.00  0.00     0.046 C 
HETATM   23  C6  UNL     1      11.391  22.065  67.975  1.00  0.00     0.046 C 
HETATM   24  C7  UNL     1      13.370  22.838  69.189  1.00  0.00     0.046 C 
ENDBRANCH  20  21
ENDBRANCH  18  20
ENDBRANCH  15  17
ENDBRANCH   1  13
BRANCH  10  25
HETATM   25  N6  UNL     1      13.669  14.388  63.929  1.00  0.00    -0.221 N 
ATOM     26  H6  UNL     1      13.120  15.004  63.330  1.00  0.00     0.178 HD
BRANCH  25  27
HETATM   27  C11 UNL     1      14.892  13.809  63.411  1.00  0.00     0.099 C 
HETATM   28  C12 UNL     1      15.874  14.831  62.897  1.00  0.00     0.026 C 
HETATM   29  C13 UNL     1      16.579  14.789  64.228  1.00  0.00     0.004 C 
HETATM   30  C14 UNL     1      15.844  13.523  64.553  1.00  0.00     0.026 C 
ENDBRANCH  25  27
ENDBRANCH  10  25
TORSDOF 6
ENDMDL
MODEL 3
REMARK VINA RESULT: -5.383964110      6.115      8.712
REMARK  6 active torsions:
REMARK  status: ('A' for Active; 'I' for Inactive)
REMARK    1  A    between atoms: C2_2  and  C8_13 
REMARK    2  A    between atoms: N1_3  and  N2_5 
REMARK       I    between atoms: N2_5  and  C3_6 
REMARK    3  A    between atoms: C3_6  and  O2_8 
REMARK    4  A    between atoms: O2_8  and  C4_9 
REMARK    5  A    between atoms: C10_22  and  N6_23 
REMARK    6  A    between atoms: N6_23  and  C11_25 
ROOT
HETATM    1  C8  UNL     1      12.820  14.772  67.110  1.00  0.00     0.161 A 
HETATM    2  N3  UNL     1      13.344  14.907  65.880  1.00  0.00    -0.174 N 
ATOM      3  H3  UNL     1      13.630  15.837  65.574  1.00  0.00     0.186 HD
HETATM    4  C9  UNL     1      13.511  13.870  65.024  1.00  0.00     0.692 A 
HETATM    5  N4  UNL     1      13.975  13.962  63.841  1.00  0.00    -0.234 N 
ATOM      6  H41 UNL     1      14.100  13.180  63.197  1.00  0.00     0.174 HD
ATOM      7  H42 UNL     1      14.264  14.891  63.536  1.00  0.00     0.174 HD
HETATM    8  N5  UNL     1      13.122  12.617  65.437  1.00  0.00    -0.023 N 
ATOM      9  H5  UNL     1      13.229  11.809  64.824  1.00  0.00     0.203 HD
HETATM   10  C10 UNL     1      12.600  12.484  66.653  1.00  0.00     0.694 A 
HETATM   11  N7  UNL     1      12.453  13.542  67.471  1.00  0.00    -0.174 N 
ATOM     12  H7  UNL     1      12.048  13.398  68.396  1.00  0.00     0.186 HD
ENDROOT
BRANCH   1  13
HETATM   13  C2  UNL     1      12.716  15.921  68.045  1.00  0.00     0.080 C 
HETATM   14  C1  UNL     1      12.223  15.618  69.407  1.00  0.00     0.075 C 
HETATM   15  N1  UNL     1      13.069  17.035  67.662  1.00  0.00    -0.231 N 
ATOM     16  H1  UNL     1      13.350  16.915  66.688  1.00  0.00     0.202 HD
BRANCH  15  17
HETATM   17  N2  UNL     1      13.244  18.253  67.919  1.00  0.00    -0.258 NA
HETATM   18  C3  UNL     1      13.431  19.571  68.197  1.00  0.00     0.459 C 
HETATM   19  O1  UNL     1      13.333  20.597  67.427  1.00  0.00    -0.219 OA
BRANCH  18  20
HETATM   20  O2  UNL     1      13.790  19.973  69.503  1.00  0.00    -0.281 OA
BRANCH  20  21
HETATM   21  C4  UNL     1      12.897  20.246  70.522  1.00  0.00     0.062 C 
HETATM   22  C5  UNL     1      11.805  21.226  70.216  1.00  0.00     0.046 C 
HETATM   23  C6  UNL     1      13.717  20.891  71.653  1.00  0.00     0.046 C 
HETATM   24  C7  UNL     1      12.287  18.980  71.114  1.00  0.00     0.046 C 
ENDBRANCH  20  21
ENDBRANCH  18  20
ENDBRANCH  15  17
ENDBRANCH   1  13
BRANCH  10  25
HETATM   25  N6  UNL     1      12.213  11.314  67.045  1.00  0.00    -0.221 N 
ATOM     26  H6  UNL     1      11.615  10.760  66.431  1.00  0.00     0.178 HD
BRANCH  25  27
HETATM   27  C11 UNL     1      12.602  10.765  68.329  1.00  0.00     0.099 C 
HETATM   28  C12 UNL     1      11.993   9.416  68.619  1.00  0.00     0.026 C 
HETATM   29  C13 UNL     1      13.252   8.764  68.111  1.00  0.00     0.004 C 
HETATM   30  C14 UNL     1      13.950  10.088  68.205  1.00  0.00     0.026 C 
ENDBRANCH  25  27
ENDBRANCH  10  25
TORSDOF 6
ENDMDL
MODEL 4
REMARK VINA RESULT: -5.368791111      8.000     10.667
REMARK  6 active torsions:
REMARK  status: ('A' for Active; 'I' for Inactive)
REMARK    1  A    between atoms: C2_2  and  C8_13 
REMARK    2  A    between atoms: N1_3  and  N2_5 
REMARK       I    between atoms: N2_5  and  C3_6 
REMARK    3  A    between atoms: C3_6  and  O2_8 
REMARK    4  A    between atoms: O2_8  and  C4_9 
REMARK    5  A    between atoms: C10_22  and  N6_23 
REMARK    6  A    between atoms: N6_23  and  C11_25 
ROOT
HETATM    1  C8  UNL     1      13.201  17.463  68.641  1.00  0.00     0.161 A 
HETATM    2  N3  UNL     1      12.528  16.919  69.669  1.00  0.00    -0.174 N 
ATOM      3  H3  UNL     1      12.392  17.480  70.510  1.00  0.00     0.186 HD
HETATM    4  C9  UNL     1      12.021  15.663  69.645  1.00  0.00     0.692 A 
HETATM    5  N4  UNL     1      11.405  15.101  70.609  1.00  0.00    -0.234 N 
ATOM      6  H41 UNL     1      11.024  14.156  70.591  1.00  0.00     0.174 HD
ATOM      7  H42 UNL     1      11.265  15.663  71.449  1.00  0.00     0.174 HD
HETATM    8  N5  UNL     1      12.208  14.907  68.512  1.00  0.00    -0.023 N 
ATOM      9  H5  UNL     1      11.844  13.956  68.452  1.00  0.00     0.203 HD
HETATM   10  C10 UNL     1      12.877  15.444  67.495  1.00  0.00     0.694 A 
HETATM   11  N7  UNL     1      13.363  16.697  67.562  1.00  0.00    -0.174 N 
ATOM     12  H7  UNL     1      13.871  17.072  66.761  1.00  0.00     0.186 HD
ENDROOT
BRANCH   1  13
HETATM   13  C2  UNL     1      13.682  18.867  68.678  1.00  0.00     0.080 C 
HETATM   14  C1  UNL     1      14.658  19.201  69.740  1.00  0.00     0.075 C 
HETATM   15  N1  UNL     1      13.283  19.656  67.823  1.00  0.00    -0.231 N 
ATOM     16  H1  UNL     1      12.625  19.130  67.247  1.00  0.00     0.202 HD
BRANCH  15  17
HETATM   17  N2  UNL     1      13.314  20.814  67.333  1.00  0.00    -0.258 NA
HETATM   18  C3  UNL     1      13.348  22.066  66.803  1.00  0.00     0.459 C 
HETATM   19  O1  UNL     1      14.306  22.681  66.205  1.00  0.00    -0.219 OA
BRANCH  18  20
HETATM   20  O2  UNL     1      12.204  22.892  66.870  1.00  0.00    -0.281 OA
BRANCH  20  21
HETATM   21  C4  UNL     1      11.694  23.449  68.028  1.00  0.00     0.062 C 
HETATM   22  C5  UNL     1      10.576  22.707  68.695  1.00  0.00     0.046 C 
HETATM   23  C6  UNL     1      11.098  24.809  67.626  1.00  0.00     0.046 C 
HETATM   24  C7  UNL     1      12.781  23.752  69.053  1.00  0.00     0.046 C 
ENDBRANCH  20  21
ENDBRANCH  18  20
ENDBRANCH  15  17
ENDBRANCH   1  13
BRANCH  10  25
HETATM   25  N6  UNL     1      13.076  14.736  66.431  1.00  0.00    -0.221 N 
ATOM     26  H6  UNL     1      12.330  14.127  66.096  1.00  0.00     0.178 HD
BRANCH  25  27
HETATM   27  C11 UNL     1      14.327  14.780  65.701  1.00  0.00     0.099 C 
HETATM   28  C12 UNL     1      15.158  13.531  65.849  1.00  0.00     0.026 C 
HETATM   29  C13 UNL     1      14.578  13.020  64.556  1.00  0.00     0.004 C 
HETATM   30  C14 UNL     1      14.086  14.404  64.254  1.00  0.00     0.026 C 
ENDBRANCH  25  27
ENDBRANCH  10  25
TORSDOF 6
ENDMDL
MODEL 5
REMARK VINA RESULT: -5.331543672      6.279      9.120
REMARK  6 active torsions:
REMARK  status: ('A' for Active; 'I' for Inactive)
REMARK    1  A    between atoms: C2_2  and  C8_13 
REMARK    2  A    between atoms: N1_3  and  N2_5 
REMARK       I    between atoms: N2_5  and  C3_6 
REMARK    3  A    between atoms: C3_6  and  O2_8 
REMARK    4  A    between atoms: O2_8  and  C4_9 
REMARK    5  A    between atoms: C10_22  and  N6_23 
REMARK    6  A    between atoms: N6_23  and  C11_25 
ROOT
HETATM    1  C8  UNL     1      12.793  14.846  67.177  1.00  0.00     0.161 A 
HETATM    2  N3  UNL     1      13.216  15.042  65.916  1.00  0.00    -0.174 N 
ATOM      3  H3  UNL     1      13.464  15.989  65.629  1.00  0.00     0.186 HD
HETATM    4  C9  UNL     1      13.330  14.044  65.006  1.00  0.00     0.692 A 
HETATM    5  N4  UNL     1      13.697  14.194  63.795  1.00  0.00    -0.234 N 
ATOM      6  H41 UNL     1      13.782  13.443  63.110  1.00  0.00     0.174 HD
ATOM      7  H42 UNL     1      13.948  15.140  63.509  1.00  0.00     0.174 HD
HETATM    8  N5  UNL     1      12.991  12.769  65.393  1.00  0.00    -0.023 N 
ATOM      9  H5  UNL     1      13.061  11.990  64.739  1.00  0.00     0.203 HD
HETATM   10  C10 UNL     1      12.569  12.576  66.640  1.00  0.00     0.694 A 
HETATM   11  N7  UNL     1      12.473  13.596  67.511  1.00  0.00    -0.174 N 
ATOM     12  H7  UNL     1      12.144  13.406  68.458  1.00  0.00     0.186 HD
ENDROOT
BRANCH   1  13
HETATM   13  C2  UNL     1      12.747  15.953  68.166  1.00  0.00     0.080 C 
HETATM   14  C1  UNL     1      12.067  15.662  69.448  1.00  0.00     0.075 C 
HETATM   15  N1  UNL     1      13.294  17.019  67.891  1.00  0.00    -0.231 N 
ATOM     16  H1  UNL     1      13.662  16.906  66.946  1.00  0.00     0.202 HD
BRANCH  15  17
HETATM   17  N2  UNL     1      13.607  18.186  68.242  1.00  0.00    -0.258 NA
HETATM   18  C3  UNL     1      13.947  19.447  68.620  1.00  0.00     0.459 C 
HETATM   19  O1  UNL     1      14.871  19.845  69.422  1.00  0.00    -0.219 OA
BRANCH  18  20
HETATM   20  O2  UNL     1      13.236  20.554  68.107  1.00  0.00    -0.281 OA
BRANCH  20  21
HETATM   21  C4  UNL     1      12.590  21.506  68.874  1.00  0.00     0.062 C 
HETATM   22  C5  UNL     1      11.956  21.029  70.145  1.00  0.00     0.046 C 
HETATM   23  C6  UNL     1      11.430  22.038  68.015  1.00  0.00     0.046 C 
HETATM   24  C7  UNL     1      13.478  22.709  69.174  1.00  0.00     0.046 C 
ENDBRANCH  20  21
ENDBRANCH  18  20
ENDBRANCH  15  17
ENDBRANCH   1  13
BRANCH  10  25
HETATM   25  N6  UNL     1      12.230  11.384  67.009  1.00  0.00    -0.221 N 
ATOM     26  H6  UNL     1      11.689  10.803  66.369  1.00  0.00     0.178 HD
BRANCH  25  27
HETATM   27  C11 UNL     1      12.595  10.848  68.305  1.00  0.00     0.099 C 
HETATM   28  C12 UNL     1      12.041   9.470  68.568  1.00  0.00     0.026 C 
HETATM   29  C13 UNL     1      13.348   8.881  68.107  1.00  0.00     0.004 C 
HETATM   30  C14 UNL     1      13.978  10.236  68.232  1.00  0.00     0.026 C 
ENDBRANCH  25  27
ENDBRANCH  10  25
TORSDOF 6
ENDMDL
