MODEL 1
REMARK VINA RESULT: -5.064212918      0.000      0.000
REMARK  6 active torsions:
REMARK  status: ('A' for Active; 'I' for Inactive)
REMARK    1  A    between atoms: N1_2  and  C2_4 
REMARK    2  A    between atoms: C2_4  and  N2_6 
REMARK    3  A    between atoms: C2_4  and  C4_10 
REMARK       I    between atoms: C4_10  and  N3_12 
REMARK    4  A    between atoms: N3_12  and  C5_14 
REMARK    5  A    between atoms: C8_18  and  C9_19 
REMARK    6  A    between atoms: C9_19  and  O3_21 
ROOT
HETATM    1  C5  UNL     1      14.303  15.325  67.945  1.00  0.00     0.094 A 
HETATM    2  S1  UNL     1      14.707  16.978  68.292  1.00  0.00    -0.069 SA
HETATM    3  C6  UNL     1      13.462  17.339  69.386  1.00  0.00     0.036 A 
HETATM    4  C7  UNL     1      12.752  16.169  69.467  1.00  0.00    -0.020 A 
HETATM    5  C8  UNL     1      13.188  15.129  68.723  1.00  0.00     0.081 A 
HETATM    6  C11 UNL     1      11.587  16.275  70.421  1.00  0.00     0.041 C 
HETATM    7  C12 UNL     1      12.026  16.993  71.695  1.00  0.00     0.011 C 
HETATM    8  C13 UNL     1      12.371  18.440  71.460  1.00  0.00     0.058 C 
HETATM    9  C14 UNL     1      13.077  18.555  70.155  1.00  0.00     0.020 C 
HETATM   10  N4  UNL     1      13.397  19.666  69.618  1.00  0.00    -0.401 N 
ATOM     11  H41 UNL     1      13.134  20.499  70.144  1.00  0.00     0.156 HD
ATOM     12  H42 UNL     1      13.880  19.744  68.723  1.00  0.00     0.156 HD
ENDROOT
BRANCH   1  13
HETATM   13  N3  UNL     1      15.025  14.467  67.062  1.00  0.00    -0.317 N 
HETATM   14  C4  UNL     1      14.655  14.495  65.676  1.00  0.00     0.278 C 
HETATM   15  O1  UNL     1      13.760  15.246  65.308  1.00  0.00    -0.268 OA
ATOM     16  H3  UNL     1      15.772  13.860  67.401  1.00  0.00     0.169 HD
BRANCH  14  17
HETATM   17  C2  UNL     1      15.374  13.613  64.707  1.00  0.00     0.268 C 
HETATM   18  C3  UNL     1      16.191  14.513  63.771  1.00  0.00     0.081 C 
BRANCH  17  19
HETATM   19  N1  UNL     1      16.219  12.662  65.366  1.00  0.00    -0.388 N 
HETATM   20  C1  UNL     1      17.385  12.257  64.628  1.00  0.00     0.142 C 
ATOM     21  H1  UNL     1      16.008  12.298  66.295  1.00  0.00     0.155 HD
ENDBRANCH  17  19
BRANCH  17  22
HETATM   22  N2  UNL     1      14.398  12.922  63.910  1.00  0.00    -0.044 N 
ATOM     23  H23 UNL     1      14.007  13.518  63.180  1.00  0.00     0.277 HD
ATOM     24  H22 UNL     1      14.822  12.215  63.310  1.00  0.00     0.277 HD
ATOM     25  H21 UNL     1      13.676  12.531  64.514  1.00  0.00     0.277 HD
ENDBRANCH  17  22
ENDBRANCH  14  17
ENDBRANCH   1  13
BRANCH   5  26
HETATM   26  C9  UNL     1      12.545  13.774  68.713  1.00  0.00     0.296 C 
HETATM   27  O2  UNL     1      12.430  13.076  69.732  1.00  0.00    -0.259 OA
BRANCH  26  28
HETATM   28  O3  UNL     1      12.034  13.204  67.549  1.00  0.00    -0.322 OA
HETATM   29  C10 UNL     1      12.490  11.951  67.079  1.00  0.00     0.213 C 
ENDBRANCH  26  28
ENDBRANCH   5  26
TORSDOF 6
ENDMDL
MODEL 2
REMARK VINA RESULT: -4.891418971      0.773      1.349
REMARK  6 active torsions:
REMARK  status: ('A' for Active; 'I' for Inactive)
REMARK    1  A    between atoms: N1_2  and  C2_4 
REMARK    2  A    between atoms: C2_4  and  N2_6 
REMARK    3  A    between atoms: C2_4  and  C4_10 
REMARK       I    between atoms: C4_10  and  N3_12 
REMARK    4  A    between atoms: N3_12  and  C5_14 
REMARK    5  A    between atoms: C8_18  and  C9_19 
REMARK    6  A    between atoms: C9_19  and  O3_21 
ROOT
HETATM    1  C5  UNL     1      14.218  15.448  68.016  1.00  0.00     0.094 A 
HETATM    2  S1  UNL     1      14.517  17.095  68.477  1.00  0.00    -0.069 SA
HETATM    3  C6  UNL     1      13.253  17.302  69.588  1.00  0.00     0.036 A 
HETATM    4  C7  UNL     1      12.618  16.088  69.586  1.00  0.00    -0.020 A 
HETATM    5  C8  UNL     1      13.117  15.130  68.774  1.00  0.00     0.081 A 
HETATM    6  C11 UNL     1      11.449  16.055  70.541  1.00  0.00     0.041 C 
HETATM    7  C12 UNL     1      11.843  16.710  71.862  1.00  0.00     0.011 C 
HETATM    8  C13 UNL     1      12.097  18.189  71.728  1.00  0.00     0.058 C 
HETATM    9  C14 UNL     1      12.793  18.437  70.436  1.00  0.00     0.020 C 
HETATM   10  N4  UNL     1      13.043  19.599  69.978  1.00  0.00    -0.401 N 
ATOM     11  H41 UNL     1      12.728  20.376  70.559  1.00  0.00     0.156 HD
ATOM     12  H42 UNL     1      13.520  19.769  69.092  1.00  0.00     0.156 HD
ENDROOT
BRANCH   1  13
HETATM   13  N3  UNL     1      14.992  14.699  67.078  1.00  0.00    -0.317 N 
HETATM   14  C4  UNL     1      14.594  14.767  65.701  1.00  0.00     0.278 C 
HETATM   15  O1  UNL     1      13.633  15.458  65.386  1.00  0.00    -0.268 OA
ATOM     16  H3  UNL     1      15.792  14.141  67.374  1.00  0.00     0.169 HD
BRANCH  14  17
HETATM   17  C2  UNL     1      15.365  13.998  64.677  1.00  0.00     0.268 C 
HETATM   18  C3  UNL     1      15.563  12.574  65.213  1.00  0.00     0.081 C 
BRANCH  17  19
HETATM   19  N1  UNL     1      14.705  13.978  63.407  1.00  0.00    -0.388 N 
HETATM   20  C1  UNL     1      15.271  14.839  62.402  1.00  0.00     0.142 C 
ATOM     21  H1  UNL     1      13.888  13.393  63.226  1.00  0.00     0.155 HD
ENDBRANCH  17  19
BRANCH  17  22
HETATM   22  N2  UNL     1      16.663  14.599  64.539  1.00  0.00    -0.044 N 
ATOM     23  H23 UNL     1      16.766  15.431  65.121  1.00  0.00     0.277 HD
ATOM     24  H22 UNL     1      17.397  14.031  64.964  1.00  0.00     0.277 HD
ATOM     25  H21 UNL     1      16.849  14.793  63.556  1.00  0.00     0.277 HD
ENDBRANCH  17  22
ENDBRANCH  14  17
ENDBRANCH   1  13
BRANCH   5  26
HETATM   26  C9  UNL     1      12.560  13.742  68.670  1.00  0.00     0.296 C 
HETATM   27  O2  UNL     1      12.545  12.949  69.623  1.00  0.00    -0.259 OA
BRANCH  26  28
HETATM   28  O3  UNL     1      12.023  13.246  67.484  1.00  0.00    -0.322 OA
HETATM   29  C10 UNL     1      12.439  12.005  66.948  1.00  0.00     0.213 C 
ENDBRANCH  26  28
ENDBRANCH   5  26
TORSDOF 6
ENDMDL
MODEL 3
REMARK VINA RESULT: -4.852734649      3.669      5.703
REMARK  6 active torsions:
REMARK  status: ('A' for Active; 'I' for Inactive)
REMARK    1  A    between atoms: N1_2  and  C2_4 
REMARK    2  A    between atoms: C2_4  and  N2_6 
REMARK    3  A    between atoms: C2_4  and  C4_10 
REMARK       I    between atoms: C4_10  and  N3_12 
REMARK    4  A    between atoms: N3_12  and  C5_14 
REMARK    5  A    between atoms: C8_18  and  C9_19 
REMARK    6  A    between atoms: C9_19  and  O3_21 
ROOT
HETATM    1  C5  UNL     1      13.544  11.449  68.417  1.00  0.00     0.094 A 
HETATM    2  S1  UNL     1      13.514   9.714  68.404  1.00  0.00    -0.069 SA
HETATM    3  C6  UNL     1      12.925   9.439  69.969  1.00  0.00     0.036 A 
HETATM    4  C7  UNL     1      12.758  10.700  70.479  1.00  0.00    -0.020 A 
HETATM    5  C8  UNL     1      13.078  11.738  69.677  1.00  0.00     0.081 A 
HETATM    6  C11 UNL     1      12.214  10.677  71.888  1.00  0.00     0.041 C 
HETATM    7  C12 UNL     1      11.084   9.656  71.989  1.00  0.00     0.011 C 
HETATM    8  C13 UNL     1      11.561   8.238  71.815  1.00  0.00     0.058 C 
HETATM    9  C14 UNL     1      12.612   8.216  70.761  1.00  0.00     0.020 C 
HETATM   10  N4  UNL     1      13.295   7.182  70.462  1.00  0.00    -0.401 N 
ATOM     11  H41 UNL     1      13.080   6.344  71.004  1.00  0.00     0.156 HD
ATOM     12  H42 UNL     1      14.014   7.167  69.740  1.00  0.00     0.156 HD
ENDROOT
BRANCH   1  13
HETATM   13  N3  UNL     1      13.960  12.277  67.330  1.00  0.00    -0.317 N 
HETATM   14  C4  UNL     1      12.960  12.647  66.370  1.00  0.00     0.278 C 
HETATM   15  O1  UNL     1      11.808  12.257  66.522  1.00  0.00    -0.268 OA
ATOM     16  H3  UNL     1      14.926  12.591  67.239  1.00  0.00     0.169 HD
BRANCH  14  17
HETATM   17  C2  UNL     1      13.341  13.507  65.209  1.00  0.00     0.268 C 
HETATM   18  C3  UNL     1      13.991  14.781  65.764  1.00  0.00     0.081 C 
BRANCH  17  19
HETATM   19  N1  UNL     1      14.225  12.834  64.306  1.00  0.00    -0.388 N 
HETATM   20  C1  UNL     1      15.558  13.369  64.233  1.00  0.00     0.142 C 
ATOM     21  H1  UNL     1      13.930  12.030  63.752  1.00  0.00     0.155 HD
ENDBRANCH  17  19
BRANCH  17  22
HETATM   22  N2  UNL     1      12.142  13.893  64.516  1.00  0.00    -0.044 N 
ATOM     23  H23 UNL     1      11.468  14.344  65.136  1.00  0.00     0.277 HD
ATOM     24  H22 UNL     1      12.301  14.674  63.879  1.00  0.00     0.277 HD
ATOM     25  H21 UNL     1      11.745  13.084  64.040  1.00  0.00     0.277 HD
ENDBRANCH  17  22
ENDBRANCH  14  17
ENDBRANCH   1  13
BRANCH   5  26
HETATM   26  C9  UNL     1      12.931  13.179  70.066  1.00  0.00     0.296 C 
HETATM   27  O2  UNL     1      13.627  13.714  70.942  1.00  0.00    -0.259 OA
BRANCH  26  28
HETATM   28  O3  UNL     1      11.993  14.017  69.467  1.00  0.00    -0.322 OA
HETATM   29  C10 UNL     1      12.340  15.314  69.023  1.00  0.00     0.213 C 
ENDBRANCH  26  28
ENDBRANCH   5  26
TORSDOF 6
ENDMDL
MODEL 4
REMARK VINA RESULT: -4.817293943      2.541      7.307
REMARK  6 active torsions:
REMARK  status: ('A' for Active; 'I' for Inactive)
REMARK    1  A    between atoms: N1_2  and  C2_4 
REMARK    2  A    between atoms: C2_4  and  N2_6 
REMARK    3  A    between atoms: C2_4  and  C4_10 
REMARK       I    between atoms: C4_10  and  N3_12 
REMARK    4  A    between atoms: N3_12  and  C5_14 
REMARK    5  A    between atoms: C8_18  and  C9_19 
REMARK    6  A    between atoms: C9_19  and  O3_21 
ROOT
HETATM    1  C5  UNL     1      14.997  12.705  66.342  1.00  0.00     0.094 A 
HETATM    2  S1  UNL     1      15.605  11.311  67.181  1.00  0.00    -0.069 SA
HETATM    3  C6  UNL     1      16.932  10.953  66.188  1.00  0.00     0.036 A 
HETATM    4  C7  UNL     1      16.885  11.923  65.221  1.00  0.00    -0.020 A 
HETATM    5  C8  UNL     1      15.885  12.827  65.301  1.00  0.00     0.081 A 
HETATM    6  C11 UNL     1      18.014  11.790  64.226  1.00  0.00     0.041 C 
HETATM    7  C12 UNL     1      19.320  11.508  64.962  1.00  0.00     0.011 C 
HETATM    8  C13 UNL     1      19.334  10.159  65.632  1.00  0.00     0.058 C 
HETATM    9  C14 UNL     1      17.984   9.898  66.202  1.00  0.00     0.020 C 
HETATM   10  N4  UNL     1      17.641   8.791  66.733  1.00  0.00    -0.401 N 
ATOM     11  H41 UNL     1      18.361   8.068  66.743  1.00  0.00     0.156 HD
ATOM     12  H42 UNL     1      16.716   8.612  67.123  1.00  0.00     0.156 HD
ENDROOT
BRANCH   1  13
HETATM   13  N3  UNL     1      13.854  13.468  66.729  1.00  0.00    -0.317 N 
HETATM   14  C4  UNL     1      14.059  14.508  67.695  1.00  0.00     0.278 C 
HETATM   15  O1  UNL     1      15.185  14.706  68.135  1.00  0.00    -0.268 OA
ATOM     16  H3  UNL     1      12.932  13.281  66.335  1.00  0.00     0.169 HD
BRANCH  14  17
HETATM   17  C2  UNL     1      12.896  15.334  68.141  1.00  0.00     0.268 C 
HETATM   18  C3  UNL     1      12.783  15.200  69.665  1.00  0.00     0.081 C 
BRANCH  17  19
HETATM   19  N1  UNL     1      13.031  16.708  67.758  1.00  0.00    -0.388 N 
HETATM   20  C1  UNL     1      13.315  17.623  68.831  1.00  0.00     0.142 C 
ATOM     21  H1  UNL     1      12.933  17.017  66.791  1.00  0.00     0.155 HD
ENDBRANCH  17  19
BRANCH  17  22
HETATM   22  N2  UNL     1      11.700  14.786  67.563  1.00  0.00    -0.044 N 
ATOM     23  H23 UNL     1      11.062  14.424  68.272  1.00  0.00     0.277 HD
ATOM     24  H22 UNL     1      11.094  15.509  67.175  1.00  0.00     0.277 HD
ATOM     25  H21 UNL     1      11.946  14.079  66.871  1.00  0.00     0.277 HD
ENDBRANCH  17  22
ENDBRANCH  14  17
ENDBRANCH   1  13
BRANCH   5  26
HETATM   26  C9  UNL     1      15.702  13.966  64.342  1.00  0.00     0.296 C 
HETATM   27  O2  UNL     1      14.769  14.016  63.527  1.00  0.00    -0.259 OA
BRANCH  26  28
HETATM   28  O3  UNL     1      16.578  15.049  64.301  1.00  0.00    -0.322 OA
HETATM   29  C10 UNL     1      17.355  15.412  65.426  1.00  0.00     0.213 C 
ENDBRANCH  26  28
ENDBRANCH   5  26
TORSDOF 6
ENDMDL
MODEL 5
REMARK VINA RESULT: -4.817169993      0.527      1.001
REMARK  6 active torsions:
REMARK  status: ('A' for Active; 'I' for Inactive)
REMARK    1  A    between atoms: N1_2  and  C2_4 
REMARK    2  A    between atoms: C2_4  and  N2_6 
REMARK    3  A    between atoms: C2_4  and  C4_10 
REMARK       I    between atoms: C4_10  and  N3_12 
REMARK    4  A    between atoms: N3_12  and  C5_14 
REMARK    5  A    between atoms: C8_18  and  C9_19 
REMARK    6  A    between atoms: C9_19  and  O3_21 
ROOT
HETATM    1  C5  UNL     1      14.293  15.295  67.945  1.00  0.00     0.094 A 
HETATM    2  S1  UNL     1      14.746  16.931  68.311  1.00  0.00    -0.069 SA
HETATM    3  C6  UNL     1      13.502  17.322  69.394  1.00  0.00     0.036 A 
HETATM    4  C7  UNL     1      12.754  16.175  69.457  1.00  0.00    -0.020 A 
HETATM    5  C8  UNL     1      13.163  15.129  68.708  1.00  0.00     0.081 A 
HETATM    6  C11 UNL     1      11.582  16.311  70.400  1.00  0.00     0.041 C 
HETATM    7  C12 UNL     1      12.029  17.004  71.684  1.00  0.00     0.011 C 
HETATM    8  C13 UNL     1      12.424  18.441  71.467  1.00  0.00     0.058 C 
HETATM    9  C14 UNL     1      13.147  18.544  70.170  1.00  0.00     0.020 C 
HETATM   10  N4  UNL     1      13.510  19.648  69.647  1.00  0.00    -0.401 N 
ATOM     11  H41 UNL     1      13.267  20.485  70.178  1.00  0.00     0.156 HD
ATOM     12  H42 UNL     1      14.005  19.719  68.758  1.00  0.00     0.156 HD
ENDROOT
BRANCH   1  13
HETATM   13  N3  UNL     1      14.997  14.422  67.061  1.00  0.00    -0.317 N 
HETATM   14  C4  UNL     1      14.638  14.469  65.673  1.00  0.00     0.278 C 
HETATM   15  O1  UNL     1      13.768  15.248  65.303  1.00  0.00    -0.268 OA
ATOM     16  H3  UNL     1      15.723  13.791  67.402  1.00  0.00     0.169 HD
BRANCH  14  17
HETATM   17  C2  UNL     1      15.338  13.572  64.704  1.00  0.00     0.268 C 
HETATM   18  C3  UNL     1      16.196  14.453  63.786  1.00  0.00     0.081 C 
BRANCH  17  19
HETATM   19  N1  UNL     1      16.143  12.588  65.363  1.00  0.00    -0.388 N 
HETATM   20  C1  UNL     1      17.299  12.143  64.631  1.00  0.00     0.142 C 
ATOM     21  H1  UNL     1      15.913  12.227  66.290  1.00  0.00     0.155 HD
ENDBRANCH  17  19
BRANCH  17  22
HETATM   22  N2  UNL     1      14.349  12.922  63.889  1.00  0.00    -0.044 N 
ATOM     23  H23 UNL     1      13.413  13.293  64.052  1.00  0.00     0.277 HD
ATOM     24  H22 UNL     1      14.438  13.172  62.904  1.00  0.00     0.277 HD
ATOM     25  H21 UNL     1      14.393  11.913  64.034  1.00  0.00     0.277 HD
ENDBRANCH  17  22
ENDBRANCH  14  17
ENDBRANCH   1  13
BRANCH   5  26
HETATM   26  C9  UNL     1      12.477  13.796  68.680  1.00  0.00     0.296 C 
HETATM   27  O2  UNL     1      11.951  13.330  67.658  1.00  0.00    -0.259 OA
BRANCH  26  28
HETATM   28  O3  UNL     1      12.381  12.987  69.811  1.00  0.00    -0.322 OA
HETATM   29  C10 UNL     1      13.521  12.368  70.373  1.00  0.00     0.213 C 
ENDBRANCH  26  28
ENDBRANCH   5  26
TORSDOF 6
ENDMDL
