MODEL 1
REMARK VINA RESULT: -9.662931502      0.000      0.000
REMARK  9 active torsions:
REMARK  status: ('A' for Active; 'I' for Inactive)
REMARK    1  A    between atoms: N1_1  and  C1_4 
REMARK    2  A    between atoms: C3_8  and  C4_9 
REMARK    3  A    between atoms: C4_9  and  N3_10 
REMARK    4  A    between atoms: N4_13  and  C7_14 
REMARK    5  A    between atoms: C7_14  and  O1_15 
REMARK    6  A    between atoms: N5_19  and  C10_20 
REMARK    7  A    between atoms: C10_20  and  O2_21 
REMARK    8  A    between atoms: O2_21  and  C11_22 
REMARK    9  A    between atoms: C11_22  and  C12_23 
ROOT
HETATM    1  C1  UNL     1      47.372   8.490  56.072  1.00  0.00     0.679 A 
HETATM    2  N2  UNL     1      46.515   9.242  55.338  1.00  0.00    -0.201 N 
ATOM      3  H2  UNL     1      45.828   9.846  55.790  1.00  0.00     0.183 HD
HETATM    4  C2  UNL     1      46.595   9.170  53.992  1.00  0.00     0.116 A 
HETATM    5  C3  UNL     1      47.507   8.368  53.349  1.00  0.00    -0.008 A 
HETATM    6  C9  UNL     1      48.357   7.621  54.134  1.00  0.00     0.121 A 
HETATM    7  N5  UNL     1      48.280   7.691  55.490  1.00  0.00    -0.171 N 
ENDROOT
BRANCH   7   8
HETATM    8  C10 UNL     1      49.175   6.905  56.290  1.00  0.00     0.316 C 
BRANCH   8   9
HETATM    9  O2  UNL     1      48.637   5.702  56.694  1.00  0.00    -0.367 OA
BRANCH   9  10
HETATM   10  C11 UNL     1      48.698   5.570  58.054  1.00  0.00     0.208 C 
BRANCH  10  11
HETATM   11  C12 UNL     1      48.811   4.207  58.573  1.00  0.00    -0.033 A 
HETATM   12  C13 UNL     1      50.028   3.721  59.059  1.00  0.00     0.009 A 
HETATM   13  C14 UNL     1      50.149   2.437  59.545  1.00  0.00     0.002 A 
HETATM   14  C15 UNL     1      49.081   1.584  59.572  1.00  0.00     0.019 A 
HETATM   15  C16 UNL     1      47.863   2.033  59.100  1.00  0.00     0.011 A 
HETATM   16 BR1  UNL     1      46.387   0.841  59.141  1.00  0.00    -0.051 Br
HETATM   17  C17 UNL     1      47.759   3.311  58.620  1.00  0.00     0.028 A 
ENDBRANCH  10  11
ENDBRANCH   9  10
ENDBRANCH   8   9
ENDBRANCH   7   8
BRANCH   1  18
HETATM   18  N1  UNL     1      47.339   8.521  57.356  1.00  0.00    -0.234 N 
ATOM     19  H12 UNL     1      46.456   8.772  57.802  1.00  0.00     0.174 HD
ATOM     20  H11 UNL     1      48.170   8.301  57.904  1.00  0.00     0.174 HD
ENDBRANCH   1  18
BRANCH   5  21
HETATM   21  C4  UNL     1      47.535   8.340  51.868  1.00  0.00     0.170 C 
BRANCH  21  22
HETATM   22  N3  UNL     1      46.310   7.771  51.322  1.00  0.00    -0.347 N 
HETATM   23  C5  UNL     1      46.219   6.800  50.368  1.00  0.00     0.109 A 
HETATM   24  C6  UNL     1      44.904   6.523  50.111  1.00  0.00     0.111 A 
HETATM   25  N4  UNL     1      44.181   7.318  50.902  1.00  0.00    -0.330 N 
HETATM   26  C8  UNL     1      45.036   8.069  51.631  1.00  0.00     0.187 A 
BRANCH  25  27
HETATM   27  C7  UNL     1      42.733   7.378  50.978  1.00  0.00     0.295 C 
BRANCH  27  28
HETATM   28  O1  UNL     1      42.389   7.319  52.329  1.00  0.00    -0.382 OA
ATOM     29  H1  UNL     1      43.047   6.790  52.764  1.00  0.00     0.211 HD
ENDBRANCH  27  28
ENDBRANCH  25  27
ENDBRANCH  21  22
ENDBRANCH   5  21
TORSDOF 9
ENDMDL
MODEL 2
REMARK VINA RESULT: -9.647721555      1.098      1.406
REMARK  9 active torsions:
REMARK  status: ('A' for Active; 'I' for Inactive)
REMARK    1  A    between atoms: N1_1  and  C1_4 
REMARK    2  A    between atoms: C3_8  and  C4_9 
REMARK    3  A    between atoms: C4_9  and  N3_10 
REMARK    4  A    between atoms: N4_13  and  C7_14 
REMARK    5  A    between atoms: C7_14  and  O1_15 
REMARK    6  A    between atoms: N5_19  and  C10_20 
REMARK    7  A    between atoms: C10_20  and  O2_21 
REMARK    8  A    between atoms: O2_21  and  C11_22 
REMARK    9  A    between atoms: C11_22  and  C12_23 
ROOT
HETATM    1  C1  UNL     1      47.367   8.424  56.124  1.00  0.00     0.679 A 
HETATM    2  N2  UNL     1      46.496   9.165  55.394  1.00  0.00    -0.201 N 
ATOM      3  H2  UNL     1      45.795   9.748  55.850  1.00  0.00     0.183 HD
HETATM    4  C2  UNL     1      46.583   9.110  54.048  1.00  0.00     0.116 A 
HETATM    5  C3  UNL     1      47.514   8.334  53.400  1.00  0.00    -0.008 A 
HETATM    6  C9  UNL     1      48.378   7.598  54.181  1.00  0.00     0.121 A 
HETATM    7  N5  UNL     1      48.294   7.651  55.537  1.00  0.00    -0.171 N 
ENDROOT
BRANCH   7   8
HETATM    8  C10 UNL     1      49.202   6.876  56.332  1.00  0.00     0.316 C 
BRANCH   8   9
HETATM    9  O2  UNL     1      48.610   5.792  56.943  1.00  0.00    -0.367 OA
BRANCH   9  10
HETATM   10  C11 UNL     1      49.120   5.597  58.196  1.00  0.00     0.208 C 
BRANCH  10  11
HETATM   11  C12 UNL     1      48.711   4.372  58.885  1.00  0.00    -0.033 A 
HETATM   12  C13 UNL     1      47.596   3.645  58.457  1.00  0.00     0.009 A 
HETATM   13  C14 UNL     1      47.197   2.494  59.101  1.00  0.00     0.002 A 
HETATM   14  C15 UNL     1      47.876   2.015  60.186  1.00  0.00     0.019 A 
HETATM   15  C16 UNL     1      48.982   2.709  60.634  1.00  0.00     0.011 A 
HETATM   16 BR1  UNL     1      49.917   2.035  62.142  1.00  0.00    -0.051 Br
HETATM   17  C17 UNL     1      49.366   3.851  59.985  1.00  0.00     0.028 A 
ENDBRANCH  10  11
ENDBRANCH   9  10
ENDBRANCH   8   9
ENDBRANCH   7   8
BRANCH   1  18
HETATM   18  N1  UNL     1      47.328   8.440  57.408  1.00  0.00    -0.234 N 
ATOM     19  H12 UNL     1      46.531   8.896  57.853  1.00  0.00     0.174 HD
ATOM     20  H11 UNL     1      48.072   8.010  57.957  1.00  0.00     0.174 HD
ENDBRANCH   1  18
BRANCH   5  21
HETATM   21  C4  UNL     1      47.549   8.324  51.919  1.00  0.00     0.170 C 
BRANCH  21  22
HETATM   22  N3  UNL     1      46.321   7.773  51.361  1.00  0.00    -0.347 N 
HETATM   23  C5  UNL     1      46.224   6.856  50.355  1.00  0.00     0.109 A 
HETATM   24  C6  UNL     1      44.908   6.581  50.104  1.00  0.00     0.111 A 
HETATM   25  N4  UNL     1      44.190   7.322  50.949  1.00  0.00    -0.330 N 
HETATM   26  C8  UNL     1      45.049   8.040  51.706  1.00  0.00     0.187 A 
BRANCH  25  27
HETATM   27  C7  UNL     1      42.743   7.363  51.051  1.00  0.00     0.295 C 
BRANCH  27  28
HETATM   28  O1  UNL     1      42.425   7.349  52.410  1.00  0.00    -0.382 OA
ATOM     29  H1  UNL     1      41.481   7.434  52.478  1.00  0.00     0.211 HD
ENDBRANCH  27  28
ENDBRANCH  25  27
ENDBRANCH  21  22
ENDBRANCH   5  21
TORSDOF 9
ENDMDL
MODEL 3
REMARK VINA RESULT: -8.956528295      1.433      2.131
REMARK  9 active torsions:
REMARK  status: ('A' for Active; 'I' for Inactive)
REMARK    1  A    between atoms: N1_1  and  C1_4 
REMARK    2  A    between atoms: C3_8  and  C4_9 
REMARK    3  A    between atoms: C4_9  and  N3_10 
REMARK    4  A    between atoms: N4_13  and  C7_14 
REMARK    5  A    between atoms: C7_14  and  O1_15 
REMARK    6  A    between atoms: N5_19  and  C10_20 
REMARK    7  A    between atoms: C10_20  and  O2_21 
REMARK    8  A    between atoms: O2_21  and  C11_22 
REMARK    9  A    between atoms: C11_22  and  C12_23 
ROOT
HETATM    1  C1  UNL     1      49.719   6.852  54.841  1.00  0.00     0.679 A 
HETATM    2  N2  UNL     1      49.774   7.164  53.522  1.00  0.00    -0.201 N 
ATOM      3  H2  UNL     1      50.538   6.829  52.936  1.00  0.00     0.183 HD
HETATM    4  C2  UNL     1      48.789   7.931  53.007  1.00  0.00     0.116 A 
HETATM    5  C3  UNL     1      47.745   8.401  53.766  1.00  0.00    -0.008 A 
HETATM    6  C9  UNL     1      47.730   8.060  55.101  1.00  0.00     0.121 A 
HETATM    7  N5  UNL     1      48.719   7.287  55.624  1.00  0.00    -0.171 N 
ENDROOT
BRANCH   7   8
HETATM    8  C10 UNL     1      48.685   6.944  57.017  1.00  0.00     0.316 C 
BRANCH   8   9
HETATM    9  O2  UNL     1      48.591   5.588  57.245  1.00  0.00    -0.367 OA
BRANCH   9  10
HETATM   10  C11 UNL     1      48.995   5.276  58.514  1.00  0.00     0.208 C 
BRANCH  10  11
HETATM   11  C12 UNL     1      48.606   3.958  59.018  1.00  0.00    -0.033 A 
HETATM   12  C13 UNL     1      47.400   3.369  58.632  1.00  0.00     0.009 A 
HETATM   13  C14 UNL     1      47.019   2.132  59.106  1.00  0.00     0.002 A 
HETATM   14  C15 UNL     1      47.809   1.429  59.973  1.00  0.00     0.019 A 
HETATM   15  C16 UNL     1      49.009   1.983  60.373  1.00  0.00     0.011 A 
HETATM   16 BR1  UNL     1      50.097   0.999  61.577  1.00  0.00    -0.051 Br
HETATM   17  C17 UNL     1      49.372   3.213  59.895  1.00  0.00     0.028 A 
ENDBRANCH  10  11
ENDBRANCH   9  10
ENDBRANCH   8   9
ENDBRANCH   7   8
BRANCH   1  18
HETATM   18  N1  UNL     1      50.629   6.125  55.383  1.00  0.00    -0.234 N 
ATOM     19  H12 UNL     1      51.366   5.761  54.779  1.00  0.00     0.174 HD
ATOM     20  H11 UNL     1      50.608   5.923  56.382  1.00  0.00     0.174 HD
ENDBRANCH   1  18
BRANCH   5  21
HETATM   21  C4  UNL     1      46.702   9.239  53.131  1.00  0.00     0.170 C 
BRANCH  21  22
HETATM   22  N3  UNL     1      45.929   8.479  52.156  1.00  0.00    -0.347 N 
HETATM   23  C5  UNL     1      46.425   7.714  51.142  1.00  0.00     0.109 A 
HETATM   24  C6  UNL     1      45.395   7.155  50.436  1.00  0.00     0.111 A 
HETATM   25  N4  UNL     1      44.264   7.570  51.009  1.00  0.00    -0.330 N 
HETATM   26  C8  UNL     1      44.593   8.369  52.048  1.00  0.00     0.187 A 
BRANCH  25  27
HETATM   27  C7  UNL     1      42.913   7.232  50.602  1.00  0.00     0.295 C 
BRANCH  27  28
HETATM   28  O1  UNL     1      42.197   6.929  51.761  1.00  0.00    -0.382 OA
ATOM     29  H1  UNL     1      41.531   6.294  51.522  1.00  0.00     0.211 HD
ENDBRANCH  27  28
ENDBRANCH  25  27
ENDBRANCH  21  22
ENDBRANCH   5  21
TORSDOF 9
ENDMDL
MODEL 4
REMARK VINA RESULT: -8.807805438      1.319      1.913
REMARK  9 active torsions:
REMARK  status: ('A' for Active; 'I' for Inactive)
REMARK    1  A    between atoms: N1_1  and  C1_4 
REMARK    2  A    between atoms: C3_8  and  C4_9 
REMARK    3  A    between atoms: C4_9  and  N3_10 
REMARK    4  A    between atoms: N4_13  and  C7_14 
REMARK    5  A    between atoms: C7_14  and  O1_15 
REMARK    6  A    between atoms: N5_19  and  C10_20 
REMARK    7  A    between atoms: C10_20  and  O2_21 
REMARK    8  A    between atoms: O2_21  and  C11_22 
REMARK    9  A    between atoms: C11_22  and  C12_23 
ROOT
HETATM    1  C1  UNL     1      50.265   6.859  54.182  1.00  0.00     0.679 A 
HETATM    2  N2  UNL     1      50.069   7.244  52.896  1.00  0.00    -0.201 N 
ATOM      3  H2  UNL     1      50.738   6.998  52.168  1.00  0.00     0.183 HD
HETATM    4  C2  UNL     1      48.963   7.963  52.608  1.00  0.00     0.116 A 
HETATM    5  C3  UNL     1      48.040   8.315  53.564  1.00  0.00    -0.008 A 
HETATM    6  C9  UNL     1      48.280   7.903  54.856  1.00  0.00     0.121 A 
HETATM    7  N5  UNL     1      49.392   7.178  55.151  1.00  0.00    -0.171 N 
ENDROOT
BRANCH   7   8
HETATM    8  C10 UNL     1      49.624   6.758  56.503  1.00  0.00     0.316 C 
BRANCH   8   9
HETATM    9  O2  UNL     1      49.212   5.468  56.757  1.00  0.00    -0.367 OA
BRANCH   9  10
HETATM   10  C11 UNL     1      48.287   5.439  57.763  1.00  0.00     0.208 C 
BRANCH  10  11
HETATM   11  C12 UNL     1      48.346   4.293  58.672  1.00  0.00    -0.033 A 
HETATM   12  C13 UNL     1      49.304   4.231  59.688  1.00  0.00     0.009 A 
HETATM   13  C14 UNL     1      49.375   3.155  60.546  1.00  0.00     0.002 A 
HETATM   14  C15 UNL     1      48.509   2.103  60.439  1.00  0.00     0.019 A 
HETATM   15  C16 UNL     1      47.550   2.133  59.446  1.00  0.00     0.011 A 
HETATM   16 BR1  UNL     1      46.353   0.666  59.305  1.00  0.00    -0.051 Br
HETATM   17  C17 UNL     1      47.493   3.208  58.601  1.00  0.00     0.028 A 
ENDBRANCH  10  11
ENDBRANCH   9  10
ENDBRANCH   8   9
ENDBRANCH   7   8
BRANCH   1  18
HETATM   18  N1  UNL     1      51.300   6.173  54.512  1.00  0.00    -0.234 N 
ATOM     19  H12 UNL     1      51.273   5.166  54.349  1.00  0.00     0.174 HD
ATOM     20  H11 UNL     1      52.117   6.626  54.921  1.00  0.00     0.174 HD
ENDBRANCH   1  18
BRANCH   5  21
HETATM   21  C4  UNL     1      46.851   9.106  53.171  1.00  0.00     0.170 C 
BRANCH  21  22
HETATM   22  N3  UNL     1      46.039   8.398  52.190  1.00  0.00    -0.347 N 
HETATM   23  C5  UNL     1      46.494   7.636  51.154  1.00  0.00     0.109 A 
HETATM   24  C6  UNL     1      45.436   7.132  50.449  1.00  0.00     0.111 A 
HETATM   25  N4  UNL     1      44.328   7.577  51.044  1.00  0.00    -0.330 N 
HETATM   26  C8  UNL     1      44.699   8.341  52.096  1.00  0.00     0.187 A 
BRANCH  25  27
HETATM   27  C7  UNL     1      42.961   7.299  50.647  1.00  0.00     0.295 C 
BRANCH  27  28
HETATM   28  O1  UNL     1      42.279   6.868  51.786  1.00  0.00    -0.382 OA
ATOM     29  H1  UNL     1      42.732   6.097  52.109  1.00  0.00     0.211 HD
ENDBRANCH  27  28
ENDBRANCH  25  27
ENDBRANCH  21  22
ENDBRANCH   5  21
TORSDOF 9
ENDMDL
MODEL 5
REMARK VINA RESULT: -8.732852753      1.483      1.698
REMARK  9 active torsions:
REMARK  status: ('A' for Active; 'I' for Inactive)
REMARK    1  A    between atoms: N1_1  and  C1_4 
REMARK    2  A    between atoms: C3_8  and  C4_9 
REMARK    3  A    between atoms: C4_9  and  N3_10 
REMARK    4  A    between atoms: N4_13  and  C7_14 
REMARK    5  A    between atoms: C7_14  and  O1_15 
REMARK    6  A    between atoms: N5_19  and  C10_20 
REMARK    7  A    between atoms: C10_20  and  O2_21 
REMARK    8  A    between atoms: O2_21  and  C11_22 
REMARK    9  A    between atoms: C11_22  and  C12_23 
ROOT
HETATM    1  C1  UNL     1      47.211   8.695  56.057  1.00  0.00     0.679 A 
HETATM    2  N2  UNL     1      46.344   9.314  55.217  1.00  0.00    -0.201 N 
ATOM      3  H2  UNL     1      45.596   9.906  55.579  1.00  0.00     0.183 HD
HETATM    4  C2  UNL     1      46.498   9.127  53.889  1.00  0.00     0.116 A 
HETATM    5  C3  UNL     1      47.492   8.336  53.366  1.00  0.00    -0.008 A 
HETATM    6  C9  UNL     1      48.349   7.726  54.255  1.00  0.00     0.121 A 
HETATM    7  N5  UNL     1      48.199   7.913  55.594  1.00  0.00    -0.171 N 
ENDROOT
BRANCH   7   8
HETATM    8  C10 UNL     1      49.101   7.268  56.504  1.00  0.00     0.316 C 
BRANCH   8   9
HETATM    9  O2  UNL     1      48.512   6.900  57.693  1.00  0.00    -0.367 OA
BRANCH   9  10
HETATM   10  C11 UNL     1      49.308   6.033  58.387  1.00  0.00     0.208 C 
BRANCH  10  11
HETATM   11  C12 UNL     1      49.191   4.616  58.040  1.00  0.00    -0.033 A 
HETATM   12  C13 UNL     1      48.167   3.828  58.572  1.00  0.00     0.009 A 
HETATM   13  C14 UNL     1      48.049   2.492  58.258  1.00  0.00     0.002 A 
HETATM   14  C15 UNL     1      48.931   1.881  57.410  1.00  0.00     0.019 A 
HETATM   15  C16 UNL     1      49.955   2.632  56.866  1.00  0.00     0.011 A 
HETATM   16 BR1  UNL     1      51.174   1.774  55.691  1.00  0.00    -0.051 Br
HETATM   17  C17 UNL     1      50.059   3.958  57.188  1.00  0.00     0.028 A 
ENDBRANCH  10  11
ENDBRANCH   9  10
ENDBRANCH   8   9
ENDBRANCH   7   8
BRANCH   1  18
HETATM   18  N1  UNL     1      47.110   8.840  57.329  1.00  0.00    -0.234 N 
ATOM     19  H12 UNL     1      46.338   8.368  57.801  1.00  0.00     0.174 HD
ATOM     20  H11 UNL     1      47.782   9.408  57.844  1.00  0.00     0.174 HD
ENDBRANCH   1  18
BRANCH   5  21
HETATM   21  C4  UNL     1      47.598   8.176  51.897  1.00  0.00     0.170 C 
BRANCH  21  22
HETATM   22  N3  UNL     1      46.356   7.675  51.324  1.00  0.00    -0.347 N 
HETATM   23  C5  UNL     1      46.233   6.752  50.327  1.00  0.00     0.109 A 
HETATM   24  C6  UNL     1      44.910   6.535  50.057  1.00  0.00     0.111 A 
HETATM   25  N4  UNL     1      44.213   7.318  50.882  1.00  0.00    -0.330 N 
HETATM   26  C8  UNL     1      45.092   8.005  51.645  1.00  0.00     0.187 A 
BRANCH  25  27
HETATM   27  C7  UNL     1      42.768   7.425  50.959  1.00  0.00     0.295 C 
BRANCH  27  28
HETATM   28  O1  UNL     1      42.414   7.274  52.300  1.00  0.00    -0.382 OA
ATOM     29  H1  UNL     1      41.827   6.529  52.353  1.00  0.00     0.211 HD
ENDBRANCH  27  28
ENDBRANCH  25  27
ENDBRANCH  21  22
ENDBRANCH   5  21
TORSDOF 9
ENDMDL
