MODEL 1
REMARK VINA RESULT: -8.997105888      0.000      0.000
REMARK  7 active torsions:
REMARK  status: ('A' for Active; 'I' for Inactive)
REMARK    1  A    between atoms: C3_3  and  C5_5 
REMARK    2  A    between atoms: C5_5  and  C6_6 
REMARK    3  A    between atoms: C6_6  and  C7_7 
REMARK    4  A    between atoms: C7_7  and  C8_8 
REMARK    5  A    between atoms: C10_10  and  C11_11 
REMARK    6  A    between atoms: C11_11  and  C12_12 
REMARK    7  A    between atoms: C12_12  and  C13_13 
ROOT
HETATM    1  C11 UNL     1      22.245  45.578  61.399  1.00  0.00     0.033 C 
ENDROOT
BRANCH   1   2
HETATM    2  C10 UNL     1      23.678  45.429  61.744  1.00  0.00    -0.024 C 
HETATM    3  C8  UNL     1      24.647  45.345  60.825  1.00  0.00    -0.087 C 
HETATM    4  C9  UNL     1      24.216  45.337  59.420  1.00  0.00     0.043 C 
BRANCH   3   5
HETATM    5  C7  UNL     1      26.026  45.200  61.241  1.00  0.00     0.034 C 
BRANCH   5   6
HETATM    6  C6  UNL     1      26.338  45.811  62.565  1.00  0.00     0.009 C 
BRANCH   6   7
HETATM    7  C5  UNL     1      27.054  47.120  62.576  1.00  0.00     0.034 C 
BRANCH   7   8
HETATM    8  C3  UNL     1      26.059  48.118  63.157  1.00  0.00    -0.088 C 
HETATM    9  C2  UNL     1      26.468  48.778  64.230  1.00  0.00    -0.029 C 
HETATM   10  C1  UNL     1      25.573  49.784  64.884  1.00  0.00     0.036 C 
HETATM   11  C4  UNL     1      24.731  48.343  62.576  1.00  0.00     0.043 C 
ENDBRANCH   7   8
ENDBRANCH   6   7
ENDBRANCH   5   6
ENDBRANCH   3   5
ENDBRANCH   1   2
BRANCH   1  12
HETATM   12  C12 UNL     1      21.452  45.689  62.704  1.00  0.00     0.075 C 
BRANCH  12  13
HETATM   13  C13 UNL     1      20.847  47.075  62.743  1.00  0.00     0.196 C 
HETATM   14  C14 UNL     1      21.757  47.964  63.541  1.00  0.00     0.082 C 
HETATM   15  O1  UNL     1      20.675  47.502  61.435  1.00  0.00    -0.200 OA
HETATM   16  O2  UNL     1      20.295  48.737  61.333  1.00  0.00    -0.227 OA
HETATM   17  C15 UNL     1      19.372  49.137  62.265  1.00  0.00     0.217 C 
HETATM   18  C16 UNL     1      18.164  49.694  61.506  1.00  0.00     0.066 C 
HETATM   19  C18 UNL     1      18.762  48.027  63.057  1.00  0.00     0.295 C 
HETATM   20  C17 UNL     1      17.037  48.836  62.044  1.00  0.00     0.174 C 
HETATM   21  O3  UNL     1      17.699  47.618  62.249  1.00  0.00    -0.358 OA
HETATM   22  O4  UNL     1      19.620  46.996  63.352  1.00  0.00    -0.320 OA
ENDBRANCH  12  13
ENDBRANCH   1  12
TORSDOF 7
ENDMDL
MODEL 2
REMARK VINA RESULT: -8.954662181      0.985      3.632
REMARK  7 active torsions:
REMARK  status: ('A' for Active; 'I' for Inactive)
REMARK    1  A    between atoms: C3_3  and  C5_5 
REMARK    2  A    between atoms: C5_5  and  C6_6 
REMARK    3  A    between atoms: C6_6  and  C7_7 
REMARK    4  A    between atoms: C7_7  and  C8_8 
REMARK    5  A    between atoms: C10_10  and  C11_11 
REMARK    6  A    between atoms: C11_11  and  C12_12 
REMARK    7  A    between atoms: C12_12  and  C13_13 
ROOT
HETATM    1  C11 UNL     1      23.278  49.230  63.321  1.00  0.00     0.033 C 
ENDROOT
BRANCH   1   2
HETATM    2  C10 UNL     1      24.497  48.445  63.016  1.00  0.00    -0.024 C 
HETATM    3  C8  UNL     1      25.654  48.605  63.669  1.00  0.00    -0.087 C 
HETATM    4  C9  UNL     1      25.689  49.668  64.684  1.00  0.00     0.043 C 
BRANCH   3   5
HETATM    5  C7  UNL     1      26.802  47.800  63.312  1.00  0.00     0.034 C 
BRANCH   5   6
HETATM    6  C6  UNL     1      26.660  47.060  62.025  1.00  0.00     0.009 C 
BRANCH   6   7
HETATM    7  C5  UNL     1      26.300  45.614  62.088  1.00  0.00     0.034 C 
BRANCH   7   8
HETATM    8  C3  UNL     1      25.716  45.285  60.719  1.00  0.00    -0.088 C 
HETATM    9  C2  UNL     1      24.438  45.593  60.552  1.00  0.00    -0.029 C 
HETATM   10  C1  UNL     1      23.760  45.315  59.247  1.00  0.00     0.036 C 
HETATM   11  C4  UNL     1      26.505  44.670  59.647  1.00  0.00     0.043 C 
ENDBRANCH   7   8
ENDBRANCH   6   7
ENDBRANCH   5   6
ENDBRANCH   3   5
ENDBRANCH   1   2
BRANCH   1  12
HETATM   12  C12 UNL     1      22.375  48.376  64.215  1.00  0.00     0.075 C 
BRANCH  12  13
HETATM   13  C13 UNL     1      21.230  47.886  63.357  1.00  0.00     0.196 C 
HETATM   14  C14 UNL     1      21.625  46.572  62.748  1.00  0.00     0.082 C 
HETATM   15  O1  UNL     1      20.102  47.801  64.159  1.00  0.00    -0.200 OA
HETATM   16  O2  UNL     1      19.083  47.256  63.573  1.00  0.00    -0.227 OA
HETATM   17  C15 UNL     1      18.911  47.614  62.260  1.00  0.00     0.217 C 
HETATM   18  C16 UNL     1      17.492  48.174  62.117  1.00  0.00     0.066 C 
HETATM   19  C18 UNL     1      19.750  48.765  61.811  1.00  0.00     0.295 C 
HETATM   20  C17 UNL     1      17.758  49.552  61.545  1.00  0.00     0.174 C 
HETATM   21  O3  UNL     1      18.974  49.871  62.164  1.00  0.00    -0.358 OA
HETATM   22  O4  UNL     1      21.005  48.809  62.366  1.00  0.00    -0.320 OA
ENDBRANCH  12  13
ENDBRANCH   1  12
TORSDOF 7
ENDMDL
MODEL 3
REMARK VINA RESULT: -8.929925143      2.325      5.828
REMARK  7 active torsions:
REMARK  status: ('A' for Active; 'I' for Inactive)
REMARK    1  A    between atoms: C3_3  and  C5_5 
REMARK    2  A    between atoms: C5_5  and  C6_6 
REMARK    3  A    between atoms: C6_6  and  C7_7 
REMARK    4  A    between atoms: C7_7  and  C8_8 
REMARK    5  A    between atoms: C10_10  and  C11_11 
REMARK    6  A    between atoms: C11_11  and  C12_12 
REMARK    7  A    between atoms: C12_12  and  C13_13 
ROOT
HETATM    1  C11 UNL     1      25.124  47.065  62.365  1.00  0.00     0.033 C 
ENDROOT
BRANCH   1   2
HETATM    2  C10 UNL     1      23.909  47.708  62.916  1.00  0.00    -0.024 C 
HETATM    3  C8  UNL     1      23.948  48.770  63.731  1.00  0.00    -0.087 C 
HETATM    4  C9  UNL     1      25.284  49.243  64.122  1.00  0.00     0.043 C 
BRANCH   3   5
HETATM    5  C7  UNL     1      22.717  49.342  64.230  1.00  0.00     0.034 C 
BRANCH   5   6
HETATM    6  C6  UNL     1      21.484  48.613  63.815  1.00  0.00     0.009 C 
BRANCH   6   7
HETATM    7  C5  UNL     1      20.208  49.383  63.747  1.00  0.00     0.034 C 
BRANCH   7   8
HETATM    8  C3  UNL     1      19.522  48.912  62.470  1.00  0.00    -0.088 C 
HETATM    9  C2  UNL     1      18.201  48.838  62.522  1.00  0.00    -0.029 C 
HETATM   10  C1  UNL     1      17.423  48.389  61.325  1.00  0.00     0.036 C 
HETATM   11  C4  UNL     1      20.264  48.562  61.254  1.00  0.00     0.043 C 
ENDBRANCH   7   8
ENDBRANCH   6   7
ENDBRANCH   5   6
ENDBRANCH   3   5
ENDBRANCH   1   2
BRANCH   1  12
HETATM   12  C12 UNL     1      24.709  45.735  61.728  1.00  0.00     0.075 C 
BRANCH  12  13
HETATM   13  C13 UNL     1      24.302  46.030  60.302  1.00  0.00     0.196 C 
HETATM   14  C14 UNL     1      24.978  45.035  59.403  1.00  0.00     0.082 C 
HETATM   15  O1  UNL     1      22.918  45.976  60.234  1.00  0.00    -0.200 OA
HETATM   16  O2  UNL     1      22.449  46.071  59.030  1.00  0.00    -0.227 OA
HETATM   17  C15 UNL     1      23.096  46.975  58.227  1.00  0.00     0.217 C 
HETATM   18  C16 UNL     1      22.044  47.955  57.697  1.00  0.00     0.066 C 
HETATM   19  C18 UNL     1      24.041  47.884  58.942  1.00  0.00     0.295 C 
HETATM   20  C17 UNL     1      22.604  49.287  58.154  1.00  0.00     0.174 C 
HETATM   21  O3  UNL     1      23.211  48.925  59.364  1.00  0.00    -0.358 OA
HETATM   22  O4  UNL     1      24.717  47.299  59.986  1.00  0.00    -0.320 OA
ENDBRANCH  12  13
ENDBRANCH   1  12
TORSDOF 7
ENDMDL
MODEL 4
REMARK VINA RESULT: -8.898517122      1.353      2.935
REMARK  7 active torsions:
REMARK  status: ('A' for Active; 'I' for Inactive)
REMARK    1  A    between atoms: C3_3  and  C5_5 
REMARK    2  A    between atoms: C5_5  and  C6_6 
REMARK    3  A    between atoms: C6_6  and  C7_7 
REMARK    4  A    between atoms: C7_7  and  C8_8 
REMARK    5  A    between atoms: C10_10  and  C11_11 
REMARK    6  A    between atoms: C11_11  and  C12_12 
REMARK    7  A    between atoms: C12_12  and  C13_13 
ROOT
HETATM    1  C11 UNL     1      23.085  46.041  63.019  1.00  0.00     0.033 C 
ENDROOT
BRANCH   1   2
HETATM    2  C10 UNL     1      24.036  45.385  62.092  1.00  0.00    -0.024 C 
HETATM    3  C8  UNL     1      25.243  45.886  61.806  1.00  0.00    -0.087 C 
HETATM    4  C9  UNL     1      25.572  47.184  62.412  1.00  0.00     0.043 C 
BRANCH   3   5
HETATM    5  C7  UNL     1      26.116  45.186  60.888  1.00  0.00     0.034 C 
BRANCH   5   6
HETATM    6  C6  UNL     1      25.591  45.079  59.497  1.00  0.00     0.009 C 
BRANCH   6   7
HETATM    7  C5  UNL     1      25.608  46.308  58.650  1.00  0.00     0.034 C 
BRANCH   7   8
HETATM    8  C3  UNL     1      24.161  46.783  58.602  1.00  0.00    -0.088 C 
HETATM    9  C2  UNL     1      23.988  48.096  58.577  1.00  0.00    -0.029 C 
HETATM   10  C1  UNL     1      22.609  48.675  58.529  1.00  0.00     0.036 C 
HETATM   11  C4  UNL     1      23.023  45.858  58.582  1.00  0.00     0.043 C 
ENDBRANCH   7   8
ENDBRANCH   6   7
ENDBRANCH   5   6
ENDBRANCH   3   5
ENDBRANCH   1   2
BRANCH   1  12
HETATM   12  C12 UNL     1      21.673  45.866  62.454  1.00  0.00     0.075 C 
BRANCH  12  13
HETATM   13  C13 UNL     1      21.004  47.222  62.491  1.00  0.00     0.196 C 
HETATM   14  C14 UNL     1      21.968  48.207  63.088  1.00  0.00     0.082 C 
HETATM   15  O1  UNL     1      20.623  47.545  61.198  1.00  0.00    -0.200 OA
HETATM   16  O2  UNL     1      20.165  48.751  61.073  1.00  0.00    -0.227 OA
HETATM   17  C15 UNL     1      19.364  49.175  62.102  1.00  0.00     0.217 C 
HETATM   18  C16 UNL     1      18.030  49.620  61.494  1.00  0.00     0.066 C 
HETATM   19  C18 UNL     1      18.936  48.099  63.046  1.00  0.00     0.295 C 
HETATM   20  C17 UNL     1      17.041  48.753  62.247  1.00  0.00     0.174 C 
HETATM   21  O3  UNL     1      17.793  47.584  62.432  1.00  0.00    -0.358 OA
HETATM   22  O4  UNL     1      19.884  47.132  63.279  1.00  0.00    -0.320 OA
ENDBRANCH  12  13
ENDBRANCH   1  12
TORSDOF 7
ENDMDL
MODEL 5
REMARK VINA RESULT: -8.742869976      2.648      6.669
REMARK  7 active torsions:
REMARK  status: ('A' for Active; 'I' for Inactive)
REMARK    1  A    between atoms: C3_3  and  C5_5 
REMARK    2  A    between atoms: C5_5  and  C6_6 
REMARK    3  A    between atoms: C6_6  and  C7_7 
REMARK    4  A    between atoms: C7_7  and  C8_8 
REMARK    5  A    between atoms: C10_10  and  C11_11 
REMARK    6  A    between atoms: C11_11  and  C12_12 
REMARK    7  A    between atoms: C12_12  and  C13_13 
ROOT
HETATM    1  C11 UNL     1      23.382  45.918  62.364  1.00  0.00     0.033 C 
ENDROOT
BRANCH   1   2
HETATM    2  C10 UNL     1      22.598  46.923  63.119  1.00  0.00    -0.024 C 
HETATM    3  C8  UNL     1      23.082  48.124  63.460  1.00  0.00    -0.087 C 
HETATM    4  C9  UNL     1      24.483  48.388  63.106  1.00  0.00     0.043 C 
BRANCH   3   5
HETATM    5  C7  UNL     1      22.253  49.052  64.199  1.00  0.00     0.034 C 
BRANCH   5   6
HETATM    6  C6  UNL     1      20.803  48.705  64.219  1.00  0.00     0.009 C 
BRANCH   6   7
HETATM    7  C5  UNL     1      19.838  49.714  63.695  1.00  0.00     0.034 C 
BRANCH   7   8
HETATM    8  C3  UNL     1      19.232  49.081  62.448  1.00  0.00    -0.088 C 
HETATM    9  C2  UNL     1      17.918  48.914  62.470  1.00  0.00    -0.029 C 
HETATM   10  C1  UNL     1      17.216  48.302  61.298  1.00  0.00     0.036 C 
HETATM   11  C4  UNL     1      20.039  48.679  61.291  1.00  0.00     0.043 C 
ENDBRANCH   7   8
ENDBRANCH   6   7
ENDBRANCH   5   6
ENDBRANCH   3   5
ENDBRANCH   1   2
BRANCH   1  12
HETATM   12  C12 UNL     1      22.626  45.599  61.072  1.00  0.00     0.075 C 
BRANCH  12  13
HETATM   13  C13 UNL     1      23.574  45.861  59.923  1.00  0.00     0.196 C 
HETATM   14  C14 UNL     1      22.937  45.354  58.661  1.00  0.00     0.082 C 
HETATM   15  O1  UNL     1      23.841  47.222  59.892  1.00  0.00    -0.200 OA
HETATM   16  O2  UNL     1      24.532  47.596  58.862  1.00  0.00    -0.227 OA
HETATM   17  C15 UNL     1      25.535  46.737  58.494  1.00  0.00     0.217 C 
HETATM   18  C16 UNL     1      26.841  47.537  58.472  1.00  0.00     0.066 C 
HETATM   19  C18 UNL     1      25.838  45.667  59.491  1.00  0.00     0.295 C 
HETATM   20  C17 UNL     1      27.707  46.744  59.430  1.00  0.00     0.174 C 
HETATM   21  O3  UNL     1      26.750  46.289  60.347  1.00  0.00    -0.358 OA
HETATM   22  O4  UNL     1      24.742  45.181  60.160  1.00  0.00    -0.320 OA
ENDBRANCH  12  13
ENDBRANCH   1  12
TORSDOF 7
ENDMDL
