MODEL 1
REMARK VINA RESULT: -8.324886702      0.000      0.000
REMARK  7 active torsions:
REMARK  status: ('A' for Active; 'I' for Inactive)
REMARK    1  A    between atoms: C2_2  and  C3_3 
REMARK    2  A    between atoms: C3_3  and  S1_4 
REMARK    3  A    between atoms: S1_4  and  C4_5 
REMARK    4  A    between atoms: C4_5  and  C5_6 
REMARK    5  A    between atoms: C6_11  and  C7_12 
REMARK    6  A    between atoms: C7_12  and  C9_14 
REMARK    7  A    between atoms: N3_16  and  C11_17 
ROOT
HETATM    1  C5  UNL     1      21.854  47.872  63.033  1.00  0.00     0.113 A 
HETATM    2  N1  UNL     1      21.821  48.620  64.181  1.00  0.00    -0.286 N 
ATOM      3  H1  UNL     1      20.993  48.793  64.751  1.00  0.00     0.188 HD
HETATM    4  N2  UNL     1      22.997  49.067  64.421  1.00  0.00    -0.287 N 
ATOM      5  H2  UNL     1      23.272  49.655  65.208  1.00  0.00     0.188 HD
HETATM    6  C6  UNL     1      23.801  48.618  63.444  1.00  0.00     0.107 A 
HETATM    7  N3  UNL     1      23.100  47.851  62.541  1.00  0.00    -0.294 N 
ENDROOT
BRANCH   7   8
HETATM    8  C11 UNL     1      23.665  47.199  61.431  1.00  0.00     0.002 C 
HETATM    9  C12 UNL     1      23.636  45.693  61.381  1.00  0.00     0.058 C 
HETATM   10  C13 UNL     1      24.293  45.352  60.031  1.00  0.00    -0.009 C 
HETATM   11  C14 UNL     1      25.375  46.333  59.675  1.00  0.00     0.005 C 
HETATM   12  C18 UNL     1      23.141  45.469  59.014  1.00  0.00     0.005 C 
HETATM   13  C15 UNL     1      24.804  47.710  59.303  1.00  0.00     0.011 C 
HETATM   14  C16 UNL     1      23.446  47.758  60.055  1.00  0.00     0.032 C 
HETATM   15  C17 UNL     1      22.593  46.848  59.170  1.00  0.00     0.011 C 
ENDBRANCH   7   8
BRANCH   1  16
HETATM   16  C4  UNL     1      20.651  47.213  62.570  1.00  0.00     0.152 C 
BRANCH  16  17
HETATM   17  S1  UNL     1      19.491  48.368  61.800  1.00  0.00    -0.158 SA
BRANCH  17  18
HETATM   18  C3  UNL     1      17.793  47.995  62.206  1.00  0.00     0.100 C 
BRANCH  18  19
HETATM   19  C2  UNL     1      16.907  49.033  61.552  1.00  0.00    -0.027 C 
HETATM   20  C1  UNL     1      17.268  50.320  61.539  1.00  0.00     0.007 C 
ENDBRANCH  18  19
ENDBRANCH  17  18
ENDBRANCH  16  17
ENDBRANCH   1  16
BRANCH   6  21
HETATM   21  C7  UNL     1      25.243  48.976  63.433  1.00  0.00     0.051 C 
HETATM   22  C8  UNL     1      25.508  49.799  64.712  1.00  0.00     0.018 C 
BRANCH  21  23
HETATM   23  C9  UNL     1      26.123  47.747  63.575  1.00  0.00     0.007 C 
HETATM   24  C10 UNL     1      27.120  47.589  62.478  1.00  0.00     0.006 C 
ENDBRANCH  21  23
ENDBRANCH   6  21
TORSDOF 7
ENDMDL
MODEL 2
REMARK VINA RESULT: -7.561761267      0.542      1.520
REMARK  7 active torsions:
REMARK  status: ('A' for Active; 'I' for Inactive)
REMARK    1  A    between atoms: C2_2  and  C3_3 
REMARK    2  A    between atoms: C3_3  and  S1_4 
REMARK    3  A    between atoms: S1_4  and  C4_5 
REMARK    4  A    between atoms: C4_5  and  C5_6 
REMARK    5  A    between atoms: C6_11  and  C7_12 
REMARK    6  A    between atoms: C7_12  and  C9_14 
REMARK    7  A    between atoms: N3_16  and  C11_17 
ROOT
HETATM    1  C5  UNL     1      21.422  47.873  63.161  1.00  0.00     0.113 A 
HETATM    2  N1  UNL     1      21.562  48.458  64.393  1.00  0.00    -0.286 N 
ATOM      3  H1  UNL     1      20.820  48.570  65.083  1.00  0.00     0.188 HD
HETATM    4  N2  UNL     1      22.776  48.843  64.535  1.00  0.00    -0.287 N 
ATOM      5  H2  UNL     1      23.170  49.312  65.350  1.00  0.00     0.188 HD
HETATM    6  C6  UNL     1      23.432  48.513  63.411  1.00  0.00     0.107 A 
HETATM    7  N3  UNL     1      22.594  47.891  62.514  1.00  0.00    -0.294 N 
ENDROOT
BRANCH   7   8
HETATM    8  C11 UNL     1      22.988  47.383  61.264  1.00  0.00     0.002 C 
HETATM    9  C12 UNL     1      23.943  48.189  60.421  1.00  0.00     0.058 C 
HETATM   10  C13 UNL     1      24.168  47.315  59.174  1.00  0.00    -0.009 C 
HETATM   11  C14 UNL     1      22.933  46.543  58.804  1.00  0.00     0.005 C 
HETATM   12  C18 UNL     1      25.277  46.333  59.600  1.00  0.00     0.005 C 
HETATM   13  C15 UNL     1      22.633  45.422  59.810  1.00  0.00     0.011 C 
HETATM   14  C16 UNL     1      23.296  45.920  61.123  1.00  0.00     0.032 C 
HETATM   15  C17 UNL     1      24.771  45.647  60.824  1.00  0.00     0.011 C 
ENDBRANCH   7   8
BRANCH   1  16
HETATM   16  C4  UNL     1      20.145  47.309  62.776  1.00  0.00     0.152 C 
BRANCH  16  17
HETATM   17  S1  UNL     1      19.202  48.420  61.705  1.00  0.00    -0.158 SA
BRANCH  17  18
HETATM   18  C3  UNL     1      17.464  48.012  61.666  1.00  0.00     0.100 C 
BRANCH  18  19
HETATM   19  C2  UNL     1      16.675  49.299  61.562  1.00  0.00    -0.027 C 
HETATM   20  C1  UNL     1      17.301  50.479  61.551  1.00  0.00     0.007 C 
ENDBRANCH  18  19
ENDBRANCH  17  18
ENDBRANCH  16  17
ENDBRANCH   1  16
BRANCH   6  21
HETATM   21  C7  UNL     1      24.874  48.837  63.260  1.00  0.00     0.051 C 
HETATM   22  C8  UNL     1      25.253  49.751  64.446  1.00  0.00     0.018 C 
BRANCH  21  23
HETATM   23  C9  UNL     1      25.744  47.603  63.430  1.00  0.00     0.007 C 
HETATM   24  C10 UNL     1      27.020  47.656  62.661  1.00  0.00     0.006 C 
ENDBRANCH  21  23
ENDBRANCH   6  21
TORSDOF 7
ENDMDL
MODEL 3
REMARK VINA RESULT: -7.505522530      0.751      1.020
REMARK  7 active torsions:
REMARK  status: ('A' for Active; 'I' for Inactive)
REMARK    1  A    between atoms: C2_2  and  C3_3 
REMARK    2  A    between atoms: C3_3  and  S1_4 
REMARK    3  A    between atoms: S1_4  and  C4_5 
REMARK    4  A    between atoms: C4_5  and  C5_6 
REMARK    5  A    between atoms: C6_11  and  C7_12 
REMARK    6  A    between atoms: C7_12  and  C9_14 
REMARK    7  A    between atoms: N3_16  and  C11_17 
ROOT
HETATM    1  C5  UNL     1      22.077  47.853  62.734  1.00  0.00     0.113 A 
HETATM    2  N1  UNL     1      22.055  48.554  63.912  1.00  0.00    -0.286 N 
ATOM      3  H1  UNL     1      21.223  48.756  64.465  1.00  0.00     0.188 HD
HETATM    4  N2  UNL     1      23.249  48.917  64.204  1.00  0.00    -0.287 N 
ATOM      5  H2  UNL     1      23.535  49.453  65.022  1.00  0.00     0.188 HD
HETATM    6  C6  UNL     1      24.053  48.458  63.231  1.00  0.00     0.107 A 
HETATM    7  N3  UNL     1      23.334  47.773  62.278  1.00  0.00    -0.294 N 
ENDROOT
BRANCH   7   8
HETATM    8  C11 UNL     1      23.891  47.132  61.157  1.00  0.00     0.002 C 
HETATM    9  C12 UNL     1      23.906  45.626  61.114  1.00  0.00     0.058 C 
HETATM   10  C13 UNL     1      24.540  45.298  59.750  1.00  0.00    -0.009 C 
HETATM   11  C14 UNL     1      25.584  46.309  59.364  1.00  0.00     0.005 C 
HETATM   12  C18 UNL     1      23.362  45.377  58.761  1.00  0.00     0.005 C 
HETATM   13  C15 UNL     1      24.964  47.666  59.000  1.00  0.00     0.011 C 
HETATM   14  C16 UNL     1      23.624  47.678  59.784  1.00  0.00     0.032 C 
HETATM   15  C17 UNL     1      22.777  46.739  58.923  1.00  0.00     0.011 C 
ENDBRANCH   7   8
BRANCH   1  16
HETATM   16  C4  UNL     1      20.851  47.291  62.211  1.00  0.00     0.152 C 
BRANCH  16  17
HETATM   17  S1  UNL     1      19.955  48.459  61.161  1.00  0.00    -0.158 SA
BRANCH  17  18
HETATM   18  C3  UNL     1      18.596  49.238  62.017  1.00  0.00     0.100 C 
BRANCH  18  19
HETATM   19  C2  UNL     1      18.165  48.333  63.150  1.00  0.00    -0.027 C 
HETATM   20  C1  UNL     1      18.522  48.607  64.408  1.00  0.00     0.007 C 
ENDBRANCH  18  19
ENDBRANCH  17  18
ENDBRANCH  16  17
ENDBRANCH   1  16
BRANCH   6  21
HETATM   21  C7  UNL     1      25.514  48.724  63.276  1.00  0.00     0.051 C 
HETATM   22  C8  UNL     1      25.803  49.400  64.634  1.00  0.00     0.018 C 
BRANCH  21  23
HETATM   23  C9  UNL     1      26.315  47.434  63.308  1.00  0.00     0.007 C 
HETATM   24  C10 UNL     1      27.399  47.373  62.287  1.00  0.00     0.006 C 
ENDBRANCH  21  23
ENDBRANCH   6  21
TORSDOF 7
ENDMDL
MODEL 4
REMARK VINA RESULT: -7.396561978      2.178      5.093
REMARK  7 active torsions:
REMARK  status: ('A' for Active; 'I' for Inactive)
REMARK    1  A    between atoms: C2_2  and  C3_3 
REMARK    2  A    between atoms: C3_3  and  S1_4 
REMARK    3  A    between atoms: S1_4  and  C4_5 
REMARK    4  A    between atoms: C4_5  and  C5_6 
REMARK    5  A    between atoms: C6_11  and  C7_12 
REMARK    6  A    between atoms: C7_12  and  C9_14 
REMARK    7  A    between atoms: N3_16  and  C11_17 
ROOT
HETATM    1  C5  UNL     1      22.474  46.182  61.816  1.00  0.00     0.113 A 
HETATM    2  N1  UNL     1      21.902  45.940  63.038  1.00  0.00    -0.286 N 
ATOM      3  H1  UNL     1      22.159  45.185  63.673  1.00  0.00     0.188 HD
HETATM    4  N2  UNL     1      20.992  46.816  63.252  1.00  0.00    -0.287 N 
ATOM      5  H2  UNL     1      20.399  46.883  64.079  1.00  0.00     0.188 HD
HETATM    6  C6  UNL     1      20.963  47.629  62.184  1.00  0.00     0.107 A 
HETATM    7  N3  UNL     1      21.899  47.251  61.249  1.00  0.00    -0.294 N 
ENDROOT
BRANCH   7   8
HETATM    8  C11 UNL     1      22.149  47.927  60.042  1.00  0.00     0.002 C 
HETATM    9  C12 UNL     1      22.872  49.249  60.086  1.00  0.00     0.058 C 
HETATM   10  C13 UNL     1      22.996  49.655  58.607  1.00  0.00    -0.009 C 
HETATM   11  C14 UNL     1      21.808  49.205  57.804  1.00  0.00     0.005 C 
HETATM   12  C18 UNL     1      24.255  48.913  58.119  1.00  0.00     0.005 C 
HETATM   13  C15 UNL     1      21.787  47.681  57.614  1.00  0.00     0.011 C 
HETATM   14  C16 UNL     1      22.586  47.148  58.835  1.00  0.00     0.032 C 
HETATM   15  C17 UNL     1      24.018  47.468  58.404  1.00  0.00     0.011 C 
ENDBRANCH   7   8
BRANCH   1  16
HETATM   16  C4  UNL     1      23.570  45.353  61.360  1.00  0.00     0.152 C 
BRANCH  16  17
HETATM   17  S1  UNL     1      25.132  45.782  62.163  1.00  0.00    -0.158 SA
BRANCH  17  18
HETATM   18  C3  UNL     1      25.537  47.511  61.983  1.00  0.00     0.100 C 
BRANCH  18  19
HETATM   19  C2  UNL     1      25.317  48.194  63.315  1.00  0.00    -0.027 C 
HETATM   20  C1  UNL     1      24.233  48.948  63.518  1.00  0.00     0.007 C 
ENDBRANCH  18  19
ENDBRANCH  17  18
ENDBRANCH  16  17
ENDBRANCH   1  16
BRANCH   6  21
HETATM   21  C7  UNL     1      19.996  48.755  62.123  1.00  0.00     0.051 C 
HETATM   22  C8  UNL     1      18.834  48.297  61.214  1.00  0.00     0.018 C 
BRANCH  21  23
HETATM   23  C9  UNL     1      19.351  49.012  63.474  1.00  0.00     0.007 C 
HETATM   24  C10 UNL     1      20.119  49.953  64.338  1.00  0.00     0.006 C 
ENDBRANCH  21  23
ENDBRANCH   6  21
TORSDOF 7
ENDMDL
MODEL 5
REMARK VINA RESULT: -7.369854346      2.581      4.842
REMARK  7 active torsions:
REMARK  status: ('A' for Active; 'I' for Inactive)
REMARK    1  A    between atoms: C2_2  and  C3_3 
REMARK    2  A    between atoms: C3_3  and  S1_4 
REMARK    3  A    between atoms: S1_4  and  C4_5 
REMARK    4  A    between atoms: C4_5  and  C5_6 
REMARK    5  A    between atoms: C6_11  and  C7_12 
REMARK    6  A    between atoms: C7_12  and  C9_14 
REMARK    7  A    between atoms: N3_16  and  C11_17 
ROOT
HETATM    1  C5  UNL     1      23.916  45.563  59.596  1.00  0.00     0.113 A 
HETATM    2  N1  UNL     1      25.106  44.959  59.287  1.00  0.00    -0.286 N 
ATOM      3  H1  UNL     1      25.323  44.494  58.406  1.00  0.00     0.188 HD
HETATM    4  N2  UNL     1      25.902  45.071  60.285  1.00  0.00    -0.287 N 
ATOM      5  H2  UNL     1      26.856  44.715  60.341  1.00  0.00     0.188 HD
HETATM    6  C6  UNL     1      25.246  45.744  61.243  1.00  0.00     0.107 A 
HETATM    7  N3  UNL     1      23.974  46.074  60.833  1.00  0.00    -0.294 N 
ENDROOT
BRANCH   7   8
HETATM    8  C11 UNL     1      23.053  46.820  61.589  1.00  0.00     0.002 C 
HETATM    9  C12 UNL     1      22.801  46.426  63.022  1.00  0.00     0.058 C 
HETATM   10  C13 UNL     1      21.790  47.472  63.524  1.00  0.00    -0.009 C 
HETATM   11  C14 UNL     1      20.846  47.901  62.436  1.00  0.00     0.005 C 
HETATM   12  C18 UNL     1      22.666  48.668  63.943  1.00  0.00     0.005 C 
HETATM   13  C15 UNL     1      21.546  48.761  61.373  1.00  0.00     0.011 C 
HETATM   14  C16 UNL     1      23.031  48.316  61.462  1.00  0.00     0.032 C 
HETATM   15  C17 UNL     1      23.471  49.030  62.741  1.00  0.00     0.011 C 
ENDBRANCH   7   8
BRANCH   1  16
HETATM   16  C4  UNL     1      22.860  45.615  58.608  1.00  0.00     0.152 C 
BRANCH  16  17
HETATM   17  S1  UNL     1      22.611  47.284  57.957  1.00  0.00    -0.158 SA
BRANCH  17  18
HETATM   18  C3  UNL     1      24.110  48.255  57.986  1.00  0.00     0.100 C 
BRANCH  18  19
HETATM   19  C2  UNL     1      23.758  49.686  57.646  1.00  0.00    -0.027 C 
HETATM   20  C1  UNL     1      22.619  50.227  58.088  1.00  0.00     0.007 C 
ENDBRANCH  18  19
ENDBRANCH  17  18
ENDBRANCH  16  17
ENDBRANCH   1  16
BRANCH   6  21
HETATM   21  C7  UNL     1      25.903  46.031  62.545  1.00  0.00     0.051 C 
HETATM   22  C8  UNL     1      26.872  44.862  62.822  1.00  0.00     0.018 C 
BRANCH  21  23
HETATM   23  C9  UNL     1      26.791  47.260  62.462  1.00  0.00     0.007 C 
HETATM   24  C10 UNL     1      26.648  48.186  63.621  1.00  0.00     0.006 C 
ENDBRANCH  21  23
ENDBRANCH   6  21
TORSDOF 7
ENDMDL
