MODEL 1
REMARK VINA RESULT: -8.898109351      0.000      0.000
REMARK  8 active torsions:
REMARK  status: ('A' for Active; 'I' for Inactive)
REMARK    1  A    between atoms: C2_2  and  C3_4 
REMARK    2  A    between atoms: C4_5  and  C5_6 
REMARK    3  A    between atoms: C7_8  and  C8_9 
REMARK    4  A    between atoms: C9_10  and  C10_11 
REMARK    5  A    between atoms: C10_11  and  C12_13 
REMARK    6  A    between atoms: C12_13  and  C13_14 
REMARK    7  A    between atoms: C13_14  and  C14_15 
REMARK    8  A    between atoms: C14_15  and  C15_17 
ROOT
HETATM    1  C10 UNL     1      25.492  48.559  63.638  1.00  0.00    -0.062 C 
HETATM    2  C11 UNL     1      25.814  49.492  64.735  1.00  0.00     0.048 C 
ENDROOT
BRANCH   1   3
HETATM    3  C9  UNL     1      26.449  47.946  62.991  1.00  0.00     0.007 C 
HETATM    4  C8  UNL     1      26.691  46.532  62.841  1.00  0.00     0.001 C 
BRANCH   4   5
HETATM    5  C7  UNL     1      26.665  45.848  61.584  1.00  0.00     0.007 C 
HETATM    6  C5  UNL     1      25.764  45.370  60.754  1.00  0.00    -0.062 C 
HETATM    7  C6  UNL     1      26.393  44.719  59.521  1.00  0.00     0.048 C 
BRANCH   6   8
HETATM    8  C4  UNL     1      24.344  45.400  60.890  1.00  0.00     0.010 C 
HETATM    9  C3  UNL     1      23.322  45.585  60.147  1.00  0.00     0.050 C 
BRANCH   9  10
HETATM   10  C2  UNL     1      23.012  45.859  58.799  1.00  0.00     0.145 C 
HETATM   11  C1  UNL     1      22.799  47.298  58.319  1.00  0.00     0.096 C 
HETATM   12  O1  UNL     1      22.881  45.026  57.896  1.00  0.00    -0.294 OA
ENDBRANCH   9  10
ENDBRANCH   6   8
ENDBRANCH   4   5
ENDBRANCH   1   3
BRANCH   1  13
HETATM   13  C12 UNL     1      24.070  48.368  63.314  1.00  0.00     0.011 C 
BRANCH  13  14
HETATM   14  C13 UNL     1      23.132  49.092  63.850  1.00  0.00     0.058 C 
BRANCH  14  15
HETATM   15  C14 UNL     1      21.750  48.778  64.083  1.00  0.00     0.205 C 
HETATM   16  O2  UNL     1      21.318  48.507  65.266  1.00  0.00    -0.285 OA
BRANCH  15  17
HETATM   17  C15 UNL     1      20.714  48.734  63.038  1.00  0.00     0.124 A 
HETATM   18  N1  UNL     1      19.538  49.313  62.963  1.00  0.00    -0.351 N 
HETATM   19  C16 UNL     1      18.769  49.138  61.936  1.00  0.00     0.012 A 
ATOM     20  H1  UNL     1      19.224  49.911  63.728  1.00  0.00     0.166 HD
HETATM   21  C17 UNL     1      17.407  49.797  61.827  1.00  0.00     0.068 C 
HETATM   22  C18 UNL     1      19.230  48.327  60.930  1.00  0.00     0.076 A 
HETATM   23  S1  UNL     1      20.757  47.865  61.539  1.00  0.00    -0.078 SA
ENDBRANCH  15  17
ENDBRANCH  14  15
ENDBRANCH  13  14
ENDBRANCH   1  13
TORSDOF 8
ENDMDL
MODEL 2
REMARK VINA RESULT: -8.749190029      2.172      5.828
REMARK  8 active torsions:
REMARK  status: ('A' for Active; 'I' for Inactive)
REMARK    1  A    between atoms: C2_2  and  C3_4 
REMARK    2  A    between atoms: C4_5  and  C5_6 
REMARK    3  A    between atoms: C7_8  and  C8_9 
REMARK    4  A    between atoms: C9_10  and  C10_11 
REMARK    5  A    between atoms: C10_11  and  C12_13 
REMARK    6  A    between atoms: C12_13  and  C13_14 
REMARK    7  A    between atoms: C13_14  and  C14_15 
REMARK    8  A    between atoms: C14_15  and  C15_17 
ROOT
HETATM    1  C10 UNL     1      25.879  45.615  61.497  1.00  0.00    -0.062 C 
HETATM    2  C11 UNL     1      26.762  44.743  60.699  1.00  0.00     0.048 C 
ENDROOT
BRANCH   1   3
HETATM    3  C9  UNL     1      26.325  46.188  62.585  1.00  0.00     0.007 C 
HETATM    4  C8  UNL     1      26.757  47.548  62.792  1.00  0.00     0.001 C 
BRANCH   4   5
HETATM    5  C7  UNL     1      26.113  48.461  63.686  1.00  0.00     0.007 C 
HETATM    6  C5  UNL     1      24.935  49.031  63.814  1.00  0.00    -0.062 C 
HETATM    7  C6  UNL     1      24.860  49.952  65.034  1.00  0.00     0.048 C 
BRANCH   6   8
HETATM    8  C4  UNL     1      23.792  48.880  62.973  1.00  0.00     0.010 C 
HETATM    9  C3  UNL     1      22.523  48.813  63.096  1.00  0.00     0.050 C 
BRANCH   9  10
HETATM   10  C2  UNL     1      21.541  48.847  64.108  1.00  0.00     0.145 C 
HETATM   11  C1  UNL     1      20.232  49.615  63.905  1.00  0.00     0.096 C 
HETATM   12  O1  UNL     1      21.611  48.298  65.212  1.00  0.00    -0.294 OA
ENDBRANCH   9  10
ENDBRANCH   6   8
ENDBRANCH   4   5
ENDBRANCH   1   3
BRANCH   1  13
HETATM   13  C12 UNL     1      24.499  45.795  61.019  1.00  0.00     0.011 C 
BRANCH  13  14
HETATM   14  C13 UNL     1      24.053  45.207  59.948  1.00  0.00     0.058 C 
BRANCH  14  15
HETATM   15  C14 UNL     1      23.465  45.773  58.766  1.00  0.00     0.205 C 
HETATM   16  O2  UNL     1      22.831  45.038  57.920  1.00  0.00    -0.285 OA
BRANCH  15  17
HETATM   17  C15 UNL     1      23.520  47.199  58.406  1.00  0.00     0.124 A 
HETATM   18  N1  UNL     1      24.453  47.903  57.807  1.00  0.00    -0.351 N 
HETATM   19  C16 UNL     1      24.297  49.169  57.582  1.00  0.00     0.012 A 
ATOM     20  H1  UNL     1      25.316  47.445  57.514  1.00  0.00     0.166 HD
HETATM   21  C17 UNL     1      25.360  50.001  56.892  1.00  0.00     0.068 C 
HETATM   22  C18 UNL     1      23.121  49.745  57.993  1.00  0.00     0.076 A 
HETATM   23  S1  UNL     1      22.311  48.409  58.683  1.00  0.00    -0.078 SA
ENDBRANCH  15  17
ENDBRANCH  14  15
ENDBRANCH  13  14
ENDBRANCH   1  13
TORSDOF 8
ENDMDL
MODEL 3
REMARK VINA RESULT: -8.734070344      2.564      7.148
REMARK  8 active torsions:
REMARK  status: ('A' for Active; 'I' for Inactive)
REMARK    1  A    between atoms: C2_2  and  C3_4 
REMARK    2  A    between atoms: C4_5  and  C5_6 
REMARK    3  A    between atoms: C7_8  and  C8_9 
REMARK    4  A    between atoms: C9_10  and  C10_11 
REMARK    5  A    between atoms: C10_11  and  C12_13 
REMARK    6  A    between atoms: C12_13  and  C13_14 
REMARK    7  A    between atoms: C13_14  and  C14_15 
REMARK    8  A    between atoms: C14_15  and  C15_17 
ROOT
HETATM    1  C10 UNL     1      22.293  48.060  62.569  1.00  0.00    -0.062 C 
HETATM    2  C11 UNL     1      23.529  48.598  63.167  1.00  0.00     0.048 C 
ENDROOT
BRANCH   1   3
HETATM    3  C9  UNL     1      21.591  48.784  61.738  1.00  0.00     0.007 C 
HETATM    4  C8  UNL     1      20.451  48.413  60.937  1.00  0.00     0.001 C 
BRANCH   4   5
HETATM    5  C7  UNL     1      19.150  48.989  61.086  1.00  0.00     0.007 C 
HETATM    6  C5  UNL     1      18.151  48.933  61.939  1.00  0.00    -0.062 C 
HETATM    7  C6  UNL     1      16.978  49.823  61.526  1.00  0.00     0.048 C 
BRANCH   6   8
HETATM    8  C4  UNL     1      18.067  48.165  63.139  1.00  0.00     0.010 C 
HETATM    9  C3  UNL     1      18.617  48.138  64.291  1.00  0.00     0.050 C 
BRANCH   9  10
HETATM   10  C2  UNL     1      19.601  48.833  65.026  1.00  0.00     0.145 C 
HETATM   11  C1  UNL     1      19.989  50.267  64.656  1.00  0.00     0.096 C 
HETATM   12  O1  UNL     1      20.231  48.398  65.995  1.00  0.00    -0.294 OA
ENDBRANCH   9  10
ENDBRANCH   6   8
ENDBRANCH   4   5
ENDBRANCH   1   3
BRANCH   1  13
HETATM   13  C12 UNL     1      21.897  46.696  62.958  1.00  0.00     0.011 C 
BRANCH  13  14
HETATM   14  C13 UNL     1      22.206  45.654  62.244  1.00  0.00     0.058 C 
BRANCH  14  15
HETATM   15  C14 UNL     1      23.021  45.556  61.066  1.00  0.00     0.205 C 
HETATM   16  O2  UNL     1      22.509  45.662  59.889  1.00  0.00    -0.285 OA
BRANCH  15  17
HETATM   17  C15 UNL     1      24.477  45.332  61.073  1.00  0.00     0.124 A 
HETATM   18  N1  UNL     1      25.322  45.176  62.066  1.00  0.00    -0.351 N 
HETATM   19  C16 UNL     1      26.584  44.988  61.849  1.00  0.00     0.012 A 
ATOM     20  H1  UNL     1      24.977  45.204  63.026  1.00  0.00     0.166 HD
HETATM   21  C17 UNL     1      27.578  44.805  62.980  1.00  0.00     0.068 C 
HETATM   22  C18 UNL     1      27.004  44.958  60.543  1.00  0.00     0.076 A 
HETATM   23  S1  UNL     1      25.536  45.206  59.707  1.00  0.00    -0.078 SA
ENDBRANCH  15  17
ENDBRANCH  14  15
ENDBRANCH  13  14
ENDBRANCH   1  13
TORSDOF 8
ENDMDL
MODEL 4
REMARK VINA RESULT: -8.731850756      2.935      6.853
REMARK  8 active torsions:
REMARK  status: ('A' for Active; 'I' for Inactive)
REMARK    1  A    between atoms: C2_2  and  C3_4 
REMARK    2  A    between atoms: C4_5  and  C5_6 
REMARK    3  A    between atoms: C7_8  and  C8_9 
REMARK    4  A    between atoms: C9_10  and  C10_11 
REMARK    5  A    between atoms: C10_11  and  C12_13 
REMARK    6  A    between atoms: C12_13  and  C13_14 
REMARK    7  A    between atoms: C13_14  and  C14_15 
REMARK    8  A    between atoms: C14_15  and  C15_17 
ROOT
HETATM    1  C10 UNL     1      22.338  48.133  62.931  1.00  0.00    -0.062 C 
HETATM    2  C11 UNL     1      22.131  46.681  63.094  1.00  0.00     0.048 C 
ENDROOT
BRANCH   1   3
HETATM    3  C9  UNL     1      21.691  48.792  62.006  1.00  0.00     0.007 C 
HETATM    4  C8  UNL     1      20.599  48.361  61.168  1.00  0.00     0.001 C 
BRANCH   4   5
HETATM    5  C7  UNL     1      19.295  48.947  61.194  1.00  0.00     0.007 C 
HETATM    6  C5  UNL     1      18.233  48.929  61.970  1.00  0.00    -0.062 C 
HETATM    7  C6  UNL     1      17.101  49.806  61.432  1.00  0.00     0.048 C 
BRANCH   6   8
HETATM    8  C4  UNL     1      18.052  48.211  63.189  1.00  0.00     0.010 C 
HETATM    9  C3  UNL     1      18.548  48.196  64.366  1.00  0.00     0.050 C 
BRANCH   9  10
HETATM   10  C2  UNL     1      19.535  48.863  65.122  1.00  0.00     0.145 C 
HETATM   11  C1  UNL     1      19.975  50.284  64.759  1.00  0.00     0.096 C 
HETATM   12  O1  UNL     1      20.129  48.411  66.106  1.00  0.00    -0.294 OA
ENDBRANCH   9  10
ENDBRANCH   6   8
ENDBRANCH   4   5
ENDBRANCH   1   3
BRANCH   1  13
HETATM   13  C12 UNL     1      23.297  48.782  63.840  1.00  0.00     0.011 C 
BRANCH  13  14
HETATM   14  C13 UNL     1      24.478  49.159  63.448  1.00  0.00     0.058 C 
BRANCH  14  15
HETATM   15  C14 UNL     1      25.702  48.412  63.370  1.00  0.00     0.205 C 
HETATM   16  O2  UNL     1      26.716  48.715  64.102  1.00  0.00    -0.285 OA
BRANCH  15  17
HETATM   17  C15 UNL     1      25.923  47.262  62.477  1.00  0.00     0.124 A 
HETATM   18  N1  UNL     1      25.266  46.853  61.416  1.00  0.00    -0.351 N 
HETATM   19  C16 UNL     1      25.636  45.797  60.765  1.00  0.00     0.012 A 
ATOM     20  H1  UNL     1      24.450  47.377  61.100  1.00  0.00     0.166 HD
HETATM   21  C17 UNL     1      24.893  45.307  59.537  1.00  0.00     0.068 C 
HETATM   22  C18 UNL     1      26.738  45.123  61.225  1.00  0.00     0.076 A 
HETATM   23  S1  UNL     1      27.173  46.066  62.580  1.00  0.00    -0.078 SA
ENDBRANCH  15  17
ENDBRANCH  14  15
ENDBRANCH  13  14
ENDBRANCH   1  13
TORSDOF 8
ENDMDL
MODEL 5
REMARK VINA RESULT: -8.580854962      2.498      5.746
REMARK  8 active torsions:
REMARK  status: ('A' for Active; 'I' for Inactive)
REMARK    1  A    between atoms: C2_2  and  C3_4 
REMARK    2  A    between atoms: C4_5  and  C5_6 
REMARK    3  A    between atoms: C7_8  and  C8_9 
REMARK    4  A    between atoms: C9_10  and  C10_11 
REMARK    5  A    between atoms: C10_11  and  C12_13 
REMARK    6  A    between atoms: C12_13  and  C13_14 
REMARK    7  A    between atoms: C13_14  and  C14_15 
REMARK    8  A    between atoms: C14_15  and  C15_17 
ROOT
HETATM    1  C10 UNL     1      25.368  45.511  61.418  1.00  0.00    -0.062 C 
HETATM    2  C11 UNL     1      23.902  45.346  61.406  1.00  0.00     0.048 C 
ENDROOT
BRANCH   1   3
HETATM    3  C9  UNL     1      25.960  46.079  62.436  1.00  0.00     0.007 C 
HETATM    4  C8  UNL     1      26.448  47.430  62.575  1.00  0.00     0.001 C 
BRANCH   4   5
HETATM    5  C7  UNL     1      25.943  48.365  63.532  1.00  0.00     0.007 C 
HETATM    6  C5  UNL     1      24.839  49.050  63.737  1.00  0.00    -0.062 C 
HETATM    7  C6  UNL     1      24.914  49.918  64.994  1.00  0.00     0.048 C 
BRANCH   6   8
HETATM    8  C4  UNL     1      23.653  49.057  62.944  1.00  0.00     0.010 C 
HETATM    9  C3  UNL     1      22.389  49.020  63.123  1.00  0.00     0.050 C 
BRANCH   9  10
HETATM   10  C2  UNL     1      21.458  48.952  64.180  1.00  0.00     0.145 C 
HETATM   11  C1  UNL     1      20.119  49.690  64.094  1.00  0.00     0.096 C 
HETATM   12  O1  UNL     1      21.598  48.330  65.238  1.00  0.00    -0.294 OA
ENDBRANCH   9  10
ENDBRANCH   6   8
ENDBRANCH   4   5
ENDBRANCH   1   3
BRANCH   1  13
HETATM   13  C12 UNL     1      26.110  45.021  60.245  1.00  0.00     0.011 C 
BRANCH  13  14
HETATM   14  C13 UNL     1      26.024  45.593  59.080  1.00  0.00     0.058 C 
BRANCH  14  15
HETATM   15  C14 UNL     1      25.863  46.981  58.748  1.00  0.00     0.205 C 
HETATM   16  O2  UNL     1      26.873  47.779  58.710  1.00  0.00    -0.285 OA
BRANCH  15  17
HETATM   17  C15 UNL     1      24.576  47.620  58.427  1.00  0.00     0.124 A 
HETATM   18  N1  UNL     1      24.272  48.874  58.184  1.00  0.00    -0.351 N 
HETATM   19  C16 UNL     1      23.055  49.229  57.918  1.00  0.00     0.012 A 
ATOM     20  H1  UNL     1      25.007  49.581  58.207  1.00  0.00     0.166 HD
HETATM   21  C17 UNL     1      22.681  50.671  57.634  1.00  0.00     0.068 C 
HETATM   22  C18 UNL     1      22.099  48.246  57.899  1.00  0.00     0.076 A 
HETATM   23  S1  UNL     1      23.026  46.861  58.270  1.00  0.00    -0.078 SA
ENDBRANCH  15  17
ENDBRANCH  14  15
ENDBRANCH  13  14
ENDBRANCH   1  13
TORSDOF 8
ENDMDL
