MODEL 1
REMARK VINA RESULT: -6.298537082      0.000      0.000
REMARK  18 active torsions:
REMARK  status: ('A' for Active; 'I' for Inactive)
REMARK    1  A    between atoms: C2_2  and  C3_3 
REMARK    2  A    between atoms: C2_2  and  C16_22 
REMARK    3  A    between atoms: C3_3  and  C4_4 
REMARK    4  A    between atoms: C4_4  and  C5_5 
REMARK    5  A    between atoms: C4_4  and  C6_8 
REMARK    6  A    between atoms: C5_5  and  O1_6 
REMARK    7  A    between atoms: C6_8  and  O2_9 
REMARK    8  A    between atoms: C6_8  and  C7_11 
REMARK    9  A    between atoms: C8_12  and  O3_13 
REMARK   10  A    between atoms: C16_22  and  C17_23 
REMARK   11  A    between atoms: C16_22  and  C19_27 
REMARK   12  A    between atoms: C17_23  and  C18_24 
REMARK   13  A    between atoms: C29_37  and  O6_38 
REMARK   14  A    between atoms: C30_40  and  O7_41 
REMARK   15  A    between atoms: C31_43  and  C32_44 
REMARK   16  A    between atoms: C32_44  and  O8_45 
REMARK   17  A    between atoms: C33_47  and  O9_48 
REMARK   18  A    between atoms: C34_50  and  O10_51 
ROOT
HETATM    1  C19 UNL     1       4.304  53.845 -50.118  1.00  0.00    -0.057 C 
HETATM    2  C20 UNL     1       3.050  53.887 -51.048  1.00  0.00     0.040 C 
HETATM    3  C21 UNL     1       2.732  52.532 -51.508  1.00  0.00    -0.009 C 
HETATM    4  C22 UNL     1       1.716  51.640 -50.986  1.00  0.00     0.011 C 
HETATM    5  C23 UNL     1       1.815  50.849 -49.801  1.00  0.00     0.012 C 
HETATM    6  C24 UNL     1       1.780  51.852 -48.638  1.00  0.00    -0.010 C 
HETATM    7  C25 UNL     1       0.461  52.585 -48.759  1.00  0.00     0.018 C 
HETATM    8  C26 UNL     1       2.990  52.577 -48.719  1.00  0.00     0.029 C 
HETATM    9  C27 UNL     1       4.113  52.486 -49.713  1.00  0.00     0.013 C 
HETATM   10  C28 UNL     1       3.967  51.871 -51.058  1.00  0.00     0.021 C 
HETATM   11  C29 UNL     1       4.932  51.421 -49.158  1.00  0.00     0.160 C 
HETATM   12  C30 UNL     1       4.144  50.164 -48.911  1.00  0.00     0.161 C 
HETATM   13  C31 UNL     1       2.753  49.953 -49.206  1.00  0.00     0.042 C 
HETATM   14  C33 UNL     1       1.927  49.650 -47.905  1.00  0.00     0.161 C 
HETATM   15  C34 UNL     1       1.633  50.993 -47.376  1.00  0.00     0.156 C 
ENDROOT
BRANCH   1  16
HETATM   16  C16 UNL     1       5.365  54.749 -50.516  1.00  0.00    -0.021 C 
BRANCH  16  17
HETATM   17  C2  UNL     1       6.009  55.541 -49.336  1.00  0.00    -0.054 C 
HETATM   18  C1  UNL     1       7.180  56.335 -49.667  1.00  0.00     0.049 C 
BRANCH  17  19
HETATM   19  C3  UNL     1       5.001  56.081 -48.429  1.00  0.00    -0.010 C 
BRANCH  19  20
HETATM   20  C4  UNL     1       4.417  55.273 -47.296  1.00  0.00     0.061 C 
BRANCH  20  21
HETATM   21  C5  UNL     1       5.424  54.447 -46.577  1.00  0.00     0.175 C 
BRANCH  21  22
HETATM   22  O1  UNL     1       4.903  53.375 -45.840  1.00  0.00    -0.400 OA
ATOM     23  H1  UNL     1       4.653  53.579 -44.947  1.00  0.00     0.209 HD
ENDBRANCH  21  22
ENDBRANCH  20  21
BRANCH  20  24
HETATM   24  C6  UNL     1       3.762  56.305 -46.396  1.00  0.00     0.135 C 
BRANCH  24  25
HETATM   25  O2  UNL     1       4.573  56.527 -45.260  1.00  0.00    -0.394 OA
ATOM     26  H2  UNL     1       4.536  57.445 -45.016  1.00  0.00     0.210 HD
ENDBRANCH  24  25
BRANCH  24  27
HETATM   27  C7  UNL     1       2.345  56.189 -46.047  1.00  0.00     0.052 C 
HETATM   28  C8  UNL     1       1.836  54.831 -45.687  1.00  0.00     0.125 C 
HETATM   29  C9  UNL     1       0.409  54.917 -45.101  1.00  0.00     0.032 C 
HETATM   30  C10 UNL     1      -0.446  55.263 -46.322  1.00  0.00     0.007 C 
HETATM   31  C11 UNL     1      -0.007  56.631 -46.715  1.00  0.00    -0.010 C 
HETATM   32  C12 UNL     1      -0.944  57.131 -47.777  1.00  0.00     0.011 C 
HETATM   33  C13 UNL     1       1.428  56.753 -47.133  1.00  0.00    -0.036 C 
HETATM   34  C14 UNL     1       1.576  56.118 -48.464  1.00  0.00     0.016 C 
HETATM   35  C15 UNL     1       1.624  58.264 -47.311  1.00  0.00     0.016 C 
BRANCH  28  36
HETATM   36  O3  UNL     1       2.524  54.111 -44.759  1.00  0.00    -0.395 OA
ATOM     37  H3  UNL     1       2.122  53.322 -44.415  1.00  0.00     0.210 HD
ENDBRANCH  28  36
ENDBRANCH  24  27
ENDBRANCH  20  24
ENDBRANCH  19  20
ENDBRANCH  17  19
ENDBRANCH  16  17
BRANCH  16  38
HETATM   38  C17 UNL     1       6.204  54.683 -51.713  1.00  0.00     0.096 C 
BRANCH  38  39
HETATM   39  C18 UNL     1       6.985  53.558 -52.139  1.00  0.00     0.199 C 
HETATM   40  O4  UNL     1       7.022  53.024 -53.308  1.00  0.00    -0.644 OA
HETATM   41  O5  UNL     1       7.843  52.883 -51.258  1.00  0.00    -0.644 OA
ENDBRANCH  38  39
ENDBRANCH  16  38
ENDBRANCH   1  16
BRANCH  11  42
HETATM   42  O6  UNL     1       5.984  50.960 -50.009  1.00  0.00    -0.392 OA
ATOM     43  H6  UNL     1       6.119  50.019 -50.009  1.00  0.00     0.210 HD
ENDBRANCH  11  42
BRANCH  12  44
HETATM   44  O7  UNL     1       4.417  49.904 -47.528  1.00  0.00    -0.392 OA
ATOM     45  H7  UNL     1       4.000  49.061 -47.397  1.00  0.00     0.210 HD
ENDBRANCH  12  44
BRANCH  15  46
HETATM   46  O10 UNL     1       2.380  51.454 -46.333  1.00  0.00    -0.392 OA
ATOM     47  H10 UNL     1       2.119  51.079 -45.499  1.00  0.00     0.210 HD
ENDBRANCH  15  46
BRANCH  13  48
HETATM   48  C32 UNL     1       2.572  48.559 -49.876  1.00  0.00     0.179 C 
BRANCH  48  49
HETATM   49  O8  UNL     1       3.731  47.809 -49.757  1.00  0.00    -0.400 OA
ATOM     50  H8  UNL     1       3.647  47.174 -49.056  1.00  0.00     0.209 HD
ENDBRANCH  48  49
ENDBRANCH  13  48
BRANCH  14  51
HETATM   51  O9  UNL     1       2.445  48.706 -47.114  1.00  0.00    -0.392 OA
ATOM     52  H9  UNL     1       2.190  48.764 -46.201  1.00  0.00     0.210 HD
ENDBRANCH  14  51
TORSDOF 18
ENDMDL
MODEL 2
REMARK VINA RESULT: -5.924717598      3.190      5.727
REMARK  18 active torsions:
REMARK  status: ('A' for Active; 'I' for Inactive)
REMARK    1  A    between atoms: C2_2  and  C3_3 
REMARK    2  A    between atoms: C2_2  and  C16_22 
REMARK    3  A    between atoms: C3_3  and  C4_4 
REMARK    4  A    between atoms: C4_4  and  C5_5 
REMARK    5  A    between atoms: C4_4  and  C6_8 
REMARK    6  A    between atoms: C5_5  and  O1_6 
REMARK    7  A    between atoms: C6_8  and  O2_9 
REMARK    8  A    between atoms: C6_8  and  C7_11 
REMARK    9  A    between atoms: C8_12  and  O3_13 
REMARK   10  A    between atoms: C16_22  and  C17_23 
REMARK   11  A    between atoms: C16_22  and  C19_27 
REMARK   12  A    between atoms: C17_23  and  C18_24 
REMARK   13  A    between atoms: C29_37  and  O6_38 
REMARK   14  A    between atoms: C30_40  and  O7_41 
REMARK   15  A    between atoms: C31_43  and  C32_44 
REMARK   16  A    between atoms: C32_44  and  O8_45 
REMARK   17  A    between atoms: C33_47  and  O9_48 
REMARK   18  A    between atoms: C34_50  and  O10_51 
ROOT
HETATM    1  C19 UNL     1       1.288  49.157 -51.939  1.00  0.00    -0.057 C 
HETATM    2  C20 UNL     1       1.405  49.195 -53.496  1.00  0.00     0.040 C 
HETATM    3  C21 UNL     1       2.765  48.826 -53.898  1.00  0.00    -0.009 C 
HETATM    4  C22 UNL     1       3.223  47.537 -54.377  1.00  0.00     0.011 C 
HETATM    5  C23 UNL     1       3.513  46.391 -53.575  1.00  0.00     0.012 C 
HETATM    6  C24 UNL     1       2.153  45.909 -53.049  1.00  0.00    -0.010 C 
HETATM    7  C25 UNL     1       1.323  45.585 -54.274  1.00  0.00     0.018 C 
HETATM    8  C26 UNL     1       1.712  46.906 -52.151  1.00  0.00     0.029 C 
HETATM    9  C27 UNL     1       2.346  48.211 -51.759  1.00  0.00     0.013 C 
HETATM   10  C28 UNL     1       3.392  48.888 -52.568  1.00  0.00     0.021 C 
HETATM   11  C29 UNL     1       3.237  47.810 -50.682  1.00  0.00     0.160 C 
HETATM   12  C30 UNL     1       4.167  46.702 -51.092  1.00  0.00     0.161 C 
HETATM   13  C31 UNL     1       4.253  46.092 -52.392  1.00  0.00     0.042 C 
HETATM   14  C33 UNL     1       3.909  44.562 -52.335  1.00  0.00     0.161 C 
HETATM   15  C34 UNL     1       2.438  44.547 -52.402  1.00  0.00     0.156 C 
ENDROOT
BRANCH   1  16
HETATM   16  C16 UNL     1       0.779  50.382 -51.354  1.00  0.00    -0.021 C 
BRANCH  16  17
HETATM   17  C2  UNL     1       1.734  51.039 -50.311  1.00  0.00    -0.054 C 
HETATM   18  C1  UNL     1       2.715  51.969 -50.843  1.00  0.00     0.049 C 
BRANCH  17  19
HETATM   19  C3  UNL     1       1.043  51.351 -49.063  1.00  0.00    -0.010 C 
BRANCH  19  20
HETATM   20  C4  UNL     1       1.627  51.021 -47.711  1.00  0.00     0.061 C 
BRANCH  20  21
HETATM   21  C5  UNL     1       2.163  49.636 -47.619  1.00  0.00     0.175 C 
BRANCH  21  22
HETATM   22  O1  UNL     1       2.357  49.155 -46.318  1.00  0.00    -0.400 OA
ATOM     23  H1  UNL     1       1.621  48.685 -45.944  1.00  0.00     0.209 HD
ENDBRANCH  21  22
ENDBRANCH  20  21
BRANCH  20  24
HETATM   24  C6  UNL     1       2.701  52.074 -47.498  1.00  0.00     0.135 C 
BRANCH  24  25
HETATM   25  O2  UNL     1       3.966  51.451 -47.414  1.00  0.00    -0.394 OA
ATOM     26  H2  UNL     1       4.446  51.803 -46.673  1.00  0.00     0.210 HD
ENDBRANCH  24  25
BRANCH  24  27
HETATM   27  C7  UNL     1       2.527  53.110 -46.479  1.00  0.00     0.052 C 
HETATM   28  C8  UNL     1       1.546  52.838 -45.384  1.00  0.00     0.125 C 
HETATM   29  C9  UNL     1       1.667  53.894 -44.264  1.00  0.00     0.032 C 
HETATM   30  C10 UNL     1       1.082  55.152 -44.909  1.00  0.00     0.007 C 
HETATM   31  C11 UNL     1       2.038  55.498 -45.998  1.00  0.00    -0.010 C 
HETATM   32  C12 UNL     1       1.650  56.841 -46.547  1.00  0.00     0.011 C 
HETATM   33  C13 UNL     1       2.181  54.471 -47.082  1.00  0.00    -0.036 C 
HETATM   34  C14 UNL     1       0.946  54.493 -47.902  1.00  0.00     0.016 C 
HETATM   35  C15 UNL     1       3.325  55.015 -47.946  1.00  0.00     0.016 C 
BRANCH  28  36
HETATM   36  O3  UNL     1       1.633  51.652 -44.721  1.00  0.00    -0.395 OA
ATOM     37  H3  UNL     1       1.125  51.544 -43.926  1.00  0.00     0.210 HD
ENDBRANCH  28  36
ENDBRANCH  24  27
ENDBRANCH  20  24
ENDBRANCH  19  20
ENDBRANCH  17  19
ENDBRANCH  16  17
BRANCH  16  38
HETATM   38  C17 UNL     1      -0.214  51.301 -51.910  1.00  0.00     0.096 C 
BRANCH  38  39
HETATM   39  C18 UNL     1      -1.634  51.099 -51.938  1.00  0.00     0.199 C 
HETATM   40  O4  UNL     1      -2.557  51.992 -51.882  1.00  0.00    -0.644 OA
HETATM   41  O5  UNL     1      -2.191  49.814 -52.035  1.00  0.00    -0.644 OA
ENDBRANCH  38  39
ENDBRANCH  16  38
ENDBRANCH   1  16
BRANCH  11  42
HETATM   42  O6  UNL     1       4.143  48.821 -50.238  1.00  0.00    -0.392 OA
ATOM     43  H6  UNL     1       4.869  48.509 -49.711  1.00  0.00     0.210 HD
ENDBRANCH  11  42
BRANCH  12  44
HETATM   44  O7  UNL     1       3.925  45.715 -50.082  1.00  0.00    -0.392 OA
ATOM     45  H7  UNL     1       3.898  44.912 -50.589  1.00  0.00     0.210 HD
ENDBRANCH  12  44
BRANCH  15  46
HETATM   46  O10 UNL     1       1.741  44.354 -51.247  1.00  0.00    -0.392 OA
ATOM     47  H10 UNL     1       1.909  45.027 -50.598  1.00  0.00     0.210 HD
ENDBRANCH  15  46
BRANCH  13  48
HETATM   48  C32 UNL     1       5.750  45.937 -52.792  1.00  0.00     0.179 C 
BRANCH  48  49
HETATM   49  O8  UNL     1       6.554  45.910 -51.664  1.00  0.00    -0.400 OA
ATOM     50  H8  UNL     1       7.452  46.123 -51.889  1.00  0.00     0.209 HD
ENDBRANCH  48  49
ENDBRANCH  13  48
BRANCH  14  51
HETATM   51  O9  UNL     1       4.553  43.873 -51.389  1.00  0.00    -0.392 OA
ATOM     52  H9  UNL     1       5.401  43.531 -51.647  1.00  0.00     0.210 HD
ENDBRANCH  14  51
TORSDOF 18
ENDMDL
MODEL 3
REMARK VINA RESULT: -5.853141423      3.210      8.527
REMARK  18 active torsions:
REMARK  status: ('A' for Active; 'I' for Inactive)
REMARK    1  A    between atoms: C2_2  and  C3_3 
REMARK    2  A    between atoms: C2_2  and  C16_22 
REMARK    3  A    between atoms: C3_3  and  C4_4 
REMARK    4  A    between atoms: C4_4  and  C5_5 
REMARK    5  A    between atoms: C4_4  and  C6_8 
REMARK    6  A    between atoms: C5_5  and  O1_6 
REMARK    7  A    between atoms: C6_8  and  O2_9 
REMARK    8  A    between atoms: C6_8  and  C7_11 
REMARK    9  A    between atoms: C8_12  and  O3_13 
REMARK   10  A    between atoms: C16_22  and  C17_23 
REMARK   11  A    between atoms: C16_22  and  C19_27 
REMARK   12  A    between atoms: C17_23  and  C18_24 
REMARK   13  A    between atoms: C29_37  and  O6_38 
REMARK   14  A    between atoms: C30_40  and  O7_41 
REMARK   15  A    between atoms: C31_43  and  C32_44 
REMARK   16  A    between atoms: C32_44  and  O8_45 
REMARK   17  A    between atoms: C33_47  and  O9_48 
REMARK   18  A    between atoms: C34_50  and  O10_51 
ROOT
HETATM    1  C19 UNL     1       2.395  50.887 -51.307  1.00  0.00    -0.057 C 
HETATM    2  C20 UNL     1       3.120  51.994 -52.138  1.00  0.00     0.040 C 
HETATM    3  C21 UNL     1       2.946  53.295 -51.485  1.00  0.00    -0.009 C 
HETATM    4  C22 UNL     1       3.893  53.989 -50.637  1.00  0.00     0.011 C 
HETATM    5  C23 UNL     1       4.154  53.714 -49.260  1.00  0.00     0.012 C 
HETATM    6  C24 UNL     1       4.870  52.355 -49.245  1.00  0.00    -0.010 C 
HETATM    7  C25 UNL     1       6.129  52.538 -50.066  1.00  0.00     0.018 C 
HETATM    8  C26 UNL     1       3.904  51.407 -49.651  1.00  0.00     0.029 C 
HETATM    9  C27 UNL     1       2.472  51.594 -50.066  1.00  0.00     0.013 C 
HETATM   10  C28 UNL     1       1.914  52.896 -50.515  1.00  0.00     0.021 C 
HETATM   11  C29 UNL     1       1.775  51.574 -48.790  1.00  0.00     0.160 C 
HETATM   12  C30 UNL     1       2.335  52.575 -47.817  1.00  0.00     0.161 C 
HETATM   13  C31 UNL     1       3.401  53.507 -48.065  1.00  0.00     0.042 C 
HETATM   14  C33 UNL     1       4.623  53.251 -47.113  1.00  0.00     0.161 C 
HETATM   15  C34 UNL     1       5.367  52.184 -47.804  1.00  0.00     0.156 C 
ENDROOT
BRANCH   1  16
HETATM   16  C16 UNL     1       1.463  50.087 -52.076  1.00  0.00    -0.021 C 
BRANCH  16  17
HETATM   17  C2  UNL     1       1.615  48.549 -51.870  1.00  0.00    -0.054 C 
HETATM   18  C1  UNL     1       0.969  47.707 -52.862  1.00  0.00     0.049 C 
BRANCH  17  19
HETATM   19  C3  UNL     1       2.941  48.196 -51.373  1.00  0.00    -0.010 C 
BRANCH  19  20
HETATM   20  C4  UNL     1       3.144  47.315 -50.165  1.00  0.00     0.061 C 
BRANCH  20  21
HETATM   21  C5  UNL     1       2.367  47.753 -48.975  1.00  0.00     0.175 C 
BRANCH  21  22
HETATM   22  O1  UNL     1       2.672  47.085 -47.782  1.00  0.00    -0.400 OA
ATOM     23  H1  UNL     1       2.434  47.546 -46.986  1.00  0.00     0.209 HD
ENDBRANCH  21  22
ENDBRANCH  20  21
BRANCH  20  24
HETATM   24  C6  UNL     1       2.746  45.928 -50.639  1.00  0.00     0.135 C 
BRANCH  24  25
HETATM   25  O2  UNL     1       1.560  45.524 -49.986  1.00  0.00    -0.394 OA
ATOM     26  H2  UNL     1       1.613  44.600 -49.770  1.00  0.00     0.210 HD
ENDBRANCH  24  25
BRANCH  24  27
HETATM   27  C7  UNL     1       3.738  44.853 -50.695  1.00  0.00     0.052 C 
HETATM   28  C8  UNL     1       4.576  44.630 -49.478  1.00  0.00     0.125 C 
HETATM   29  C9  UNL     1       5.379  43.315 -49.598  1.00  0.00     0.032 C 
HETATM   30  C10 UNL     1       6.435  43.650 -50.653  1.00  0.00     0.007 C 
HETATM   31  C11 UNL     1       5.662  43.855 -51.909  1.00  0.00    -0.010 C 
HETATM   32  C12 UNL     1       6.642  43.980 -53.041  1.00  0.00     0.011 C 
HETATM   33  C13 UNL     1       4.684  44.992 -51.887  1.00  0.00    -0.036 C 
HETATM   34  C14 UNL     1       5.451  46.260 -51.930  1.00  0.00     0.016 C 
HETATM   35  C15 UNL     1       3.939  44.852 -53.221  1.00  0.00     0.016 C 
BRANCH  28  36
HETATM   36  O3  UNL     1       3.947  44.516 -48.275  1.00  0.00    -0.395 OA
ATOM     37  H3  UNL     1       3.902  45.284 -47.718  1.00  0.00     0.210 HD
ENDBRANCH  28  36
ENDBRANCH  24  27
ENDBRANCH  20  24
ENDBRANCH  19  20
ENDBRANCH  17  19
ENDBRANCH  16  17
BRANCH  16  38
HETATM   38  C17 UNL     1       0.161  50.487 -52.613  1.00  0.00     0.096 C 
BRANCH  38  39
HETATM   39  C18 UNL     1      -1.024  50.755 -51.850  1.00  0.00     0.199 C 
HETATM   40  O4  UNL     1      -1.263  51.771 -51.099  1.00  0.00    -0.644 OA
HETATM   41  O5  UNL     1      -2.113  49.870 -51.847  1.00  0.00    -0.644 OA
ENDBRANCH  38  39
ENDBRANCH  16  38
ENDBRANCH   1  16
BRANCH  11  42
HETATM   42  O6  UNL     1       0.396  51.941 -48.848  1.00  0.00    -0.392 OA
ATOM     43  H6  UNL     1      -0.035  52.023 -48.005  1.00  0.00     0.210 HD
ENDBRANCH  11  42
BRANCH  12  44
HETATM   44  O7  UNL     1       2.627  51.758 -46.677  1.00  0.00    -0.392 OA
ATOM     45  H7  UNL     1       3.101  51.033 -47.068  1.00  0.00     0.210 HD
ENDBRANCH  12  44
BRANCH  15  46
HETATM   46  O10 UNL     1       5.236  50.906 -47.348  1.00  0.00    -0.392 OA
ATOM     47  H10 UNL     1       4.785  50.857 -46.513  1.00  0.00     0.210 HD
ENDBRANCH  15  46
BRANCH  13  48
HETATM   48  C32 UNL     1       3.009  54.904 -47.501  1.00  0.00     0.179 C 
BRANCH  48  49
HETATM   49  O8  UNL     1       2.008  54.781 -46.550  1.00  0.00    -0.400 OA
ATOM     50  H8  UNL     1       2.363  54.454 -45.732  1.00  0.00     0.209 HD
ENDBRANCH  48  49
ENDBRANCH  13  48
BRANCH  14  51
HETATM   51  O9  UNL     1       4.316  53.137 -45.818  1.00  0.00    -0.392 OA
ATOM     52  H9  UNL     1       4.489  52.284 -45.438  1.00  0.00     0.210 HD
ENDBRANCH  14  51
TORSDOF 18
ENDMDL
MODEL 4
REMARK VINA RESULT: -5.782009594      3.985      7.113
REMARK  18 active torsions:
REMARK  status: ('A' for Active; 'I' for Inactive)
REMARK    1  A    between atoms: C2_2  and  C3_3 
REMARK    2  A    between atoms: C2_2  and  C16_22 
REMARK    3  A    between atoms: C3_3  and  C4_4 
REMARK    4  A    between atoms: C4_4  and  C5_5 
REMARK    5  A    between atoms: C4_4  and  C6_8 
REMARK    6  A    between atoms: C5_5  and  O1_6 
REMARK    7  A    between atoms: C6_8  and  O2_9 
REMARK    8  A    between atoms: C6_8  and  C7_11 
REMARK    9  A    between atoms: C8_12  and  O3_13 
REMARK   10  A    between atoms: C16_22  and  C17_23 
REMARK   11  A    between atoms: C16_22  and  C19_27 
REMARK   12  A    between atoms: C17_23  and  C18_24 
REMARK   13  A    between atoms: C29_37  and  O6_38 
REMARK   14  A    between atoms: C30_40  and  O7_41 
REMARK   15  A    between atoms: C31_43  and  C32_44 
REMARK   16  A    between atoms: C32_44  and  O8_45 
REMARK   17  A    between atoms: C33_47  and  O9_48 
REMARK   18  A    between atoms: C34_50  and  O10_51 
ROOT
HETATM    1  C19 UNL     1       2.763  48.453 -51.252  1.00  0.00    -0.057 C 
HETATM    2  C20 UNL     1       3.750  47.660 -52.167  1.00  0.00     0.040 C 
HETATM    3  C21 UNL     1       4.510  46.702 -51.358  1.00  0.00    -0.009 C 
HETATM    4  C22 UNL     1       4.264  45.282 -51.212  1.00  0.00     0.011 C 
HETATM    5  C23 UNL     1       3.272  44.677 -50.381  1.00  0.00     0.012 C 
HETATM    6  C24 UNL     1       1.927  45.020 -51.040  1.00  0.00    -0.010 C 
HETATM    7  C25 UNL     1       1.982  44.428 -52.433  1.00  0.00     0.018 C 
HETATM    8  C26 UNL     1       1.765  46.415 -50.881  1.00  0.00     0.029 C 
HETATM    9  C27 UNL     1       2.673  47.433 -50.253  1.00  0.00     0.013 C 
HETATM   10  C28 UNL     1       4.125  47.208 -50.031  1.00  0.00     0.021 C 
HETATM   11  C29 UNL     1       2.302  47.355 -48.849  1.00  0.00     0.160 C 
HETATM   12  C30 UNL     1       2.386  45.952 -48.313  1.00  0.00     0.161 C 
HETATM   13  C31 UNL     1       2.817  44.784 -49.033  1.00  0.00     0.042 C 
HETATM   14  C33 UNL     1       1.674  43.713 -49.133  1.00  0.00     0.161 C 
HETATM   15  C34 UNL     1       0.892  44.167 -50.296  1.00  0.00     0.156 C 
ENDROOT
BRANCH   1  16
HETATM   16  C16 UNL     1       2.882  49.893 -51.364  1.00  0.00    -0.021 C 
BRANCH  16  17
HETATM   17  C2  UNL     1       2.013  50.522 -52.497  1.00  0.00    -0.054 C 
HETATM   18  C1  UNL     1       2.735  50.981 -53.671  1.00  0.00     0.049 C 
BRANCH  17  19
HETATM   19  C3  UNL     1       0.739  49.827 -52.655  1.00  0.00    -0.010 C 
BRANCH  19  20
HETATM   20  C4  UNL     1      -0.464  50.479 -53.290  1.00  0.00     0.061 C 
BRANCH  20  21
HETATM   21  C5  UNL     1      -1.049  49.685 -54.404  1.00  0.00     0.175 C 
BRANCH  21  22
HETATM   22  O1  UNL     1      -0.707  48.327 -54.415  1.00  0.00    -0.400 OA
ATOM     23  H1  UNL     1       0.133  48.122 -54.809  1.00  0.00     0.209 HD
ENDBRANCH  21  22
ENDBRANCH  20  21
BRANCH  20  24
HETATM   24  C6  UNL     1      -1.438  50.672 -52.141  1.00  0.00     0.135 C 
BRANCH  24  25
HETATM   25  O2  UNL     1      -2.353  49.595 -52.108  1.00  0.00    -0.394 OA
ATOM     26  H2  UNL     1      -3.242  49.932 -52.101  1.00  0.00     0.210 HD
ENDBRANCH  24  25
BRANCH  24  27
HETATM   27  C7  UNL     1      -2.098  51.963 -51.941  1.00  0.00     0.052 C 
HETATM   28  C8  UNL     1      -2.969  52.466 -53.047  1.00  0.00     0.125 C 
HETATM   29  C9  UNL     1      -3.787  53.693 -52.586  1.00  0.00     0.032 C 
HETATM   30  C10 UNL     1      -2.732  54.796 -52.486  1.00  0.00     0.007 C 
HETATM   31  C11 UNL     1      -1.842  54.367 -51.371  1.00  0.00    -0.010 C 
HETATM   32  C12 UNL     1      -0.901  55.498 -51.067  1.00  0.00     0.011 C 
HETATM   33  C13 UNL     1      -1.112  53.075 -51.588  1.00  0.00    -0.036 C 
HETATM   34  C14 UNL     1      -0.050  53.310 -52.595  1.00  0.00     0.016 C 
HETATM   35  C15 UNL     1      -0.428  52.817 -50.239  1.00  0.00     0.016 C 
BRANCH  28  36
HETATM   36  O3  UNL     1      -3.908  51.625 -53.561  1.00  0.00    -0.395 OA
ATOM     37  H3  UNL     1      -4.603  51.324 -52.987  1.00  0.00     0.210 HD
ENDBRANCH  28  36
ENDBRANCH  24  27
ENDBRANCH  20  24
ENDBRANCH  19  20
ENDBRANCH  17  19
ENDBRANCH  16  17
BRANCH  16  38
HETATM   38  C17 UNL     1       3.292  50.847 -50.334  1.00  0.00     0.096 C 
BRANCH  38  39
HETATM   39  C18 UNL     1       4.533  50.835 -49.614  1.00  0.00     0.199 C 
HETATM   40  O4  UNL     1       4.759  50.354 -48.443  1.00  0.00    -0.644 OA
HETATM   41  O5  UNL     1       5.703  51.389 -50.156  1.00  0.00    -0.644 OA
ENDBRANCH  38  39
ENDBRANCH  16  38
ENDBRANCH   1  16
BRANCH  11  42
HETATM   42  O6  UNL     1       3.155  48.074 -47.956  1.00  0.00    -0.392 OA
ATOM     43  H6  UNL     1       4.001  47.673 -47.796  1.00  0.00     0.210 HD
ENDBRANCH  11  42
BRANCH  12  44
HETATM   44  O7  UNL     1       1.075  45.759 -47.768  1.00  0.00    -0.392 OA
ATOM     45  H7  UNL     1       0.705  46.632 -47.823  1.00  0.00     0.210 HD
ENDBRANCH  12  44
BRANCH  15  46
HETATM   46  O10 UNL     1      -0.276  44.832 -50.069  1.00  0.00    -0.392 OA
ATOM     47  H10 UNL     1      -0.937  44.287 -49.658  1.00  0.00     0.210 HD
ENDBRANCH  15  46
BRANCH  13  48
HETATM   48  C32 UNL     1       3.781  43.952 -48.137  1.00  0.00     0.179 C 
BRANCH  48  49
HETATM   49  O8  UNL     1       3.789  42.624 -48.535  1.00  0.00    -0.400 OA
ATOM     50  H8  UNL     1       4.047  42.062 -47.815  1.00  0.00     0.209 HD
ENDBRANCH  48  49
ENDBRANCH  13  48
BRANCH  14  51
HETATM   51  O9  UNL     1       1.068  43.424 -47.978  1.00  0.00    -0.392 OA
ATOM     52  H9  UNL     1       0.588  44.144 -47.585  1.00  0.00     0.210 HD
ENDBRANCH  14  51
TORSDOF 18
ENDMDL
MODEL 5
REMARK VINA RESULT: -5.775728640      4.306      7.897
REMARK  18 active torsions:
REMARK  status: ('A' for Active; 'I' for Inactive)
REMARK    1  A    between atoms: C2_2  and  C3_3 
REMARK    2  A    between atoms: C2_2  and  C16_22 
REMARK    3  A    between atoms: C3_3  and  C4_4 
REMARK    4  A    between atoms: C4_4  and  C5_5 
REMARK    5  A    between atoms: C4_4  and  C6_8 
REMARK    6  A    between atoms: C5_5  and  O1_6 
REMARK    7  A    between atoms: C6_8  and  O2_9 
REMARK    8  A    between atoms: C6_8  and  C7_11 
REMARK    9  A    between atoms: C8_12  and  O3_13 
REMARK   10  A    between atoms: C16_22  and  C17_23 
REMARK   11  A    between atoms: C16_22  and  C19_27 
REMARK   12  A    between atoms: C17_23  and  C18_24 
REMARK   13  A    between atoms: C29_37  and  O6_38 
REMARK   14  A    between atoms: C30_40  and  O7_41 
REMARK   15  A    between atoms: C31_43  and  C32_44 
REMARK   16  A    between atoms: C32_44  and  O8_45 
REMARK   17  A    between atoms: C33_47  and  O9_48 
REMARK   18  A    between atoms: C34_50  and  O10_51 
ROOT
HETATM    1  C19 UNL     1       5.378  45.853 -52.321  1.00  0.00    -0.057 C 
HETATM    2  C20 UNL     1       4.200  46.105 -53.315  1.00  0.00     0.040 C 
HETATM    3  C21 UNL     1       3.057  45.262 -52.951  1.00  0.00    -0.009 C 
HETATM    4  C22 UNL     1       1.876  45.652 -52.207  1.00  0.00     0.011 C 
HETATM    5  C23 UNL     1       1.782  45.804 -50.790  1.00  0.00     0.012 C 
HETATM    6  C24 UNL     1       2.615  47.051 -50.460  1.00  0.00    -0.010 C 
HETATM    7  C25 UNL     1       1.981  48.193 -51.227  1.00  0.00     0.018 C 
HETATM    8  C26 UNL     1       3.958  46.697 -50.720  1.00  0.00     0.029 C 
HETATM    9  C27 UNL     1       4.541  45.416 -51.246  1.00  0.00     0.013 C 
HETATM   10  C28 UNL     1       3.747  44.397 -51.980  1.00  0.00     0.021 C 
HETATM   11  C29 UNL     1       4.698  44.627 -50.034  1.00  0.00     0.160 C 
HETATM   12  C30 UNL     1       3.416  44.518 -49.254  1.00  0.00     0.161 C 
HETATM   13  C31 UNL     1       2.139  45.064 -49.624  1.00  0.00     0.042 C 
HETATM   14  C33 UNL     1       1.634  46.114 -48.571  1.00  0.00     0.161 C 
HETATM   15  C34 UNL     1       2.308  47.355 -48.987  1.00  0.00     0.156 C 
ENDROOT
BRANCH   1  16
HETATM   16  C16 UNL     1       6.631  45.513 -52.964  1.00  0.00    -0.021 C 
BRANCH  16  17
HETATM   17  C2  UNL     1       7.252  46.667 -53.810  1.00  0.00    -0.054 C 
HETATM   18  C1  UNL     1       7.403  46.404 -55.231  1.00  0.00     0.049 C 
BRANCH  17  19
HETATM   19  C3  UNL     1       6.793  47.978 -53.361  1.00  0.00    -0.010 C 
BRANCH  19  20
HETATM   20  C4  UNL     1       7.669  48.911 -52.561  1.00  0.00     0.061 C 
BRANCH  20  21
HETATM   21  C5  UNL     1       9.085  48.461 -52.469  1.00  0.00     0.175 C 
BRANCH  21  22
HETATM   22  O1  UNL     1       9.867  49.138 -51.524  1.00  0.00    -0.400 OA
ATOM     23  H1  UNL     1      10.785  49.229 -51.749  1.00  0.00     0.209 HD
ENDBRANCH  21  22
ENDBRANCH  20  21
BRANCH  20  24
HETATM   24  C6  UNL     1       7.531  50.251 -53.262  1.00  0.00     0.135 C 
BRANCH  24  25
HETATM   25  O2  UNL     1       8.673  50.489 -54.061  1.00  0.00    -0.394 OA
ATOM     26  H2  UNL     1       8.708  49.852 -54.765  1.00  0.00     0.210 HD
ENDBRANCH  24  25
BRANCH  24  27
HETATM   27  C7  UNL     1       7.126  51.440 -52.511  1.00  0.00     0.052 C 
HETATM   28  C8  UNL     1       7.988  51.851 -51.362  1.00  0.00     0.125 C 
HETATM   29  C9  UNL     1       7.581  53.248 -50.842  1.00  0.00     0.032 C 
HETATM   30  C10 UNL     1       6.240  52.984 -50.154  1.00  0.00     0.007 C 
HETATM   31  C11 UNL     1       5.319  52.597 -51.259  1.00  0.00    -0.010 C 
HETATM   32  C12 UNL     1       3.927  52.525 -50.699  1.00  0.00     0.011 C 
HETATM   33  C13 UNL     1       5.689  51.346 -51.999  1.00  0.00    -0.036 C 
HETATM   34  C14 UNL     1       5.417  50.189 -51.113  1.00  0.00     0.016 C 
HETATM   35  C15 UNL     1       4.679  51.299 -53.153  1.00  0.00     0.016 C 
BRANCH  28  36
HETATM   36  O3  UNL     1       9.329  51.962 -51.570  1.00  0.00    -0.395 OA
ATOM     37  H3  UNL     1       9.831  52.512 -50.980  1.00  0.00     0.210 HD
ENDBRANCH  28  36
ENDBRANCH  24  27
ENDBRANCH  20  24
ENDBRANCH  19  20
ENDBRANCH  17  19
ENDBRANCH  16  17
BRANCH  16  38
HETATM   38  C17 UNL     1       7.592  44.480 -52.577  1.00  0.00     0.096 C 
BRANCH  38  39
HETATM   39  C18 UNL     1       8.425  44.493 -51.409  1.00  0.00     0.199 C 
HETATM   40  O4  UNL     1       9.541  45.111 -51.244  1.00  0.00    -0.644 OA
HETATM   41  O5  UNL     1       8.078  43.780 -50.251  1.00  0.00    -0.644 OA
ENDBRANCH  38  39
ENDBRANCH  16  38
ENDBRANCH   1  16
BRANCH  11  42
HETATM   42  O6  UNL     1       5.046  43.258 -50.245  1.00  0.00    -0.392 OA
ATOM     43  H6  UNL     1       5.877  42.991 -49.869  1.00  0.00     0.210 HD
ENDBRANCH  11  42
BRANCH  12  44
HETATM   44  O7  UNL     1       3.813  44.981 -47.957  1.00  0.00    -0.392 OA
ATOM     45  H7  UNL     1       4.634  45.422 -48.145  1.00  0.00     0.210 HD
ENDBRANCH  12  44
BRANCH  15  46
HETATM   46  O10 UNL     1       3.409  47.757 -48.290  1.00  0.00    -0.392 OA
ATOM     47  H10 UNL     1       3.337  47.585 -47.358  1.00  0.00     0.210 HD
ENDBRANCH  15  46
BRANCH  13  48
HETATM   48  C32 UNL     1       1.031  43.998 -49.378  1.00  0.00     0.179 C 
BRANCH  48  49
HETATM   49  O8  UNL     1       1.532  42.937 -48.640  1.00  0.00    -0.400 OA
ATOM     50  H8  UNL     1       0.823  42.414 -48.286  1.00  0.00     0.209 HD
ENDBRANCH  48  49
ENDBRANCH  13  48
BRANCH  14  51
HETATM   51  O9  UNL     1       1.683  45.707 -47.299  1.00  0.00    -0.392 OA
ATOM     52  H9  UNL     1       2.269  44.978 -47.133  1.00  0.00     0.210 HD
ENDBRANCH  14  51
TORSDOF 18
ENDMDL
