MODEL 1
REMARK VINA RESULT: -5.467041649      0.000      0.000
REMARK  21 active torsions:
REMARK  status: ('A' for Active; 'I' for Inactive)
REMARK    1  A    between atoms: C3_3  and  O1_4 
REMARK    2  A    between atoms: C3_3  and  C4_6 
REMARK    3  A    between atoms: C4_6  and  C6_8 
REMARK    4  A    between atoms: C6_8  and  O2_9 
REMARK    5  A    between atoms: C6_8  and  C7_11 
REMARK    6  A    between atoms: C7_11  and  O3_12 
REMARK    7  A    between atoms: C7_11  and  C8_14 
REMARK    8  A    between atoms: C17_23  and  O4_24 
REMARK    9  A    between atoms: C20_28  and  C21_29 
REMARK   10  A    between atoms: C21_29  and  O5_30 
REMARK   11  A    between atoms: C23_33  and  C24_34 
REMARK   12  A    between atoms: C24_34  and  O6_35 
REMARK   13  A    between atoms: C24_34  and  C25_37 
REMARK   14  A    between atoms: C25_37  and  C26_38 
REMARK   15  A    between atoms: C26_38  and  C27_39 
REMARK   16  A    between atoms: C27_39  and  O7_40 
REMARK   17  A    between atoms: C27_39  and  C28_42 
REMARK   18  A    between atoms: C32_46  and  O8_47 
REMARK   19  A    between atoms: C33_49  and  C34_50 
REMARK   20  A    between atoms: C34_50  and  O9_51 
REMARK   21  A    between atoms: C35_53  and  O10_54 
ROOT
HETATM    1  C1  UNL     1       2.712  57.960 -43.275  1.00  0.00     0.099 C 
HETATM    2  C2  UNL     1       2.374  56.836 -43.634  1.00  0.00    -0.156 C 
HETATM    3  C3  UNL     1       2.000  55.487 -44.041  1.00  0.00     0.190 C 
ENDROOT
BRANCH   3   4
HETATM    4  O1  UNL     1       3.246  54.835 -44.274  1.00  0.00    -0.384 OA
ATOM      5  H1  UNL     1       3.623  54.738 -43.408  1.00  0.00     0.211 HD
ENDBRANCH   3   4
BRANCH   3   6
HETATM    6  C4  UNL     1       1.310  55.499 -45.371  1.00  0.00     0.053 C 
HETATM    7  C5  UNL     1       0.239  56.602 -45.256  1.00  0.00     0.016 C 
BRANCH   6   8
HETATM    8  C6  UNL     1       0.698  54.214 -45.819  1.00  0.00     0.154 C 
BRANCH   8   9
HETATM    9  O2  UNL     1       1.176  53.217 -44.897  1.00  0.00    -0.393 OA
ATOM     10  H2  UNL     1       0.670  52.435 -45.082  1.00  0.00     0.210 HD
ENDBRANCH   8   9
BRANCH   8  11
HETATM   11  C7  UNL     1       1.037  53.791 -47.222  1.00  0.00     0.154 C 
BRANCH  11  12
HETATM   12  O3  UNL     1       0.542  54.564 -48.198  1.00  0.00    -0.393 OA
ATOM     13  H3  UNL     1       0.634  54.224 -49.080  1.00  0.00     0.210 HD
ENDBRANCH  11  12
BRANCH  11  14
HETATM   14  C8  UNL     1       2.474  53.255 -47.385  1.00  0.00     0.052 C 
HETATM   15  C9  UNL     1       3.266  53.872 -48.440  1.00  0.00     0.010 C 
HETATM   16  C10 UNL     1       4.051  53.010 -49.390  1.00  0.00    -0.004 C 
HETATM   17  C20 UNL     1       4.329  54.919 -48.038  1.00  0.00    -0.010 C 
HETATM   18  C11 UNL     1       3.802  53.674 -50.742  1.00  0.00     0.006 C 
HETATM   19  C22 UNL     1       4.016  51.558 -49.316  1.00  0.00     0.012 C 
HETATM   20  C12 UNL     1       4.201  55.153 -50.544  1.00  0.00     0.007 C 
HETATM   21  C13 UNL     1       5.014  55.400 -49.293  1.00  0.00     0.007 C 
HETATM   22  C14 UNL     1       5.463  56.838 -49.324  1.00  0.00    -0.017 C 
HETATM   23  C15 UNL     1       6.944  57.006 -48.947  1.00  0.00     0.018 C 
HETATM   24  C16 UNL     1       5.478  57.289 -50.805  1.00  0.00     0.018 C 
HETATM   25  C17 UNL     1       4.610  57.841 -48.660  1.00  0.00     0.126 C 
HETATM   26  C18 UNL     1       3.450  57.302 -47.917  1.00  0.00     0.033 C 
HETATM   27  C19 UNL     1       3.894  56.049 -47.216  1.00  0.00     0.015 C 
HETATM   28  C23 UNL     1       4.015  50.809 -50.616  1.00  0.00     0.022 C 
HETATM   29  C33 UNL     1       2.988  50.937 -48.457  1.00  0.00     0.038 C 
HETATM   30  C31 UNL     1       3.102  49.591 -50.374  1.00  0.00     0.040 C 
HETATM   31  C32 UNL     1       2.109  50.155 -49.411  1.00  0.00     0.132 C 
HETATM   32  C35 UNL     1       2.244  51.773 -47.505  1.00  0.00     0.138 C 
BRANCH  25  33
HETATM   33  O4  UNL     1       4.124  58.861 -49.495  1.00  0.00    -0.395 OA
ATOM     34  H4  UNL     1       3.625  58.566 -50.248  1.00  0.00     0.210 HD
ENDBRANCH  25  33
BRANCH  28  35
HETATM   35  C24 UNL     1       5.322  50.157 -51.004  1.00  0.00     0.122 C 
BRANCH  35  36
HETATM   36  O6  UNL     1       5.177  48.823 -50.580  1.00  0.00    -0.395 OA
ATOM     37  H6  UNL     1       5.670  48.322 -51.220  1.00  0.00     0.210 HD
ENDBRANCH  35  36
BRANCH  35  38
HETATM   38  C25 UNL     1       5.728  50.277 -52.404  1.00  0.00     0.034 C 
BRANCH  38  39
HETATM   39  C26 UNL     1       6.969  51.042 -52.723  1.00  0.00     0.034 C 
BRANCH  39  40
HETATM   40  C27 UNL     1       7.715  51.628 -51.567  1.00  0.00     0.121 C 
BRANCH  40  41
HETATM   41  O7  UNL     1       9.059  51.851 -51.855  1.00  0.00    -0.395 OA
ATOM     42  H7  UNL     1       9.476  51.097 -52.254  1.00  0.00     0.210 HD
ENDBRANCH  40  41
BRANCH  40  43
HETATM   43  C28 UNL     1       7.156  53.018 -51.220  1.00  0.00     0.006 C 
HETATM   44  C29 UNL     1       7.026  53.797 -52.495  1.00  0.00     0.012 C 
HETATM   45  C30 UNL     1       8.105  53.722 -50.304  1.00  0.00     0.012 C 
ENDBRANCH  40  43
ENDBRANCH  39  40
ENDBRANCH  38  39
ENDBRANCH  35  38
ENDBRANCH  28  35
BRANCH  31  46
HETATM   46  O8  UNL     1       1.266  50.941 -50.167  1.00  0.00    -0.395 OA
ATOM     47  H8  UNL     1       1.072  51.698 -49.627  1.00  0.00     0.210 HD
ENDBRANCH  31  46
BRANCH  29  48
HETATM   48  C34 UNL     1       3.590  49.796 -47.584  1.00  0.00     0.179 C 
BRANCH  48  49
HETATM   49  O9  UNL     1       2.604  49.298 -46.769  1.00  0.00    -0.400 OA
ATOM     50  H9  UNL     1       2.652  49.738 -45.929  1.00  0.00     0.209 HD
ENDBRANCH  48  49
ENDBRANCH  29  48
BRANCH  32  51
HETATM   51  O10 UNL     1       0.875  51.473 -47.850  1.00  0.00    -0.394 OA
ATOM     52  H10 UNL     1       0.537  50.745 -47.343  1.00  0.00     0.210 HD
ENDBRANCH  32  51
BRANCH  17  53
HETATM   53  C21 UNL     1       5.329  54.147 -47.164  1.00  0.00     0.174 C 
BRANCH  53  54
HETATM   54  O5  UNL     1       5.692  54.851 -46.017  1.00  0.00    -0.400 OA
ATOM     55  H5  UNL     1       5.648  54.317 -45.233  1.00  0.00     0.209 HD
ENDBRANCH  53  54
ENDBRANCH  17  53
ENDBRANCH  11  14
ENDBRANCH   8  11
ENDBRANCH   6   8
ENDBRANCH   3   6
TORSDOF 21
ENDMDL
MODEL 2
REMARK VINA RESULT: -5.342732395      1.913      5.665
REMARK  21 active torsions:
REMARK  status: ('A' for Active; 'I' for Inactive)
REMARK    1  A    between atoms: C3_3  and  O1_4 
REMARK    2  A    between atoms: C3_3  and  C4_6 
REMARK    3  A    between atoms: C4_6  and  C6_8 
REMARK    4  A    between atoms: C6_8  and  O2_9 
REMARK    5  A    between atoms: C6_8  and  C7_11 
REMARK    6  A    between atoms: C7_11  and  O3_12 
REMARK    7  A    between atoms: C7_11  and  C8_14 
REMARK    8  A    between atoms: C17_23  and  O4_24 
REMARK    9  A    between atoms: C20_28  and  C21_29 
REMARK   10  A    between atoms: C21_29  and  O5_30 
REMARK   11  A    between atoms: C23_33  and  C24_34 
REMARK   12  A    between atoms: C24_34  and  O6_35 
REMARK   13  A    between atoms: C24_34  and  C25_37 
REMARK   14  A    between atoms: C25_37  and  C26_38 
REMARK   15  A    between atoms: C26_38  and  C27_39 
REMARK   16  A    between atoms: C27_39  and  O7_40 
REMARK   17  A    between atoms: C27_39  and  C28_42 
REMARK   18  A    between atoms: C32_46  and  O8_47 
REMARK   19  A    between atoms: C33_49  and  C34_50 
REMARK   20  A    between atoms: C34_50  and  O9_51 
REMARK   21  A    between atoms: C35_53  and  O10_54 
ROOT
HETATM    1  C1  UNL     1      -1.032  55.283 -46.606  1.00  0.00     0.099 C 
HETATM    2  C2  UNL     1       0.168  55.407 -46.383  1.00  0.00    -0.156 C 
HETATM    3  C3  UNL     1       1.593  55.589 -46.132  1.00  0.00     0.190 C 
ENDROOT
BRANCH   3   4
HETATM    4  O1  UNL     1       2.061  56.297 -47.276  1.00  0.00    -0.384 OA
ATOM      5  H1  UNL     1       2.792  56.809 -46.950  1.00  0.00     0.211 HD
ENDBRANCH   3   4
BRANCH   3   6
HETATM    6  C4  UNL     1       2.315  54.277 -46.160  1.00  0.00     0.053 C 
HETATM    7  C5  UNL     1       1.487  53.344 -45.253  1.00  0.00     0.016 C 
BRANCH   6   8
HETATM    8  C6  UNL     1       3.746  54.292 -45.736  1.00  0.00     0.154 C 
BRANCH   8   9
HETATM    9  O2  UNL     1       4.050  55.669 -45.450  1.00  0.00    -0.393 OA
ATOM     10  H2  UNL     1       4.832  55.866 -45.950  1.00  0.00     0.210 HD
ENDBRANCH   8   9
BRANCH   8  11
HETATM   11  C7  UNL     1       4.726  53.771 -46.751  1.00  0.00     0.154 C 
BRANCH  11  12
HETATM   12  O3  UNL     1       5.367  52.643 -46.415  1.00  0.00    -0.393 OA
ATOM     13  H3  UNL     1       5.731  52.621 -45.538  1.00  0.00     0.210 HD
ENDBRANCH  11  12
BRANCH  11  14
HETATM   14  C8  UNL     1       4.258  53.927 -48.212  1.00  0.00     0.052 C 
HETATM   15  C9  UNL     1       4.434  52.760 -49.064  1.00  0.00     0.010 C 
HETATM   16  C10 UNL     1       5.034  52.915 -50.434  1.00  0.00    -0.004 C 
HETATM   17  C20 UNL     1       3.196  51.889 -49.377  1.00  0.00    -0.010 C 
HETATM   18  C11 UNL     1       5.987  51.725 -50.529  1.00  0.00     0.006 C 
HETATM   19  C22 UNL     1       5.489  54.204 -50.931  1.00  0.00     0.012 C 
HETATM   20  C12 UNL     1       5.117  50.488 -50.211  1.00  0.00     0.007 C 
HETATM   21  C13 UNL     1       3.631  50.758 -50.275  1.00  0.00     0.007 C 
HETATM   22  C14 UNL     1       2.926  49.437 -50.108  1.00  0.00    -0.017 C 
HETATM   23  C15 UNL     1       1.779  49.245 -51.113  1.00  0.00     0.018 C 
HETATM   24  C16 UNL     1       3.906  48.326 -50.555  1.00  0.00     0.018 C 
HETATM   25  C17 UNL     1       2.535  49.032 -48.745  1.00  0.00     0.126 C 
HETATM   26  C18 UNL     1       2.771  50.038 -47.687  1.00  0.00     0.033 C 
HETATM   27  C19 UNL     1       2.415  51.387 -48.246  1.00  0.00     0.015 C 
HETATM   28  C23 UNL     1       6.745  54.215 -51.752  1.00  0.00     0.022 C 
HETATM   29  C33 UNL     1       5.592  55.317 -49.966  1.00  0.00     0.038 C 
HETATM   30  C31 UNL     1       7.464  55.522 -51.364  1.00  0.00     0.040 C 
HETATM   31  C32 UNL     1       7.065  55.662 -49.931  1.00  0.00     0.132 C 
HETATM   32  C35 UNL     1       4.976  55.178 -48.639  1.00  0.00     0.138 C 
BRANCH  25  33
HETATM   33  O4  UNL     1       3.095  47.824 -48.295  1.00  0.00    -0.395 OA
ATOM     34  H4  UNL     1       3.936  47.905 -47.860  1.00  0.00     0.210 HD
ENDBRANCH  25  33
BRANCH  28  35
HETATM   35  C24 UNL     1       6.559  54.382 -53.243  1.00  0.00     0.122 C 
BRANCH  35  36
HETATM   36  O6  UNL     1       7.384  55.475 -53.569  1.00  0.00    -0.395 OA
ATOM     37  H6  UNL     1       6.825  56.232 -53.438  1.00  0.00     0.210 HD
ENDBRANCH  35  36
BRANCH  35  38
HETATM   38  C25 UNL     1       6.805  53.204 -54.073  1.00  0.00     0.034 C 
BRANCH  38  39
HETATM   39  C26 UNL     1       5.641  52.532 -54.720  1.00  0.00     0.034 C 
BRANCH  39  40
HETATM   40  C27 UNL     1       5.532  51.051 -54.539  1.00  0.00     0.121 C 
BRANCH  40  41
HETATM   41  O7  UNL     1       6.583  50.525 -53.792  1.00  0.00    -0.395 OA
ATOM     42  H7  UNL     1       7.057  49.847 -54.258  1.00  0.00     0.210 HD
ENDBRANCH  40  41
BRANCH  40  43
HETATM   43  C28 UNL     1       4.271  50.704 -53.731  1.00  0.00     0.006 C 
HETATM   44  C29 UNL     1       3.609  49.528 -54.386  1.00  0.00     0.012 C 
HETATM   45  C30 UNL     1       3.335  51.869 -53.744  1.00  0.00     0.012 C 
ENDBRANCH  40  43
ENDBRANCH  39  40
ENDBRANCH  38  39
ENDBRANCH  35  38
ENDBRANCH  28  35
BRANCH  31  46
HETATM   46  O8  UNL     1       7.837  54.749 -49.243  1.00  0.00    -0.395 OA
ATOM     47  H8  UNL     1       7.932  55.105 -48.367  1.00  0.00     0.210 HD
ENDBRANCH  31  46
BRANCH  29  48
HETATM   48  C34 UNL     1       4.980  56.629 -50.543  1.00  0.00     0.179 C 
BRANCH  48  49
HETATM   49  O9  UNL     1       4.142  57.175 -49.602  1.00  0.00    -0.400 OA
ATOM     50  H9  UNL     1       3.559  56.496 -49.283  1.00  0.00     0.209 HD
ENDBRANCH  48  49
ENDBRANCH  29  48
BRANCH  32  51
HETATM   51  O10 UNL     1       6.083  55.482 -47.763  1.00  0.00    -0.394 OA
ATOM     52  H10 UNL     1       6.735  56.020 -48.196  1.00  0.00     0.210 HD
ENDBRANCH  32  51
BRANCH  17  53
HETATM   53  C21 UNL     1       2.244  52.823 -50.141  1.00  0.00     0.174 C 
BRANCH  53  54
HETATM   54  O5  UNL     1       1.069  53.079 -49.438  1.00  0.00    -0.400 OA
ATOM     55  H5  UNL     1       0.290  52.906 -49.955  1.00  0.00     0.209 HD
ENDBRANCH  53  54
ENDBRANCH  17  53
ENDBRANCH  11  14
ENDBRANCH   8  11
ENDBRANCH   6   8
ENDBRANCH   3   6
TORSDOF 21
ENDMDL
MODEL 3
REMARK VINA RESULT: -5.331260202      1.556      5.414
REMARK  21 active torsions:
REMARK  status: ('A' for Active; 'I' for Inactive)
REMARK    1  A    between atoms: C3_3  and  O1_4 
REMARK    2  A    between atoms: C3_3  and  C4_6 
REMARK    3  A    between atoms: C4_6  and  C6_8 
REMARK    4  A    between atoms: C6_8  and  O2_9 
REMARK    5  A    between atoms: C6_8  and  C7_11 
REMARK    6  A    between atoms: C7_11  and  O3_12 
REMARK    7  A    between atoms: C7_11  and  C8_14 
REMARK    8  A    between atoms: C17_23  and  O4_24 
REMARK    9  A    between atoms: C20_28  and  C21_29 
REMARK   10  A    between atoms: C21_29  and  O5_30 
REMARK   11  A    between atoms: C23_33  and  C24_34 
REMARK   12  A    between atoms: C24_34  and  O6_35 
REMARK   13  A    between atoms: C24_34  and  C25_37 
REMARK   14  A    between atoms: C25_37  and  C26_38 
REMARK   15  A    between atoms: C26_38  and  C27_39 
REMARK   16  A    between atoms: C27_39  and  O7_40 
REMARK   17  A    between atoms: C27_39  and  C28_42 
REMARK   18  A    between atoms: C32_46  and  O8_47 
REMARK   19  A    between atoms: C33_49  and  C34_50 
REMARK   20  A    between atoms: C34_50  and  O9_51 
REMARK   21  A    between atoms: C35_53  and  O10_54 
ROOT
HETATM    1  C1  UNL     1      -0.948  54.932 -46.981  1.00  0.00     0.099 C 
HETATM    2  C2  UNL     1      -0.413  55.375 -45.969  1.00  0.00    -0.156 C 
HETATM    3  C3  UNL     1       0.222  55.936 -44.782  1.00  0.00     0.190 C 
ENDROOT
BRANCH   3   4
HETATM    4  O1  UNL     1       1.101  56.933 -45.295  1.00  0.00    -0.384 OA
ATOM      5  H1  UNL     1       1.170  56.729 -46.220  1.00  0.00     0.211 HD
ENDBRANCH   3   4
BRANCH   3   6
HETATM    6  C4  UNL     1       1.113  54.929 -44.123  1.00  0.00     0.053 C 
HETATM    7  C5  UNL     1       2.267  55.751 -43.515  1.00  0.00     0.016 C 
BRANCH   6   8
HETATM    8  C6  UNL     1       1.643  53.836 -44.990  1.00  0.00     0.154 C 
BRANCH   8   9
HETATM    9  O2  UNL     1       1.918  52.738 -44.101  1.00  0.00    -0.393 OA
ATOM     10  H2  UNL     1       2.200  53.134 -43.286  1.00  0.00     0.210 HD
ENDBRANCH   8   9
BRANCH   8  11
HETATM   11  C7  UNL     1       2.889  54.170 -45.762  1.00  0.00     0.154 C 
BRANCH  11  12
HETATM   12  O3  UNL     1       3.998  53.516 -45.387  1.00  0.00    -0.393 OA
ATOM     13  H3  UNL     1       4.167  52.698 -45.840  1.00  0.00     0.210 HD
ENDBRANCH  11  12
BRANCH  11  14
HETATM   14  C8  UNL     1       2.654  54.385 -47.271  1.00  0.00     0.052 C 
HETATM   15  C9  UNL     1       3.264  53.402 -48.156  1.00  0.00     0.010 C 
HETATM   16  C10 UNL     1       4.030  53.858 -49.367  1.00  0.00    -0.004 C 
HETATM   17  C20 UNL     1       2.360  52.308 -48.767  1.00  0.00    -0.010 C 
HETATM   18  C11 UNL     1       5.255  52.946 -49.362  1.00  0.00     0.006 C 
HETATM   19  C22 UNL     1       4.220  55.268 -49.670  1.00  0.00     0.012 C 
HETATM   20  C12 UNL     1       4.687  51.510 -49.311  1.00  0.00     0.007 C 
HETATM   21  C13 UNL     1       3.215  51.427 -49.644  1.00  0.00     0.007 C 
HETATM   22  C14 UNL     1       2.851  49.967 -49.716  1.00  0.00    -0.017 C 
HETATM   23  C15 UNL     1       1.980  49.632 -50.937  1.00  0.00     0.018 C 
HETATM   24  C16 UNL     1       4.143  49.180 -50.044  1.00  0.00     0.018 C 
HETATM   25  C17 UNL     1       2.349  49.321 -48.489  1.00  0.00     0.126 C 
HETATM   26  C18 UNL     1       2.137  50.220 -47.334  1.00  0.00     0.033 C 
HETATM   27  C19 UNL     1       1.550  51.504 -47.851  1.00  0.00     0.015 C 
HETATM   28  C23 UNL     1       5.553  55.673 -50.226  1.00  0.00     0.022 C 
HETATM   29  C33 UNL     1       3.870  56.250 -48.624  1.00  0.00     0.038 C 
HETATM   30  C31 UNL     1       5.838  57.057 -49.610  1.00  0.00     0.040 C 
HETATM   31  C32 UNL     1       5.179  56.925 -48.276  1.00  0.00     0.132 C 
HETATM   32  C35 UNL     1       3.093  55.812 -47.457  1.00  0.00     0.138 C 
BRANCH  25  33
HETATM   33  O4  UNL     1       3.112  48.235 -48.028  1.00  0.00    -0.395 OA
ATOM     34  H4  UNL     1       3.272  48.220 -47.092  1.00  0.00     0.210 HD
ENDBRANCH  25  33
BRANCH  28  35
HETATM   35  C24 UNL     1       5.588  55.968 -51.708  1.00  0.00     0.122 C 
BRANCH  35  36
HETATM   36  O6  UNL     1       5.876  57.344 -51.775  1.00  0.00    -0.395 OA
ATOM     37  H6  UNL     1       6.235  57.546 -50.919  1.00  0.00     0.210 HD
ENDBRANCH  35  36
BRANCH  35  38
HETATM   38  C25 UNL     1       6.487  55.150 -52.522  1.00  0.00     0.034 C 
BRANCH  38  39
HETATM   39  C26 UNL     1       6.107  53.734 -52.798  1.00  0.00     0.034 C 
BRANCH  39  40
HETATM   40  C27 UNL     1       7.222  52.739 -52.867  1.00  0.00     0.121 C 
BRANCH  40  41
HETATM   41  O7  UNL     1       8.016  52.745 -51.724  1.00  0.00    -0.395 OA
ATOM     42  H7  UNL     1       8.819  52.250 -51.835  1.00  0.00     0.210 HD
ENDBRANCH  40  41
BRANCH  40  43
HETATM   43  C28 UNL     1       6.659  51.311 -52.943  1.00  0.00     0.006 C 
HETATM   44  C29 UNL     1       5.163  51.398 -52.895  1.00  0.00     0.012 C 
HETATM   45  C30 UNL     1       7.147  50.520 -51.771  1.00  0.00     0.012 C 
ENDBRANCH  40  43
ENDBRANCH  39  40
ENDBRANCH  38  39
ENDBRANCH  35  38
ENDBRANCH  28  35
BRANCH  31  46
HETATM   46  O8  UNL     1       6.028  56.146 -47.520  1.00  0.00    -0.395 OA
ATOM     47  H8  UNL     1       5.501  55.819 -46.800  1.00  0.00     0.210 HD
ENDBRANCH  31  46
BRANCH  29  48
HETATM   48  C34 UNL     1       3.053  57.439 -49.211  1.00  0.00     0.179 C 
BRANCH  48  49
HETATM   49  O9  UNL     1       2.217  57.923 -48.235  1.00  0.00    -0.400 OA
ATOM     50  H9  UNL     1       2.075  58.850 -48.388  1.00  0.00     0.209 HD
ENDBRANCH  48  49
ENDBRANCH  29  48
BRANCH  32  51
HETATM   51  O10 UNL     1       3.919  56.261 -46.361  1.00  0.00    -0.394 OA
ATOM     52  H10 UNL     1       4.653  55.676 -46.213  1.00  0.00     0.210 HD
ENDBRANCH  32  51
BRANCH  17  53
HETATM   53  C21 UNL     1       1.347  53.075 -49.632  1.00  0.00     0.174 C 
BRANCH  53  54
HETATM   54  O5  UNL     1       0.065  52.535 -49.558  1.00  0.00    -0.400 OA
ATOM     55  H5  UNL     1      -0.562  53.010 -50.092  1.00  0.00     0.209 HD
ENDBRANCH  53  54
ENDBRANCH  17  53
ENDBRANCH  11  14
ENDBRANCH   8  11
ENDBRANCH   6   8
ENDBRANCH   3   6
TORSDOF 21
ENDMDL
MODEL 4
REMARK VINA RESULT: -5.281758364      3.459      8.084
REMARK  21 active torsions:
REMARK  status: ('A' for Active; 'I' for Inactive)
REMARK    1  A    between atoms: C3_3  and  O1_4 
REMARK    2  A    between atoms: C3_3  and  C4_6 
REMARK    3  A    between atoms: C4_6  and  C6_8 
REMARK    4  A    between atoms: C6_8  and  O2_9 
REMARK    5  A    between atoms: C6_8  and  C7_11 
REMARK    6  A    between atoms: C7_11  and  O3_12 
REMARK    7  A    between atoms: C7_11  and  C8_14 
REMARK    8  A    between atoms: C17_23  and  O4_24 
REMARK    9  A    between atoms: C20_28  and  C21_29 
REMARK   10  A    between atoms: C21_29  and  O5_30 
REMARK   11  A    between atoms: C23_33  and  C24_34 
REMARK   12  A    between atoms: C24_34  and  O6_35 
REMARK   13  A    between atoms: C24_34  and  C25_37 
REMARK   14  A    between atoms: C25_37  and  C26_38 
REMARK   15  A    between atoms: C26_38  and  C27_39 
REMARK   16  A    between atoms: C27_39  and  O7_40 
REMARK   17  A    between atoms: C27_39  and  C28_42 
REMARK   18  A    between atoms: C32_46  and  O8_47 
REMARK   19  A    between atoms: C33_49  and  C34_50 
REMARK   20  A    between atoms: C34_50  and  O9_51 
REMARK   21  A    between atoms: C35_53  and  O10_54 
ROOT
HETATM    1  C1  UNL     1       0.852  43.992 -48.759  1.00  0.00     0.099 C 
HETATM    2  C2  UNL     1       1.803  44.720 -49.029  1.00  0.00    -0.156 C 
HETATM    3  C3  UNL     1       2.946  45.580 -49.315  1.00  0.00     0.190 C 
ENDROOT
BRANCH   3   4
HETATM    4  O1  UNL     1       3.101  46.358 -48.131  1.00  0.00    -0.384 OA
ATOM      5  H1  UNL     1       2.567  47.128 -48.287  1.00  0.00     0.211 HD
ENDBRANCH   3   4
BRANCH   3   6
HETATM    6  C4  UNL     1       2.618  46.567 -50.393  1.00  0.00     0.053 C 
HETATM    7  C5  UNL     1       1.757  45.785 -51.405  1.00  0.00     0.016 C 
BRANCH   6   8
HETATM    8  C6  UNL     1       3.774  47.220 -51.076  1.00  0.00     0.154 C 
BRANCH   8   9
HETATM    9  O2  UNL     1       4.915  46.397 -50.775  1.00  0.00    -0.393 OA
ATOM     10  H2  UNL     1       5.400  46.868 -50.107  1.00  0.00     0.210 HD
ENDBRANCH   8   9
BRANCH   8  11
HETATM   11  C7  UNL     1       4.060  48.634 -50.652  1.00  0.00     0.154 C 
BRANCH  11  12
HETATM   12  O3  UNL     1       5.071  49.239 -51.292  1.00  0.00    -0.393 OA
ATOM     13  H3  UNL     1       5.721  49.653 -50.736  1.00  0.00     0.210 HD
ENDBRANCH  11  12
BRANCH  11  14
HETATM   14  C8  UNL     1       2.797  49.467 -50.350  1.00  0.00     0.052 C 
HETATM   15  C9  UNL     1       2.542  50.583 -51.249  1.00  0.00     0.010 C 
HETATM   16  C10 UNL     1       2.182  51.930 -50.687  1.00  0.00    -0.004 C 
HETATM   17  C20 UNL     1       1.456  50.412 -52.335  1.00  0.00    -0.010 C 
HETATM   18  C11 UNL     1       2.999  52.891 -51.549  1.00  0.00     0.006 C 
HETATM   19  C22 UNL     1       2.119  52.173 -49.254  1.00  0.00     0.012 C 
HETATM   20  C12 UNL     1       2.620  52.544 -53.006  1.00  0.00     0.007 C 
HETATM   21  C13 UNL     1       1.374  51.696 -53.124  1.00  0.00     0.007 C 
HETATM   22  C14 UNL     1       1.044  51.582 -54.590  1.00  0.00    -0.017 C 
HETATM   23  C15 UNL     1      -0.451  51.793 -54.879  1.00  0.00     0.018 C 
HETATM   24  C16 UNL     1       1.663  52.808 -55.303  1.00  0.00     0.018 C 
HETATM   25  C17 UNL     1       1.589  50.431 -55.333  1.00  0.00     0.126 C 
HETATM   26  C18 UNL     1       2.312  49.430 -54.518  1.00  0.00     0.033 C 
HETATM   27  C19 UNL     1       1.562  49.257 -53.227  1.00  0.00     0.015 C 
HETATM   28  C23 UNL     1       2.624  53.497 -48.763  1.00  0.00     0.022 C 
HETATM   29  C33 UNL     1       2.670  51.138 -48.356  1.00  0.00     0.038 C 
HETATM   30  C31 UNL     1       3.300  53.191 -47.412  1.00  0.00     0.040 C 
HETATM   31  C32 UNL     1       3.828  51.814 -47.654  1.00  0.00     0.132 C 
HETATM   32  C35 UNL     1       2.989  49.811 -48.898  1.00  0.00     0.138 C 
BRANCH  25  33
HETATM   33  O4  UNL     1       2.423  50.757 -56.416  1.00  0.00    -0.395 OA
ATOM     34  H4  UNL     1       3.340  50.535 -56.303  1.00  0.00     0.210 HD
ENDBRANCH  25  33
BRANCH  28  35
HETATM   35  C24 UNL     1       1.567  54.504 -48.372  1.00  0.00     0.122 C 
BRANCH  35  36
HETATM   36  O6  UNL     1       1.750  55.563 -49.280  1.00  0.00    -0.395 OA
ATOM     37  H6  UNL     1       1.957  56.308 -48.728  1.00  0.00     0.210 HD
ENDBRANCH  35  36
BRANCH  35  38
HETATM   38  C25 UNL     1       0.187  54.022 -48.316  1.00  0.00     0.034 C 
BRANCH  38  39
HETATM   39  C26 UNL     1      -0.798  54.567 -49.296  1.00  0.00     0.034 C 
BRANCH  39  40
HETATM   40  C27 UNL     1      -0.956  53.816 -50.580  1.00  0.00     0.121 C 
BRANCH  40  41
HETATM   41  O7  UNL     1      -2.034  52.935 -50.554  1.00  0.00    -0.395 OA
ATOM     42  H7  UNL     1      -1.762  52.028 -50.489  1.00  0.00     0.210 HD
ENDBRANCH  40  41
BRANCH  40  43
HETATM   43  C28 UNL     1      -1.274  54.785 -51.729  1.00  0.00     0.006 C 
HETATM   44  C29 UNL     1      -2.285  54.131 -52.624  1.00  0.00     0.012 C 
HETATM   45  C30 UNL     1      -0.028  55.060 -52.508  1.00  0.00     0.012 C 
ENDBRANCH  40  43
ENDBRANCH  39  40
ENDBRANCH  38  39
ENDBRANCH  35  38
ENDBRANCH  28  35
BRANCH  31  46
HETATM   46  O8  UNL     1       4.943  51.982 -48.448  1.00  0.00    -0.395 OA
ATOM     47  H8  UNL     1       5.093  51.137 -48.856  1.00  0.00     0.210 HD
ENDBRANCH  31  46
BRANCH  29  48
HETATM   48  C34 UNL     1       1.710  50.851 -47.164  1.00  0.00     0.179 C 
BRANCH  48  49
HETATM   49  O9  UNL     1       2.128  49.709 -46.527  1.00  0.00    -0.400 OA
ATOM     50  H9  UNL     1       2.191  49.885 -45.595  1.00  0.00     0.209 HD
ENDBRANCH  48  49
ENDBRANCH  29  48
BRANCH  32  51
HETATM   51  O10 UNL     1       4.364  49.644 -48.489  1.00  0.00    -0.394 OA
ATOM     52  H10 UNL     1       4.496  48.822 -48.032  1.00  0.00     0.210 HD
ENDBRANCH  32  51
BRANCH  17  53
HETATM   53  C21 UNL     1       0.150  50.199 -51.554  1.00  0.00     0.174 C 
BRANCH  53  54
HETATM   54  O5  UNL     1      -0.813  49.520 -52.298  1.00  0.00    -0.400 OA
ATOM     55  H5  UNL     1      -1.616  50.018 -52.395  1.00  0.00     0.209 HD
ENDBRANCH  53  54
ENDBRANCH  17  53
ENDBRANCH  11  14
ENDBRANCH   8  11
ENDBRANCH   6   8
ENDBRANCH   3   6
TORSDOF 21
ENDMDL
MODEL 5
REMARK VINA RESULT: -5.269719194      2.091      6.900
REMARK  21 active torsions:
REMARK  status: ('A' for Active; 'I' for Inactive)
REMARK    1  A    between atoms: C3_3  and  O1_4 
REMARK    2  A    between atoms: C3_3  and  C4_6 
REMARK    3  A    between atoms: C4_6  and  C6_8 
REMARK    4  A    between atoms: C6_8  and  O2_9 
REMARK    5  A    between atoms: C6_8  and  C7_11 
REMARK    6  A    between atoms: C7_11  and  O3_12 
REMARK    7  A    between atoms: C7_11  and  C8_14 
REMARK    8  A    between atoms: C17_23  and  O4_24 
REMARK    9  A    between atoms: C20_28  and  C21_29 
REMARK   10  A    between atoms: C21_29  and  O5_30 
REMARK   11  A    between atoms: C23_33  and  C24_34 
REMARK   12  A    between atoms: C24_34  and  O6_35 
REMARK   13  A    between atoms: C24_34  and  C25_37 
REMARK   14  A    between atoms: C25_37  and  C26_38 
REMARK   15  A    between atoms: C26_38  and  C27_39 
REMARK   16  A    between atoms: C27_39  and  O7_40 
REMARK   17  A    between atoms: C27_39  and  C28_42 
REMARK   18  A    between atoms: C32_46  and  O8_47 
REMARK   19  A    between atoms: C33_49  and  C34_50 
REMARK   20  A    between atoms: C34_50  and  O9_51 
REMARK   21  A    between atoms: C35_53  and  O10_54 
ROOT
HETATM    1  C1  UNL     1       1.030  44.015 -49.133  1.00  0.00     0.099 C 
HETATM    2  C2  UNL     1       1.838  44.922 -49.306  1.00  0.00    -0.156 C 
HETATM    3  C3  UNL     1       2.818  45.988 -49.481  1.00  0.00     0.190 C 
ENDROOT
BRANCH   3   4
HETATM    4  O1  UNL     1       3.079  46.443 -48.156  1.00  0.00    -0.384 OA
ATOM      5  H1  UNL     1       4.021  46.361 -48.064  1.00  0.00     0.211 HD
ENDBRANCH   3   4
BRANCH   3   6
HETATM    6  C4  UNL     1       2.212  47.162 -50.187  1.00  0.00     0.053 C 
HETATM    7  C5  UNL     1       1.715  46.607 -51.537  1.00  0.00     0.016 C 
BRANCH   6   8
HETATM    8  C6  UNL     1       3.097  48.346 -50.396  1.00  0.00     0.154 C 
BRANCH   8   9
HETATM    9  O2  UNL     1       4.431  47.817 -50.498  1.00  0.00    -0.393 OA
ATOM     10  H2  UNL     1       4.848  48.308 -51.196  1.00  0.00     0.210 HD
ENDBRANCH   8   9
BRANCH   8  11
HETATM   11  C7  UNL     1       3.059  49.382 -49.307  1.00  0.00     0.154 C 
BRANCH  11  12
HETATM   12  O3  UNL     1       3.929  49.203 -48.303  1.00  0.00    -0.393 OA
ATOM     13  H3  UNL     1       3.902  49.855 -47.613  1.00  0.00     0.210 HD
ENDBRANCH  11  12
BRANCH  11  14
HETATM   14  C8  UNL     1       2.833  50.821 -49.817  1.00  0.00     0.052 C 
HETATM   15  C9  UNL     1       4.000  51.691 -49.799  1.00  0.00     0.010 C 
HETATM   16  C10 UNL     1       3.887  53.084 -49.245  1.00  0.00    -0.004 C 
HETATM   17  C20 UNL     1       4.732  51.959 -51.134  1.00  0.00    -0.010 C 
HETATM   18  C11 UNL     1       5.168  53.233 -48.426  1.00  0.00     0.006 C 
HETATM   19  C22 UNL     1       2.644  53.587 -48.679  1.00  0.00     0.012 C 
HETATM   20  C12 UNL     1       6.312  52.891 -49.406  1.00  0.00     0.007 C 
HETATM   21  C13 UNL     1       5.889  52.888 -50.857  1.00  0.00     0.007 C 
HETATM   22  C14 UNL     1       7.132  52.705 -51.688  1.00  0.00    -0.017 C 
HETATM   23  C15 UNL     1       7.188  53.661 -52.890  1.00  0.00     0.018 C 
HETATM   24  C16 UNL     1       8.332  53.206 -50.849  1.00  0.00     0.018 C 
HETATM   25  C17 UNL     1       7.515  51.331 -52.062  1.00  0.00     0.126 C 
HETATM   26  C18 UNL     1       6.555  50.273 -51.679  1.00  0.00     0.033 C 
HETATM   27  C19 UNL     1       5.167  50.802 -51.915  1.00  0.00     0.015 C 
HETATM   28  C23 UNL     1       2.751  54.461 -47.465  1.00  0.00     0.022 C 
HETATM   29  C33 UNL     1       1.563  52.615 -48.421  1.00  0.00     0.038 C 
HETATM   30  C31 UNL     1       1.531  54.091 -46.598  1.00  0.00     0.040 C 
HETATM   31  C32 UNL     1       1.373  52.640 -46.919  1.00  0.00     0.132 C 
HETATM   32  C35 UNL     1       1.657  51.265 -48.991  1.00  0.00     0.138 C 
BRANCH  25  33
HETATM   33  O4  UNL     1       8.781  50.918 -51.612  1.00  0.00    -0.395 OA
ATOM     34  H4  UNL     1       9.501  51.492 -51.848  1.00  0.00     0.210 HD
ENDBRANCH  25  33
BRANCH  28  35
HETATM   35  C24 UNL     1       2.543  55.941 -47.694  1.00  0.00     0.122 C 
BRANCH  35  36
HETATM   36  O6  UNL     1       1.231  56.175 -47.243  1.00  0.00    -0.395 OA
ATOM     37  H6  UNL     1       0.705  55.550 -47.728  1.00  0.00     0.210 HD
ENDBRANCH  35  36
BRANCH  35  38
HETATM   38  C25 UNL     1       3.529  56.844 -47.102  1.00  0.00     0.034 C 
BRANCH  38  39
HETATM   39  C26 UNL     1       4.969  56.459 -47.152  1.00  0.00     0.034 C 
BRANCH  39  40
HETATM   40  C27 UNL     1       5.841  57.235 -48.089  1.00  0.00     0.121 C 
BRANCH  40  41
HETATM   41  O7  UNL     1       7.049  57.609 -47.508  1.00  0.00    -0.395 OA
ATOM     42  H7  UNL     1       7.595  58.116 -48.097  1.00  0.00     0.210 HD
ENDBRANCH  40  41
BRANCH  40  43
HETATM   43  C28 UNL     1       6.241  56.364 -49.290  1.00  0.00     0.006 C 
HETATM   44  C29 UNL     1       7.596  56.807 -49.755  1.00  0.00     0.012 C 
HETATM   45  C30 UNL     1       5.252  56.555 -50.395  1.00  0.00     0.012 C 
ENDBRANCH  40  43
ENDBRANCH  39  40
ENDBRANCH  38  39
ENDBRANCH  35  38
ENDBRANCH  28  35
BRANCH  31  46
HETATM   46  O8  UNL     1       2.371  51.996 -46.218  1.00  0.00    -0.395 OA
ATOM     47  H8  UNL     1       2.107  51.084 -46.179  1.00  0.00     0.210 HD
ENDBRANCH  31  46
BRANCH  29  48
HETATM   48  C34 UNL     1       0.186  53.151 -48.916  1.00  0.00     0.179 C 
BRANCH  48  49
HETATM   49  O9  UNL     1      -0.417  52.180 -49.676  1.00  0.00    -0.400 OA
ATOM     50  H9  UNL     1      -0.870  52.596 -50.399  1.00  0.00     0.209 HD
ENDBRANCH  48  49
ENDBRANCH  29  48
BRANCH  32  51
HETATM   51  O10 UNL     1       1.483  50.434 -47.823  1.00  0.00    -0.394 OA
ATOM     52  H10 UNL     1       2.198  50.541 -47.207  1.00  0.00     0.210 HD
ENDBRANCH  32  51
BRANCH  17  53
HETATM   53  C21 UNL     1       3.694  52.672 -52.014  1.00  0.00     0.174 C 
BRANCH  53  54
HETATM   54  O5  UNL     1       3.756  52.268 -53.346  1.00  0.00    -0.400 OA
ATOM     55  H5  UNL     1       3.460  51.373 -53.470  1.00  0.00     0.209 HD
ENDBRANCH  53  54
ENDBRANCH  17  53
ENDBRANCH  11  14
ENDBRANCH   8  11
ENDBRANCH   6   8
ENDBRANCH   3   6
TORSDOF 21
ENDMDL
