MODEL 1
REMARK VINA RESULT: -6.040866509      0.000      0.000
REMARK  17 active torsions:
REMARK  status: ('A' for Active; 'I' for Inactive)
REMARK    1  A    between atoms: C2_2  and  C3_3 
REMARK    2  A    between atoms: C3_3  and  C5_5 
REMARK    3  A    between atoms: C5_5  and  C6_6 
REMARK    4  A    between atoms: C6_6  and  C7_7 
REMARK    5  A    between atoms: C7_7  and  C8_8 
REMARK    6  A    between atoms: C8_8  and  C9_9 
REMARK    7  A    between atoms: C9_9  and  N1_10 
REMARK    8  A    between atoms: N1_10  and  C10_11 
REMARK    9  A    between atoms: N1_10  and  C30_42 
REMARK   10  A    between atoms: C10_11  and  C11_12 
REMARK   11  A    between atoms: C11_12  and  C12_13 
REMARK   12  A    between atoms: C12_13  and  N2_14 
REMARK   13  A    between atoms: N2_14  and  C13_17 
REMARK   14  A    between atoms: C13_17  and  C14_18 
REMARK   15  A    between atoms: C14_18  and  C15_19 
REMARK   16  A    between atoms: C15_19  and  N3_20 
REMARK   17  A    between atoms: C32_48  and  O6_49 
ROOT
HETATM    1  N3  UNL     1      55.218  25.171 -15.915  1.00  0.00    -0.342 N 
HETATM    2  C16 UNL     1      56.130  25.065 -14.834  1.00  0.00     0.230 C 
HETATM    3  O1  UNL     1      56.903  25.937 -14.420  1.00  0.00    -0.273 OA
HETATM    4  C17 UNL     1      55.981  23.700 -14.286  1.00  0.00     0.126 A 
HETATM    5  C18 UNL     1      54.514  23.456 -13.907  1.00  0.00    -0.035 A 
HETATM    6  C19 UNL     1      53.640  23.680 -12.946  1.00  0.00     0.022 C 
HETATM    7  C20 UNL     1      53.955  24.406 -11.687  1.00  0.00     0.060 C 
HETATM    8  C21 UNL     1      52.304  23.210 -13.108  1.00  0.00     0.095 C 
HETATM    9  N4  UNL     1      51.216  22.823 -13.261  1.00  0.00    -0.192 NA
HETATM   10  C22 UNL     1      55.060  22.993 -15.162  1.00  0.00     0.058 A 
HETATM   11  C23 UNL     1      55.035  23.802 -16.421  1.00  0.00     0.126 C 
HETATM   12  C24 UNL     1      56.247  23.494 -17.228  1.00  0.00     0.003 C 
HETATM   13  C25 UNL     1      56.814  22.303 -17.166  1.00  0.00     0.050 C 
HETATM   14  C26 UNL     1      56.319  21.216 -16.327  1.00  0.00     0.177 C 
HETATM   15  O2  UNL     1      56.793  20.064 -16.338  1.00  0.00    -0.291 OA
HETATM   16  C27 UNL     1      55.200  21.505 -15.422  1.00  0.00     0.201 C 
HETATM   17  C28 UNL     1      53.917  20.851 -15.749  1.00  0.00     0.251 C 
HETATM   18  O3  UNL     1      53.000  21.008 -16.621  1.00  0.00    -0.271 OA
HETATM   19  N5  UNL     1      54.118  19.947 -14.667  1.00  0.00    -0.295 N 
ATOM     20  H5  UNL     1      53.685  19.069 -14.383  1.00  0.00     0.171 HD
HETATM   21  C29 UNL     1      55.169  20.761 -14.137  1.00  0.00     0.251 C 
HETATM   22  O4  UNL     1      55.820  20.857 -13.073  1.00  0.00    -0.271 OA
ENDROOT
BRANCH   1  23
HETATM   23  C15 UNL     1      54.572  26.325 -16.456  1.00  0.00     0.128 C 
BRANCH  23  24
HETATM   24  C14 UNL     1      55.456  27.328 -17.118  1.00  0.00     0.047 C 
BRANCH  24  25
HETATM   25  C13 UNL     1      55.216  27.518 -18.581  1.00  0.00     0.234 C 
BRANCH  25  26
HETATM   26  N2  UNL     1      54.961  26.237 -19.251  1.00  0.00    -0.075 N 
ATOM     27  H22 UNL     1      53.989  25.943 -19.160  1.00  0.00     0.277 HD
ATOM     28  H21 UNL     1      55.397  25.455 -18.763  1.00  0.00     0.277 HD
BRANCH  26  29
HETATM   29  C12 UNL     1      55.382  26.316 -20.645  1.00  0.00     0.234 C 
BRANCH  29  30
HETATM   30  C11 UNL     1      54.507  25.425 -21.487  1.00  0.00     0.047 C 
BRANCH  30  31
HETATM   31  C10 UNL     1      54.756  23.991 -21.021  1.00  0.00     0.125 C 
BRANCH  31  32
HETATM   32  N1  UNL     1      53.870  23.070 -21.656  1.00  0.00    -0.371 N 
BRANCH  32  33
HETATM   33  C9  UNL     1      53.940  22.954 -23.130  1.00  0.00     0.127 C 
BRANCH  33  34
HETATM   34  C8  UNL     1      55.288  22.508 -23.578  1.00  0.00     0.046 C 
BRANCH  34  35
HETATM   35  C7  UNL     1      55.383  21.152 -24.109  1.00  0.00    -0.029 C 
BRANCH  35  36
HETATM   36  C6  UNL     1      54.639  20.009 -23.611  1.00  0.00    -0.030 C 
BRANCH  36  37
HETATM   37  C5  UNL     1      55.063  19.218 -22.447  1.00  0.00     0.031 C 
BRANCH  37  38
HETATM   38  C3  UNL     1      56.306  18.407 -22.935  1.00  0.00    -0.016 C 
HETATM   39  C4  UNL     1      56.825  17.498 -21.877  1.00  0.00     0.010 C 
BRANCH  38  40
HETATM   40  C2  UNL     1      55.962  17.708 -24.217  1.00  0.00    -0.000 C 
HETATM   41  C1  UNL     1      56.830  16.496 -24.424  1.00  0.00     0.005 C 
ENDBRANCH  38  40
ENDBRANCH  37  38
ENDBRANCH  36  37
ENDBRANCH  35  36
ENDBRANCH  34  35
ENDBRANCH  33  34
ENDBRANCH  32  33
BRANCH  32  42
HETATM   42  C30 UNL     1      52.909  22.232 -21.012  1.00  0.00     0.128 A 
HETATM   43  S1  UNL     1      51.220  22.094 -21.407  1.00  0.00    -0.007 SA
HETATM   44  C31 UNL     1      50.785  20.937 -20.238  1.00  0.00     0.292 A 
HETATM   45  O5  UNL     1      49.644  20.398 -19.999  1.00  0.00    -0.260 OA
HETATM   46  N6  UNL     1      51.928  20.706 -19.602  1.00  0.00    -0.296 N 
HETATM   47  C32 UNL     1      53.001  21.347 -19.978  1.00  0.00     0.178 A 
ATOM     48  H6  UNL     1      51.966  20.039 -18.832  1.00  0.00     0.171 HD
BRANCH  47  49
HETATM   49  O6  UNL     1      54.256  21.135 -19.328  1.00  0.00    -0.344 OA
ATOM     50  H6  UNL     1      54.523  21.702 -18.614  1.00  0.00     0.219 HD
ENDBRANCH  47  49
ENDBRANCH  32  42
ENDBRANCH  31  32
ENDBRANCH  30  31
ENDBRANCH  29  30
ENDBRANCH  26  29
ENDBRANCH  25  26
ENDBRANCH  24  25
ENDBRANCH  23  24
ENDBRANCH   1  23
TORSDOF 17
ENDMDL
MODEL 2
REMARK VINA RESULT: -5.858829537      2.778      6.032
REMARK  17 active torsions:
REMARK  status: ('A' for Active; 'I' for Inactive)
REMARK    1  A    between atoms: C2_2  and  C3_3 
REMARK    2  A    between atoms: C3_3  and  C5_5 
REMARK    3  A    between atoms: C5_5  and  C6_6 
REMARK    4  A    between atoms: C6_6  and  C7_7 
REMARK    5  A    between atoms: C7_7  and  C8_8 
REMARK    6  A    between atoms: C8_8  and  C9_9 
REMARK    7  A    between atoms: C9_9  and  N1_10 
REMARK    8  A    between atoms: N1_10  and  C10_11 
REMARK    9  A    between atoms: N1_10  and  C30_42 
REMARK   10  A    between atoms: C10_11  and  C11_12 
REMARK   11  A    between atoms: C11_12  and  C12_13 
REMARK   12  A    between atoms: C12_13  and  N2_14 
REMARK   13  A    between atoms: N2_14  and  C13_17 
REMARK   14  A    between atoms: C13_17  and  C14_18 
REMARK   15  A    between atoms: C14_18  and  C15_19 
REMARK   16  A    between atoms: C15_19  and  N3_20 
REMARK   17  A    between atoms: C32_48  and  O6_49 
ROOT
HETATM    1  N3  UNL     1      51.769  22.592 -17.253  1.00  0.00    -0.342 N 
HETATM    2  C16 UNL     1      51.515  22.634 -15.857  1.00  0.00     0.230 C 
HETATM    3  O1  UNL     1      50.444  22.401 -15.285  1.00  0.00    -0.273 OA
HETATM    4  C17 UNL     1      52.787  23.013 -15.207  1.00  0.00     0.126 A 
HETATM    5  C18 UNL     1      53.890  22.031 -15.623  1.00  0.00    -0.035 A 
HETATM    6  C19 UNL     1      54.377  20.839 -15.341  1.00  0.00     0.022 C 
HETATM    7  C20 UNL     1      53.830  19.944 -14.286  1.00  0.00     0.060 C 
HETATM    8  C21 UNL     1      55.493  20.357 -16.087  1.00  0.00     0.095 C 
HETATM    9  N4  UNL     1      56.401  19.979 -16.710  1.00  0.00    -0.192 NA
HETATM   10  C22 UNL     1      53.732  23.311 -16.271  1.00  0.00     0.058 A 
HETATM   11  C23 UNL     1      52.883  23.523 -17.486  1.00  0.00     0.126 C 
HETATM   12  C24 UNL     1      52.295  24.889 -17.444  1.00  0.00     0.003 C 
HETATM   13  C25 UNL     1      52.934  25.880 -16.849  1.00  0.00     0.050 C 
HETATM   14  C26 UNL     1      54.232  25.729 -16.200  1.00  0.00     0.177 C 
HETATM   15  O2  UNL     1      54.881  26.680 -15.722  1.00  0.00    -0.291 OA
HETATM   16  C27 UNL     1      54.798  24.378 -16.107  1.00  0.00     0.201 C 
HETATM   17  C28 UNL     1      56.003  24.123 -16.923  1.00  0.00     0.251 C 
HETATM   18  O3  UNL     1      56.255  23.935 -18.158  1.00  0.00    -0.271 OA
HETATM   19  N5  UNL     1      56.796  24.171 -15.741  1.00  0.00    -0.295 N 
ATOM     20  H5  UNL     1      57.797  24.242 -15.557  1.00  0.00     0.171 HD
HETATM   21  C29 UNL     1      55.632  24.082 -14.914  1.00  0.00     0.251 C 
HETATM   22  O4  UNL     1      55.363  23.857 -13.713  1.00  0.00    -0.271 OA
ENDROOT
BRANCH   1  23
HETATM   23  C15 UNL     1      51.123  21.831 -18.275  1.00  0.00     0.128 C 
BRANCH  23  24
HETATM   24  C14 UNL     1      51.141  20.349 -18.109  1.00  0.00     0.047 C 
BRANCH  24  25
HETATM   25  C13 UNL     1      50.760  19.568 -19.325  1.00  0.00     0.234 C 
BRANCH  25  26
HETATM   26  N2  UNL     1      51.804  19.641 -20.355  1.00  0.00    -0.075 N 
ATOM     27  H22 UNL     1      52.415  18.824 -20.340  1.00  0.00     0.277 HD
ATOM     28  H21 UNL     1      52.504  20.352 -20.142  1.00  0.00     0.277 HD
BRANCH  26  29
HETATM   29  C12 UNL     1      51.194  19.846 -21.663  1.00  0.00     0.234 C 
BRANCH  29  30
HETATM   30  C11 UNL     1      52.147  19.396 -22.739  1.00  0.00     0.047 C 
BRANCH  30  31
HETATM   31  C10 UNL     1      53.558  19.688 -22.231  1.00  0.00     0.125 C 
BRANCH  31  32
HETATM   32  N1  UNL     1      54.520  19.631 -23.284  1.00  0.00    -0.371 N 
BRANCH  32  33
HETATM   33  C9  UNL     1      54.594  20.783 -24.210  1.00  0.00     0.127 C 
BRANCH  33  34
HETATM   34  C8  UNL     1      55.632  21.760 -23.782  1.00  0.00     0.046 C 
BRANCH  34  35
HETATM   35  C7  UNL     1      55.243  23.166 -23.778  1.00  0.00    -0.029 C 
BRANCH  35  36
HETATM   36  C6  UNL     1      55.198  24.014 -22.600  1.00  0.00    -0.030 C 
BRANCH  36  37
HETATM   37  C5  UNL     1      55.650  25.412 -22.597  1.00  0.00     0.031 C 
BRANCH  37  38
HETATM   38  C3  UNL     1      55.067  26.027 -21.285  1.00  0.00    -0.016 C 
HETATM   39  C4  UNL     1      54.106  25.105 -20.619  1.00  0.00     0.010 C 
BRANCH  38  40
HETATM   40  C2  UNL     1      56.198  26.461 -20.400  1.00  0.00    -0.000 C 
HETATM   41  C1  UNL     1      55.702  27.299 -19.254  1.00  0.00     0.005 C 
ENDBRANCH  38  40
ENDBRANCH  37  38
ENDBRANCH  36  37
ENDBRANCH  35  36
ENDBRANCH  34  35
ENDBRANCH  33  34
ENDBRANCH  32  33
BRANCH  32  42
HETATM   42  C30 UNL     1      55.435  18.566 -23.544  1.00  0.00     0.128 A 
HETATM   43  S1  UNL     1      55.699  17.772 -25.070  1.00  0.00    -0.007 SA
HETATM   44  C31 UNL     1      56.897  16.670 -24.572  1.00  0.00     0.292 A 
HETATM   45  O5  UNL     1      57.525  15.776 -25.250  1.00  0.00    -0.260 OA
HETATM   46  N6  UNL     1      57.045  16.947 -23.282  1.00  0.00    -0.296 N 
HETATM   47  C32 UNL     1      56.320  17.894 -22.752  1.00  0.00     0.178 A 
ATOM     48  H6  UNL     1      57.714  16.428 -22.715  1.00  0.00     0.171 HD
BRANCH  47  49
HETATM   49  O6  UNL     1      56.440  18.232 -21.368  1.00  0.00    -0.344 OA
ATOM     50  H6  UNL     1      56.191  17.603 -20.702  1.00  0.00     0.219 HD
ENDBRANCH  47  49
ENDBRANCH  32  42
ENDBRANCH  31  32
ENDBRANCH  30  31
ENDBRANCH  29  30
ENDBRANCH  26  29
ENDBRANCH  25  26
ENDBRANCH  24  25
ENDBRANCH  23  24
ENDBRANCH   1  23
TORSDOF 17
ENDMDL
MODEL 3
REMARK VINA RESULT: -5.825536058      2.648      5.525
REMARK  17 active torsions:
REMARK  status: ('A' for Active; 'I' for Inactive)
REMARK    1  A    between atoms: C2_2  and  C3_3 
REMARK    2  A    between atoms: C3_3  and  C5_5 
REMARK    3  A    between atoms: C5_5  and  C6_6 
REMARK    4  A    between atoms: C6_6  and  C7_7 
REMARK    5  A    between atoms: C7_7  and  C8_8 
REMARK    6  A    between atoms: C8_8  and  C9_9 
REMARK    7  A    between atoms: C9_9  and  N1_10 
REMARK    8  A    between atoms: N1_10  and  C10_11 
REMARK    9  A    between atoms: N1_10  and  C30_42 
REMARK   10  A    between atoms: C10_11  and  C11_12 
REMARK   11  A    between atoms: C11_12  and  C12_13 
REMARK   12  A    between atoms: C12_13  and  N2_14 
REMARK   13  A    between atoms: N2_14  and  C13_17 
REMARK   14  A    between atoms: C13_17  and  C14_18 
REMARK   15  A    between atoms: C14_18  and  C15_19 
REMARK   16  A    between atoms: C15_19  and  N3_20 
REMARK   17  A    between atoms: C32_48  and  O6_49 
ROOT
HETATM    1  N3  UNL     1      52.443  22.200 -16.722  1.00  0.00    -0.342 N 
HETATM    2  C16 UNL     1      53.385  21.248 -17.191  1.00  0.00     0.230 C 
HETATM    3  O1  UNL     1      53.421  20.722 -18.310  1.00  0.00    -0.273 OA
HETATM    4  C17 UNL     1      54.326  20.999 -16.079  1.00  0.00     0.126 A 
HETATM    5  C18 UNL     1      54.941  22.328 -15.620  1.00  0.00    -0.035 A 
HETATM    6  C19 UNL     1      55.894  23.187 -15.919  1.00  0.00     0.022 C 
HETATM    7  C20 UNL     1      56.833  23.026 -17.061  1.00  0.00     0.060 C 
HETATM    8  C21 UNL     1      56.048  24.353 -15.112  1.00  0.00     0.095 C 
HETATM    9  N4  UNL     1      56.154  25.301 -14.445  1.00  0.00    -0.192 NA
HETATM   10  C22 UNL     1      53.821  21.732 -14.929  1.00  0.00     0.058 A 
HETATM   11  C23 UNL     1      52.392  22.029 -15.263  1.00  0.00     0.126 C 
HETATM   12  C24 UNL     1      51.567  20.814 -15.019  1.00  0.00     0.003 C 
HETATM   13  C25 UNL     1      51.907  19.945 -14.085  1.00  0.00     0.050 C 
HETATM   14  C26 UNL     1      53.085  20.091 -13.235  1.00  0.00     0.177 C 
HETATM   15  O2  UNL     1      53.356  19.324 -12.291  1.00  0.00    -0.291 OA
HETATM   16  C27 UNL     1      53.997  21.206 -13.516  1.00  0.00     0.201 C 
HETATM   17  C28 UNL     1      54.042  22.279 -12.502  1.00  0.00     0.251 C 
HETATM   18  O3  UNL     1      53.285  23.241 -12.145  1.00  0.00    -0.271 OA
HETATM   19  N5  UNL     1      55.309  21.794 -12.067  1.00  0.00    -0.295 N 
ATOM     20  H5  UNL     1      55.892  21.961 -11.247  1.00  0.00     0.171 HD
HETATM   21  C29 UNL     1      55.438  20.980 -13.236  1.00  0.00     0.251 C 
HETATM   22  O4  UNL     1      56.335  20.333 -13.821  1.00  0.00    -0.271 OA
ENDROOT
BRANCH   1  23
HETATM   23  C15 UNL     1      51.672  23.156 -17.452  1.00  0.00     0.128 C 
BRANCH  23  24
HETATM   24  C14 UNL     1      50.307  22.723 -17.871  1.00  0.00     0.047 C 
BRANCH  24  25
HETATM   25  C13 UNL     1      50.270  21.730 -18.987  1.00  0.00     0.234 C 
BRANCH  25  26
HETATM   26  N2  UNL     1      51.231  22.076 -20.042  1.00  0.00    -0.075 N 
ATOM     27  H22 UNL     1      52.130  22.369 -19.660  1.00  0.00     0.277 HD
ATOM     28  H21 UNL     1      50.983  22.944 -20.517  1.00  0.00     0.277 HD
BRANCH  26  29
HETATM   29  C12 UNL     1      51.366  20.961 -20.972  1.00  0.00     0.234 C 
BRANCH  29  30
HETATM   30  C11 UNL     1      52.520  21.220 -21.904  1.00  0.00     0.047 C 
BRANCH  30  31
HETATM   31  C10 UNL     1      53.421  19.986 -21.846  1.00  0.00     0.125 C 
BRANCH  31  32
HETATM   32  N1  UNL     1      54.333  19.949 -22.944  1.00  0.00    -0.371 N 
BRANCH  32  33
HETATM   33  C9  UNL     1      54.358  21.113 -23.857  1.00  0.00     0.127 C 
BRANCH  33  34
HETATM   34  C8  UNL     1      55.663  21.827 -23.793  1.00  0.00     0.046 C 
BRANCH  34  35
HETATM   35  C7  UNL     1      55.607  23.272 -23.592  1.00  0.00    -0.029 C 
BRANCH  35  36
HETATM   36  C6  UNL     1      54.956  23.931 -22.474  1.00  0.00    -0.030 C 
BRANCH  36  37
HETATM   37  C5  UNL     1      55.554  25.060 -21.746  1.00  0.00     0.031 C 
BRANCH  37  38
HETATM   38  C3  UNL     1      54.868  25.051 -20.343  1.00  0.00    -0.016 C 
HETATM   39  C4  UNL     1      54.492  23.675 -19.918  1.00  0.00     0.010 C 
BRANCH  38  40
HETATM   40  C2  UNL     1      55.748  25.767 -19.361  1.00  0.00    -0.000 C 
HETATM   41  C1  UNL     1      56.457  26.924 -20.011  1.00  0.00     0.005 C 
ENDBRANCH  38  40
ENDBRANCH  37  38
ENDBRANCH  36  37
ENDBRANCH  35  36
ENDBRANCH  34  35
ENDBRANCH  33  34
ENDBRANCH  32  33
BRANCH  32  42
HETATM   42  C30 UNL     1      55.241  18.892 -23.259  1.00  0.00     0.128 A 
HETATM   43  S1  UNL     1      55.442  18.123 -24.807  1.00  0.00    -0.007 SA
HETATM   44  C31 UNL     1      56.665  17.021 -24.380  1.00  0.00     0.292 A 
HETATM   45  O5  UNL     1      57.267  16.141 -25.097  1.00  0.00    -0.260 OA
HETATM   46  N6  UNL     1      56.868  17.279 -23.093  1.00  0.00    -0.296 N 
HETATM   47  C32 UNL     1      56.163  18.214 -22.517  1.00  0.00     0.178 A 
ATOM     48  H6  UNL     1      57.564  16.755 -22.563  1.00  0.00     0.171 HD
BRANCH  47  49
HETATM   49  O6  UNL     1      56.342  18.531 -21.135  1.00  0.00    -0.344 OA
ATOM     50  H6  UNL     1      56.165  17.876 -20.470  1.00  0.00     0.219 HD
ENDBRANCH  47  49
ENDBRANCH  32  42
ENDBRANCH  31  32
ENDBRANCH  30  31
ENDBRANCH  29  30
ENDBRANCH  26  29
ENDBRANCH  25  26
ENDBRANCH  24  25
ENDBRANCH  23  24
ENDBRANCH   1  23
TORSDOF 17
ENDMDL
MODEL 4
REMARK VINA RESULT: -5.742277027      2.912      5.830
REMARK  17 active torsions:
REMARK  status: ('A' for Active; 'I' for Inactive)
REMARK    1  A    between atoms: C2_2  and  C3_3 
REMARK    2  A    between atoms: C3_3  and  C5_5 
REMARK    3  A    between atoms: C5_5  and  C6_6 
REMARK    4  A    between atoms: C6_6  and  C7_7 
REMARK    5  A    between atoms: C7_7  and  C8_8 
REMARK    6  A    between atoms: C8_8  and  C9_9 
REMARK    7  A    between atoms: C9_9  and  N1_10 
REMARK    8  A    between atoms: N1_10  and  C10_11 
REMARK    9  A    between atoms: N1_10  and  C30_42 
REMARK   10  A    between atoms: C10_11  and  C11_12 
REMARK   11  A    between atoms: C11_12  and  C12_13 
REMARK   12  A    between atoms: C12_13  and  N2_14 
REMARK   13  A    between atoms: N2_14  and  C13_17 
REMARK   14  A    between atoms: C13_17  and  C14_18 
REMARK   15  A    between atoms: C14_18  and  C15_19 
REMARK   16  A    between atoms: C15_19  and  N3_20 
REMARK   17  A    between atoms: C32_48  and  O6_49 
ROOT
HETATM    1  N3  UNL     1      51.511  21.404 -17.446  1.00  0.00    -0.342 N 
HETATM    2  C16 UNL     1      51.353  22.551 -16.625  1.00  0.00     0.230 C 
HETATM    3  O1  UNL     1      50.309  23.175 -16.406  1.00  0.00    -0.273 OA
HETATM    4  C17 UNL     1      52.688  22.862 -16.071  1.00  0.00     0.126 A 
HETATM    5  C18 UNL     1      53.242  21.630 -15.344  1.00  0.00    -0.035 A 
HETATM    6  C19 UNL     1      53.178  20.990 -14.194  1.00  0.00     0.022 C 
HETATM    7  C20 UNL     1      52.340  21.423 -13.044  1.00  0.00     0.060 C 
HETATM    8  C21 UNL     1      53.949  19.801 -14.024  1.00  0.00     0.095 C 
HETATM    9  N4  UNL     1      54.581  18.830 -13.906  1.00  0.00    -0.192 NA
HETATM   10  C22 UNL     1      53.628  21.947 -16.699  1.00  0.00     0.058 A 
HETATM   11  C23 UNL     1      52.908  21.428 -17.904  1.00  0.00     0.126 C 
HETATM   12  C24 UNL     1      52.968  22.445 -18.989  1.00  0.00     0.003 C 
HETATM   13  C25 UNL     1      53.994  23.272 -19.082  1.00  0.00     0.050 C 
HETATM   14  C26 UNL     1      55.123  23.264 -18.158  1.00  0.00     0.177 C 
HETATM   15  O2  UNL     1      56.136  23.977 -18.298  1.00  0.00    -0.291 OA
HETATM   16  C27 UNL     1      55.055  22.363 -17.001  1.00  0.00     0.201 C 
HETATM   17  C28 UNL     1      56.000  21.228 -17.007  1.00  0.00     0.251 C 
HETATM   18  O3  UNL     1      56.100  20.116 -17.622  1.00  0.00    -0.271 OA
HETATM   19  N5  UNL     1      56.781  21.892 -16.017  1.00  0.00    -0.295 N 
ATOM     20  H5  UNL     1      57.721  21.758 -15.644  1.00  0.00     0.171 HD
HETATM   21  C29 UNL     1      55.724  22.820 -15.756  1.00  0.00     0.251 C 
HETATM   22  O4  UNL     1      55.430  23.670 -14.886  1.00  0.00    -0.271 OA
ENDROOT
BRANCH   1  23
HETATM   23  C15 UNL     1      50.562  20.395 -17.797  1.00  0.00     0.128 C 
BRANCH  23  24
HETATM   24  C14 UNL     1      50.950  19.480 -18.910  1.00  0.00     0.047 C 
BRANCH  24  25
HETATM   25  C13 UNL     1      50.207  19.686 -20.190  1.00  0.00     0.234 C 
BRANCH  25  26
HETATM   26  N2  UNL     1      51.013  19.279 -21.347  1.00  0.00    -0.075 N 
ATOM     27  H22 UNL     1      50.445  18.854 -22.080  1.00  0.00     0.277 HD
ATOM     28  H21 UNL     1      51.607  18.477 -21.138  1.00  0.00     0.277 HD
BRANCH  26  29
HETATM   29  C12 UNL     1      51.781  20.417 -21.839  1.00  0.00     0.234 C 
BRANCH  29  30
HETATM   30  C11 UNL     1      53.236  20.040 -21.931  1.00  0.00     0.047 C 
BRANCH  30  31
HETATM   31  C10 UNL     1      53.465  19.501 -23.343  1.00  0.00     0.125 C 
BRANCH  31  32
HETATM   32  N1  UNL     1      54.847  19.529 -23.700  1.00  0.00    -0.371 N 
BRANCH  32  33
HETATM   33  C9  UNL     1      55.494  20.853 -23.835  1.00  0.00     0.127 C 
BRANCH  33  34
HETATM   34  C8  UNL     1      54.747  21.730 -24.778  1.00  0.00     0.046 C 
BRANCH  34  35
HETATM   35  C7  UNL     1      54.819  23.166 -24.529  1.00  0.00    -0.029 C 
BRANCH  35  36
HETATM   36  C6  UNL     1      55.663  23.796 -23.529  1.00  0.00    -0.030 C 
BRANCH  36  37
HETATM   37  C5  UNL     1      55.657  25.242 -23.266  1.00  0.00     0.031 C 
BRANCH  37  38
HETATM   38  C3  UNL     1      54.906  25.407 -21.906  1.00  0.00    -0.016 C 
HETATM   39  C4  UNL     1      55.704  26.190 -20.924  1.00  0.00     0.010 C 
BRANCH  38  40
HETATM   40  C2  UNL     1      53.542  25.975 -22.165  1.00  0.00    -0.000 C 
HETATM   41  C1  UNL     1      52.477  24.924 -22.006  1.00  0.00     0.005 C 
ENDBRANCH  38  40
ENDBRANCH  37  38
ENDBRANCH  36  37
ENDBRANCH  35  36
ENDBRANCH  34  35
ENDBRANCH  33  34
ENDBRANCH  32  33
BRANCH  32  42
HETATM   42  C30 UNL     1      55.686  18.399 -23.941  1.00  0.00     0.128 A 
HETATM   43  S1  UNL     1      55.928  17.591 -25.463  1.00  0.00    -0.007 SA
HETATM   44  C31 UNL     1      57.028  16.402 -24.940  1.00  0.00     0.292 A 
HETATM   45  O5  UNL     1      57.604  15.466 -25.605  1.00  0.00    -0.260 OA
HETATM   46  N6  UNL     1      57.165  16.665 -23.646  1.00  0.00    -0.296 N 
HETATM   47  C32 UNL     1      56.500  17.663 -23.130  1.00  0.00     0.178 A 
ATOM     48  H6  UNL     1      57.780  16.097 -23.065  1.00  0.00     0.171 HD
BRANCH  47  49
HETATM   49  O6  UNL     1      56.611  17.989 -21.743  1.00  0.00    -0.344 OA
ATOM     50  H6  UNL     1      57.108  18.752 -21.473  1.00  0.00     0.219 HD
ENDBRANCH  47  49
ENDBRANCH  32  42
ENDBRANCH  31  32
ENDBRANCH  30  31
ENDBRANCH  29  30
ENDBRANCH  26  29
ENDBRANCH  25  26
ENDBRANCH  24  25
ENDBRANCH  23  24
ENDBRANCH   1  23
TORSDOF 17
ENDMDL
MODEL 5
REMARK VINA RESULT: -5.664794908      1.939      3.503
REMARK  17 active torsions:
REMARK  status: ('A' for Active; 'I' for Inactive)
REMARK    1  A    between atoms: C2_2  and  C3_3 
REMARK    2  A    between atoms: C3_3  and  C5_5 
REMARK    3  A    between atoms: C5_5  and  C6_6 
REMARK    4  A    between atoms: C6_6  and  C7_7 
REMARK    5  A    between atoms: C7_7  and  C8_8 
REMARK    6  A    between atoms: C8_8  and  C9_9 
REMARK    7  A    between atoms: C9_9  and  N1_10 
REMARK    8  A    between atoms: N1_10  and  C10_11 
REMARK    9  A    between atoms: N1_10  and  C30_42 
REMARK   10  A    between atoms: C10_11  and  C11_12 
REMARK   11  A    between atoms: C11_12  and  C12_13 
REMARK   12  A    between atoms: C12_13  and  N2_14 
REMARK   13  A    between atoms: N2_14  and  C13_17 
REMARK   14  A    between atoms: C13_17  and  C14_18 
REMARK   15  A    between atoms: C14_18  and  C15_19 
REMARK   16  A    between atoms: C15_19  and  N3_20 
REMARK   17  A    between atoms: C32_48  and  O6_49 
ROOT
HETATM    1  N3  UNL     1      52.052  22.090 -16.096  1.00  0.00    -0.342 N 
HETATM    2  C16 UNL     1      52.865  21.180 -16.821  1.00  0.00     0.230 C 
HETATM    3  O1  UNL     1      52.669  20.751 -17.964  1.00  0.00    -0.273 OA
HETATM    4  C17 UNL     1      54.005  20.839 -15.945  1.00  0.00     0.126 A 
HETATM    5  C18 UNL     1      54.721  22.124 -15.509  1.00  0.00    -0.035 A 
HETATM    6  C19 UNL     1      55.610  23.005 -15.921  1.00  0.00     0.022 C 
HETATM    7  C20 UNL     1      56.299  22.941 -17.238  1.00  0.00     0.060 C 
HETATM    8  C21 UNL     1      55.941  24.099 -15.068  1.00  0.00     0.095 C 
HETATM    9  N4  UNL     1      56.195  24.988 -14.360  1.00  0.00    -0.192 NA
HETATM   10  C22 UNL     1      53.752  21.472 -14.660  1.00  0.00     0.058 A 
HETATM   11  C23 UNL     1      52.291  21.796 -14.675  1.00  0.00     0.126 C 
HETATM   12  C24 UNL     1      51.511  20.565 -14.372  1.00  0.00     0.003 C 
HETATM   13  C25 UNL     1      52.016  19.620 -13.600  1.00  0.00     0.050 C 
HETATM   14  C26 UNL     1      53.341  19.694 -12.995  1.00  0.00     0.177 C 
HETATM   15  O2  UNL     1      53.783  18.850 -12.191  1.00  0.00    -0.291 OA
HETATM   16  C27 UNL     1      54.198  20.829 -13.360  1.00  0.00     0.201 C 
HETATM   17  C28 UNL     1      54.462  21.812 -12.289  1.00  0.00     0.251 C 
HETATM   18  O3  UNL     1      53.809  22.740 -11.710  1.00  0.00    -0.271 OA
HETATM   19  N5  UNL     1      55.782  21.293 -12.159  1.00  0.00    -0.295 N 
ATOM     20  H5  UNL     1      56.520  21.390 -11.462  1.00  0.00     0.171 HD
HETATM   21  C29 UNL     1      55.662  20.580 -13.393  1.00  0.00     0.251 C 
HETATM   22  O4  UNL     1      56.413  19.985 -14.198  1.00  0.00    -0.271 OA
ENDROOT
BRANCH   1  23
HETATM   23  C15 UNL     1      51.166  23.104 -16.574  1.00  0.00     0.128 C 
BRANCH  23  24
HETATM   24  C14 UNL     1      51.627  23.878 -17.764  1.00  0.00     0.047 C 
BRANCH  24  25
HETATM   25  C13 UNL     1      52.846  24.714 -17.544  1.00  0.00     0.234 C 
BRANCH  25  26
HETATM   26  N2  UNL     1      53.637  24.841 -18.774  1.00  0.00    -0.075 N 
ATOM     27  H22 UNL     1      54.558  24.412 -18.684  1.00  0.00     0.277 HD
ATOM     28  H21 UNL     1      53.937  25.801 -18.940  1.00  0.00     0.277 HD
BRANCH  26  29
HETATM   29  C12 UNL     1      52.887  24.298 -19.901  1.00  0.00     0.234 C 
BRANCH  29  30
HETATM   30  C11 UNL     1      53.844  23.811 -20.956  1.00  0.00     0.047 C 
BRANCH  30  31
HETATM   31  C10 UNL     1      53.077  23.797 -22.277  1.00  0.00     0.125 C 
BRANCH  31  32
HETATM   32  N1  UNL     1      52.876  22.466 -22.755  1.00  0.00    -0.371 N 
BRANCH  32  33
HETATM   33  C9  UNL     1      53.446  22.118 -24.076  1.00  0.00     0.127 C 
BRANCH  33  34
HETATM   34  C8  UNL     1      54.931  22.214 -24.071  1.00  0.00     0.046 C 
BRANCH  34  35
HETATM   35  C7  UNL     1      55.662  20.994 -23.744  1.00  0.00    -0.029 C 
BRANCH  35  36
HETATM   36  C6  UNL     1      55.287  19.659 -24.174  1.00  0.00    -0.030 C 
BRANCH  36  37
HETATM   37  C5  UNL     1      55.206  18.511 -23.259  1.00  0.00     0.031 C 
BRANCH  37  38
HETATM   38  C3  UNL     1      56.644  17.902 -23.238  1.00  0.00    -0.016 C 
HETATM   39  C4  UNL     1      57.163  17.750 -21.851  1.00  0.00     0.010 C 
BRANCH  38  40
HETATM   40  C2  UNL     1      56.648  16.626 -24.027  1.00  0.00    -0.000 C 
HETATM   41  C1  UNL     1      57.167  16.851 -25.421  1.00  0.00     0.005 C 
ENDBRANCH  38  40
ENDBRANCH  37  38
ENDBRANCH  36  37
ENDBRANCH  35  36
ENDBRANCH  34  35
ENDBRANCH  33  34
ENDBRANCH  32  33
BRANCH  32  42
HETATM   42  C30 UNL     1      52.176  21.418 -22.084  1.00  0.00     0.128 A 
HETATM   43  S1  UNL     1      50.494  21.013 -22.261  1.00  0.00    -0.007 SA
HETATM   44  C31 UNL     1      50.438  19.702 -21.178  1.00  0.00     0.292 A 
HETATM   45  O5  UNL     1      49.451  18.947 -20.849  1.00  0.00    -0.260 OA
HETATM   46  N6  UNL     1      51.687  19.626 -20.732  1.00  0.00    -0.296 N 
HETATM   47  C32 UNL     1      52.569  20.479 -21.176  1.00  0.00     0.178 A 
ATOM     48  H6  UNL     1      51.951  18.913 -20.052  1.00  0.00     0.171 HD
BRANCH  47  49
HETATM   49  O6  UNL     1      53.926  20.441 -20.728  1.00  0.00    -0.344 OA
ATOM     50  H6  UNL     1      54.119  20.312 -19.806  1.00  0.00     0.219 HD
ENDBRANCH  47  49
ENDBRANCH  32  42
ENDBRANCH  31  32
ENDBRANCH  30  31
ENDBRANCH  29  30
ENDBRANCH  26  29
ENDBRANCH  25  26
ENDBRANCH  24  25
ENDBRANCH  23  24
ENDBRANCH   1  23
TORSDOF 17
ENDMDL
