MODEL 1
REMARK VINA RESULT: -5.328390555      0.000      0.000
REMARK  20 active torsions:
REMARK  status: ('A' for Active; 'I' for Inactive)
REMARK    1  A    between atoms: O1_2  and  C2_3 
REMARK    2  A    between atoms: C2_3  and  C3_4 
REMARK    3  A    between atoms: C3_4  and  O2_5 
REMARK    4  A    between atoms: O2_5  and  C4_6 
REMARK    5  A    between atoms: C4_6  and  C5_7 
REMARK    6  A    between atoms: C5_7  and  N1_8 
REMARK    7  A    between atoms: N1_8  and  C6_9 
REMARK    8  A    between atoms: N1_8  and  C12_21 
REMARK    9  A    between atoms: C6_9  and  C7_10 
REMARK   10  A    between atoms: C7_10  and  S1_11 
REMARK   11  A    between atoms: S1_11  and  C8_12 
REMARK       I    between atoms: C8_12  and  N2_14 
REMARK   12  A    between atoms: N2_14  and  C9_16 
REMARK   13  A    between atoms: C9_16  and  C10_17 
REMARK   14  A    between atoms: C10_17  and  C11_18 
REMARK   15  A    between atoms: C11_18  and  O4_19 
REMARK   16  A    between atoms: C12_21  and  C13_22 
REMARK   17  A    between atoms: C21_30  and  O5_31 
REMARK   18  A    between atoms: C23_35  and  O7_36 
REMARK   19  A    between atoms: C26_40  and  O8_41 
REMARK   20  A    between atoms: O8_41  and  C27_42 
ROOT
HETATM    1  C13 UNL     1      52.301  23.018 -19.165  1.00  0.00     0.140 C 
HETATM    2  C14 UNL     1      53.570  22.680 -20.003  1.00  0.00     0.037 C 
HETATM    3  C15 UNL     1      54.490  23.898 -19.767  1.00  0.00     0.030 C 
HETATM    4  C16 UNL     1      55.444  23.779 -18.693  1.00  0.00    -0.022 C 
HETATM    5  C17 UNL     1      55.457  24.493 -17.405  1.00  0.00    -0.064 C 
HETATM    6  C18 UNL     1      54.507  25.636 -17.257  1.00  0.00     0.005 C 
HETATM    7  C19 UNL     1      54.791  26.556 -16.079  1.00  0.00     0.022 C 
HETATM    8  C20 UNL     1      54.866  26.599 -18.417  1.00  0.00     0.022 C 
HETATM    9  C21 UNL     1      53.072  25.294 -17.207  1.00  0.00     0.161 C 
HETATM   10  C22 UNL     1      52.627  23.916 -17.017  1.00  0.00     0.180 C 
HETATM   11  O6  UNL     1      52.768  22.954 -17.932  1.00  0.00    -0.374 OA
HETATM   12  C23 UNL     1      53.151  23.249 -15.734  1.00  0.00     0.154 C 
HETATM   13  C24 UNL     1      54.503  22.666 -15.932  1.00  0.00     0.032 C 
HETATM   14  C25 UNL     1      54.839  21.815 -14.746  1.00  0.00     0.041 C 
HETATM   15  C26 UNL     1      56.022  20.916 -15.002  1.00  0.00     0.132 C 
HETATM   16  C29 UNL     1      56.517  21.180 -16.387  1.00  0.00     0.034 C 
HETATM   17  C30 UNL     1      56.815  22.637 -16.610  1.00  0.00     0.016 C 
HETATM   18  C31 UNL     1      55.643  23.560 -16.228  1.00  0.00    -0.014 C 
HETATM   19  C32 UNL     1      56.072  24.204 -14.953  1.00  0.00     0.020 C 
ENDROOT
BRANCH   1  20
HETATM   20  C12 UNL     1      51.275  22.069 -19.648  1.00  0.00     0.159 C 
BRANCH  20  21
HETATM   21  N1  UNL     1      51.522  20.663 -19.422  1.00  0.00    -0.369 N 
BRANCH  21  22
HETATM   22  C5  UNL     1      51.237  20.200 -18.142  1.00  0.00     0.089 C 
BRANCH  22  23
HETATM   23  C4  UNL     1      50.019  20.573 -17.414  1.00  0.00     0.212 C 
BRANCH  23  24
HETATM   24  O2  UNL     1      50.284  21.259 -16.205  1.00  0.00    -0.384 OA
BRANCH  24  25
HETATM   25  C3  UNL     1      50.091  20.510 -15.080  1.00  0.00     0.194 C 
BRANCH  25  26
HETATM   26  C2  UNL     1      51.397  20.322 -14.300  1.00  0.00     0.193 C 
BRANCH  26  27
HETATM   27  O1  UNL     1      51.595  21.316 -13.367  1.00  0.00    -0.394 OA
HETATM   28  C1  UNL     1      50.473  21.710 -12.685  1.00  0.00     0.201 C 
ENDBRANCH  26  27
ENDBRANCH  25  26
ENDBRANCH  24  25
ENDBRANCH  23  24
ENDBRANCH  22  23
ENDBRANCH  21  22
BRANCH  21  29
HETATM   29  C6  UNL     1      51.245  19.902 -20.571  1.00  0.00     0.073 C 
BRANCH  29  30
HETATM   30  C7  UNL     1      51.351  20.505 -21.917  1.00  0.00     0.128 C 
BRANCH  30  31
HETATM   31  S1  UNL     1      51.965  19.273 -23.144  1.00  0.00    -0.064 SA
BRANCH  31  32
HETATM   32  C8  UNL     1      53.785  19.332 -23.043  1.00  0.00     0.283 C 
HETATM   33  O3  UNL     1      54.270  20.107 -22.193  1.00  0.00    -0.260 OA
HETATM   34  N2  UNL     1      54.550  18.527 -23.902  1.00  0.00    -0.332 N 
ATOM     35  H2  UNL     1      54.025  17.955 -24.562  1.00  0.00     0.168 HD
BRANCH  34  36
HETATM   36  C9  UNL     1      55.948  18.414 -23.963  1.00  0.00     0.067 C 
BRANCH  36  37
HETATM   37  C10 UNL     1      56.658  17.256 -23.390  1.00  0.00     0.070 C 
BRANCH  37  38
HETATM   38  C11 UNL     1      57.181  17.312 -22.000  1.00  0.00     0.169 C 
BRANCH  38  39
HETATM   39  O4  UNL     1      56.311  18.145 -21.218  1.00  0.00    -0.401 OA
ATOM     40  H4  UNL     1      56.826  18.846 -20.835  1.00  0.00     0.209 HD
ENDBRANCH  38  39
ENDBRANCH  37  38
ENDBRANCH  36  37
ENDBRANCH  34  36
ENDBRANCH  31  32
ENDBRANCH  30  31
ENDBRANCH  29  30
ENDBRANCH  21  29
ENDBRANCH  20  21
ENDBRANCH   1  20
BRANCH   9  41
HETATM   41  O5  UNL     1      52.400  26.068 -16.209  1.00  0.00    -0.392 OA
ATOM     42  H5  UNL     1      51.462  25.926 -16.247  1.00  0.00     0.210 HD
ENDBRANCH   9  41
BRANCH  12  43
HETATM   43  O7  UNL     1      52.876  23.915 -14.590  1.00  0.00    -0.392 OA
ATOM     44  H7  UNL     1      52.727  23.364 -13.831  1.00  0.00     0.210 HD
ENDBRANCH  12  43
BRANCH  15  45
HETATM   45  O8  UNL     1      55.662  19.547 -14.882  1.00  0.00    -0.316 OA
BRANCH  45  46
HETATM   46  C27 UNL     1      55.555  18.900 -13.668  1.00  0.00     0.255 C 
HETATM   47  C28 UNL     1      54.274  18.258 -13.240  1.00  0.00     0.126 C 
HETATM   48  O9  UNL     1      56.543  18.844 -12.900  1.00  0.00    -0.266 OA
ENDBRANCH  45  46
ENDBRANCH  15  45
TORSDOF 20
ENDMDL
MODEL 2
REMARK VINA RESULT: -5.135772619      1.528      3.607
REMARK  20 active torsions:
REMARK  status: ('A' for Active; 'I' for Inactive)
REMARK    1  A    between atoms: O1_2  and  C2_3 
REMARK    2  A    between atoms: C2_3  and  C3_4 
REMARK    3  A    between atoms: C3_4  and  O2_5 
REMARK    4  A    between atoms: O2_5  and  C4_6 
REMARK    5  A    between atoms: C4_6  and  C5_7 
REMARK    6  A    between atoms: C5_7  and  N1_8 
REMARK    7  A    between atoms: N1_8  and  C6_9 
REMARK    8  A    between atoms: N1_8  and  C12_21 
REMARK    9  A    between atoms: C6_9  and  C7_10 
REMARK   10  A    between atoms: C7_10  and  S1_11 
REMARK   11  A    between atoms: S1_11  and  C8_12 
REMARK       I    between atoms: C8_12  and  N2_14 
REMARK   12  A    between atoms: N2_14  and  C9_16 
REMARK   13  A    between atoms: C9_16  and  C10_17 
REMARK   14  A    between atoms: C10_17  and  C11_18 
REMARK   15  A    between atoms: C11_18  and  O4_19 
REMARK   16  A    between atoms: C12_21  and  C13_22 
REMARK   17  A    between atoms: C21_30  and  O5_31 
REMARK   18  A    between atoms: C23_35  and  O7_36 
REMARK   19  A    between atoms: C26_40  and  O8_41 
REMARK   20  A    between atoms: O8_41  and  C27_42 
ROOT
HETATM    1  C13 UNL     1      52.377  22.640 -19.174  1.00  0.00     0.140 C 
HETATM    2  C14 UNL     1      53.709  22.407 -19.948  1.00  0.00     0.037 C 
HETATM    3  C15 UNL     1      54.520  23.689 -19.658  1.00  0.00     0.030 C 
HETATM    4  C16 UNL     1      55.425  23.632 -18.537  1.00  0.00    -0.022 C 
HETATM    5  C17 UNL     1      55.320  24.331 -17.246  1.00  0.00    -0.064 C 
HETATM    6  C18 UNL     1      54.279  25.397 -17.139  1.00  0.00     0.005 C 
HETATM    7  C19 UNL     1      54.433  26.323 -15.942  1.00  0.00     0.022 C 
HETATM    8  C20 UNL     1      54.621  26.397 -18.273  1.00  0.00     0.022 C 
HETATM    9  C21 UNL     1      52.873  24.947 -17.164  1.00  0.00     0.161 C 
HETATM   10  C22 UNL     1      52.526  23.538 -17.006  1.00  0.00     0.180 C 
HETATM   11  O6  UNL     1      52.785  22.598 -17.919  1.00  0.00    -0.374 OA
HETATM   12  C23 UNL     1      53.034  22.899 -15.702  1.00  0.00     0.154 C 
HETATM   13  C24 UNL     1      54.434  22.421 -15.835  1.00  0.00     0.032 C 
HETATM   14  C25 UNL     1      54.775  21.587 -14.640  1.00  0.00     0.041 C 
HETATM   15  C26 UNL     1      56.034  20.783 -14.841  1.00  0.00     0.132 C 
HETATM   16  C29 UNL     1      56.576  21.098 -16.198  1.00  0.00     0.034 C 
HETATM   17  C30 UNL     1      56.773  22.576 -16.396  1.00  0.00     0.016 C 
HETATM   18  C31 UNL     1      55.517  23.402 -16.067  1.00  0.00    -0.014 C 
HETATM   19  C32 UNL     1      55.831  24.064 -14.768  1.00  0.00     0.020 C 
ENDROOT
BRANCH   1  20
HETATM   20  C12 UNL     1      51.452  21.621 -19.714  1.00  0.00     0.159 C 
BRANCH  20  21
HETATM   21  N1  UNL     1      50.611  22.017 -20.820  1.00  0.00    -0.369 N 
BRANCH  21  22
HETATM   22  C5  UNL     1      50.585  23.379 -21.099  1.00  0.00     0.089 C 
BRANCH  22  23
HETATM   23  C4  UNL     1      51.054  23.940 -22.371  1.00  0.00     0.212 C 
BRANCH  23  24
HETATM   24  O2  UNL     1      52.281  24.637 -22.252  1.00  0.00    -0.384 OA
BRANCH  24  25
HETATM   25  C3  UNL     1      53.080  24.559 -23.356  1.00  0.00     0.194 C 
BRANCH  25  26
HETATM   26  C2  UNL     1      53.621  23.139 -23.557  1.00  0.00     0.193 C 
BRANCH  26  27
HETATM   27  O1  UNL     1      54.932  23.018 -23.150  1.00  0.00    -0.394 OA
HETATM   28  C1  UNL     1      55.692  24.151 -23.277  1.00  0.00     0.201 C 
ENDBRANCH  26  27
ENDBRANCH  25  26
ENDBRANCH  24  25
ENDBRANCH  23  24
ENDBRANCH  22  23
ENDBRANCH  21  22
BRANCH  21  29
HETATM   29  C6  UNL     1      50.607  21.047 -21.837  1.00  0.00     0.073 C 
BRANCH  29  30
HETATM   30  C7  UNL     1      51.392  19.801 -21.691  1.00  0.00     0.128 C 
BRANCH  30  31
HETATM   31  S1  UNL     1      52.010  19.218 -23.328  1.00  0.00    -0.064 SA
BRANCH  31  32
HETATM   32  C8  UNL     1      53.829  19.206 -23.199  1.00  0.00     0.283 C 
HETATM   33  O3  UNL     1      54.325  19.862 -22.261  1.00  0.00    -0.260 OA
HETATM   34  N2  UNL     1      54.582  18.479 -24.135  1.00  0.00    -0.332 N 
ATOM     35  H2  UNL     1      54.050  18.003 -24.863  1.00  0.00     0.168 HD
BRANCH  34  36
HETATM   36  C9  UNL     1      55.977  18.327 -24.192  1.00  0.00     0.067 C 
BRANCH  36  37
HETATM   37  C10 UNL     1      56.683  17.333 -23.363  1.00  0.00     0.070 C 
BRANCH  37  38
HETATM   38  C11 UNL     1      56.960  17.615 -21.930  1.00  0.00     0.169 C 
BRANCH  38  39
HETATM   39  O4  UNL     1      58.361  17.409 -21.687  1.00  0.00    -0.401 OA
ATOM     40  H4  UNL     1      58.459  16.924 -20.876  1.00  0.00     0.209 HD
ENDBRANCH  38  39
ENDBRANCH  37  38
ENDBRANCH  36  37
ENDBRANCH  34  36
ENDBRANCH  31  32
ENDBRANCH  30  31
ENDBRANCH  29  30
ENDBRANCH  21  29
ENDBRANCH  20  21
ENDBRANCH   1  20
BRANCH   9  41
HETATM   41  O5  UNL     1      52.095  25.657 -16.196  1.00  0.00    -0.392 OA
ATOM     42  H5  UNL     1      52.430  25.509 -15.320  1.00  0.00     0.210 HD
ENDBRANCH   9  41
BRANCH  12  43
HETATM   43  O7  UNL     1      52.652  23.530 -14.570  1.00  0.00    -0.392 OA
ATOM     44  H7  UNL     1      52.076  23.028 -14.005  1.00  0.00     0.210 HD
ENDBRANCH  12  43
BRANCH  15  45
HETATM   45  O8  UNL     1      55.775  19.389 -14.749  1.00  0.00    -0.316 OA
BRANCH  45  46
HETATM   46  C27 UNL     1      55.612  18.732 -13.547  1.00  0.00     0.255 C 
HETATM   47  C28 UNL     1      54.281  18.195 -13.127  1.00  0.00     0.126 C 
HETATM   48  O9  UNL     1      56.592  18.575 -12.782  1.00  0.00    -0.266 OA
ENDBRANCH  45  46
ENDBRANCH  15  45
TORSDOF 20
ENDMDL
MODEL 3
REMARK VINA RESULT: -5.121511416      2.079      4.413
REMARK  20 active torsions:
REMARK  status: ('A' for Active; 'I' for Inactive)
REMARK    1  A    between atoms: O1_2  and  C2_3 
REMARK    2  A    between atoms: C2_3  and  C3_4 
REMARK    3  A    between atoms: C3_4  and  O2_5 
REMARK    4  A    between atoms: O2_5  and  C4_6 
REMARK    5  A    between atoms: C4_6  and  C5_7 
REMARK    6  A    between atoms: C5_7  and  N1_8 
REMARK    7  A    between atoms: N1_8  and  C6_9 
REMARK    8  A    between atoms: N1_8  and  C12_21 
REMARK    9  A    between atoms: C6_9  and  C7_10 
REMARK   10  A    between atoms: C7_10  and  S1_11 
REMARK   11  A    between atoms: S1_11  and  C8_12 
REMARK       I    between atoms: C8_12  and  N2_14 
REMARK   12  A    between atoms: N2_14  and  C9_16 
REMARK   13  A    between atoms: C9_16  and  C10_17 
REMARK   14  A    between atoms: C10_17  and  C11_18 
REMARK   15  A    between atoms: C11_18  and  O4_19 
REMARK   16  A    between atoms: C12_21  and  C13_22 
REMARK   17  A    between atoms: C21_30  and  O5_31 
REMARK   18  A    between atoms: C23_35  and  O7_36 
REMARK   19  A    between atoms: C26_40  and  O8_41 
REMARK   20  A    between atoms: O8_41  and  C27_42 
ROOT
HETATM    1  C13 UNL     1      52.310  22.311 -19.306  1.00  0.00     0.140 C 
HETATM    2  C14 UNL     1      53.656  22.140 -20.072  1.00  0.00     0.037 C 
HETATM    3  C15 UNL     1      54.381  23.482 -19.828  1.00  0.00     0.030 C 
HETATM    4  C16 UNL     1      55.285  23.525 -18.707  1.00  0.00    -0.022 C 
HETATM    5  C17 UNL     1      55.132  24.260 -17.441  1.00  0.00    -0.064 C 
HETATM    6  C18 UNL     1      54.023  25.259 -17.371  1.00  0.00     0.005 C 
HETATM    7  C19 UNL     1      54.113  26.235 -16.208  1.00  0.00     0.022 C 
HETATM    8  C20 UNL     1      54.301  26.238 -18.540  1.00  0.00     0.022 C 
HETATM    9  C21 UNL     1      52.650  24.717 -17.379  1.00  0.00     0.161 C 
HETATM   10  C22 UNL     1      52.396  23.294 -17.172  1.00  0.00     0.180 C 
HETATM   11  O6  UNL     1      52.718  22.342 -18.050  1.00  0.00    -0.374 OA
HETATM   12  C23 UNL     1      52.943  22.736 -15.846  1.00  0.00     0.154 C 
HETATM   13  C24 UNL     1      54.372  22.348 -15.963  1.00  0.00     0.032 C 
HETATM   14  C25 UNL     1      54.765  21.580 -14.738  1.00  0.00     0.041 C 
HETATM   15  C26 UNL     1      56.074  20.854 -14.912  1.00  0.00     0.132 C 
HETATM   16  C29 UNL     1      56.597  21.156 -16.279  1.00  0.00     0.034 C 
HETATM   17  C30 UNL     1      56.696  22.636 -16.530  1.00  0.00     0.016 C 
HETATM   18  C31 UNL     1      55.387  23.389 -16.230  1.00  0.00    -0.014 C 
HETATM   19  C32 UNL     1      55.655  24.116 -14.956  1.00  0.00     0.020 C 
ENDROOT
BRANCH   1  20
HETATM   20  C12 UNL     1      51.456  21.215 -19.809  1.00  0.00     0.159 C 
BRANCH  20  21
HETATM   21  N1  UNL     1      51.428  21.006 -21.239  1.00  0.00    -0.369 N 
BRANCH  21  22
HETATM   22  C5  UNL     1      51.626  19.695 -21.658  1.00  0.00     0.089 C 
BRANCH  22  23
HETATM   23  C4  UNL     1      52.250  19.356 -22.942  1.00  0.00     0.212 C 
BRANCH  23  24
HETATM   24  O2  UNL     1      53.524  19.949 -23.114  1.00  0.00    -0.384 OA
BRANCH  24  25
HETATM   25  C3  UNL     1      54.522  19.352 -22.398  1.00  0.00     0.194 C 
BRANCH  25  26
HETATM   26  C2  UNL     1      55.560  18.701 -23.320  1.00  0.00     0.193 C 
BRANCH  26  27
HETATM   27  O1  UNL     1      56.777  18.531 -22.697  1.00  0.00    -0.394 OA
HETATM   28  C1  UNL     1      56.867  17.436 -21.877  1.00  0.00     0.201 C 
ENDBRANCH  26  27
ENDBRANCH  25  26
ENDBRANCH  24  25
ENDBRANCH  23  24
ENDBRANCH  22  23
ENDBRANCH  21  22
BRANCH  21  29
HETATM   29  C6  UNL     1      50.505  21.859 -21.866  1.00  0.00     0.073 C 
BRANCH  29  30
HETATM   30  C7  UNL     1      50.963  23.077 -22.569  1.00  0.00     0.128 C 
BRANCH  30  31
HETATM   31  S1  UNL     1      51.212  22.744 -24.366  1.00  0.00    -0.064 SA
BRANCH  31  32
HETATM   32  C8  UNL     1      52.996  22.973 -24.672  1.00  0.00     0.283 C 
HETATM   33  O3  UNL     1      53.325  23.281 -25.835  1.00  0.00    -0.260 OA
HETATM   34  N2  UNL     1      53.905  22.798 -23.617  1.00  0.00    -0.332 N 
ATOM     35  H2  UNL     1      53.502  22.527 -22.720  1.00  0.00     0.168 HD
BRANCH  34  36
HETATM   36  C9  UNL     1      55.301  22.950 -23.644  1.00  0.00     0.067 C 
BRANCH  36  37
HETATM   37  C10 UNL     1      55.956  24.185 -23.175  1.00  0.00     0.070 C 
BRANCH  37  38
HETATM   38  C11 UNL     1      55.734  25.468 -23.890  1.00  0.00     0.169 C 
BRANCH  38  39
HETATM   39  O4  UNL     1      55.507  25.183 -25.280  1.00  0.00    -0.401 OA
ATOM     40  H4  UNL     1      55.670  25.973 -25.781  1.00  0.00     0.209 HD
ENDBRANCH  38  39
ENDBRANCH  37  38
ENDBRANCH  36  37
ENDBRANCH  34  36
ENDBRANCH  31  32
ENDBRANCH  30  31
ENDBRANCH  29  30
ENDBRANCH  21  29
ENDBRANCH  20  21
ENDBRANCH   1  20
BRANCH   9  41
HETATM   41  O5  UNL     1      51.825  25.408 -16.437  1.00  0.00    -0.392 OA
ATOM     42  H5  UNL     1      52.209  26.245 -16.204  1.00  0.00     0.210 HD
ENDBRANCH   9  41
BRANCH  12  43
HETATM   43  O7  UNL     1      52.518  23.381 -14.737  1.00  0.00    -0.392 OA
ATOM     44  H7  UNL     1      51.711  23.048 -14.363  1.00  0.00     0.210 HD
ENDBRANCH  12  43
BRANCH  15  45
HETATM   45  O8  UNL     1      55.907  19.451 -14.770  1.00  0.00    -0.316 OA
BRANCH  45  46
HETATM   46  C27 UNL     1      55.664  18.841 -13.556  1.00  0.00     0.255 C 
HETATM   47  C28 UNL     1      54.324  18.258 -13.234  1.00  0.00     0.126 C 
HETATM   48  O9  UNL     1      56.574  18.768 -12.699  1.00  0.00    -0.266 OA
ENDBRANCH  45  46
ENDBRANCH  15  45
TORSDOF 20
ENDMDL
MODEL 4
REMARK VINA RESULT: -4.990746357      1.371      2.347
REMARK  20 active torsions:
REMARK  status: ('A' for Active; 'I' for Inactive)
REMARK    1  A    between atoms: O1_2  and  C2_3 
REMARK    2  A    between atoms: C2_3  and  C3_4 
REMARK    3  A    between atoms: C3_4  and  O2_5 
REMARK    4  A    between atoms: O2_5  and  C4_6 
REMARK    5  A    between atoms: C4_6  and  C5_7 
REMARK    6  A    between atoms: C5_7  and  N1_8 
REMARK    7  A    between atoms: N1_8  and  C6_9 
REMARK    8  A    between atoms: N1_8  and  C12_21 
REMARK    9  A    between atoms: C6_9  and  C7_10 
REMARK   10  A    between atoms: C7_10  and  S1_11 
REMARK   11  A    between atoms: S1_11  and  C8_12 
REMARK       I    between atoms: C8_12  and  N2_14 
REMARK   12  A    between atoms: N2_14  and  C9_16 
REMARK   13  A    between atoms: C9_16  and  C10_17 
REMARK   14  A    between atoms: C10_17  and  C11_18 
REMARK   15  A    between atoms: C11_18  and  O4_19 
REMARK   16  A    between atoms: C12_21  and  C13_22 
REMARK   17  A    between atoms: C21_30  and  O5_31 
REMARK   18  A    between atoms: C23_35  and  O7_36 
REMARK   19  A    between atoms: C26_40  and  O8_41 
REMARK   20  A    between atoms: O8_41  and  C27_42 
ROOT
HETATM    1  C13 UNL     1      52.329  23.053 -19.145  1.00  0.00     0.140 C 
HETATM    2  C14 UNL     1      53.600  22.731 -19.986  1.00  0.00     0.037 C 
HETATM    3  C15 UNL     1      54.513  23.952 -19.737  1.00  0.00     0.030 C 
HETATM    4  C16 UNL     1      55.467  23.828 -18.665  1.00  0.00    -0.022 C 
HETATM    5  C17 UNL     1      55.477  24.528 -17.370  1.00  0.00    -0.064 C 
HETATM    6  C18 UNL     1      54.520  25.664 -17.210  1.00  0.00     0.005 C 
HETATM    7  C19 UNL     1      54.799  26.573 -16.022  1.00  0.00     0.022 C 
HETATM    8  C20 UNL     1      54.873  26.641 -18.360  1.00  0.00     0.022 C 
HETATM    9  C21 UNL     1      53.087  25.314 -17.163  1.00  0.00     0.161 C 
HETATM   10  C22 UNL     1      52.650  23.931 -16.988  1.00  0.00     0.180 C 
HETATM   11  O6  UNL     1      52.796  22.979 -17.912  1.00  0.00    -0.374 OA
HETATM   12  C23 UNL     1      53.178  23.254 -15.711  1.00  0.00     0.154 C 
HETATM   13  C24 UNL     1      54.533  22.680 -15.915  1.00  0.00     0.032 C 
HETATM   14  C25 UNL     1      54.875  21.820 -14.738  1.00  0.00     0.041 C 
HETATM   15  C26 UNL     1      56.062  20.930 -15.004  1.00  0.00     0.132 C 
HETATM   16  C29 UNL     1      56.555  21.211 -16.386  1.00  0.00     0.034 C 
HETATM   17  C30 UNL     1      56.845  22.672 -16.594  1.00  0.00     0.016 C 
HETATM   18  C31 UNL     1      55.668  23.584 -16.203  1.00  0.00    -0.014 C 
HETATM   19  C32 UNL     1      56.094  24.218 -14.921  1.00  0.00     0.020 C 
ENDROOT
BRANCH   1  20
HETATM   20  C12 UNL     1      51.309  22.103 -19.637  1.00  0.00     0.159 C 
BRANCH  20  21
HETATM   21  N1  UNL     1      51.484  20.711 -19.291  1.00  0.00    -0.369 N 
BRANCH  21  22
HETATM   22  C5  UNL     1      50.853  20.298 -18.122  1.00  0.00     0.089 C 
BRANCH  22  23
HETATM   23  C4  UNL     1      49.459  20.632 -17.809  1.00  0.00     0.212 C 
BRANCH  23  24
HETATM   24  O2  UNL     1      48.714  19.523 -17.342  1.00  0.00    -0.384 OA
BRANCH  24  25
HETATM   25  C3  UNL     1      48.645  18.482 -18.223  1.00  0.00     0.194 C 
BRANCH  25  26
HETATM   26  C2  UNL     1      47.868  18.868 -19.487  1.00  0.00     0.193 C 
BRANCH  26  27
HETATM   27  O1  UNL     1      48.434  18.344 -20.628  1.00  0.00    -0.394 OA
HETATM   28  C1  UNL     1      47.677  17.407 -21.281  1.00  0.00     0.201 C 
ENDBRANCH  26  27
ENDBRANCH  25  26
ENDBRANCH  24  25
ENDBRANCH  23  24
ENDBRANCH  22  23
ENDBRANCH  21  22
BRANCH  21  29
HETATM   29  C6  UNL     1      51.540  19.899 -20.436  1.00  0.00     0.073 C 
BRANCH  29  30
HETATM   30  C7  UNL     1      51.202  20.451 -21.766  1.00  0.00     0.128 C 
BRANCH  30  31
HETATM   31  S1  UNL     1      51.796  19.337 -23.110  1.00  0.00    -0.064 SA
BRANCH  31  32
HETATM   32  C8  UNL     1      53.603  19.575 -23.194  1.00  0.00     0.283 C 
HETATM   33  O3  UNL     1      54.048  20.629 -22.697  1.00  0.00    -0.260 OA
HETATM   34  N2  UNL     1      54.401  18.590 -23.797  1.00  0.00    -0.332 N 
ATOM     35  H2  UNL     1      53.905  17.786 -24.180  1.00  0.00     0.168 HD
BRANCH  34  36
HETATM   36  C9  UNL     1      55.799  18.577 -23.938  1.00  0.00     0.067 C 
BRANCH  36  37
HETATM   37  C10 UNL     1      56.618  17.460 -23.434  1.00  0.00     0.070 C 
BRANCH  37  38
HETATM   38  C11 UNL     1      56.887  17.327 -21.978  1.00  0.00     0.169 C 
BRANCH  38  39
HETATM   39  O4  UNL     1      58.274  17.621 -21.742  1.00  0.00    -0.401 OA
ATOM     40  H4  UNL     1      58.607  17.010 -21.095  1.00  0.00     0.209 HD
ENDBRANCH  38  39
ENDBRANCH  37  38
ENDBRANCH  36  37
ENDBRANCH  34  36
ENDBRANCH  31  32
ENDBRANCH  30  31
ENDBRANCH  29  30
ENDBRANCH  21  29
ENDBRANCH  20  21
ENDBRANCH   1  20
BRANCH   9  41
HETATM   41  O5  UNL     1      52.411  26.073 -16.157  1.00  0.00    -0.392 OA
ATOM     42  H5  UNL     1      52.900  26.065 -15.343  1.00  0.00     0.210 HD
ENDBRANCH   9  41
BRANCH  12  43
HETATM   43  O7  UNL     1      52.899  23.907 -14.561  1.00  0.00    -0.392 OA
ATOM     44  H7  UNL     1      52.371  23.418 -13.941  1.00  0.00     0.210 HD
ENDBRANCH  12  43
BRANCH  15  45
HETATM   45  O8  UNL     1      55.711  19.558 -14.898  1.00  0.00    -0.316 OA
BRANCH  45  46
HETATM   46  C27 UNL     1      55.529  18.918 -13.689  1.00  0.00     0.255 C 
HETATM   47  C28 UNL     1      54.196  18.367 -13.294  1.00  0.00     0.126 C 
HETATM   48  O9  UNL     1      56.491  18.792 -12.897  1.00  0.00    -0.266 OA
ENDBRANCH  45  46
ENDBRANCH  15  45
TORSDOF 20
ENDMDL
MODEL 5
REMARK VINA RESULT: -4.968172089      2.923      4.960
REMARK  20 active torsions:
REMARK  status: ('A' for Active; 'I' for Inactive)
REMARK    1  A    between atoms: O1_2  and  C2_3 
REMARK    2  A    between atoms: C2_3  and  C3_4 
REMARK    3  A    between atoms: C3_4  and  O2_5 
REMARK    4  A    between atoms: O2_5  and  C4_6 
REMARK    5  A    between atoms: C4_6  and  C5_7 
REMARK    6  A    between atoms: C5_7  and  N1_8 
REMARK    7  A    between atoms: N1_8  and  C6_9 
REMARK    8  A    between atoms: N1_8  and  C12_21 
REMARK    9  A    between atoms: C6_9  and  C7_10 
REMARK   10  A    between atoms: C7_10  and  S1_11 
REMARK   11  A    between atoms: S1_11  and  C8_12 
REMARK       I    between atoms: C8_12  and  N2_14 
REMARK   12  A    between atoms: N2_14  and  C9_16 
REMARK   13  A    between atoms: C9_16  and  C10_17 
REMARK   14  A    between atoms: C10_17  and  C11_18 
REMARK   15  A    between atoms: C11_18  and  O4_19 
REMARK   16  A    between atoms: C12_21  and  C13_22 
REMARK   17  A    between atoms: C21_30  and  O5_31 
REMARK   18  A    between atoms: C23_35  and  O7_36 
REMARK   19  A    between atoms: C26_40  and  O8_41 
REMARK   20  A    between atoms: O8_41  and  C27_42 
ROOT
HETATM    1  C13 UNL     1      54.788  23.220 -23.190  1.00  0.00     0.140 C 
HETATM    2  C14 UNL     1      56.014  24.162 -22.996  1.00  0.00     0.037 C 
HETATM    3  C15 UNL     1      55.376  25.486 -22.523  1.00  0.00     0.030 C 
HETATM    4  C16 UNL     1      55.289  25.679 -21.097  1.00  0.00    -0.022 C 
HETATM    5  C17 UNL     1      54.083  25.692 -20.253  1.00  0.00    -0.064 C 
HETATM    6  C18 UNL     1      52.766  25.728 -20.957  1.00  0.00     0.005 C 
HETATM    7  C19 UNL     1      51.580  26.096 -20.079  1.00  0.00     0.022 C 
HETATM    8  C20 UNL     1      52.826  27.001 -21.840  1.00  0.00     0.022 C 
HETATM    9  C21 UNL     1      52.391  24.515 -21.710  1.00  0.00     0.161 C 
HETATM   10  C22 UNL     1      53.118  23.260 -21.536  1.00  0.00     0.180 C 
HETATM   11  O6  UNL     1      54.373  23.061 -21.947  1.00  0.00    -0.374 OA
HETATM   12  C23 UNL     1      53.143  22.734 -20.090  1.00  0.00     0.154 C 
HETATM   13  C24 UNL     1      54.242  23.349 -19.303  1.00  0.00     0.032 C 
HETATM   14  C25 UNL     1      54.376  22.612 -18.005  1.00  0.00     0.041 C 
HETATM   15  C26 UNL     1      55.668  22.930 -17.296  1.00  0.00     0.132 C 
HETATM   16  C29 UNL     1      56.419  23.925 -18.119  1.00  0.00     0.034 C 
HETATM   17  C30 UNL     1      55.591  25.143 -18.425  1.00  0.00     0.016 C 
HETATM   18  C31 UNL     1      54.219  24.803 -19.036  1.00  0.00    -0.014 C 
HETATM   19  C32 UNL     1      53.245  25.059 -17.936  1.00  0.00     0.020 C 
ENDROOT
BRANCH   1  20
HETATM   20  C12 UNL     1      55.315  22.083 -23.974  1.00  0.00     0.159 C 
BRANCH  20  21
HETATM   21  N1  UNL     1      54.473  21.565 -25.029  1.00  0.00    -0.369 N 
BRANCH  21  22
HETATM   22  C5  UNL     1      53.112  21.525 -24.746  1.00  0.00     0.089 C 
BRANCH  22  23
HETATM   23  C4  UNL     1      52.398  20.280 -24.444  1.00  0.00     0.212 C 
BRANCH  23  24
HETATM   24  O2  UNL     1      53.144  19.396 -23.629  1.00  0.00    -0.384 OA
BRANCH  24  25
HETATM   25  C3  UNL     1      53.019  19.626 -22.289  1.00  0.00     0.194 C 
BRANCH  25  26
HETATM   26  C2  UNL     1      51.548  19.622 -21.855  1.00  0.00     0.193 C 
BRANCH  26  27
HETATM   27  O1  UNL     1      51.406  19.763 -20.492  1.00  0.00    -0.394 OA
HETATM   28  C1  UNL     1      50.255  19.236 -19.966  1.00  0.00     0.201 C 
ENDBRANCH  26  27
ENDBRANCH  25  26
ENDBRANCH  24  25
ENDBRANCH  23  24
ENDBRANCH  22  23
ENDBRANCH  21  22
BRANCH  21  29
HETATM   29  C6  UNL     1      54.962  21.918 -26.298  1.00  0.00     0.073 C 
BRANCH  29  30
HETATM   30  C7  UNL     1      54.848  20.980 -27.436  1.00  0.00     0.128 C 
BRANCH  30  31
HETATM   31  S1  UNL     1      56.411  20.028 -27.663  1.00  0.00    -0.064 SA
BRANCH  31  32
HETATM   32  C8  UNL     1      56.182  18.468 -26.746  1.00  0.00     0.283 C 
HETATM   33  O3  UNL     1      56.303  17.414 -27.402  1.00  0.00    -0.260 OA
HETATM   34  N2  UNL     1      55.888  18.511 -25.374  1.00  0.00    -0.332 N 
ATOM     35  H2  UNL     1      55.798  19.441 -24.966  1.00  0.00     0.168 HD
BRANCH  34  36
HETATM   36  C9  UNL     1      55.701  17.432 -24.495  1.00  0.00     0.067 C 
BRANCH  36  37
HETATM   37  C10 UNL     1      56.752  17.009 -23.553  1.00  0.00     0.070 C 
BRANCH  37  38
HETATM   38  C11 UNL     1      56.811  17.591 -22.186  1.00  0.00     0.169 C 
BRANCH  38  39
HETATM   39  O4  UNL     1      58.190  17.734 -21.810  1.00  0.00    -0.401 OA
ATOM     40  H4  UNL     1      58.562  18.460 -22.298  1.00  0.00     0.209 HD
ENDBRANCH  38  39
ENDBRANCH  37  38
ENDBRANCH  36  37
ENDBRANCH  34  36
ENDBRANCH  31  32
ENDBRANCH  30  31
ENDBRANCH  29  30
ENDBRANCH  21  29
ENDBRANCH  20  21
ENDBRANCH   1  20
BRANCH   9  41
HETATM   41  O5  UNL     1      51.009  24.203 -21.514  1.00  0.00    -0.392 OA
ATOM     42  H5  UNL     1      50.772  24.285 -20.598  1.00  0.00     0.210 HD
ENDBRANCH   9  41
BRANCH  12  43
HETATM   43  O7  UNL     1      51.928  22.571 -19.521  1.00  0.00    -0.392 OA
ATOM     44  H7  UNL     1      51.345  23.317 -19.598  1.00  0.00     0.210 HD
ENDBRANCH  12  43
BRANCH  15  45
HETATM   45  O8  UNL     1      56.461  21.763 -17.126  1.00  0.00    -0.316 OA
BRANCH  45  46
HETATM   46  C27 UNL     1      56.269  20.866 -16.095  1.00  0.00     0.255 C 
HETATM   47  C28 UNL     1      55.742  21.310 -14.767  1.00  0.00     0.126 C 
HETATM   48  O9  UNL     1      56.538  19.654 -16.262  1.00  0.00    -0.266 OA
ENDBRANCH  45  46
ENDBRANCH  15  45
TORSDOF 20
ENDMDL
