MODEL 1
REMARK VINA RESULT: -4.967128170      0.000      0.000
REMARK  23 active torsions:
REMARK  status: ('A' for Active; 'I' for Inactive)
REMARK    1  A    between atoms: C2_2  and  C3_3 
REMARK    2  A    between atoms: C3_3  and  C6_6 
REMARK    3  A    between atoms: C6_6  and  C7_7 
REMARK    4  A    between atoms: C7_7  and  C9_9 
REMARK    5  A    between atoms: C9_9  and  O1_10 
REMARK    6  A    between atoms: C9_9  and  C11_14 
REMARK    7  A    between atoms: O1_10  and  C10_11 
REMARK    8  A    between atoms: C11_14  and  C13_16 
REMARK    9  A    between atoms: C13_16  and  C14_17 
REMARK   10  A    between atoms: C14_17  and  C15_18 
REMARK   11  A    between atoms: C15_18  and  O3_19 
REMARK   12  A    between atoms: C15_18  and  C18_23 
REMARK   13  A    between atoms: O3_19  and  C16_20 
REMARK   14  A    between atoms: C18_23  and  O5_25 
REMARK   15  A    between atoms: O5_25  and  C20_26 
REMARK   16  A    between atoms: C20_26  and  C21_28 
REMARK   17  A    between atoms: C21_28  and  O7_29 
REMARK   18  A    between atoms: C21_28  and  C22_31 
REMARK   19  A    between atoms: C22_31  and  C23_32 
REMARK   20  A    between atoms: C22_31  and  C27_43 
REMARK       I    between atoms: C23_32  and  N2_34 
REMARK   21  A    between atoms: N2_34  and  C24_36 
REMARK   22  A    between atoms: C27_43  and  O9_46 
REMARK   23  A    between atoms: O9_46  and  C30_47 
ROOT
HETATM    1  O5  UNL     1      53.293  21.714 -19.337  1.00  0.00    -0.311 OA
ENDROOT
BRANCH   1   2
HETATM    2  C18 UNL     1      52.863  21.942 -18.032  1.00  0.00     0.161 C 
HETATM    3  C19 UNL     1      52.456  20.747 -17.251  1.00  0.00     0.043 C 
BRANCH   2   4
HETATM    4  C15 UNL     1      53.889  22.752 -17.196  1.00  0.00     0.183 C 
BRANCH   4   5
HETATM    5  C14 UNL     1      53.212  23.623 -16.248  1.00  0.00     0.004 C 
BRANCH   5   6
HETATM    6  C13 UNL     1      53.495  24.113 -15.098  1.00  0.00    -0.021 C 
BRANCH   6   7
HETATM    7  C11 UNL     1      53.810  23.551 -13.778  1.00  0.00     0.034 C 
HETATM    8  C12 UNL     1      52.831  22.524 -13.362  1.00  0.00     0.017 C 
BRANCH   7   9
HETATM    9  C9  UNL     1      55.243  23.002 -13.761  1.00  0.00     0.144 C 
BRANCH   9  10
HETATM   10  C7  UNL     1      56.069  23.703 -12.740  1.00  0.00     0.016 C 
HETATM   11  C8  UNL     1      55.948  23.067 -11.358  1.00  0.00     0.013 C 
BRANCH  10  12
HETATM   12  C6  UNL     1      55.679  25.159 -12.590  1.00  0.00     0.045 C 
BRANCH  12  13
HETATM   13  C3  UNL     1      56.533  26.119 -13.279  1.00  0.00    -0.063 C 
HETATM   14  C4  UNL     1      57.213  26.998 -12.548  1.00  0.00    -0.024 C 
HETATM   15  C5  UNL     1      57.202  27.106 -11.090  1.00  0.00     0.036 C 
BRANCH  13  16
HETATM   16  C2  UNL     1      56.667  26.167 -14.711  1.00  0.00    -0.004 C 
HETATM   17  C1  UNL     1      56.027  26.921 -15.565  1.00  0.00     0.012 C 
ENDBRANCH  13  16
ENDBRANCH  12  13
ENDBRANCH  10  12
ENDBRANCH   9  10
BRANCH   9  18
HETATM   18  O1  UNL     1      55.145  21.643 -13.384  1.00  0.00    -0.300 OA
BRANCH  18  19
HETATM   19  C10 UNL     1      55.741  20.597 -14.029  1.00  0.00     0.373 C 
HETATM   20  N1  UNL     1      56.240  19.519 -13.253  1.00  0.00    -0.032 NA
HETATM   21  O2  UNL     1      55.826  20.628 -15.280  1.00  0.00    -0.242 OA
ENDBRANCH  18  19
ENDBRANCH   9  18
ENDBRANCH   7   9
ENDBRANCH   6   7
ENDBRANCH   5   6
ENDBRANCH   4   5
BRANCH   4  22
HETATM   22  O3  UNL     1      54.465  23.614 -18.203  1.00  0.00    -0.310 OA
BRANCH  22  23
HETATM   23  C16 UNL     1      55.705  24.173 -18.125  1.00  0.00     0.255 C 
HETATM   24  C17 UNL     1      56.728  23.466 -17.288  1.00  0.00     0.126 C 
HETATM   25  O4  UNL     1      55.944  25.236 -18.742  1.00  0.00    -0.266 OA
ENDBRANCH  22  23
ENDBRANCH   4  22
ENDBRANCH   2   4
ENDBRANCH   1   2
BRANCH   1  26
HETATM   26  C20 UNL     1      52.482  21.793 -20.448  1.00  0.00     0.289 C 
HETATM   27  O6  UNL     1      51.613  22.720 -20.428  1.00  0.00    -0.262 OA
BRANCH  26  28
HETATM   28  C21 UNL     1      52.538  20.907 -21.632  1.00  0.00     0.233 C 
BRANCH  28  29
HETATM   29  O7  UNL     1      52.441  19.556 -21.237  1.00  0.00    -0.385 OA
ATOM     30  H7  UNL     1      52.992  19.012 -21.788  1.00  0.00     0.210 HD
ENDBRANCH  28  29
BRANCH  28  31
HETATM   31  C22 UNL     1      53.902  21.150 -22.270  1.00  0.00     0.151 C 
BRANCH  31  32
HETATM   32  C23 UNL     1      53.959  22.555 -22.713  1.00  0.00     0.233 C 
HETATM   33  O8  UNL     1      53.090  23.024 -23.508  1.00  0.00    -0.273 OA
HETATM   34  N2  UNL     1      54.964  23.465 -22.299  1.00  0.00    -0.312 N 
ATOM     35  H2  UNL     1      55.934  23.152 -22.326  1.00  0.00     0.170 HD
BRANCH  34  36
HETATM   36  C24 UNL     1      54.729  24.654 -21.895  1.00  0.00     0.123 A 
HETATM   37  C25 UNL     1      55.370  25.793 -22.297  1.00  0.00     0.068 A 
HETATM   38  C26 UNL     1      54.812  26.880 -21.621  1.00  0.00     0.111 A 
HETATM   39  N3  UNL     1      53.868  26.357 -20.846  1.00  0.00    -0.310 N 
HETATM   40  N4  UNL     1      53.794  25.051 -20.983  1.00  0.00    -0.286 N 
ATOM     41  H3  UNL     1      53.274  26.902 -20.221  1.00  0.00     0.186 HD
ATOM     42  H4  UNL     1      53.146  24.437 -20.490  1.00  0.00     0.188 HD
ENDBRANCH  34  36
ENDBRANCH  31  32
BRANCH  31  43
HETATM   43  C27 UNL     1      54.266  20.140 -23.308  1.00  0.00     0.078 C 
HETATM   44  C28 UNL     1      55.493  20.653 -24.034  1.00  0.00     0.047 C 
HETATM   45  C29 UNL     1      53.140  19.905 -24.254  1.00  0.00     0.047 C 
BRANCH  43  46
HETATM   46  O9  UNL     1      54.674  18.965 -22.628  1.00  0.00    -0.310 OA
BRANCH  46  47
HETATM   47  C30 UNL     1      55.870  18.324 -22.787  1.00  0.00     0.255 C 
HETATM   48  C31 UNL     1      56.245  17.613 -24.047  1.00  0.00     0.126 C 
HETATM   49  O10 UNL     1      56.695  18.320 -21.853  1.00  0.00    -0.266 OA
ENDBRANCH  46  47
ENDBRANCH  43  46
ENDBRANCH  31  43
ENDBRANCH  28  31
ENDBRANCH  26  28
ENDBRANCH   1  26
TORSDOF 23
ENDMDL
MODEL 2
REMARK VINA RESULT: -4.856812109      2.718      9.922
REMARK  23 active torsions:
REMARK  status: ('A' for Active; 'I' for Inactive)
REMARK    1  A    between atoms: C2_2  and  C3_3 
REMARK    2  A    between atoms: C3_3  and  C6_6 
REMARK    3  A    between atoms: C6_6  and  C7_7 
REMARK    4  A    between atoms: C7_7  and  C9_9 
REMARK    5  A    between atoms: C9_9  and  O1_10 
REMARK    6  A    between atoms: C9_9  and  C11_14 
REMARK    7  A    between atoms: O1_10  and  C10_11 
REMARK    8  A    between atoms: C11_14  and  C13_16 
REMARK    9  A    between atoms: C13_16  and  C14_17 
REMARK   10  A    between atoms: C14_17  and  C15_18 
REMARK   11  A    between atoms: C15_18  and  O3_19 
REMARK   12  A    between atoms: C15_18  and  C18_23 
REMARK   13  A    between atoms: O3_19  and  C16_20 
REMARK   14  A    between atoms: C18_23  and  O5_25 
REMARK   15  A    between atoms: O5_25  and  C20_26 
REMARK   16  A    between atoms: C20_26  and  C21_28 
REMARK   17  A    between atoms: C21_28  and  O7_29 
REMARK   18  A    between atoms: C21_28  and  C22_31 
REMARK   19  A    between atoms: C22_31  and  C23_32 
REMARK   20  A    between atoms: C22_31  and  C27_43 
REMARK       I    between atoms: C23_32  and  N2_34 
REMARK   21  A    between atoms: N2_34  and  C24_36 
REMARK   22  A    between atoms: C27_43  and  O9_46 
REMARK   23  A    between atoms: O9_46  and  C30_47 
ROOT
HETATM    1  O5  UNL     1      51.785  21.827 -19.059  1.00  0.00    -0.311 OA
ENDROOT
BRANCH   1   2
HETATM    2  C18 UNL     1      52.177  20.856 -19.977  1.00  0.00     0.161 C 
HETATM    3  C19 UNL     1      51.163  19.831 -20.330  1.00  0.00     0.043 C 
BRANCH   2   4
HETATM    4  C15 UNL     1      52.740  21.465 -21.288  1.00  0.00     0.183 C 
BRANCH   4   5
HETATM    5  C14 UNL     1      53.484  20.468 -22.044  1.00  0.00     0.004 C 
BRANCH   5   6
HETATM    6  C13 UNL     1      53.633  20.192 -23.287  1.00  0.00    -0.021 C 
BRANCH   6   7
HETATM    7  C11 UNL     1      54.223  20.882 -24.441  1.00  0.00     0.034 C 
HETATM    8  C12 UNL     1      55.577  21.399 -24.147  1.00  0.00     0.017 C 
BRANCH   7   9
HETATM    9  C9  UNL     1      54.226  19.961 -25.668  1.00  0.00     0.144 C 
BRANCH   9  10
HETATM   10  C7  UNL     1      55.487  19.175 -25.741  1.00  0.00     0.016 C 
HETATM   11  C8  UNL     1      56.012  19.047 -27.168  1.00  0.00     0.013 C 
BRANCH  10  12
HETATM   12  C6  UNL     1      55.315  17.767 -25.208  1.00  0.00     0.045 C 
BRANCH  12  13
HETATM   13  C3  UNL     1      56.302  17.335 -24.224  1.00  0.00    -0.063 C 
HETATM   14  C4  UNL     1      57.085  16.304 -24.525  1.00  0.00    -0.024 C 
HETATM   15  C5  UNL     1      57.070  15.539 -25.771  1.00  0.00     0.036 C 
BRANCH  13  16
HETATM   16  C2  UNL     1      56.459  17.967 -22.940  1.00  0.00    -0.004 C 
HETATM   17  C1  UNL     1      57.101  17.527 -21.890  1.00  0.00     0.012 C 
ENDBRANCH  13  16
ENDBRANCH  12  13
ENDBRANCH  10  12
ENDBRANCH   9  10
BRANCH   9  18
HETATM   18  O1  UNL     1      53.157  19.053 -25.488  1.00  0.00    -0.300 OA
BRANCH  18  19
HETATM   19  C10 UNL     1      52.088  18.911 -26.327  1.00  0.00     0.373 C 
HETATM   20  N1  UNL     1      50.889  19.603 -26.018  1.00  0.00    -0.032 NA
HETATM   21  O2  UNL     1      52.207  18.176 -27.337  1.00  0.00    -0.242 OA
ENDBRANCH  18  19
ENDBRANCH   9  18
ENDBRANCH   7   9
ENDBRANCH   6   7
ENDBRANCH   5   6
ENDBRANCH   4   5
BRANCH   4  22
HETATM   22  O3  UNL     1      53.715  22.400 -20.776  1.00  0.00    -0.310 OA
BRANCH  22  23
HETATM   23  C16 UNL     1      53.760  23.723 -21.097  1.00  0.00     0.255 C 
HETATM   24  C17 UNL     1      54.871  24.178 -21.995  1.00  0.00     0.126 C 
HETATM   25  O4  UNL     1      52.890  24.500 -20.640  1.00  0.00    -0.266 OA
ENDBRANCH  22  23
ENDBRANCH   4  22
ENDBRANCH   2   4
ENDBRANCH   1   2
BRANCH   1  26
HETATM   26  C20 UNL     1      52.134  21.823 -17.725  1.00  0.00     0.289 C 
HETATM   27  O6  UNL     1      51.635  20.884 -17.031  1.00  0.00    -0.262 OA
BRANCH  26  28
HETATM   28  C21 UNL     1      53.020  22.801 -17.054  1.00  0.00     0.233 C 
BRANCH  28  29
HETATM   29  O7  UNL     1      52.859  24.080 -17.628  1.00  0.00    -0.385 OA
ATOM     30  H7  UNL     1      53.692  24.403 -17.950  1.00  0.00     0.210 HD
ENDBRANCH  28  29
BRANCH  28  31
HETATM   31  C22 UNL     1      54.443  22.313 -17.302  1.00  0.00     0.151 C 
BRANCH  31  32
HETATM   32  C23 UNL     1      54.608  21.014 -16.623  1.00  0.00     0.233 C 
HETATM   33  O8  UNL     1      55.290  20.084 -17.149  1.00  0.00    -0.273 OA
HETATM   34  N2  UNL     1      54.032  20.713 -15.363  1.00  0.00    -0.312 N 
ATOM     35  H2  UNL     1      53.052  20.953 -15.215  1.00  0.00     0.170 HD
BRANCH  34  36
HETATM   36  C24 UNL     1      54.666  20.158 -14.402  1.00  0.00     0.123 A 
HETATM   37  C25 UNL     1      54.192  19.183 -13.568  1.00  0.00     0.068 A 
HETATM   38  C26 UNL     1      55.196  18.848 -12.659  1.00  0.00     0.111 A 
HETATM   39  N3  UNL     1      56.224  19.627 -12.976  1.00  0.00    -0.310 N 
HETATM   40  N4  UNL     1      55.945  20.410 -13.996  1.00  0.00    -0.286 N 
ATOM     41  H3  UNL     1      57.120  19.620 -12.489  1.00  0.00     0.186 HD
ATOM     42  H4  UNL     1      56.578  21.091 -14.414  1.00  0.00     0.188 HD
ENDBRANCH  34  36
ENDBRANCH  31  32
BRANCH  31  43
HETATM   43  C27 UNL     1      55.489  23.331 -16.989  1.00  0.00     0.078 C 
HETATM   44  C28 UNL     1      55.635  24.225 -18.204  1.00  0.00     0.047 C 
HETATM   45  C29 UNL     1      56.784  22.687 -16.636  1.00  0.00     0.047 C 
BRANCH  43  46
HETATM   46  O9  UNL     1      54.978  24.155 -15.955  1.00  0.00    -0.310 OA
BRANCH  46  47
HETATM   47  C30 UNL     1      55.506  24.284 -14.701  1.00  0.00     0.255 C 
HETATM   48  C31 UNL     1      56.347  25.451 -14.294  1.00  0.00     0.126 C 
HETATM   49  O10 UNL     1      55.290  23.401 -13.849  1.00  0.00    -0.266 OA
ENDBRANCH  46  47
ENDBRANCH  43  46
ENDBRANCH  31  43
ENDBRANCH  28  31
ENDBRANCH  26  28
ENDBRANCH   1  26
TORSDOF 23
ENDMDL
MODEL 3
REMARK VINA RESULT: -4.756676658      2.320      4.060
REMARK  23 active torsions:
REMARK  status: ('A' for Active; 'I' for Inactive)
REMARK    1  A    between atoms: C2_2  and  C3_3 
REMARK    2  A    between atoms: C3_3  and  C6_6 
REMARK    3  A    between atoms: C6_6  and  C7_7 
REMARK    4  A    between atoms: C7_7  and  C9_9 
REMARK    5  A    between atoms: C9_9  and  O1_10 
REMARK    6  A    between atoms: C9_9  and  C11_14 
REMARK    7  A    between atoms: O1_10  and  C10_11 
REMARK    8  A    between atoms: C11_14  and  C13_16 
REMARK    9  A    between atoms: C13_16  and  C14_17 
REMARK   10  A    between atoms: C14_17  and  C15_18 
REMARK   11  A    between atoms: C15_18  and  O3_19 
REMARK   12  A    between atoms: C15_18  and  C18_23 
REMARK   13  A    between atoms: O3_19  and  C16_20 
REMARK   14  A    between atoms: C18_23  and  O5_25 
REMARK   15  A    between atoms: O5_25  and  C20_26 
REMARK   16  A    between atoms: C20_26  and  C21_28 
REMARK   17  A    between atoms: C21_28  and  O7_29 
REMARK   18  A    between atoms: C21_28  and  C22_31 
REMARK   19  A    between atoms: C22_31  and  C23_32 
REMARK   20  A    between atoms: C22_31  and  C27_43 
REMARK       I    between atoms: C23_32  and  N2_34 
REMARK   21  A    between atoms: N2_34  and  C24_36 
REMARK   22  A    between atoms: C27_43  and  O9_46 
REMARK   23  A    between atoms: O9_46  and  C30_47 
ROOT
HETATM    1  O5  UNL     1      54.385  25.123 -20.793  1.00  0.00    -0.311 OA
ENDROOT
BRANCH   1   2
HETATM    2  C18 UNL     1      55.250  24.866 -19.732  1.00  0.00     0.161 C 
HETATM    3  C19 UNL     1      56.011  26.025 -19.204  1.00  0.00     0.043 C 
BRANCH   2   4
HETATM    4  C15 UNL     1      54.547  24.154 -18.546  1.00  0.00     0.183 C 
BRANCH   4   5
HETATM    5  C14 UNL     1      55.087  22.817 -18.351  1.00  0.00     0.004 C 
BRANCH   5   6
HETATM    6  C13 UNL     1      54.763  21.798 -17.645  1.00  0.00    -0.021 C 
BRANCH   6   7
HETATM    7  C11 UNL     1      55.497  20.829 -16.821  1.00  0.00     0.034 C 
HETATM    8  C12 UNL     1      56.873  21.283 -16.521  1.00  0.00     0.017 C 
BRANCH   7   9
HETATM    9  C9  UNL     1      54.714  20.518 -15.539  1.00  0.00     0.144 C 
BRANCH   9  10
HETATM   10  C7  UNL     1      55.428  21.035 -14.340  1.00  0.00     0.016 C 
HETATM   11  C8  UNL     1      55.619  19.964 -13.270  1.00  0.00     0.013 C 
BRANCH  10  12
HETATM   12  C6  UNL     1      54.690  22.185 -13.686  1.00  0.00     0.045 C 
BRANCH  12  13
HETATM   13  C3  UNL     1      55.361  23.479 -13.732  1.00  0.00    -0.063 C 
HETATM   14  C4  UNL     1      55.966  23.916 -12.631  1.00  0.00    -0.024 C 
HETATM   15  C5  UNL     1      56.040  23.219 -11.348  1.00  0.00     0.036 C 
BRANCH  13  16
HETATM   16  C2  UNL     1      55.391  24.309 -14.908  1.00  0.00    -0.004 C 
HETATM   17  C1  UNL     1      56.416  24.895 -15.465  1.00  0.00     0.012 C 
ENDBRANCH  13  16
ENDBRANCH  12  13
ENDBRANCH  10  12
ENDBRANCH   9  10
BRANCH   9  18
HETATM   18  O1  UNL     1      53.484  21.209 -15.645  1.00  0.00    -0.300 OA
BRANCH  18  19
HETATM   19  C10 UNL     1      52.249  20.664 -15.439  1.00  0.00     0.373 C 
HETATM   20  N1  UNL     1      51.283  20.768 -16.472  1.00  0.00    -0.032 NA
HETATM   21  O2  UNL     1      52.016  20.093 -14.346  1.00  0.00    -0.242 OA
ENDBRANCH  18  19
ENDBRANCH   9  18
ENDBRANCH   7   9
ENDBRANCH   6   7
ENDBRANCH   5   6
ENDBRANCH   4   5
BRANCH   4  22
HETATM   22  O3  UNL     1      53.209  23.983 -19.064  1.00  0.00    -0.310 OA
BRANCH  22  23
HETATM   23  C16 UNL     1      52.092  23.863 -18.295  1.00  0.00     0.255 C 
HETATM   24  C17 UNL     1      52.128  24.473 -16.926  1.00  0.00     0.126 C 
HETATM   25  O4  UNL     1      51.091  23.259 -18.747  1.00  0.00    -0.266 OA
ENDBRANCH  22  23
ENDBRANCH   4  22
ENDBRANCH   2   4
ENDBRANCH   1   2
BRANCH   1  26
HETATM   26  C20 UNL     1      54.646  24.796 -22.107  1.00  0.00     0.289 C 
HETATM   27  O6  UNL     1      54.538  25.748 -22.940  1.00  0.00    -0.262 OA
BRANCH  26  28
HETATM   28  C21 UNL     1      55.028  23.458 -22.612  1.00  0.00     0.233 C 
BRANCH  28  29
HETATM   29  O7  UNL     1      56.036  23.576 -23.592  1.00  0.00    -0.385 OA
ATOM     30  H7  UNL     1      56.149  24.487 -23.839  1.00  0.00     0.210 HD
ENDBRANCH  28  29
BRANCH  28  31
HETATM   31  C22 UNL     1      53.770  22.878 -23.249  1.00  0.00     0.151 C 
BRANCH  31  32
HETATM   32  C23 UNL     1      52.796  22.604 -22.177  1.00  0.00     0.233 C 
HETATM   33  O8  UNL     1      51.648  23.141 -22.185  1.00  0.00    -0.273 OA
HETATM   34  N2  UNL     1      53.061  21.743 -21.081  1.00  0.00    -0.312 N 
ATOM     35  H2  UNL     1      53.951  21.849 -20.594  1.00  0.00     0.170 HD
BRANCH  34  36
HETATM   36  C24 UNL     1      52.254  20.844 -20.668  1.00  0.00     0.123 A 
HETATM   37  C25 UNL     1      51.362  20.138 -21.428  1.00  0.00     0.068 A 
HETATM   38  C26 UNL     1      50.673  19.252 -20.597  1.00  0.00     0.111 A 
HETATM   39  N3  UNL     1      51.171  19.459 -19.383  1.00  0.00    -0.310 N 
HETATM   40  N4  UNL     1      52.102  20.388 -19.390  1.00  0.00    -0.286 N 
ATOM     41  H3  UNL     1      50.869  18.958 -18.547  1.00  0.00     0.186 HD
ATOM     42  H4  UNL     1      52.623  20.714 -18.576  1.00  0.00     0.188 HD
ENDBRANCH  34  36
ENDBRANCH  31  32
BRANCH  31  43
HETATM   43  C27 UNL     1      54.039  21.735 -24.171  1.00  0.00     0.078 C 
HETATM   44  C28 UNL     1      54.555  22.309 -25.475  1.00  0.00     0.047 C 
HETATM   45  C29 UNL     1      52.814  20.917 -24.392  1.00  0.00     0.047 C 
BRANCH  43  46
HETATM   46  O9  UNL     1      55.111  20.990 -23.618  1.00  0.00    -0.310 OA
BRANCH  46  47
HETATM   47  C30 UNL     1      55.099  19.651 -23.348  1.00  0.00     0.255 C 
HETATM   48  C31 UNL     1      55.508  18.620 -24.351  1.00  0.00     0.126 C 
HETATM   49  O10 UNL     1      54.734  19.253 -22.225  1.00  0.00    -0.266 OA
ENDBRANCH  46  47
ENDBRANCH  43  46
ENDBRANCH  31  43
ENDBRANCH  28  31
ENDBRANCH  26  28
ENDBRANCH   1  26
TORSDOF 23
ENDMDL
MODEL 4
REMARK VINA RESULT: -4.722319722      2.800      9.637
REMARK  23 active torsions:
REMARK  status: ('A' for Active; 'I' for Inactive)
REMARK    1  A    between atoms: C2_2  and  C3_3 
REMARK    2  A    between atoms: C3_3  and  C6_6 
REMARK    3  A    between atoms: C6_6  and  C7_7 
REMARK    4  A    between atoms: C7_7  and  C9_9 
REMARK    5  A    between atoms: C9_9  and  O1_10 
REMARK    6  A    between atoms: C9_9  and  C11_14 
REMARK    7  A    between atoms: O1_10  and  C10_11 
REMARK    8  A    between atoms: C11_14  and  C13_16 
REMARK    9  A    between atoms: C13_16  and  C14_17 
REMARK   10  A    between atoms: C14_17  and  C15_18 
REMARK   11  A    between atoms: C15_18  and  O3_19 
REMARK   12  A    between atoms: C15_18  and  C18_23 
REMARK   13  A    between atoms: O3_19  and  C16_20 
REMARK   14  A    between atoms: C18_23  and  O5_25 
REMARK   15  A    between atoms: O5_25  and  C20_26 
REMARK   16  A    between atoms: C20_26  and  C21_28 
REMARK   17  A    between atoms: C21_28  and  O7_29 
REMARK   18  A    between atoms: C21_28  and  C22_31 
REMARK   19  A    between atoms: C22_31  and  C23_32 
REMARK   20  A    between atoms: C22_31  and  C27_43 
REMARK       I    between atoms: C23_32  and  N2_34 
REMARK   21  A    between atoms: N2_34  and  C24_36 
REMARK   22  A    between atoms: C27_43  and  O9_46 
REMARK   23  A    between atoms: O9_46  and  C30_47 
ROOT
HETATM    1  O5  UNL     1      52.806  21.888 -21.035  1.00  0.00    -0.311 OA
ENDROOT
BRANCH   1   2
HETATM    2  C18 UNL     1      53.579  21.159 -21.936  1.00  0.00     0.161 C 
HETATM    3  C19 UNL     1      52.973  19.915 -22.473  1.00  0.00     0.043 C 
BRANCH   2   4
HETATM    4  C15 UNL     1      54.079  22.018 -23.127  1.00  0.00     0.183 C 
BRANCH   4   5
HETATM    5  C14 UNL     1      54.964  21.247 -23.987  1.00  0.00     0.004 C 
BRANCH   5   6
HETATM    6  C13 UNL     1      55.392  21.360 -25.190  1.00  0.00    -0.021 C 
BRANCH   6   7
HETATM    7  C11 UNL     1      55.094  20.697 -26.466  1.00  0.00     0.034 C 
HETATM    8  C12 UNL     1      55.404  21.560 -27.627  1.00  0.00     0.017 C 
BRANCH   7   9
HETATM    9  C9  UNL     1      55.828  19.352 -26.552  1.00  0.00     0.144 C 
BRANCH   9  10
HETATM   10  C7  UNL     1      54.901  18.222 -26.274  1.00  0.00     0.016 C 
HETATM   11  C8  UNL     1      53.440  18.599 -26.501  1.00  0.00     0.013 C 
BRANCH  10  12
HETATM   12  C6  UNL     1      55.012  17.730 -24.845  1.00  0.00     0.045 C 
BRANCH  12  13
HETATM   13  C3  UNL     1      56.156  16.873 -24.555  1.00  0.00    -0.063 C 
HETATM   14  C4  UNL     1      56.823  17.072 -23.423  1.00  0.00    -0.024 C 
HETATM   15  C5  UNL     1      56.523  18.079 -22.406  1.00  0.00     0.036 C 
BRANCH  13  16
HETATM   16  C2  UNL     1      56.602  15.830 -25.442  1.00  0.00    -0.004 C 
HETATM   17  C1  UNL     1      57.825  15.476 -25.731  1.00  0.00     0.012 C 
ENDBRANCH  13  16
ENDBRANCH  12  13
ENDBRANCH  10  12
ENDBRANCH   9  10
BRANCH   9  18
HETATM   18  O1  UNL     1      56.278  19.229 -27.887  1.00  0.00    -0.300 OA
BRANCH  18  19
HETATM   19  C10 UNL     1      57.362  18.504 -28.294  1.00  0.00     0.373 C 
HETATM   20  N1  UNL     1      58.639  19.121 -28.262  1.00  0.00    -0.032 NA
HETATM   21  O2  UNL     1      57.189  17.323 -28.679  1.00  0.00    -0.242 OA
ENDBRANCH  18  19
ENDBRANCH   9  18
ENDBRANCH   7   9
ENDBRANCH   6   7
ENDBRANCH   5   6
ENDBRANCH   4   5
BRANCH   4  22
HETATM   22  O3  UNL     1      54.910  22.990 -22.453  1.00  0.00    -0.310 OA
BRANCH  22  23
HETATM   23  C16 UNL     1      54.829  24.337 -22.638  1.00  0.00     0.255 C 
HETATM   24  C17 UNL     1      55.801  24.962 -23.592  1.00  0.00     0.126 C 
HETATM   25  O4  UNL     1      53.962  24.996 -22.017  1.00  0.00    -0.266 OA
ENDBRANCH  22  23
ENDBRANCH   4  22
ENDBRANCH   2   4
ENDBRANCH   1   2
BRANCH   1  26
HETATM   26  C20 UNL     1      52.998  21.889 -19.670  1.00  0.00     0.289 C 
HETATM   27  O6  UNL     1      51.940  21.833 -18.969  1.00  0.00    -0.262 OA
BRANCH  26  28
HETATM   28  C21 UNL     1      54.302  21.951 -18.973  1.00  0.00     0.233 C 
BRANCH  28  29
HETATM   29  O7  UNL     1      54.662  20.673 -18.497  1.00  0.00    -0.385 OA
ATOM     30  H7  UNL     1      55.581  20.659 -18.255  1.00  0.00     0.210 HD
ENDBRANCH  28  29
BRANCH  28  31
HETATM   31  C22 UNL     1      54.097  22.890 -17.789  1.00  0.00     0.151 C 
BRANCH  31  32
HETATM   32  C23 UNL     1      54.008  24.269 -18.306  1.00  0.00     0.233 C 
HETATM   33  O8  UNL     1      53.003  24.998 -18.051  1.00  0.00    -0.273 OA
HETATM   34  N2  UNL     1      55.012  24.869 -19.109  1.00  0.00    -0.312 N 
ATOM     35  H2  UNL     1      55.387  24.329 -19.889  1.00  0.00     0.170 HD
BRANCH  34  36
HETATM   36  C24 UNL     1      55.474  26.043 -18.914  1.00  0.00     0.123 A 
HETATM   37  C25 UNL     1      56.106  26.833 -19.835  1.00  0.00     0.068 A 
HETATM   38  C26 UNL     1      56.451  28.040 -19.224  1.00  0.00     0.111 A 
HETATM   39  N3  UNL     1      56.019  27.930 -17.973  1.00  0.00    -0.310 N 
HETATM   40  N4  UNL     1      55.440  26.768 -17.758  1.00  0.00    -0.286 N 
ATOM     41  H3  UNL     1      56.123  28.657 -17.265  1.00  0.00     0.186 HD
ATOM     42  H4  UNL     1      55.034  26.460 -16.874  1.00  0.00     0.188 HD
ENDBRANCH  34  36
ENDBRANCH  31  32
BRANCH  31  43
HETATM   43  C27 UNL     1      55.083  22.688 -16.686  1.00  0.00     0.078 C 
HETATM   44  C28 UNL     1      54.787  23.716 -15.613  1.00  0.00     0.047 C 
HETATM   45  C29 UNL     1      56.482  22.814 -17.180  1.00  0.00     0.047 C 
BRANCH  43  46
HETATM   46  O9  UNL     1      54.811  21.424 -16.105  1.00  0.00    -0.310 OA
BRANCH  46  47
HETATM   47  C30 UNL     1      55.731  20.597 -15.524  1.00  0.00     0.255 C 
HETATM   48  C31 UNL     1      55.896  20.486 -14.043  1.00  0.00     0.126 C 
HETATM   49  O10 UNL     1      56.471  19.898 -16.243  1.00  0.00    -0.266 OA
ENDBRANCH  46  47
ENDBRANCH  43  46
ENDBRANCH  31  43
ENDBRANCH  28  31
ENDBRANCH  26  28
ENDBRANCH   1  26
TORSDOF 23
ENDMDL
MODEL 5
REMARK VINA RESULT: -4.703060697      3.210     10.251
REMARK  23 active torsions:
REMARK  status: ('A' for Active; 'I' for Inactive)
REMARK    1  A    between atoms: C2_2  and  C3_3 
REMARK    2  A    between atoms: C3_3  and  C6_6 
REMARK    3  A    between atoms: C6_6  and  C7_7 
REMARK    4  A    between atoms: C7_7  and  C9_9 
REMARK    5  A    between atoms: C9_9  and  O1_10 
REMARK    6  A    between atoms: C9_9  and  C11_14 
REMARK    7  A    between atoms: O1_10  and  C10_11 
REMARK    8  A    between atoms: C11_14  and  C13_16 
REMARK    9  A    between atoms: C13_16  and  C14_17 
REMARK   10  A    between atoms: C14_17  and  C15_18 
REMARK   11  A    between atoms: C15_18  and  O3_19 
REMARK   12  A    between atoms: C15_18  and  C18_23 
REMARK   13  A    between atoms: O3_19  and  C16_20 
REMARK   14  A    between atoms: C18_23  and  O5_25 
REMARK   15  A    between atoms: O5_25  and  C20_26 
REMARK   16  A    between atoms: C20_26  and  C21_28 
REMARK   17  A    between atoms: C21_28  and  O7_29 
REMARK   18  A    between atoms: C21_28  and  C22_31 
REMARK   19  A    between atoms: C22_31  and  C23_32 
REMARK   20  A    between atoms: C22_31  and  C27_43 
REMARK       I    between atoms: C23_32  and  N2_34 
REMARK   21  A    between atoms: N2_34  and  C24_36 
REMARK   22  A    between atoms: C27_43  and  O9_46 
REMARK   23  A    between atoms: O9_46  and  C30_47 
ROOT
HETATM    1  O5  UNL     1      53.792  21.242 -20.224  1.00  0.00    -0.311 OA
ENDROOT
BRANCH   1   2
HETATM    2  C18 UNL     1      53.357  21.328 -21.544  1.00  0.00     0.161 C 
HETATM    3  C19 UNL     1      54.026  22.344 -22.396  1.00  0.00     0.043 C 
BRANCH   2   4
HETATM    4  C15 UNL     1      53.400  19.962 -22.279  1.00  0.00     0.183 C 
BRANCH   4   5
HETATM    5  C14 UNL     1      54.749  19.419 -22.285  1.00  0.00     0.004 C 
BRANCH   5   6
HETATM    6  C13 UNL     1      55.634  19.187 -23.182  1.00  0.00    -0.021 C 
BRANCH   6   7
HETATM    7  C11 UNL     1      56.491  18.044 -23.525  1.00  0.00     0.034 C 
HETATM    8  C12 UNL     1      56.792  17.201 -22.348  1.00  0.00     0.017 C 
BRANCH   7   9
HETATM    9  C9  UNL     1      55.859  17.224 -24.658  1.00  0.00     0.144 C 
BRANCH   9  10
HETATM   10  C7  UNL     1      55.152  18.108 -25.624  1.00  0.00     0.016 C 
HETATM   11  C8  UNL     1      53.941  17.427 -26.256  1.00  0.00     0.013 C 
BRANCH  10  12
HETATM   12  C6  UNL     1      56.052  18.549 -26.760  1.00  0.00     0.045 C 
BRANCH  12  13
HETATM   13  C3  UNL     1      56.096  19.984 -27.015  1.00  0.00    -0.063 C 
HETATM   14  C4  UNL     1      56.899  20.430 -27.977  1.00  0.00    -0.024 C 
HETATM   15  C5  UNL     1      57.759  19.617 -28.835  1.00  0.00     0.036 C 
BRANCH  13  16
HETATM   16  C2  UNL     1      55.321  20.940 -26.269  1.00  0.00    -0.004 C 
HETATM   17  C1  UNL     1      54.737  22.027 -26.697  1.00  0.00     0.012 C 
ENDBRANCH  13  16
ENDBRANCH  12  13
ENDBRANCH  10  12
ENDBRANCH   9  10
BRANCH   9  18
HETATM   18  O1  UNL     1      56.927  16.598 -25.341  1.00  0.00    -0.300 OA
BRANCH  18  19
HETATM   19  C10 UNL     1      56.964  15.287 -25.722  1.00  0.00     0.373 C 
HETATM   20  N1  UNL     1      58.168  14.775 -26.269  1.00  0.00    -0.032 NA
HETATM   21  O2  UNL     1      55.934  14.586 -25.574  1.00  0.00    -0.242 OA
ENDBRANCH  18  19
ENDBRANCH   9  18
ENDBRANCH   7   9
ENDBRANCH   6   7
ENDBRANCH   5   6
ENDBRANCH   4   5
BRANCH   4  22
HETATM   22  O3  UNL     1      53.112  20.357 -23.639  1.00  0.00    -0.310 OA
BRANCH  22  23
HETATM   23  C16 UNL     1      52.058  19.899 -24.370  1.00  0.00     0.255 C 
HETATM   24  C17 UNL     1      51.321  18.704 -23.845  1.00  0.00     0.126 C 
HETATM   25  O4  UNL     1      51.744  20.481 -25.435  1.00  0.00    -0.266 OA
ENDBRANCH  22  23
ENDBRANCH   4  22
ENDBRANCH   2   4
ENDBRANCH   1   2
BRANCH   1  26
HETATM   26  C20 UNL     1      53.088  21.722 -19.140  1.00  0.00     0.289 C 
HETATM   27  O6  UNL     1      52.133  22.514 -19.414  1.00  0.00    -0.262 OA
BRANCH  26  28
HETATM   28  C21 UNL     1      53.349  21.400 -17.719  1.00  0.00     0.233 C 
BRANCH  28  29
HETATM   29  O7  UNL     1      52.629  22.276 -16.880  1.00  0.00    -0.385 OA
ATOM     30  H7  UNL     1      51.705  22.258 -17.100  1.00  0.00     0.210 HD
ENDBRANCH  28  29
BRANCH  28  31
HETATM   31  C22 UNL     1      54.844  21.617 -17.511  1.00  0.00     0.151 C 
BRANCH  31  32
HETATM   32  C23 UNL     1      55.344  20.552 -16.622  1.00  0.00     0.233 C 
HETATM   33  O8  UNL     1      56.534  20.126 -16.718  1.00  0.00    -0.273 OA
HETATM   34  N2  UNL     1      54.553  19.936 -15.619  1.00  0.00    -0.312 N 
ATOM     35  H2  UNL     1      53.611  19.635 -15.870  1.00  0.00     0.170 HD
BRANCH  34  36
HETATM   36  C24 UNL     1      54.948  19.734 -14.421  1.00  0.00     0.123 A 
HETATM   37  C25 UNL     1      54.379  18.892 -13.506  1.00  0.00     0.068 A 
HETATM   38  C26 UNL     1      55.115  18.959 -12.322  1.00  0.00     0.111 A 
HETATM   39  N3  UNL     1      56.086  19.830 -12.568  1.00  0.00    -0.310 N 
HETATM   40  N4  UNL     1      56.017  20.304 -13.792  1.00  0.00    -0.286 N 
ATOM     41  H3  UNL     1      56.800  20.098 -11.889  1.00  0.00     0.186 HD
ATOM     42  H4  UNL     1      56.656  20.985 -14.204  1.00  0.00     0.188 HD
ENDBRANCH  34  36
ENDBRANCH  31  32
BRANCH  31  43
HETATM   43  C27 UNL     1      55.196  23.007 -17.096  1.00  0.00     0.078 C 
HETATM   44  C28 UNL     1      56.665  23.217 -17.398  1.00  0.00     0.047 C 
HETATM   45  C29 UNL     1      54.906  23.232 -15.653  1.00  0.00     0.047 C 
BRANCH  43  46
HETATM   46  O9  UNL     1      54.489  23.892 -17.948  1.00  0.00    -0.310 OA
BRANCH  46  47
HETATM   47  C30 UNL     1      55.050  24.784 -18.818  1.00  0.00     0.255 C 
HETATM   48  C31 UNL     1      55.405  26.183 -18.426  1.00  0.00     0.126 C 
HETATM   49  O10 UNL     1      55.283  24.436 -19.992  1.00  0.00    -0.266 OA
ENDBRANCH  46  47
ENDBRANCH  43  46
ENDBRANCH  31  43
ENDBRANCH  28  31
ENDBRANCH  26  28
ENDBRANCH   1  26
TORSDOF 23
ENDMDL
