MODEL 1
REMARK VINA RESULT: -5.397679634      0.000      0.000
REMARK  21 active torsions:
REMARK  status: ('A' for Active; 'I' for Inactive)
REMARK    1  A    between atoms: C5_5  and  C6_6 
REMARK    2  A    between atoms: C6_6  and  C7_7 
REMARK    3  A    between atoms: C7_7  and  C8_8 
REMARK    4  A    between atoms: C8_8  and  C9_10 
REMARK    5  A    between atoms: C9_10  and  C10_12 
REMARK    6  A    between atoms: C10_12  and  C12_14 
REMARK    7  A    between atoms: C12_14  and  C14_16 
REMARK    8  A    between atoms: C14_16  and  O3_17 
REMARK    9  A    between atoms: C14_16  and  C15_19 
REMARK   10  A    between atoms: C15_19  and  O4_20 
REMARK   11  A    between atoms: C15_19  and  C17_22 
REMARK   12  A    between atoms: C17_22  and  C19_24 
REMARK   13  A    between atoms: C19_24  and  C21_26 
REMARK   14  A    between atoms: C21_26  and  O5_27 
REMARK   15  A    between atoms: C21_26  and  C22_29 
REMARK   16  A    between atoms: C22_29  and  O6_30 
REMARK   17  A    between atoms: C22_29  and  C23_32 
REMARK   18  A    between atoms: C24_33  and  C25_34 
REMARK   19  A    between atoms: C32_42  and  C33_43 
REMARK   20  A    between atoms: C33_43  and  O8_44 
REMARK   21  A    between atoms: O8_44  and  C34_45 
ROOT
HETATM    1  C1  UNL     1      56.108  17.368 -25.277  1.00  0.00     0.017 C 
HETATM    2  C2  UNL     1      56.182  17.668 -24.120  1.00  0.00    -0.083 C 
HETATM    3  C3  UNL     1      56.259  18.051 -22.734  1.00  0.00    -0.013 C 
HETATM    4  C4  UNL     1      57.204  17.358 -21.853  1.00  0.00     0.057 C 
HETATM    5  C5  UNL     1      55.491  19.002 -22.295  1.00  0.00    -0.011 C 
ENDROOT
BRANCH   5   6
HETATM    6  C6  UNL     1      54.504  19.778 -23.073  1.00  0.00     0.036 C 
BRANCH   6   7
HETATM    7  C7  UNL     1      53.191  19.850 -22.388  1.00  0.00     0.091 C 
BRANCH   7   8
HETATM    8  C8  UNL     1      53.151  20.937 -21.387  1.00  0.00     0.195 C 
HETATM    9  O1  UNL     1      53.728  20.722 -20.305  1.00  0.00    -0.289 OA
BRANCH   8  10
HETATM   10  C9  UNL     1      52.483  22.153 -21.674  1.00  0.00     0.199 C 
HETATM   11  O2  UNL     1      51.232  22.251 -21.360  1.00  0.00    -0.289 OA
BRANCH  10  12
HETATM   12  C10 UNL     1      53.037  23.397 -22.315  1.00  0.00     0.066 C 
HETATM   13  C11 UNL     1      52.956  23.211 -23.807  1.00  0.00     0.018 C 
BRANCH  12  14
HETATM   14  C12 UNL     1      54.320  23.830 -21.737  1.00  0.00     0.024 C 
HETATM   15  C13 UNL     1      55.539  23.705 -22.617  1.00  0.00     0.013 C 
BRANCH  14  16
HETATM   16  C14 UNL     1      54.378  24.883 -20.695  1.00  0.00     0.152 C 
BRANCH  16  17
HETATM   17  O3  UNL     1      53.046  25.447 -20.704  1.00  0.00    -0.393 OA
ATOM     18  H3  UNL     1      52.933  25.771 -19.818  1.00  0.00     0.210 HD
ENDBRANCH  16  17
BRANCH  16  19
HETATM   19  C15 UNL     1      54.880  24.754 -19.364  1.00  0.00     0.154 C 
BRANCH  19  20
HETATM   20  O4  UNL     1      54.562  25.727 -18.427  1.00  0.00    -0.388 OA
HETATM   21  C16 UNL     1      55.486  26.786 -18.452  1.00  0.00     0.202 C 
ENDBRANCH  19  20
BRANCH  19  22
HETATM   22  C17 UNL     1      54.580  23.386 -18.686  1.00  0.00     0.019 C 
HETATM   23  C18 UNL     1      53.257  23.412 -18.069  1.00  0.00     0.013 C 
BRANCH  22  24
HETATM   24  C19 UNL     1      55.714  22.698 -18.092  1.00  0.00     0.019 C 
HETATM   25  C20 UNL     1      56.684  23.446 -17.225  1.00  0.00     0.013 C 
BRANCH  24  26
HETATM   26  C21 UNL     1      55.413  21.418 -17.370  1.00  0.00     0.154 C 
BRANCH  26  27
HETATM   27  O5  UNL     1      55.748  20.262 -18.038  1.00  0.00    -0.392 OA
ATOM     28  H5  UNL     1      55.025  19.679 -18.240  1.00  0.00     0.210 HD
ENDBRANCH  26  27
BRANCH  26  29
HETATM   29  C22 UNL     1      55.800  21.399 -15.911  1.00  0.00     0.169 C 
BRANCH  29  30
HETATM   30  O6  UNL     1      56.564  20.264 -15.602  1.00  0.00    -0.389 OA
ATOM     31  H6  UNL     1      57.034  20.377 -14.784  1.00  0.00     0.210 HD
ENDBRANCH  29  30
BRANCH  29  32
HETATM   32  C23 UNL     1      54.599  21.333 -15.030  1.00  0.00     0.005 C 
HETATM   33  C24 UNL     1      53.506  20.668 -15.372  1.00  0.00     0.003 C 
BRANCH  33  34
HETATM   34  C25 UNL     1      52.315  20.632 -14.441  1.00  0.00     0.144 C 
HETATM   35  C26 UNL     1      51.101  20.860 -15.343  1.00  0.00     0.039 C 
HETATM   36  C27 UNL     1      49.840  20.559 -14.552  1.00  0.00     0.037 C 
HETATM   37  C28 UNL     1      49.819  21.285 -13.254  1.00  0.00     0.151 A 
HETATM   38  O7  UNL     1      48.806  20.743 -12.371  1.00  0.00    -0.375 OA
HETATM   39  C29 UNL     1      50.219  20.667 -12.082  1.00  0.00     0.157 A 
HETATM   40  C30 UNL     1      50.816  19.300 -12.072  1.00  0.00     0.044 C 
HETATM   41  C31 UNL     1      50.702  18.616 -10.725  1.00  0.00     0.015 C 
HETATM   42  C32 UNL     1      52.266  19.277 -12.530  1.00  0.00     0.153 C 
HETATM   43  O10 UNL     1      52.305  19.391 -13.884  1.00  0.00    -0.374 OA
BRANCH  42  44
HETATM   44  C33 UNL     1      53.153  20.175 -11.745  1.00  0.00     0.212 C 
BRANCH  44  45
HETATM   45  O8  UNL     1      54.344  19.448 -11.416  1.00  0.00    -0.304 OA
BRANCH  45  46
HETATM   46  C34 UNL     1      55.553  19.772 -12.014  1.00  0.00     0.372 C 
HETATM   47  N1  UNL     1      56.292  18.871 -12.810  1.00  0.00    -0.032 NA
HETATM   48  O9  UNL     1      56.000  20.930 -11.830  1.00  0.00    -0.242 OA
ENDBRANCH  45  46
ENDBRANCH  44  45
ENDBRANCH  42  44
ENDBRANCH  33  34
ENDBRANCH  29  32
ENDBRANCH  26  29
ENDBRANCH  24  26
ENDBRANCH  22  24
ENDBRANCH  19  22
ENDBRANCH  16  19
ENDBRANCH  14  16
ENDBRANCH  12  14
ENDBRANCH  10  12
ENDBRANCH   8  10
ENDBRANCH   7   8
ENDBRANCH   6   7
ENDBRANCH   5   6
TORSDOF 21
ENDMDL
MODEL 2
REMARK VINA RESULT: -5.380331856      3.031      4.873
REMARK  21 active torsions:
REMARK  status: ('A' for Active; 'I' for Inactive)
REMARK    1  A    between atoms: C5_5  and  C6_6 
REMARK    2  A    between atoms: C6_6  and  C7_7 
REMARK    3  A    between atoms: C7_7  and  C8_8 
REMARK    4  A    between atoms: C8_8  and  C9_10 
REMARK    5  A    between atoms: C9_10  and  C10_12 
REMARK    6  A    between atoms: C10_12  and  C12_14 
REMARK    7  A    between atoms: C12_14  and  C14_16 
REMARK    8  A    between atoms: C14_16  and  O3_17 
REMARK    9  A    between atoms: C14_16  and  C15_19 
REMARK   10  A    between atoms: C15_19  and  O4_20 
REMARK   11  A    between atoms: C15_19  and  C17_22 
REMARK   12  A    between atoms: C17_22  and  C19_24 
REMARK   13  A    between atoms: C19_24  and  C21_26 
REMARK   14  A    between atoms: C21_26  and  O5_27 
REMARK   15  A    between atoms: C21_26  and  C22_29 
REMARK   16  A    between atoms: C22_29  and  O6_30 
REMARK   17  A    between atoms: C22_29  and  C23_32 
REMARK   18  A    between atoms: C24_33  and  C25_34 
REMARK   19  A    between atoms: C32_42  and  C33_43 
REMARK   20  A    between atoms: C33_43  and  O8_44 
REMARK   21  A    between atoms: O8_44  and  C34_45 
ROOT
HETATM    1  C1  UNL     1      56.827  17.375 -22.439  1.00  0.00     0.017 C 
HETATM    2  C2  UNL     1      56.764  17.087 -23.600  1.00  0.00    -0.083 C 
HETATM    3  C3  UNL     1      56.665  16.753 -24.997  1.00  0.00    -0.013 C 
HETATM    4  C4  UNL     1      57.539  15.710 -25.545  1.00  0.00     0.057 C 
HETATM    5  C5  UNL     1      55.805  17.381 -25.740  1.00  0.00    -0.011 C 
ENDROOT
BRANCH   5   6
HETATM    6  C6  UNL     1      54.870  18.442 -25.315  1.00  0.00     0.036 C 
BRANCH   6   7
HETATM    7  C7  UNL     1      55.364  19.793 -25.674  1.00  0.00     0.091 C 
BRANCH   7   8
HETATM    8  C8  UNL     1      55.010  20.798 -24.649  1.00  0.00     0.195 C 
HETATM    9  O1  UNL     1      55.943  21.489 -24.198  1.00  0.00    -0.289 OA
BRANCH   8  10
HETATM   10  C9  UNL     1      53.668  20.946 -24.221  1.00  0.00     0.199 C 
HETATM   11  O2  UNL     1      52.808  21.422 -25.062  1.00  0.00    -0.289 OA
BRANCH  10  12
HETATM   12  C10 UNL     1      53.072  20.618 -22.878  1.00  0.00     0.066 C 
HETATM   13  C11 UNL     1      53.985  19.626 -22.208  1.00  0.00     0.018 C 
BRANCH  12  14
HETATM   14  C12 UNL     1      51.634  20.309 -22.938  1.00  0.00     0.024 C 
HETATM   15  C13 UNL     1      51.255  18.925 -23.405  1.00  0.00     0.013 C 
BRANCH  14  16
HETATM   16  C14 UNL     1      50.665  20.977 -22.037  1.00  0.00     0.152 C 
BRANCH  16  17
HETATM   17  O3  UNL     1      49.386  20.729 -22.666  1.00  0.00    -0.393 OA
ATOM     18  H3  UNL     1      48.961  21.579 -22.654  1.00  0.00     0.210 HD
ENDBRANCH  16  17
BRANCH  16  19
HETATM   19  C15 UNL     1      50.579  20.855 -20.617  1.00  0.00     0.154 C 
BRANCH  19  20
HETATM   20  O4  UNL     1      50.950  19.659 -20.020  1.00  0.00    -0.388 OA
HETATM   21  C16 UNL     1      49.845  19.006 -19.447  1.00  0.00     0.202 C 
ENDBRANCH  19  20
BRANCH  19  22
HETATM   22  C17 UNL     1      51.307  21.978 -19.824  1.00  0.00     0.019 C 
HETATM   23  C18 UNL     1      50.749  23.282 -20.176  1.00  0.00     0.013 C 
BRANCH  22  24
HETATM   24  C19 UNL     1      52.720  21.770 -19.559  1.00  0.00     0.019 C 
HETATM   25  C20 UNL     1      53.734  22.774 -20.028  1.00  0.00     0.013 C 
BRANCH  24  26
HETATM   26  C21 UNL     1      53.091  21.435 -18.144  1.00  0.00     0.154 C 
BRANCH  26  27
HETATM   27  O5  UNL     1      52.572  20.259 -17.653  1.00  0.00    -0.392 OA
ATOM     28  H5  UNL     1      51.627  20.172 -17.705  1.00  0.00     0.210 HD
ENDBRANCH  26  27
BRANCH  26  29
HETATM   29  C22 UNL     1      54.546  21.637 -17.798  1.00  0.00     0.169 C 
BRANCH  29  30
HETATM   30  O6  UNL     1      55.203  20.409 -17.624  1.00  0.00    -0.389 OA
ATOM     31  H6  UNL     1      56.146  20.513 -17.678  1.00  0.00     0.210 HD
ENDBRANCH  29  30
BRANCH  29  32
HETATM   32  C23 UNL     1      54.703  22.369 -16.508  1.00  0.00     0.005 C 
HETATM   33  C24 UNL     1      55.744  23.147 -16.259  1.00  0.00     0.003 C 
BRANCH  33  34
HETATM   34  C25 UNL     1      55.855  23.868 -14.935  1.00  0.00     0.144 C 
HETATM   35  C26 UNL     1      56.072  25.338 -15.301  1.00  0.00     0.039 C 
HETATM   36  C27 UNL     1      55.911  26.183 -14.050  1.00  0.00     0.037 C 
HETATM   37  C28 UNL     1      56.745  25.672 -12.929  1.00  0.00     0.151 A 
HETATM   38  O7  UNL     1      56.337  26.257 -11.668  1.00  0.00    -0.375 OA
HETATM   39  C29 UNL     1      56.208  24.848 -11.956  1.00  0.00     0.157 A 
HETATM   40  C30 UNL     1      54.815  24.320 -12.045  1.00  0.00     0.044 C 
HETATM   41  C31 UNL     1      54.257  23.899 -10.702  1.00  0.00     0.015 C 
HETATM   42  C32 UNL     1      54.673  23.174 -13.035  1.00  0.00     0.153 C 
HETATM   43  O10 UNL     1      54.668  23.677 -14.298  1.00  0.00    -0.374 OA
BRANCH  42  44
HETATM   44  C33 UNL     1      55.584  22.032 -12.759  1.00  0.00     0.212 C 
BRANCH  44  45
HETATM   45  O8  UNL     1      54.983  20.844 -13.290  1.00  0.00    -0.304 OA
BRANCH  45  46
HETATM   46  C34 UNL     1      55.771  19.771 -13.679  1.00  0.00     0.372 C 
HETATM   47  N1  UNL     1      56.337  18.853 -12.770  1.00  0.00    -0.032 NA
HETATM   48  O9  UNL     1      55.983  19.622 -14.907  1.00  0.00    -0.242 OA
ENDBRANCH  45  46
ENDBRANCH  44  45
ENDBRANCH  42  44
ENDBRANCH  33  34
ENDBRANCH  29  32
ENDBRANCH  26  29
ENDBRANCH  24  26
ENDBRANCH  22  24
ENDBRANCH  19  22
ENDBRANCH  16  19
ENDBRANCH  14  16
ENDBRANCH  12  14
ENDBRANCH  10  12
ENDBRANCH   8  10
ENDBRANCH   7   8
ENDBRANCH   6   7
ENDBRANCH   5   6
TORSDOF 21
ENDMDL
MODEL 3
REMARK VINA RESULT: -5.170185569      2.943      6.159
REMARK  21 active torsions:
REMARK  status: ('A' for Active; 'I' for Inactive)
REMARK    1  A    between atoms: C5_5  and  C6_6 
REMARK    2  A    between atoms: C6_6  and  C7_7 
REMARK    3  A    between atoms: C7_7  and  C8_8 
REMARK    4  A    between atoms: C8_8  and  C9_10 
REMARK    5  A    between atoms: C9_10  and  C10_12 
REMARK    6  A    between atoms: C10_12  and  C12_14 
REMARK    7  A    between atoms: C12_14  and  C14_16 
REMARK    8  A    between atoms: C14_16  and  O3_17 
REMARK    9  A    between atoms: C14_16  and  C15_19 
REMARK   10  A    between atoms: C15_19  and  O4_20 
REMARK   11  A    between atoms: C15_19  and  C17_22 
REMARK   12  A    between atoms: C17_22  and  C19_24 
REMARK   13  A    between atoms: C19_24  and  C21_26 
REMARK   14  A    between atoms: C21_26  and  O5_27 
REMARK   15  A    between atoms: C21_26  and  C22_29 
REMARK   16  A    between atoms: C22_29  and  O6_30 
REMARK   17  A    between atoms: C22_29  and  C23_32 
REMARK   18  A    between atoms: C24_33  and  C25_34 
REMARK   19  A    between atoms: C32_42  and  C33_43 
REMARK   20  A    between atoms: C33_43  and  O8_44 
REMARK   21  A    between atoms: O8_44  and  C34_45 
ROOT
HETATM    1  C1  UNL     1      56.637  21.500 -16.259  1.00  0.00     0.017 C 
HETATM    2  C2  UNL     1      56.417  22.676 -16.212  1.00  0.00    -0.083 C 
HETATM    3  C3  UNL     1      56.154  24.091 -16.182  1.00  0.00    -0.013 C 
HETATM    4  C4  UNL     1      56.181  24.795 -14.895  1.00  0.00     0.057 C 
HETATM    5  C5  UNL     1      55.900  24.714 -17.293  1.00  0.00    -0.011 C 
ENDROOT
BRANCH   5   6
HETATM    6  C6  UNL     1      55.845  24.128 -18.648  1.00  0.00     0.036 C 
BRANCH   6   7
HETATM    7  C7  UNL     1      55.261  25.067 -19.635  1.00  0.00     0.091 C 
BRANCH   7   8
HETATM    8  C8  UNL     1      54.157  24.446 -20.398  1.00  0.00     0.195 C 
HETATM    9  O1  UNL     1      54.479  23.751 -21.380  1.00  0.00    -0.289 OA
BRANCH   8  10
HETATM   10  C9  UNL     1      52.811  24.648 -20.007  1.00  0.00     0.199 C 
HETATM   11  O2  UNL     1      52.325  25.844 -20.087  1.00  0.00    -0.289 OA
BRANCH  10  12
HETATM   12  C10 UNL     1      51.824  23.636 -19.491  1.00  0.00     0.066 C 
HETATM   13  C11 UNL     1      50.705  24.392 -18.826  1.00  0.00     0.018 C 
BRANCH  12  14
HETATM   14  C12 UNL     1      52.454  22.531 -18.750  1.00  0.00     0.024 C 
HETATM   15  C13 UNL     1      52.844  22.809 -17.319  1.00  0.00     0.013 C 
BRANCH  14  16
HETATM   16  C14 UNL     1      52.159  21.116 -19.078  1.00  0.00     0.152 C 
BRANCH  16  17
HETATM   17  O3  UNL     1      52.771  20.379 -17.994  1.00  0.00    -0.393 OA
ATOM     18  H3  UNL     1      53.701  20.509 -18.130  1.00  0.00     0.210 HD
ENDBRANCH  16  17
BRANCH  16  19
HETATM   19  C15 UNL     1      50.896  20.558 -19.440  1.00  0.00     0.154 C 
BRANCH  19  20
HETATM   20  O4  UNL     1      50.859  19.493 -20.328  1.00  0.00    -0.388 OA
HETATM   21  C16 UNL     1      51.646  19.744 -21.465  1.00  0.00     0.202 C 
ENDBRANCH  19  20
BRANCH  19  22
HETATM   22  C17 UNL     1      49.998  20.150 -18.237  1.00  0.00     0.019 C 
HETATM   23  C18 UNL     1      49.342  18.874 -18.511  1.00  0.00     0.013 C 
BRANCH  22  24
HETATM   24  C19 UNL     1      49.347  21.234 -17.521  1.00  0.00     0.019 C 
HETATM   25  C20 UNL     1      47.849  21.339 -17.505  1.00  0.00     0.013 C 
BRANCH  24  26
HETATM   26  C21 UNL     1      49.793  21.461 -16.107  1.00  0.00     0.154 C 
BRANCH  26  27
HETATM   27  O5  UNL     1      49.262  22.567 -15.483  1.00  0.00    -0.392 OA
ATOM     28  H5  UNL     1      48.881  22.414 -14.626  1.00  0.00     0.210 HD
ENDBRANCH  26  27
BRANCH  26  29
HETATM   29  C22 UNL     1      49.806  20.232 -15.233  1.00  0.00     0.169 C 
BRANCH  29  30
HETATM   30  O6  UNL     1      48.649  20.156 -14.443  1.00  0.00    -0.389 OA
ATOM     31  H6  UNL     1      48.855  19.887 -13.555  1.00  0.00     0.210 HD
ENDBRANCH  29  30
BRANCH  29  32
HETATM   32  C23 UNL     1      50.950  20.254 -14.278  1.00  0.00     0.005 C 
HETATM   33  C24 UNL     1      52.193  20.495 -14.667  1.00  0.00     0.003 C 
BRANCH  33  34
HETATM   34  C25 UNL     1      53.318  20.507 -13.658  1.00  0.00     0.144 C 
HETATM   35  C26 UNL     1      54.150  19.263 -13.979  1.00  0.00     0.039 C 
HETATM   36  C27 UNL     1      55.457  19.337 -13.210  1.00  0.00     0.037 C 
HETATM   37  C28 UNL     1      55.230  19.600 -11.763  1.00  0.00     0.151 A 
HETATM   38  O7  UNL     1      56.458  20.004 -11.109  1.00  0.00    -0.375 OA
HETATM   39  C29 UNL     1      55.319  20.881 -11.247  1.00  0.00     0.157 A 
HETATM   40  C30 UNL     1      55.511  22.076 -12.120  1.00  0.00     0.044 C 
HETATM   41  C31 UNL     1      56.089  23.262 -11.378  1.00  0.00     0.015 C 
HETATM   42  C32 UNL     1      54.240  22.499 -12.840  1.00  0.00     0.153 C 
HETATM   43  O10 UNL     1      54.016  21.653 -13.880  1.00  0.00    -0.374 OA
BRANCH  42  44
HETATM   44  C33 UNL     1      53.100  22.772 -11.926  1.00  0.00     0.212 C 
BRANCH  44  45
HETATM   45  O8  UNL     1      52.467  23.985 -12.352  1.00  0.00    -0.304 OA
BRANCH  45  46
HETATM   46  C34 UNL     1      51.384  23.947 -13.218  1.00  0.00     0.372 C 
HETATM   47  N1  UNL     1      51.397  24.521 -14.506  1.00  0.00    -0.032 NA
HETATM   48  O9  UNL     1      50.344  23.367 -12.820  1.00  0.00    -0.242 OA
ENDBRANCH  45  46
ENDBRANCH  44  45
ENDBRANCH  42  44
ENDBRANCH  33  34
ENDBRANCH  29  32
ENDBRANCH  26  29
ENDBRANCH  24  26
ENDBRANCH  22  24
ENDBRANCH  19  22
ENDBRANCH  16  19
ENDBRANCH  14  16
ENDBRANCH  12  14
ENDBRANCH  10  12
ENDBRANCH   8  10
ENDBRANCH   7   8
ENDBRANCH   6   7
ENDBRANCH   5   6
TORSDOF 21
ENDMDL
MODEL 4
REMARK VINA RESULT: -5.152225505      2.420      3.928
REMARK  21 active torsions:
REMARK  status: ('A' for Active; 'I' for Inactive)
REMARK    1  A    between atoms: C5_5  and  C6_6 
REMARK    2  A    between atoms: C6_6  and  C7_7 
REMARK    3  A    between atoms: C7_7  and  C8_8 
REMARK    4  A    between atoms: C8_8  and  C9_10 
REMARK    5  A    between atoms: C9_10  and  C10_12 
REMARK    6  A    between atoms: C10_12  and  C12_14 
REMARK    7  A    between atoms: C12_14  and  C14_16 
REMARK    8  A    between atoms: C14_16  and  O3_17 
REMARK    9  A    between atoms: C14_16  and  C15_19 
REMARK   10  A    between atoms: C15_19  and  O4_20 
REMARK   11  A    between atoms: C15_19  and  C17_22 
REMARK   12  A    between atoms: C17_22  and  C19_24 
REMARK   13  A    between atoms: C19_24  and  C21_26 
REMARK   14  A    between atoms: C21_26  and  O5_27 
REMARK   15  A    between atoms: C21_26  and  C22_29 
REMARK   16  A    between atoms: C22_29  and  O6_30 
REMARK   17  A    between atoms: C22_29  and  C23_32 
REMARK   18  A    between atoms: C24_33  and  C25_34 
REMARK   19  A    between atoms: C32_42  and  C33_43 
REMARK   20  A    between atoms: C33_43  and  O8_44 
REMARK   21  A    between atoms: O8_44  and  C34_45 
ROOT
HETATM    1  C1  UNL     1      57.227  17.390 -21.835  1.00  0.00     0.017 C 
HETATM    2  C2  UNL     1      56.711  17.533 -22.906  1.00  0.00    -0.083 C 
HETATM    3  C3  UNL     1      56.077  17.724 -24.184  1.00  0.00    -0.013 C 
HETATM    4  C4  UNL     1      56.193  16.675 -25.203  1.00  0.00     0.057 C 
HETATM    5  C5  UNL     1      55.415  18.819 -24.407  1.00  0.00    -0.011 C 
ENDROOT
BRANCH   5   6
HETATM    6  C6  UNL     1      55.219  19.945 -23.472  1.00  0.00     0.036 C 
BRANCH   6   7
HETATM    7  C7  UNL     1      53.871  19.927 -22.855  1.00  0.00     0.091 C 
BRANCH   7   8
HETATM    8  C8  UNL     1      53.479  21.260 -22.350  1.00  0.00     0.195 C 
HETATM    9  O1  UNL     1      53.653  21.471 -21.136  1.00  0.00    -0.289 OA
BRANCH   8  10
HETATM   10  C9  UNL     1      52.936  22.229 -23.229  1.00  0.00     0.199 C 
HETATM   11  O2  UNL     1      51.686  22.133 -23.548  1.00  0.00    -0.289 OA
BRANCH  10  12
HETATM   12  C10 UNL     1      53.628  23.401 -23.873  1.00  0.00     0.066 C 
HETATM   13  C11 UNL     1      54.262  22.908 -25.147  1.00  0.00     0.018 C 
BRANCH  12  14
HETATM   14  C12 UNL     1      54.461  24.173 -22.936  1.00  0.00     0.024 C 
HETATM   15  C13 UNL     1      55.955  24.002 -23.054  1.00  0.00     0.013 C 
BRANCH  14  16
HETATM   16  C14 UNL     1      53.998  25.470 -22.385  1.00  0.00     0.152 C 
BRANCH  16  17
HETATM   17  O3  UNL     1      53.384  26.124 -23.519  1.00  0.00    -0.393 OA
ATOM     18  H3  UNL     1      52.454  25.983 -23.384  1.00  0.00     0.210 HD
ENDBRANCH  16  17
BRANCH  16  19
HETATM   19  C15 UNL     1      53.244  25.682 -21.190  1.00  0.00     0.154 C 
BRANCH  19  20
HETATM   20  O4  UNL     1      52.633  24.597 -20.579  1.00  0.00    -0.388 OA
HETATM   21  C16 UNL     1      51.247  24.588 -20.815  1.00  0.00     0.202 C 
ENDBRANCH  19  20
BRANCH  19  22
HETATM   22  C17 UNL     1      54.008  26.439 -20.066  1.00  0.00     0.019 C 
HETATM   23  C18 UNL     1      53.621  27.847 -20.058  1.00  0.00     0.013 C 
BRANCH  22  24
HETATM   24  C19 UNL     1      55.364  25.991 -19.793  1.00  0.00     0.019 C 
HETATM   25  C20 UNL     1      56.526  26.915 -20.016  1.00  0.00     0.013 C 
BRANCH  24  26
HETATM   26  C21 UNL     1      55.596  25.347 -18.458  1.00  0.00     0.154 C 
BRANCH  26  27
HETATM   27  O5  UNL     1      54.817  25.817 -17.424  1.00  0.00    -0.392 OA
ATOM     28  H5  UNL     1      53.960  25.415 -17.339  1.00  0.00     0.210 HD
ENDBRANCH  26  27
BRANCH  26  29
HETATM   29  C22 UNL     1      55.710  23.843 -18.483  1.00  0.00     0.169 C 
BRANCH  29  30
HETATM   30  O6  UNL     1      54.683  23.266 -19.243  1.00  0.00    -0.389 OA
ATOM     31  H6  UNL     1      54.349  22.478 -18.830  1.00  0.00     0.210 HD
ENDBRANCH  29  30
BRANCH  29  32
HETATM   32  C23 UNL     1      55.579  23.264 -17.115  1.00  0.00     0.005 C 
HETATM   33  C24 UNL     1      54.736  22.280 -16.841  1.00  0.00     0.003 C 
BRANCH  33  34
HETATM   34  C25 UNL     1      54.641  21.728 -15.437  1.00  0.00     0.144 C 
HETATM   35  C26 UNL     1      54.720  20.209 -15.603  1.00  0.00     0.039 C 
HETATM   36  C27 UNL     1      54.921  19.577 -14.237  1.00  0.00     0.037 C 
HETATM   37  C28 UNL     1      53.917  20.063 -13.253  1.00  0.00     0.151 A 
HETATM   38  O7  UNL     1      54.313  19.732 -11.899  1.00  0.00    -0.375 OA
HETATM   39  C29 UNL     1      54.214  21.091 -12.376  1.00  0.00     0.157 A 
HETATM   40  C30 UNL     1      55.493  21.854 -12.454  1.00  0.00     0.044 C 
HETATM   41  C31 UNL     1      55.851  22.542 -11.154  1.00  0.00     0.015 C 
HETATM   42  C32 UNL     1      55.515  22.870 -13.587  1.00  0.00     0.153 C 
HETATM   43  O10 UNL     1      55.716  22.219 -14.763  1.00  0.00    -0.374 OA
BRANCH  42  44
HETATM   44  C33 UNL     1      54.395  23.847 -13.532  1.00  0.00     0.212 C 
BRANCH  44  45
HETATM   45  O8  UNL     1      54.781  25.008 -14.279  1.00  0.00    -0.304 OA
BRANCH  45  46
HETATM   46  C34 UNL     1      55.995  25.632 -14.030  1.00  0.00     0.372 C 
HETATM   47  N1  UNL     1      56.407  26.048 -12.747  1.00  0.00    -0.032 NA
HETATM   48  O9  UNL     1      56.756  25.831 -15.009  1.00  0.00    -0.242 OA
ENDBRANCH  45  46
ENDBRANCH  44  45
ENDBRANCH  42  44
ENDBRANCH  33  34
ENDBRANCH  29  32
ENDBRANCH  26  29
ENDBRANCH  24  26
ENDBRANCH  22  24
ENDBRANCH  19  22
ENDBRANCH  16  19
ENDBRANCH  14  16
ENDBRANCH  12  14
ENDBRANCH  10  12
ENDBRANCH   8  10
ENDBRANCH   7   8
ENDBRANCH   6   7
ENDBRANCH   5   6
TORSDOF 21
ENDMDL
MODEL 5
REMARK VINA RESULT: -5.151714643      2.962      8.790
REMARK  21 active torsions:
REMARK  status: ('A' for Active; 'I' for Inactive)
REMARK    1  A    between atoms: C5_5  and  C6_6 
REMARK    2  A    between atoms: C6_6  and  C7_7 
REMARK    3  A    between atoms: C7_7  and  C8_8 
REMARK    4  A    between atoms: C8_8  and  C9_10 
REMARK    5  A    between atoms: C9_10  and  C10_12 
REMARK    6  A    between atoms: C10_12  and  C12_14 
REMARK    7  A    between atoms: C12_14  and  C14_16 
REMARK    8  A    between atoms: C14_16  and  O3_17 
REMARK    9  A    between atoms: C14_16  and  C15_19 
REMARK   10  A    between atoms: C15_19  and  O4_20 
REMARK   11  A    between atoms: C15_19  and  C17_22 
REMARK   12  A    between atoms: C17_22  and  C19_24 
REMARK   13  A    between atoms: C19_24  and  C21_26 
REMARK   14  A    between atoms: C21_26  and  O5_27 
REMARK   15  A    between atoms: C21_26  and  C22_29 
REMARK   16  A    between atoms: C22_29  and  O6_30 
REMARK   17  A    between atoms: C22_29  and  C23_32 
REMARK   18  A    between atoms: C24_33  and  C25_34 
REMARK   19  A    between atoms: C32_42  and  C33_43 
REMARK   20  A    between atoms: C33_43  and  O8_44 
REMARK   21  A    between atoms: O8_44  and  C34_45 
ROOT
HETATM    1  C1  UNL     1      52.185  20.857 -16.853  1.00  0.00     0.017 C 
HETATM    2  C2  UNL     1      53.374  20.732 -16.781  1.00  0.00    -0.083 C 
HETATM    3  C3  UNL     1      54.801  20.576 -16.669  1.00  0.00    -0.013 C 
HETATM    4  C4  UNL     1      55.656  21.024 -17.773  1.00  0.00     0.057 C 
HETATM    5  C5  UNL     1      55.299  20.045 -15.594  1.00  0.00    -0.011 C 
ENDROOT
BRANCH   5   6
HETATM    6  C6  UNL     1      54.554  19.559 -14.415  1.00  0.00     0.036 C 
BRANCH   6   7
HETATM    7  C7  UNL     1      55.448  18.931 -13.413  1.00  0.00     0.091 C 
BRANCH   7   8
HETATM    8  C8  UNL     1      55.085  19.318 -12.033  1.00  0.00     0.195 C 
HETATM    9  O1  UNL     1      54.226  18.619 -11.464  1.00  0.00    -0.289 OA
BRANCH   8  10
HETATM   10  C9  UNL     1      55.702  20.433 -11.414  1.00  0.00     0.199 C 
HETATM   11  O2  UNL     1      56.467  20.219 -10.393  1.00  0.00    -0.289 OA
BRANCH  10  12
HETATM   12  C10 UNL     1      55.593  21.888 -11.784  1.00  0.00     0.066 C 
HETATM   13  C11 UNL     1      56.141  22.690 -10.633  1.00  0.00     0.018 C 
BRANCH  12  14
HETATM   14  C12 UNL     1      54.274  22.256 -12.323  1.00  0.00     0.024 C 
HETATM   15  C13 UNL     1      53.101  22.147 -11.380  1.00  0.00     0.013 C 
BRANCH  14  16
HETATM   16  C14 UNL     1      54.138  23.250 -13.415  1.00  0.00     0.152 C 
BRANCH  16  17
HETATM   17  O3  UNL     1      52.874  22.910 -14.031  1.00  0.00    -0.393 OA
ATOM     18  H3  UNL     1      52.621  23.708 -14.480  1.00  0.00     0.210 HD
ENDBRANCH  16  17
BRANCH  16  19
HETATM   19  C15 UNL     1      54.308  24.665 -13.322  1.00  0.00     0.154 C 
BRANCH  19  20
HETATM   20  O4  UNL     1      54.277  25.266 -12.072  1.00  0.00    -0.388 OA
HETATM   21  C16 UNL     1      53.048  25.908 -11.840  1.00  0.00     0.202 C 
ENDBRANCH  19  20
BRANCH  19  22
HETATM   22  C17 UNL     1      55.575  25.215 -14.036  1.00  0.00     0.019 C 
HETATM   23  C18 UNL     1      56.588  25.581 -13.049  1.00  0.00     0.013 C 
BRANCH  22  24
HETATM   24  C19 UNL     1      55.351  25.973 -15.255  1.00  0.00     0.019 C 
HETATM   25  C20 UNL     1      56.083  27.263 -15.489  1.00  0.00     0.013 C 
BRANCH  24  26
HETATM   26  C21 UNL     1      55.439  25.207 -16.542  1.00  0.00     0.154 C 
BRANCH  26  27
HETATM   27  O5  UNL     1      56.170  24.041 -16.495  1.00  0.00    -0.392 OA
ATOM     28  H5  UNL     1      55.780  23.293 -16.932  1.00  0.00     0.210 HD
ENDBRANCH  26  27
BRANCH  26  29
HETATM   29  C22 UNL     1      54.139  25.067 -17.295  1.00  0.00     0.169 C 
BRANCH  29  30
HETATM   30  O6  UNL     1      53.244  24.229 -16.613  1.00  0.00    -0.389 OA
ATOM     31  H6  UNL     1      52.649  23.797 -17.216  1.00  0.00     0.210 HD
ENDBRANCH  29  30
BRANCH  29  32
HETATM   32  C23 UNL     1      54.348  24.439 -18.631  1.00  0.00     0.005 C 
HETATM   33  C24 UNL     1      53.357  24.259 -19.491  1.00  0.00     0.003 C 
BRANCH  33  34
HETATM   34  C25 UNL     1      53.623  23.618 -20.834  1.00  0.00     0.144 C 
HETATM   35  C26 UNL     1      54.786  24.414 -21.430  1.00  0.00     0.039 C 
HETATM   36  C27 UNL     1      55.314  23.673 -22.645  1.00  0.00     0.037 C 
HETATM   37  C28 UNL     1      54.223  23.325 -23.594  1.00  0.00     0.151 A 
HETATM   38  O7  UNL     1      54.669  22.341 -24.560  1.00  0.00    -0.375 OA
HETATM   39  C29 UNL     1      53.640  22.071 -23.584  1.00  0.00     0.157 A 
HETATM   40  C30 UNL     1      53.970  21.052 -22.546  1.00  0.00     0.044 C 
HETATM   41  C31 UNL     1      53.653  19.638 -22.985  1.00  0.00     0.015 C 
HETATM   42  C32 UNL     1      53.305  21.327 -21.206  1.00  0.00     0.153 C 
HETATM   43  O10 UNL     1      53.973  22.329 -20.576  1.00  0.00    -0.374 OA
BRANCH  42  44
HETATM   44  C33 UNL     1      51.825  21.441 -21.288  1.00  0.00     0.212 C 
BRANCH  44  45
HETATM   45  O8  UNL     1      51.265  20.821 -20.123  1.00  0.00    -0.304 OA
BRANCH  45  46
HETATM   46  C34 UNL     1      50.610  19.602 -20.221  1.00  0.00     0.372 C 
HETATM   47  N1  UNL     1      49.876  19.203 -21.357  1.00  0.00    -0.032 NA
HETATM   48  O9  UNL     1      50.685  18.823 -19.240  1.00  0.00    -0.242 OA
ENDBRANCH  45  46
ENDBRANCH  44  45
ENDBRANCH  42  44
ENDBRANCH  33  34
ENDBRANCH  29  32
ENDBRANCH  26  29
ENDBRANCH  24  26
ENDBRANCH  22  24
ENDBRANCH  19  22
ENDBRANCH  16  19
ENDBRANCH  14  16
ENDBRANCH  12  14
ENDBRANCH  10  12
ENDBRANCH   8  10
ENDBRANCH   7   8
ENDBRANCH   6   7
ENDBRANCH   5   6
TORSDOF 21
ENDMDL
