MODEL 1
REMARK VINA RESULT: -6.851265446      0.000      0.000
REMARK  18 active torsions:
REMARK  status: ('A' for Active; 'I' for Inactive)
REMARK    1  A    between atoms: C2_2  and  C3_3 
REMARK    2  A    between atoms: C3_3  and  C4_4 
REMARK    3  A    between atoms: C4_4  and  C5_5 
REMARK    4  A    between atoms: C5_5  and  C6_6 
REMARK    5  A    between atoms: C6_6  and  C7_7 
REMARK    6  A    between atoms: C7_7  and  C8_8 
REMARK    7  A    between atoms: C10_10  and  C11_11 
REMARK    8  A    between atoms: C11_11  and  C13_13 
REMARK    9  A    between atoms: C13_13  and  C14_14 
REMARK   10  A    between atoms: C14_14  and  C15_16 
REMARK   11  A    between atoms: C15_16  and  C16_17 
REMARK   12  A    between atoms: C16_17  and  C17_18 
REMARK   13  A    between atoms: C24_32  and  N2_33 
REMARK       I    between atoms: N2_33  and  C25_35 
REMARK   14  A    between atoms: C25_35  and  C26_37 
REMARK   15  A    between atoms: C26_37  and  C27_39 
REMARK   16  A    between atoms: C27_39  and  C30_42 
REMARK   17  A    between atoms: C32_44  and  O9_45 
REMARK   18  A    between atoms: C33_47  and  O10_48 
ROOT
HETATM    1  C17 UNL     1      54.349  21.977 -17.538  1.00  0.00     0.144 C 
HETATM    2  O2  UNL     1      53.345  21.220 -18.195  1.00  0.00    -0.285 OA
HETATM    3  C18 UNL     1      52.222  21.110 -17.422  1.00  0.00     0.363 C 
HETATM    4  O3  UNL     1      51.316  20.222 -17.584  1.00  0.00    -0.238 OA
HETATM    5  N1  UNL     1      52.277  22.130 -16.461  1.00  0.00    -0.307 N 
ATOM      6  H1  UNL     1      51.573  22.327 -15.750  1.00  0.00     0.167 HD
HETATM    7  C19 UNL     1      53.503  22.844 -16.659  1.00  0.00     0.266 C 
HETATM    8  O4  UNL     1      54.020  23.244 -15.478  1.00  0.00    -0.331 OA
HETATM    9  C20 UNL     1      53.756  22.514 -14.366  1.00  0.00     0.296 C 
HETATM   10  O5  UNL     1      53.330  23.448 -13.385  1.00  0.00    -0.329 OA
HETATM   11  C21 UNL     1      54.467  23.867 -12.739  1.00  0.00     0.259 C 
HETATM   12  C22 UNL     1      54.303  23.494 -11.268  1.00  0.00     0.071 C 
HETATM   13  O6  UNL     1      55.561  23.162 -13.240  1.00  0.00    -0.349 OA
HETATM   14  C23 UNL     1      54.974  21.990 -13.658  1.00  0.00     0.205 C 
HETATM   15  C24 UNL     1      55.798  21.022 -14.385  1.00  0.00     0.150 C 
HETATM   16  C32 UNL     1      56.141  21.304 -15.818  1.00  0.00     0.175 C 
HETATM   17  C33 UNL     1      55.165  20.950 -16.836  1.00  0.00     0.188 C 
ENDROOT
BRANCH   1  18
HETATM   18  C16 UNL     1      55.127  22.714 -18.567  1.00  0.00     0.053 C 
BRANCH  18  19
HETATM   19  C15 UNL     1      55.393  24.148 -18.402  1.00  0.00     0.081 C 
BRANCH  19  20
HETATM   20  C14 UNL     1      54.821  25.073 -19.399  1.00  0.00     0.127 C 
HETATM   21  O1  UNL     1      53.613  25.221 -19.453  1.00  0.00    -0.298 OA
BRANCH  20  22
HETATM   22  C13 UNL     1      55.689  25.842 -20.349  1.00  0.00     0.086 C 
BRANCH  22  23
HETATM   23  C11 UNL     1      55.156  25.752 -21.726  1.00  0.00     0.011 C 
HETATM   24  C12 UNL     1      55.470  27.055 -22.500  1.00  0.00     0.014 C 
BRANCH  23  25
HETATM   25  C10 UNL     1      55.441  24.607 -22.536  1.00  0.00    -0.020 C 
HETATM   26  C8  UNL     1      54.918  23.447 -22.734  1.00  0.00    -0.087 C 
HETATM   27  C9  UNL     1      53.758  22.781 -22.110  1.00  0.00     0.043 C 
BRANCH  26  28
HETATM   28  C7  UNL     1      55.638  22.561 -23.754  1.00  0.00     0.033 C 
BRANCH  28  29
HETATM   29  C6  UNL     1      54.706  21.648 -24.473  1.00  0.00     0.004 C 
BRANCH  29  30
HETATM   30  C5  UNL     1      55.205  20.258 -24.669  1.00  0.00     0.001 C 
BRANCH  30  31
HETATM   31  C4  UNL     1      54.541  19.194 -23.882  1.00  0.00     0.004 C 
BRANCH  31  32
HETATM   32  C3  UNL     1      55.245  18.985 -22.564  1.00  0.00     0.026 C 
BRANCH  32  33
HETATM   33  C2  UNL     1      56.418  18.100 -22.804  1.00  0.00    -0.037 C 
HETATM   34  C1  UNL     1      57.136  17.624 -21.811  1.00  0.00     0.007 C 
ENDBRANCH  32  33
ENDBRANCH  31  32
ENDBRANCH  30  31
ENDBRANCH  29  30
ENDBRANCH  28  29
ENDBRANCH  26  28
ENDBRANCH  23  25
ENDBRANCH  22  23
ENDBRANCH  20  22
ENDBRANCH  19  20
ENDBRANCH  18  19
ENDBRANCH   1  18
BRANCH  17  35
HETATM   35  O10 UNL     1      55.725  20.164 -17.885  1.00  0.00    -0.390 OA
ATOM     36  H10 UNL     1      55.588  19.266 -17.608  1.00  0.00     0.210 HD
ENDBRANCH  17  35
BRANCH  16  37
HETATM   37  O9  UNL     1      56.766  22.548 -15.910  1.00  0.00    -0.391 OA
ATOM     38  H9  UNL     1      57.041  22.698 -16.807  1.00  0.00     0.210 HD
ENDBRANCH  16  37
BRANCH  15  39
HETATM   39  N2  UNL     1      55.211  19.713 -14.223  1.00  0.00    -0.345 N 
HETATM   40  C25 UNL     1      55.550  18.899 -13.113  1.00  0.00     0.288 C 
HETATM   41  O7  UNL     1      56.367  19.340 -12.276  1.00  0.00    -0.264 OA
ATOM     42  H2  UNL     1      54.545  19.370 -14.915  1.00  0.00     0.163 HD
BRANCH  40  43
HETATM   43  C26 UNL     1      54.994  17.574 -12.898  1.00  0.00     0.224 C 
HETATM   44  O8  UNL     1      55.740  16.592 -13.241  1.00  0.00    -0.286 OA
BRANCH  43  45
HETATM   45  C27 UNL     1      53.644  17.350 -12.321  1.00  0.00     0.022 C 
HETATM   46  C28 UNL     1      52.650  18.329 -12.919  1.00  0.00     0.023 C 
HETATM   47  C29 UNL     1      53.621  17.528 -10.829  1.00  0.00     0.023 C 
BRANCH  45  48
HETATM   48  C30 UNL     1      53.198  15.960 -12.728  1.00  0.00     0.012 C 
HETATM   49  C31 UNL     1      51.773  15.658 -12.418  1.00  0.00     0.006 C 
ENDBRANCH  45  48
ENDBRANCH  43  45
ENDBRANCH  40  43
ENDBRANCH  15  39
TORSDOF 18
ENDMDL
MODEL 2
REMARK VINA RESULT: -6.696240631      0.775      1.249
REMARK  18 active torsions:
REMARK  status: ('A' for Active; 'I' for Inactive)
REMARK    1  A    between atoms: C2_2  and  C3_3 
REMARK    2  A    between atoms: C3_3  and  C4_4 
REMARK    3  A    between atoms: C4_4  and  C5_5 
REMARK    4  A    between atoms: C5_5  and  C6_6 
REMARK    5  A    between atoms: C6_6  and  C7_7 
REMARK    6  A    between atoms: C7_7  and  C8_8 
REMARK    7  A    between atoms: C10_10  and  C11_11 
REMARK    8  A    between atoms: C11_11  and  C13_13 
REMARK    9  A    between atoms: C13_13  and  C14_14 
REMARK   10  A    between atoms: C14_14  and  C15_16 
REMARK   11  A    between atoms: C15_16  and  C16_17 
REMARK   12  A    between atoms: C16_17  and  C17_18 
REMARK   13  A    between atoms: C24_32  and  N2_33 
REMARK       I    between atoms: N2_33  and  C25_35 
REMARK   14  A    between atoms: C25_35  and  C26_37 
REMARK   15  A    between atoms: C26_37  and  C27_39 
REMARK   16  A    between atoms: C27_39  and  C30_42 
REMARK   17  A    between atoms: C32_44  and  O9_45 
REMARK   18  A    between atoms: C33_47  and  O10_48 
ROOT
HETATM    1  C17 UNL     1      54.361  21.946 -17.568  1.00  0.00     0.144 C 
HETATM    2  O2  UNL     1      53.347  21.187 -18.208  1.00  0.00    -0.285 OA
HETATM    3  C18 UNL     1      52.234  21.082 -17.421  1.00  0.00     0.363 C 
HETATM    4  O3  UNL     1      51.325  20.194 -17.566  1.00  0.00    -0.238 OA
HETATM    5  N1  UNL     1      52.304  22.107 -16.466  1.00  0.00    -0.307 N 
ATOM      6  H1  UNL     1      51.609  22.309 -15.747  1.00  0.00     0.167 HD
HETATM    7  C19 UNL     1      53.527  22.819 -16.683  1.00  0.00     0.266 C 
HETATM    8  O4  UNL     1      54.060  23.224 -15.512  1.00  0.00    -0.331 OA
HETATM    9  C20 UNL     1      53.810  22.501 -14.392  1.00  0.00     0.296 C 
HETATM   10  O5  UNL     1      53.397  23.441 -13.411  1.00  0.00    -0.329 OA
HETATM   11  C21 UNL     1      54.543  23.862 -12.782  1.00  0.00     0.259 C 
HETATM   12  C22 UNL     1      54.397  23.498 -11.308  1.00  0.00     0.071 C 
HETATM   13  O6  UNL     1      55.630  23.153 -13.293  1.00  0.00    -0.349 OA
HETATM   14  C23 UNL     1      55.036  21.980 -13.697  1.00  0.00     0.205 C 
HETATM   15  C24 UNL     1      55.849  21.007 -14.429  1.00  0.00     0.150 C 
HETATM   16  C32 UNL     1      56.175  21.280 -15.868  1.00  0.00     0.175 C 
HETATM   17  C33 UNL     1      55.185  20.921 -16.871  1.00  0.00     0.188 C 
ENDROOT
BRANCH   1  18
HETATM   18  C16 UNL     1      55.127  22.676 -18.612  1.00  0.00     0.053 C 
BRANCH  18  19
HETATM   19  C15 UNL     1      55.023  24.136 -18.715  1.00  0.00     0.081 C 
BRANCH  19  20
HETATM   20  C14 UNL     1      54.482  24.702 -19.965  1.00  0.00     0.127 C 
HETATM   21  O1  UNL     1      53.406  25.274 -19.947  1.00  0.00    -0.298 OA
BRANCH  20  22
HETATM   22  C13 UNL     1      55.224  24.594 -21.264  1.00  0.00     0.086 C 
BRANCH  22  23
HETATM   23  C11 UNL     1      54.384  23.932 -22.286  1.00  0.00     0.011 C 
HETATM   24  C12 UNL     1      54.974  24.180 -23.695  1.00  0.00     0.014 C 
BRANCH  23  25
HETATM   25  C10 UNL     1      54.010  22.559 -22.134  1.00  0.00    -0.020 C 
HETATM   26  C8  UNL     1      52.984  21.911 -21.703  1.00  0.00    -0.087 C 
HETATM   27  C9  UNL     1      51.719  22.376 -21.103  1.00  0.00     0.043 C 
BRANCH  26  28
HETATM   28  C7  UNL     1      53.092  20.385 -21.763  1.00  0.00     0.033 C 
BRANCH  28  29
HETATM   29  C6  UNL     1      52.570  19.828 -23.043  1.00  0.00     0.004 C 
BRANCH  29  30
HETATM   30  C5  UNL     1      53.512  18.939 -23.778  1.00  0.00     0.001 C 
BRANCH  30  31
HETATM   31  C4  UNL     1      54.891  19.444 -23.972  1.00  0.00     0.004 C 
BRANCH  31  32
HETATM   32  C3  UNL     1      55.899  18.342 -23.758  1.00  0.00     0.026 C 
BRANCH  32  33
HETATM   33  C2  UNL     1      56.224  18.292 -22.306  1.00  0.00    -0.037 C 
HETATM   34  C1  UNL     1      57.075  17.415 -21.820  1.00  0.00     0.007 C 
ENDBRANCH  32  33
ENDBRANCH  31  32
ENDBRANCH  30  31
ENDBRANCH  29  30
ENDBRANCH  28  29
ENDBRANCH  26  28
ENDBRANCH  23  25
ENDBRANCH  22  23
ENDBRANCH  20  22
ENDBRANCH  19  20
ENDBRANCH  18  19
ENDBRANCH   1  18
BRANCH  17  35
HETATM   35  O10 UNL     1      55.730  20.129 -17.923  1.00  0.00    -0.390 OA
ATOM     36  H10 UNL     1      56.554  19.808 -17.575  1.00  0.00     0.210 HD
ENDBRANCH  17  35
BRANCH  16  37
HETATM   37  O9  UNL     1      56.799  22.522 -15.976  1.00  0.00    -0.391 OA
ATOM     38  H9  UNL     1      56.361  23.041 -16.639  1.00  0.00     0.210 HD
ENDBRANCH  16  37
BRANCH  15  39
HETATM   39  N2  UNL     1      55.262  19.699 -14.252  1.00  0.00    -0.345 N 
HETATM   40  C25 UNL     1      55.537  18.933 -13.092  1.00  0.00     0.288 C 
HETATM   41  O7  UNL     1      56.296  19.415 -12.223  1.00  0.00    -0.264 OA
ATOM     42  H2  UNL     1      54.644  19.322 -14.970  1.00  0.00     0.163 HD
BRANCH  40  43
HETATM   43  C26 UNL     1      54.978  17.612 -12.860  1.00  0.00     0.224 C 
HETATM   44  O8  UNL     1      55.729  16.624 -13.173  1.00  0.00    -0.286 OA
BRANCH  43  45
HETATM   45  C27 UNL     1      53.620  17.399 -12.297  1.00  0.00     0.022 C 
HETATM   46  C28 UNL     1      52.641  18.389 -12.903  1.00  0.00     0.023 C 
HETATM   47  C29 UNL     1      53.583  17.571 -10.805  1.00  0.00     0.023 C 
BRANCH  45  48
HETATM   48  C30 UNL     1      53.166  16.014 -12.715  1.00  0.00     0.012 C 
HETATM   49  C31 UNL     1      51.713  15.757 -12.508  1.00  0.00     0.006 C 
ENDBRANCH  45  48
ENDBRANCH  43  45
ENDBRANCH  40  43
ENDBRANCH  15  39
TORSDOF 18
ENDMDL
MODEL 3
REMARK VINA RESULT: -6.617077036      0.751      1.353
REMARK  18 active torsions:
REMARK  status: ('A' for Active; 'I' for Inactive)
REMARK    1  A    between atoms: C2_2  and  C3_3 
REMARK    2  A    between atoms: C3_3  and  C4_4 
REMARK    3  A    between atoms: C4_4  and  C5_5 
REMARK    4  A    between atoms: C5_5  and  C6_6 
REMARK    5  A    between atoms: C6_6  and  C7_7 
REMARK    6  A    between atoms: C7_7  and  C8_8 
REMARK    7  A    between atoms: C10_10  and  C11_11 
REMARK    8  A    between atoms: C11_11  and  C13_13 
REMARK    9  A    between atoms: C13_13  and  C14_14 
REMARK   10  A    between atoms: C14_14  and  C15_16 
REMARK   11  A    between atoms: C15_16  and  C16_17 
REMARK   12  A    between atoms: C16_17  and  C17_18 
REMARK   13  A    between atoms: C24_32  and  N2_33 
REMARK       I    between atoms: N2_33  and  C25_35 
REMARK   14  A    between atoms: C25_35  and  C26_37 
REMARK   15  A    between atoms: C26_37  and  C27_39 
REMARK   16  A    between atoms: C27_39  and  C30_42 
REMARK   17  A    between atoms: C32_44  and  O9_45 
REMARK   18  A    between atoms: C33_47  and  O10_48 
ROOT
HETATM    1  C17 UNL     1      54.400  21.961 -17.616  1.00  0.00     0.144 C 
HETATM    2  O2  UNL     1      53.364  21.215 -18.236  1.00  0.00    -0.285 OA
HETATM    3  C18 UNL     1      52.263  21.128 -17.430  1.00  0.00     0.363 C 
HETATM    4  O3  UNL     1      51.339  20.253 -17.558  1.00  0.00    -0.238 OA
HETATM    5  N1  UNL     1      52.364  22.154 -16.479  1.00  0.00    -0.307 N 
ATOM      6  H1  UNL     1      51.684  22.368 -15.749  1.00  0.00     0.167 HD
HETATM    7  C19 UNL     1      53.594  22.848 -16.719  1.00  0.00     0.266 C 
HETATM    8  O4  UNL     1      54.152  23.248 -15.558  1.00  0.00    -0.331 OA
HETATM    9  C20 UNL     1      53.910  22.531 -14.432  1.00  0.00     0.296 C 
HETATM   10  O5  UNL     1      53.527  23.479 -13.446  1.00  0.00    -0.329 OA
HETATM   11  C21 UNL     1      54.690  23.884 -12.838  1.00  0.00     0.259 C 
HETATM   12  C22 UNL     1      54.564  23.526 -11.360  1.00  0.00     0.071 C 
HETATM   13  O6  UNL     1      55.758  23.158 -13.366  1.00  0.00    -0.349 OA
HETATM   14  C23 UNL     1      55.140  21.993 -13.756  1.00  0.00     0.205 C 
HETATM   15  C24 UNL     1      55.927  21.007 -14.500  1.00  0.00     0.150 C 
HETATM   16  C32 UNL     1      56.232  21.272 -15.944  1.00  0.00     0.175 C 
HETATM   17  C33 UNL     1      55.220  20.926 -16.930  1.00  0.00     0.188 C 
ENDROOT
BRANCH   1  18
HETATM   18  C16 UNL     1      55.158  22.677 -18.674  1.00  0.00     0.053 C 
BRANCH  18  19
HETATM   19  C15 UNL     1      55.160  24.144 -18.713  1.00  0.00     0.081 C 
BRANCH  19  20
HETATM   20  C14 UNL     1      54.611  24.802 -19.914  1.00  0.00     0.127 C 
HETATM   21  O1  UNL     1      53.406  24.815 -20.091  1.00  0.00    -0.298 OA
BRANCH  20  22
HETATM   22  C13 UNL     1      55.500  25.459 -20.927  1.00  0.00     0.086 C 
BRANCH  22  23
HETATM   23  C11 UNL     1      55.072  25.107 -22.297  1.00  0.00     0.011 C 
HETATM   24  C12 UNL     1      55.422  26.257 -23.273  1.00  0.00     0.014 C 
BRANCH  23  25
HETATM   25  C10 UNL     1      55.435  23.843 -22.864  1.00  0.00    -0.020 C 
HETATM   26  C8  UNL     1      55.005  23.086 -23.812  1.00  0.00    -0.087 C 
HETATM   27  C9  UNL     1      53.847  23.218 -24.718  1.00  0.00     0.043 C 
BRANCH  26  28
HETATM   28  C7  UNL     1      55.784  21.785 -24.025  1.00  0.00     0.033 C 
BRANCH  28  29
HETATM   29  C6  UNL     1      54.987  20.757 -24.754  1.00  0.00     0.004 C 
BRANCH  29  30
HETATM   30  C5  UNL     1      54.972  19.406 -24.127  1.00  0.00     0.001 C 
BRANCH  30  31
HETATM   31  C4  UNL     1      54.688  19.347 -22.674  1.00  0.00     0.004 C 
BRANCH  31  32
HETATM   32  C3  UNL     1      53.249  19.705 -22.397  1.00  0.00     0.026 C 
BRANCH  32  33
HETATM   33  C2  UNL     1      53.235  20.869 -21.468  1.00  0.00    -0.037 C 
HETATM   34  C1  UNL     1      52.333  21.820 -21.569  1.00  0.00     0.007 C 
ENDBRANCH  32  33
ENDBRANCH  31  32
ENDBRANCH  30  31
ENDBRANCH  29  30
ENDBRANCH  28  29
ENDBRANCH  26  28
ENDBRANCH  23  25
ENDBRANCH  22  23
ENDBRANCH  20  22
ENDBRANCH  19  20
ENDBRANCH  18  19
ENDBRANCH   1  18
BRANCH  17  35
HETATM   35  O10 UNL     1      55.736  20.123 -17.989  1.00  0.00    -0.390 OA
ATOM     36  H10 UNL     1      55.004  19.578 -18.252  1.00  0.00     0.210 HD
ENDBRANCH  17  35
BRANCH  16  37
HETATM   37  O9  UNL     1      56.872  22.505 -16.066  1.00  0.00    -0.391 OA
ATOM     38  H9  UNL     1      57.813  22.379 -16.024  1.00  0.00     0.210 HD
ENDBRANCH  16  37
BRANCH  15  39
HETATM   39  N2  UNL     1      55.324  19.708 -14.310  1.00  0.00    -0.345 N 
HETATM   40  C25 UNL     1      55.580  18.956 -13.136  1.00  0.00     0.288 C 
HETATM   41  O7  UNL     1      56.336  19.442 -12.267  1.00  0.00    -0.264 OA
ATOM     42  H2  UNL     1      54.708  19.328 -15.028  1.00  0.00     0.163 HD
BRANCH  40  43
HETATM   43  C26 UNL     1      55.004  17.644 -12.890  1.00  0.00     0.224 C 
HETATM   44  O8  UNL     1      55.741  16.644 -13.197  1.00  0.00    -0.286 OA
BRANCH  43  45
HETATM   45  C27 UNL     1      53.645  17.454 -12.323  1.00  0.00     0.022 C 
HETATM   46  C28 UNL     1      52.688  18.481 -12.900  1.00  0.00     0.023 C 
HETATM   47  C29 UNL     1      53.622  17.596 -10.827  1.00  0.00     0.023 C 
BRANCH  45  48
HETATM   48  C30 UNL     1      53.153  16.090 -12.766  1.00  0.00     0.012 C 
HETATM   49  C31 UNL     1      51.711  15.839 -12.488  1.00  0.00     0.006 C 
ENDBRANCH  45  48
ENDBRANCH  43  45
ENDBRANCH  40  43
ENDBRANCH  15  39
TORSDOF 18
ENDMDL
MODEL 4
REMARK VINA RESULT: -6.519902690      0.830      1.625
REMARK  18 active torsions:
REMARK  status: ('A' for Active; 'I' for Inactive)
REMARK    1  A    between atoms: C2_2  and  C3_3 
REMARK    2  A    between atoms: C3_3  and  C4_4 
REMARK    3  A    between atoms: C4_4  and  C5_5 
REMARK    4  A    between atoms: C5_5  and  C6_6 
REMARK    5  A    between atoms: C6_6  and  C7_7 
REMARK    6  A    between atoms: C7_7  and  C8_8 
REMARK    7  A    between atoms: C10_10  and  C11_11 
REMARK    8  A    between atoms: C11_11  and  C13_13 
REMARK    9  A    between atoms: C13_13  and  C14_14 
REMARK   10  A    between atoms: C14_14  and  C15_16 
REMARK   11  A    between atoms: C15_16  and  C16_17 
REMARK   12  A    between atoms: C16_17  and  C17_18 
REMARK   13  A    between atoms: C24_32  and  N2_33 
REMARK       I    between atoms: N2_33  and  C25_35 
REMARK   14  A    between atoms: C25_35  and  C26_37 
REMARK   15  A    between atoms: C26_37  and  C27_39 
REMARK   16  A    between atoms: C27_39  and  C30_42 
REMARK   17  A    between atoms: C32_44  and  O9_45 
REMARK   18  A    between atoms: C33_47  and  O10_48 
ROOT
HETATM    1  C17 UNL     1      54.322  21.971 -17.527  1.00  0.00     0.144 C 
HETATM    2  O2  UNL     1      53.321  21.209 -18.184  1.00  0.00    -0.285 OA
HETATM    3  C18 UNL     1      52.199  21.094 -17.412  1.00  0.00     0.363 C 
HETATM    4  O3  UNL     1      51.297  20.202 -17.574  1.00  0.00    -0.238 OA
HETATM    5  N1  UNL     1      52.249  22.115 -16.451  1.00  0.00    -0.307 N 
ATOM      6  H1  UNL     1      51.544  22.309 -15.741  1.00  0.00     0.167 HD
HETATM    7  C19 UNL     1      53.472  22.835 -16.649  1.00  0.00     0.266 C 
HETATM    8  O4  UNL     1      53.986  23.237 -15.469  1.00  0.00    -0.331 OA
HETATM    9  C20 UNL     1      53.725  22.506 -14.356  1.00  0.00     0.296 C 
HETATM   10  O5  UNL     1      53.294  23.439 -13.376  1.00  0.00    -0.329 OA
HETATM   11  C21 UNL     1      54.429  23.863 -12.730  1.00  0.00     0.259 C 
HETATM   12  C22 UNL     1      54.266  23.491 -11.259  1.00  0.00     0.071 C 
HETATM   13  O6  UNL     1      55.527  23.163 -13.230  1.00  0.00    -0.349 OA
HETATM   14  C23 UNL     1      54.945  21.989 -13.647  1.00  0.00     0.205 C 
HETATM   15  C24 UNL     1      55.774  21.024 -14.373  1.00  0.00     0.150 C 
HETATM   16  C32 UNL     1      56.117  21.307 -15.806  1.00  0.00     0.175 C 
HETATM   17  C33 UNL     1      55.143  20.948 -16.825  1.00  0.00     0.188 C 
ENDROOT
BRANCH   1  18
HETATM   18  C16 UNL     1      55.097  22.711 -18.557  1.00  0.00     0.053 C 
BRANCH  18  19
HETATM   19  C15 UNL     1      55.182  24.175 -18.503  1.00  0.00     0.081 C 
BRANCH  19  20
HETATM   20  C14 UNL     1      54.631  24.939 -19.638  1.00  0.00     0.127 C 
HETATM   21  O1  UNL     1      53.487  25.354 -19.580  1.00  0.00    -0.298 OA
BRANCH  20  22
HETATM   22  C13 UNL     1      55.445  25.224 -20.864  1.00  0.00     0.086 C 
BRANCH  22  23
HETATM   23  C11 UNL     1      54.860  24.547 -22.042  1.00  0.00     0.011 C 
HETATM   24  C12 UNL     1      55.945  24.342 -23.127  1.00  0.00     0.014 C 
BRANCH  23  25
HETATM   25  C10 UNL     1      54.085  23.354 -21.877  1.00  0.00    -0.020 C 
HETATM   26  C8  UNL     1      52.985  22.881 -22.349  1.00  0.00    -0.087 C 
HETATM   27  C9  UNL     1      51.994  23.458 -23.278  1.00  0.00     0.043 C 
BRANCH  26  28
HETATM   28  C7  UNL     1      52.583  21.497 -21.832  1.00  0.00     0.033 C 
BRANCH  28  29
HETATM   29  C6  UNL     1      53.750  20.581 -21.692  1.00  0.00     0.004 C 
BRANCH  29  30
HETATM   30  C5  UNL     1      53.871  19.543 -22.753  1.00  0.00     0.001 C 
BRANCH  30  31
HETATM   31  C4  UNL     1      55.182  19.435 -23.434  1.00  0.00     0.004 C 
BRANCH  31  32
HETATM   32  C3  UNL     1      55.592  20.764 -24.019  1.00  0.00     0.026 C 
BRANCH  32  33
HETATM   33  C2  UNL     1      54.879  20.936 -25.314  1.00  0.00    -0.037 C 
HETATM   34  C1  UNL     1      54.464  22.116 -25.721  1.00  0.00     0.007 C 
ENDBRANCH  32  33
ENDBRANCH  31  32
ENDBRANCH  30  31
ENDBRANCH  29  30
ENDBRANCH  28  29
ENDBRANCH  26  28
ENDBRANCH  23  25
ENDBRANCH  22  23
ENDBRANCH  20  22
ENDBRANCH  19  20
ENDBRANCH  18  19
ENDBRANCH   1  18
BRANCH  17  35
HETATM   35  O10 UNL     1      55.707  20.164 -17.873  1.00  0.00    -0.390 OA
ATOM     36  H10 UNL     1      56.640  20.331 -17.818  1.00  0.00     0.210 HD
ENDBRANCH  17  35
BRANCH  16  37
HETATM   37  O9  UNL     1      56.735  22.553 -15.900  1.00  0.00    -0.391 OA
ATOM     38  H9  UNL     1      56.840  22.788 -16.814  1.00  0.00     0.210 HD
ENDBRANCH  16  37
BRANCH  15  39
HETATM   39  N2  UNL     1      55.193  19.712 -14.211  1.00  0.00    -0.345 N 
HETATM   40  C25 UNL     1      55.548  18.894 -13.110  1.00  0.00     0.288 C 
HETATM   41  O7  UNL     1      56.374  19.333 -12.280  1.00  0.00    -0.264 OA
ATOM     42  H2  UNL     1      54.520  19.371 -14.897  1.00  0.00     0.163 HD
BRANCH  40  43
HETATM   43  C26 UNL     1      54.998  17.566 -12.895  1.00  0.00     0.224 C 
HETATM   44  O8  UNL     1      55.743  16.588 -13.253  1.00  0.00    -0.286 OA
BRANCH  43  45
HETATM   45  C27 UNL     1      53.657  17.335 -12.301  1.00  0.00     0.022 C 
HETATM   46  C28 UNL     1      52.652  18.313 -12.882  1.00  0.00     0.023 C 
HETATM   47  C29 UNL     1      53.653  17.506 -10.808  1.00  0.00     0.023 C 
BRANCH  45  48
HETATM   48  C30 UNL     1      53.211  15.945 -12.710  1.00  0.00     0.012 C 
HETATM   49  C31 UNL     1      51.770  15.666 -12.457  1.00  0.00     0.006 C 
ENDBRANCH  45  48
ENDBRANCH  43  45
ENDBRANCH  40  43
ENDBRANCH  15  39
TORSDOF 18
ENDMDL
MODEL 5
REMARK VINA RESULT: -6.339075152      2.288      4.717
REMARK  18 active torsions:
REMARK  status: ('A' for Active; 'I' for Inactive)
REMARK    1  A    between atoms: C2_2  and  C3_3 
REMARK    2  A    between atoms: C3_3  and  C4_4 
REMARK    3  A    between atoms: C4_4  and  C5_5 
REMARK    4  A    between atoms: C5_5  and  C6_6 
REMARK    5  A    between atoms: C6_6  and  C7_7 
REMARK    6  A    between atoms: C7_7  and  C8_8 
REMARK    7  A    between atoms: C10_10  and  C11_11 
REMARK    8  A    between atoms: C11_11  and  C13_13 
REMARK    9  A    between atoms: C13_13  and  C14_14 
REMARK   10  A    between atoms: C14_14  and  C15_16 
REMARK   11  A    between atoms: C15_16  and  C16_17 
REMARK   12  A    between atoms: C16_17  and  C17_18 
REMARK   13  A    between atoms: C24_32  and  N2_33 
REMARK       I    between atoms: N2_33  and  C25_35 
REMARK   14  A    between atoms: C25_35  and  C26_37 
REMARK   15  A    between atoms: C26_37  and  C27_39 
REMARK   16  A    between atoms: C27_39  and  C30_42 
REMARK   17  A    between atoms: C32_44  and  O9_45 
REMARK   18  A    between atoms: C33_47  and  O10_48 
ROOT
HETATM    1  C17 UNL     1      54.350  21.940 -17.456  1.00  0.00     0.144 C 
HETATM    2  O2  UNL     1      53.343  21.203 -18.130  1.00  0.00    -0.285 OA
HETATM    3  C18 UNL     1      52.220  21.078 -17.360  1.00  0.00     0.363 C 
HETATM    4  O3  UNL     1      51.311  20.197 -17.543  1.00  0.00    -0.238 OA
HETATM    5  N1  UNL     1      52.280  22.073 -16.374  1.00  0.00    -0.307 N 
ATOM      6  H1  UNL     1      51.577  22.255 -15.657  1.00  0.00     0.167 HD
HETATM    7  C19 UNL     1      53.508  22.788 -16.555  1.00  0.00     0.266 C 
HETATM    8  O4  UNL     1      54.028  23.156 -15.366  1.00  0.00    -0.331 OA
HETATM    9  C20 UNL     1      53.762  22.400 -14.271  1.00  0.00     0.296 C 
HETATM   10  O5  UNL     1      53.340  23.311 -13.267  1.00  0.00    -0.329 OA
HETATM   11  C21 UNL     1      54.479  23.709 -12.612  1.00  0.00     0.259 C 
HETATM   12  C22 UNL     1      54.315  23.301 -11.151  1.00  0.00     0.071 C 
HETATM   13  O6  UNL     1      55.570  23.013 -13.131  1.00  0.00    -0.349 OA
HETATM   14  C23 UNL     1      54.978  21.854 -13.577  1.00  0.00     0.205 C 
HETATM   15  C24 UNL     1      55.798  20.902 -14.329  1.00  0.00     0.150 C 
HETATM   16  C32 UNL     1      56.142  21.218 -15.755  1.00  0.00     0.175 C 
HETATM   17  C33 UNL     1      55.163  20.892 -16.781  1.00  0.00     0.188 C 
ENDROOT
BRANCH   1  18
HETATM   18  C16 UNL     1      55.130  22.699 -18.468  1.00  0.00     0.053 C 
BRANCH  18  19
HETATM   19  C15 UNL     1      54.908  24.139 -18.639  1.00  0.00     0.081 C 
BRANCH  19  20
HETATM   20  C14 UNL     1      54.219  24.589 -19.864  1.00  0.00     0.127 C 
HETATM   21  O1  UNL     1      53.020  24.804 -19.832  1.00  0.00    -0.298 OA
BRANCH  20  22
HETATM   22  C13 UNL     1      54.957  24.791 -21.153  1.00  0.00     0.086 C 
BRANCH  22  23
HETATM   23  C11 UNL     1      55.659  26.093 -21.148  1.00  0.00     0.011 C 
HETATM   24  C12 UNL     1      55.387  26.846 -22.473  1.00  0.00     0.014 C 
BRANCH  23  25
HETATM   25  C10 UNL     1      55.525  26.980 -20.032  1.00  0.00    -0.020 C 
HETATM   26  C8  UNL     1      56.173  27.985 -19.554  1.00  0.00    -0.087 C 
HETATM   27  C9  UNL     1      57.432  28.626 -19.979  1.00  0.00     0.043 C 
BRANCH  26  28
HETATM   28  C7  UNL     1      55.580  28.613 -18.289  1.00  0.00     0.033 C 
BRANCH  28  29
HETATM   29  C6  UNL     1      55.044  27.592 -17.345  1.00  0.00     0.004 C 
BRANCH  29  30
HETATM   30  C5  UNL     1      55.824  27.420 -16.088  1.00  0.00     0.001 C 
BRANCH  30  31
HETATM   31  C4  UNL     1      56.111  26.029 -15.667  1.00  0.00     0.004 C 
BRANCH  31  32
HETATM   32  C3  UNL     1      56.857  26.010 -14.356  1.00  0.00     0.026 C 
BRANCH  32  33
HETATM   33  C2  UNL     1      56.847  27.392 -13.801  1.00  0.00    -0.037 C 
HETATM   34  C1  UNL     1      57.379  27.669 -12.631  1.00  0.00     0.007 C 
ENDBRANCH  32  33
ENDBRANCH  31  32
ENDBRANCH  30  31
ENDBRANCH  29  30
ENDBRANCH  28  29
ENDBRANCH  26  28
ENDBRANCH  23  25
ENDBRANCH  22  23
ENDBRANCH  20  22
ENDBRANCH  19  20
ENDBRANCH  18  19
ENDBRANCH   1  18
BRANCH  17  35
HETATM   35  O10 UNL     1      55.720  20.131 -17.850  1.00  0.00    -0.390 OA
ATOM     36  H10 UNL     1      55.234  19.315 -17.836  1.00  0.00     0.210 HD
ENDBRANCH  17  35
BRANCH  16  37
HETATM   37  O9  UNL     1      56.771  22.461 -15.817  1.00  0.00    -0.391 OA
ATOM     38  H9  UNL     1      57.708  22.348 -15.711  1.00  0.00     0.210 HD
ENDBRANCH  16  37
BRANCH  15  39
HETATM   39  N2  UNL     1      55.206  19.591 -14.199  1.00  0.00    -0.345 N 
HETATM   40  C25 UNL     1      55.474  18.785 -13.064  1.00  0.00     0.288 C 
HETATM   41  O7  UNL     1      56.231  19.234 -12.177  1.00  0.00    -0.264 OA
ATOM     42  H2  UNL     1      54.590  19.241 -14.932  1.00  0.00     0.163 HD
BRANCH  40  43
HETATM   43  C26 UNL     1      54.909  17.459 -12.879  1.00  0.00     0.224 C 
HETATM   44  O8  UNL     1      55.661  16.479 -13.217  1.00  0.00    -0.286 OA
BRANCH  43  45
HETATM   45  C27 UNL     1      53.546  17.231 -12.337  1.00  0.00     0.022 C 
HETATM   46  C28 UNL     1      53.043  15.858 -12.744  1.00  0.00     0.023 C 
HETATM   47  C29 UNL     1      52.555  18.248 -12.830  1.00  0.00     0.023 C 
BRANCH  45  48
HETATM   48  C30 UNL     1      53.651  17.235 -10.824  1.00  0.00     0.012 C 
HETATM   49  C31 UNL     1      53.235  18.515 -10.185  1.00  0.00     0.006 C 
ENDBRANCH  45  48
ENDBRANCH  43  45
ENDBRANCH  40  43
ENDBRANCH  15  39
TORSDOF 18
ENDMDL
