MODEL 1
REMARK VINA RESULT: -5.122653278      0.000      0.000
REMARK  4 active torsions:
REMARK  status: ('A' for Active; 'I' for Inactive)
REMARK    1  A    between atoms: N1_1  and  N2_4 
REMARK    2  A    between atoms: C3_9  and  C4_10 
REMARK    3  A    between atoms: C4_10  and  O1_11 
REMARK    4  A    between atoms: C4_10  and  C5_13 
ROOT
HETATM    1  C4  UNL     1     -25.719  -7.012 -25.730  1.00  0.00     0.243 C 
ENDROOT
BRANCH   1   2
HETATM    2  C3  UNL     1     -25.219  -7.846 -26.845  1.00  0.00     0.129 C 
HETATM    3  N2  UNL     1     -23.962  -7.697 -27.476  1.00  0.00    -0.283 N 
HETATM    4  C1  UNL     1     -23.694  -8.979 -28.086  1.00  0.00     0.169 C 
HETATM    5  C2  UNL     1     -25.092  -9.414 -28.450  1.00  0.00     0.143 C 
HETATM    6  N3  UNL     1     -25.880  -8.826 -27.392  1.00  0.00    -0.374 N 
ATOM      7  H3  UNL     1     -26.812  -9.133 -27.114  1.00  0.00     0.161 HD
BRANCH   3   8
HETATM    8  N1  UNL     1     -23.129  -6.591 -27.528  1.00  0.00    -0.342 N 
ATOM      9  H12 UNL     1     -22.301  -6.430 -28.102  1.00  0.00     0.177 HD
ATOM     10  H11 UNL     1     -23.234  -5.743 -26.971  1.00  0.00     0.177 HD
ENDBRANCH   3   8
ENDBRANCH   1   2
BRANCH   1  11
HETATM   11  O1  UNL     1     -25.020  -5.816 -25.643  1.00  0.00    -0.382 OA
ATOM     12  H1  UNL     1     -25.608  -5.082 -25.511  1.00  0.00     0.211 HD
ENDBRANCH   1  11
BRANCH   1  13
HETATM   13  C5  UNL     1     -25.572  -7.698 -24.423  1.00  0.00     0.130 A 
HETATM   14  N4  UNL     1     -24.764  -8.740 -24.210  1.00  0.00    -0.293 N 
HETATM   15  N5  UNL     1     -24.681  -9.308 -23.006  1.00  0.00    -0.251 N 
ATOM     16  H4  UNL     1     -24.203  -9.106 -24.979  1.00  0.00     0.187 HD
HETATM   17  C6  UNL     1     -25.413  -8.851 -21.955  1.00  0.00     0.341 A 
ATOM     18  H5  UNL     1     -24.056 -10.102 -22.871  1.00  0.00     0.191 HD
HETATM   19  O2  UNL     1     -25.310  -9.413 -20.824  1.00  0.00    -0.245 OA
HETATM   20  N6  UNL     1     -26.230  -7.811 -22.133  1.00  0.00    -0.273 N 
HETATM   21  C7  UNL     1     -26.307  -7.247 -23.339  1.00  0.00     0.276 A 
ATOM     22  H6  UNL     1     -26.787  -7.451 -21.357  1.00  0.00     0.173 HD
HETATM   23  O3  UNL     1     -27.090  -6.254 -23.502  1.00  0.00    -0.266 OA
ENDBRANCH   1  13
TORSDOF 4
ENDMDL
MODEL 2
REMARK VINA RESULT: -4.896971750      2.959      4.450
REMARK  4 active torsions:
REMARK  status: ('A' for Active; 'I' for Inactive)
REMARK    1  A    between atoms: N1_1  and  N2_4 
REMARK    2  A    between atoms: C3_9  and  C4_10 
REMARK    3  A    between atoms: C4_10  and  O1_11 
REMARK    4  A    between atoms: C4_10  and  C5_13 
ROOT
HETATM    1  C4  UNL     1     -25.327  -8.566 -22.058  1.00  0.00     0.243 C 
ENDROOT
BRANCH   1   2
HETATM    2  C3  UNL     1     -26.224  -7.706 -22.864  1.00  0.00     0.129 C 
HETATM    3  N2  UNL     1     -26.113  -7.491 -24.257  1.00  0.00    -0.283 N 
HETATM    4  C1  UNL     1     -27.428  -7.061 -24.675  1.00  0.00     0.169 C 
HETATM    5  C2  UNL     1     -27.878  -6.303 -23.450  1.00  0.00     0.143 C 
HETATM    6  N3  UNL     1     -27.231  -7.033 -22.385  1.00  0.00    -0.374 N 
ATOM      7  H3  UNL     1     -27.519  -7.022 -21.407  1.00  0.00     0.161 HD
BRANCH   3   8
HETATM    8  N1  UNL     1     -25.015  -7.643 -25.086  1.00  0.00    -0.342 N 
ATOM      9  H12 UNL     1     -24.348  -8.412 -25.144  1.00  0.00     0.177 HD
ATOM     10  H11 UNL     1     -24.705  -6.972 -25.789  1.00  0.00     0.177 HD
ENDBRANCH   3   8
ENDBRANCH   1   2
BRANCH   1  11
HETATM   11  O1  UNL     1     -24.017  -8.489 -22.510  1.00  0.00    -0.382 OA
ATOM     12  H1  UNL     1     -23.862  -9.097 -23.223  1.00  0.00     0.211 HD
ENDBRANCH   1  11
BRANCH   1  13
HETATM   13  C5  UNL     1     -25.728  -9.993 -22.128  1.00  0.00     0.130 A 
HETATM   14  N4  UNL     1     -26.326 -10.553 -23.183  1.00  0.00    -0.293 N 
HETATM   15  N5  UNL     1     -26.658 -11.845 -23.175  1.00  0.00    -0.251 N 
ATOM     16  H4  UNL     1     -26.530  -9.986 -24.005  1.00  0.00     0.187 HD
HETATM   17  C6  UNL     1     -26.403 -12.636 -22.099  1.00  0.00     0.341 A 
ATOM     18  H5  UNL     1     -27.113 -12.248 -23.994  1.00  0.00     0.191 HD
HETATM   19  O2  UNL     1     -26.731 -13.860 -22.125  1.00  0.00    -0.245 OA
HETATM   20  N6  UNL     1     -25.807 -12.108 -21.028  1.00  0.00    -0.273 N 
HETATM   21  C7  UNL     1     -25.477 -10.816 -21.043  1.00  0.00     0.276 A 
ATOM     22  H6  UNL     1     -25.606 -12.685 -20.211  1.00  0.00     0.173 HD
HETATM   23  O3  UNL     1     -24.908 -10.318 -20.017  1.00  0.00    -0.266 OA
ENDBRANCH   1  13
TORSDOF 4
ENDMDL
MODEL 3
REMARK VINA RESULT: -4.804761087      4.292      5.396
REMARK  4 active torsions:
REMARK  status: ('A' for Active; 'I' for Inactive)
REMARK    1  A    between atoms: N1_1  and  N2_4 
REMARK    2  A    between atoms: C3_9  and  C4_10 
REMARK    3  A    between atoms: C4_10  and  O1_11 
REMARK    4  A    between atoms: C4_10  and  C5_13 
ROOT
HETATM    1  C4  UNL     1     -24.122  -5.088 -28.725  1.00  0.00     0.243 C 
ENDROOT
BRANCH   1   2
HETATM    2  C3  UNL     1     -24.224  -6.492 -28.269  1.00  0.00     0.129 C 
HETATM    3  N2  UNL     1     -23.482  -7.576 -28.792  1.00  0.00    -0.283 N 
HETATM    4  C1  UNL     1     -23.501  -8.579 -27.751  1.00  0.00     0.169 C 
HETATM    5  C2  UNL     1     -24.861  -8.332 -27.147  1.00  0.00     0.143 C 
HETATM    6  N3  UNL     1     -25.020  -6.907 -27.325  1.00  0.00    -0.374 N 
ATOM      7  H3  UNL     1     -25.658  -6.316 -26.792  1.00  0.00     0.161 HD
BRANCH   3   8
HETATM    8  N1  UNL     1     -22.856  -7.703 -30.020  1.00  0.00    -0.342 N 
ATOM      9  H12 UNL     1     -23.070  -8.329 -30.796  1.00  0.00     0.177 HD
ATOM     10  H11 UNL     1     -22.052  -7.159 -30.335  1.00  0.00     0.177 HD
ENDBRANCH   3   8
ENDBRANCH   1   2
BRANCH   1  11
HETATM   11  O1  UNL     1     -23.318  -4.982 -29.852  1.00  0.00    -0.382 OA
ATOM     12  H1  UNL     1     -22.902  -4.129 -29.900  1.00  0.00     0.211 HD
ENDBRANCH   1  11
BRANCH   1  13
HETATM   13  C5  UNL     1     -23.526  -4.215 -27.684  1.00  0.00     0.130 A 
HETATM   14  N4  UNL     1     -22.759  -4.657 -26.684  1.00  0.00    -0.293 N 
HETATM   15  N5  UNL     1     -22.256  -3.813 -25.782  1.00  0.00    -0.251 N 
ATOM     16  H4  UNL     1     -22.555  -5.653 -26.609  1.00  0.00     0.187 HD
HETATM   17  C6  UNL     1     -22.504  -2.477 -25.844  1.00  0.00     0.341 A 
ATOM     18  H5  UNL     1     -21.673  -4.177 -25.028  1.00  0.00     0.191 HD
HETATM   19  O2  UNL     1     -22.010  -1.703 -24.971  1.00  0.00    -0.245 OA
HETATM   20  N6  UNL     1     -23.267  -2.002 -26.831  1.00  0.00    -0.273 N 
HETATM   21  C7  UNL     1     -23.766  -2.851 -27.730  1.00  0.00     0.276 A 
ATOM     22  H6  UNL     1     -23.465  -1.003 -26.897  1.00  0.00     0.173 HD
HETATM   23  O3  UNL     1     -24.494  -2.391 -28.670  1.00  0.00    -0.266 OA
ENDBRANCH   1  13
TORSDOF 4
ENDMDL
MODEL 4
REMARK VINA RESULT: -4.778984170      4.908      6.588
REMARK  4 active torsions:
REMARK  status: ('A' for Active; 'I' for Inactive)
REMARK    1  A    between atoms: N1_1  and  N2_4 
REMARK    2  A    between atoms: C3_9  and  C4_10 
REMARK    3  A    between atoms: C4_10  and  O1_11 
REMARK    4  A    between atoms: C4_10  and  C5_13 
ROOT
HETATM    1  C4  UNL     1     -23.438  -3.715 -27.013  1.00  0.00     0.243 C 
ENDROOT
BRANCH   1   2
HETATM    2  C3  UNL     1     -24.817  -4.253 -26.982  1.00  0.00     0.129 C 
HETATM    3  N2  UNL     1     -25.173  -5.562 -26.581  1.00  0.00    -0.283 N 
HETATM    4  C1  UNL     1     -26.567  -5.472 -26.208  1.00  0.00     0.169 C 
HETATM    5  C2  UNL     1     -27.049  -4.420 -27.175  1.00  0.00     0.143 C 
HETATM    6  N3  UNL     1     -25.881  -3.585 -27.326  1.00  0.00    -0.374 N 
ATOM      7  H3  UNL     1     -25.888  -2.618 -27.651  1.00  0.00     0.161 HD
BRANCH   3   8
HETATM    8  N1  UNL     1     -24.399  -6.710 -26.536  1.00  0.00    -0.342 N 
ATOM      9  H12 UNL     1     -23.582  -6.918 -25.962  1.00  0.00     0.177 HD
ATOM     10  H11 UNL     1     -24.548  -7.547 -27.098  1.00  0.00     0.177 HD
ENDBRANCH   3   8
ENDBRANCH   1   2
BRANCH   1  11
HETATM   11  O1  UNL     1     -22.531  -4.622 -26.484  1.00  0.00    -0.382 OA
ATOM     12  H1  UNL     1     -21.746  -4.674 -27.015  1.00  0.00     0.211 HD
ENDBRANCH   1  11
BRANCH   1  13
HETATM   13  C5  UNL     1     -23.319  -2.467 -26.220  1.00  0.00     0.130 A 
HETATM   14  N4  UNL     1     -23.110  -2.434 -24.901  1.00  0.00    -0.293 N 
HETATM   15  N5  UNL     1     -23.012  -1.273 -24.252  1.00  0.00    -0.251 N 
ATOM     16  H4  UNL     1     -23.024  -3.309 -24.384  1.00  0.00     0.187 HD
HETATM   17  C6  UNL     1     -23.122  -0.085 -24.904  1.00  0.00     0.341 A 
ATOM     18  H5  UNL     1     -22.853  -1.277 -23.245  1.00  0.00     0.191 HD
HETATM   19  O2  UNL     1     -23.024   1.000 -24.257  1.00  0.00    -0.245 OA
HETATM   20  N6  UNL     1     -23.330  -0.081 -26.222  1.00  0.00    -0.273 N 
HETATM   21  C7  UNL     1     -23.426  -1.246 -26.865  1.00  0.00     0.276 A 
ATOM     22  H6  UNL     1     -23.414   0.799 -26.730  1.00  0.00     0.173 HD
HETATM   23  O3  UNL     1     -23.626  -1.236 -28.124  1.00  0.00    -0.266 OA
ENDBRANCH   1  13
TORSDOF 4
ENDMDL
MODEL 5
REMARK VINA RESULT: -4.733173171      5.049      6.396
REMARK  4 active torsions:
REMARK  status: ('A' for Active; 'I' for Inactive)
REMARK    1  A    between atoms: N1_1  and  N2_4 
REMARK    2  A    between atoms: C3_9  and  C4_10 
REMARK    3  A    between atoms: C4_10  and  O1_11 
REMARK    4  A    between atoms: C4_10  and  C5_13 
ROOT
HETATM    1  C4  UNL     1     -23.175  -3.935 -26.615  1.00  0.00     0.243 C 
ENDROOT
BRANCH   1   2
HETATM    2  C3  UNL     1     -23.921  -3.836 -27.890  1.00  0.00     0.129 C 
HETATM    3  N2  UNL     1     -24.268  -4.928 -28.719  1.00  0.00    -0.283 N 
HETATM    4  C1  UNL     1     -25.384  -4.459 -29.508  1.00  0.00     0.169 C 
HETATM    5  C2  UNL     1     -25.029  -3.001 -29.657  1.00  0.00     0.143 C 
HETATM    6  N3  UNL     1     -24.350  -2.723 -28.413  1.00  0.00    -0.374 N 
ATOM      7  H3  UNL     1     -24.225  -1.796 -28.006  1.00  0.00     0.161 HD
BRANCH   3   8
HETATM    8  N1  UNL     1     -23.700  -6.189 -28.797  1.00  0.00    -0.342 N 
ATOM      9  H12 UNL     1     -22.910  -6.510 -29.357  1.00  0.00     0.177 HD
ATOM     10  H11 UNL     1     -24.009  -7.012 -28.280  1.00  0.00     0.177 HD
ENDBRANCH   3   8
ENDBRANCH   1   2
BRANCH   1  11
HETATM   11  O1  UNL     1     -23.783  -4.828 -25.744  1.00  0.00    -0.382 OA
ATOM     12  H1  UNL     1     -23.955  -4.424 -24.901  1.00  0.00     0.211 HD
ENDBRANCH   1  11
BRANCH   1  13
HETATM   13  C5  UNL     1     -23.105  -2.626 -25.919  1.00  0.00     0.130 A 
HETATM   14  N4  UNL     1     -21.978  -1.936 -25.731  1.00  0.00    -0.293 N 
HETATM   15  N5  UNL     1     -21.991  -0.763 -25.095  1.00  0.00    -0.251 N 
ATOM     16  H4  UNL     1     -21.095  -2.310 -26.080  1.00  0.00     0.187 HD
HETATM   17  C6  UNL     1     -23.145  -0.230 -24.615  1.00  0.00     0.341 A 
ATOM     18  H5  UNL     1     -21.115  -0.257 -24.966  1.00  0.00     0.191 HD
HETATM   19  O2  UNL     1     -23.122   0.886 -24.015  1.00  0.00    -0.245 OA
HETATM   20  N6  UNL     1     -24.290  -0.894 -24.785  1.00  0.00    -0.273 N 
HETATM   21  C7  UNL     1     -24.271  -2.065 -25.422  1.00  0.00     0.276 A 
ATOM     22  H6  UNL     1     -25.168  -0.511 -24.433  1.00  0.00     0.173 HD
HETATM   23  O3  UNL     1     -25.368  -2.695 -25.582  1.00  0.00    -0.266 OA
ENDBRANCH   1  13
TORSDOF 4
ENDMDL
