MODEL 1
REMARK VINA RESULT: -5.419162519      0.000      0.000
REMARK  3 active torsions:
REMARK  status: ('A' for Active; 'I' for Inactive)
REMARK    1  A    between atoms: C3_5  and  C4_6 
REMARK    2  A    between atoms: N3_7  and  N4_9 
REMARK    3  A    between atoms: C7_18  and  N8_19 
ROOT
HETATM    1  N1  UNL     1     -24.995  -0.209 -30.069  1.00  0.00    -0.171 NA
HETATM    2  C1  UNL     1     -24.743  -0.442 -28.966  1.00  0.00     0.203 C 
HETATM    3  N2  UNL     1     -24.425  -0.745 -27.637  1.00  0.00    -0.091 N 
HETATM    4  C2  UNL     1     -23.594  -1.785 -27.340  1.00  0.00     0.145 A 
HETATM    5  C3  UNL     1     -23.248  -2.127 -26.064  1.00  0.00     0.067 A 
HETATM    6  C6  UNL     1     -23.814  -1.323 -25.065  1.00  0.00     0.272 A 
HETATM    7  O1  UNL     1     -23.551  -1.564 -23.867  1.00  0.00    -0.267 OA
HETATM    8  N7  UNL     1     -24.625  -0.310 -25.402  1.00  0.00    -0.154 N 
ATOM      9  H7  UNL     1     -25.020   0.255 -24.651  1.00  0.00     0.187 HD
HETATM   10  C7  UNL     1     -24.951   0.009 -26.663  1.00  0.00     0.694 A 
ENDROOT
BRANCH  10  11
HETATM   11  N8  UNL     1     -25.742   1.000 -26.910  1.00  0.00    -0.233 N 
ATOM     12  H82 UNL     1     -25.375   1.946 -27.017  1.00  0.00     0.174 HD
ATOM     13  H81 UNL     1     -26.751   0.881 -27.005  1.00  0.00     0.174 HD
ENDBRANCH  10  11
BRANCH   5  14
HETATM   14  C4  UNL     1     -22.386  -3.198 -25.646  1.00  0.00     0.125 C 
HETATM   15  N3  UNL     1     -22.241  -4.344 -26.141  1.00  0.00    -0.309 N 
ATOM     16  H3  UNL     1     -21.562  -4.937 -25.664  1.00  0.00     0.186 HD
BRANCH  15  17
HETATM   17  N4  UNL     1     -22.847  -4.912 -27.211  1.00  0.00    -0.276 N 
HETATM   18  C5  UNL     1     -24.003  -5.492 -27.161  1.00  0.00     0.215 C 
HETATM   19  N5  UNL     1     -24.698  -5.554 -25.926  1.00  0.00    -0.065 NA
HETATM   20  N6  UNL     1     -24.594  -6.072 -28.315  1.00  0.00    -0.065 NA
ATOM     21  H4  UNL     1     -22.364  -4.880 -28.110  1.00  0.00     0.189 HD
ENDBRANCH  15  17
ENDBRANCH   5  14
TORSDOF 3
ENDMDL
MODEL 2
REMARK VINA RESULT: -5.355763285      3.942      6.217
REMARK  3 active torsions:
REMARK  status: ('A' for Active; 'I' for Inactive)
REMARK    1  A    between atoms: C3_5  and  C4_6 
REMARK    2  A    between atoms: N3_7  and  N4_9 
REMARK    3  A    between atoms: C7_18  and  N8_19 
ROOT
HETATM    1  N1  UNL     1     -25.623  -3.270 -26.206  1.00  0.00    -0.171 NA
HETATM    2  C1  UNL     1     -25.217  -4.311 -26.502  1.00  0.00     0.203 C 
HETATM    3  N2  UNL     1     -24.740  -5.581 -26.842  1.00  0.00    -0.091 N 
HETATM    4  C2  UNL     1     -25.212  -6.694 -26.211  1.00  0.00     0.145 A 
HETATM    5  C3  UNL     1     -24.784  -7.958 -26.499  1.00  0.00     0.067 A 
HETATM    6  C6  UNL     1     -23.811  -8.036 -27.506  1.00  0.00     0.272 A 
HETATM    7  O1  UNL     1     -23.362  -9.154 -27.836  1.00  0.00    -0.267 OA
HETATM    8  N7  UNL     1     -23.376  -6.915 -28.101  1.00  0.00    -0.154 N 
ATOM      9  H7  UNL     1     -22.668  -7.007 -28.829  1.00  0.00     0.187 HD
HETATM   10  C7  UNL     1     -23.810  -5.683 -27.802  1.00  0.00     0.694 A 
ENDROOT
BRANCH  10  11
HETATM   11  N8  UNL     1     -23.342  -4.649 -28.419  1.00  0.00    -0.233 N 
ATOM     12  H82 UNL     1     -23.941  -4.087 -29.024  1.00  0.00     0.174 HD
ATOM     13  H81 UNL     1     -22.368  -4.358 -28.331  1.00  0.00     0.174 HD
ENDBRANCH  10  11
BRANCH   5  14
HETATM   14  C4  UNL     1     -25.214  -9.190 -25.896  1.00  0.00     0.125 C 
HETATM   15  N3  UNL     1     -25.226  -9.522 -24.684  1.00  0.00    -0.309 N 
ATOM     16  H3  UNL     1     -25.580 -10.460 -24.497  1.00  0.00     0.186 HD
BRANCH  15  17
HETATM   17  N4  UNL     1     -24.841  -8.825 -23.588  1.00  0.00    -0.276 N 
HETATM   18  C5  UNL     1     -25.550  -8.730 -22.509  1.00  0.00     0.215 C 
HETATM   19  N5  UNL     1     -26.808  -9.382 -22.442  1.00  0.00    -0.065 NA
HETATM   20  N6  UNL     1     -25.098  -7.985 -21.387  1.00  0.00    -0.065 NA
ATOM     21  H4  UNL     1     -23.940  -8.347 -23.614  1.00  0.00     0.189 HD
ENDBRANCH  15  17
ENDBRANCH   5  14
TORSDOF 3
ENDMDL
MODEL 3
REMARK VINA RESULT: -5.340488981      7.613      8.582
REMARK  3 active torsions:
REMARK  status: ('A' for Active; 'I' for Inactive)
REMARK    1  A    between atoms: C3_5  and  C4_6 
REMARK    2  A    between atoms: N3_7  and  N4_9 
REMARK    3  A    between atoms: C7_18  and  N8_19 
ROOT
HETATM    1  N1  UNL     1     -29.490  -5.261 -19.815  1.00  0.00    -0.171 NA
HETATM    2  C1  UNL     1     -29.092  -5.852 -20.724  1.00  0.00     0.203 C 
HETATM    3  N2  UNL     1     -28.585  -6.565 -21.816  1.00  0.00    -0.091 N 
HETATM    4  C2  UNL     1     -27.257  -6.864 -21.897  1.00  0.00     0.145 A 
HETATM    5  C3  UNL     1     -26.705  -7.556 -22.937  1.00  0.00     0.067 A 
HETATM    6  C6  UNL     1     -27.613  -7.945 -23.932  1.00  0.00     0.272 A 
HETATM    7  O1  UNL     1     -27.195  -8.584 -24.922  1.00  0.00    -0.267 OA
HETATM    8  N7  UNL     1     -28.911  -7.631 -23.811  1.00  0.00    -0.154 N 
ATOM      9  H7  UNL     1     -29.544  -7.930 -24.553  1.00  0.00     0.187 HD
HETATM   10  C7  UNL     1     -29.431  -6.950 -22.781  1.00  0.00     0.694 A 
ENDROOT
BRANCH  10  11
HETATM   11  N8  UNL     1     -30.695  -6.683 -22.736  1.00  0.00    -0.233 N 
ATOM     12  H82 UNL     1     -31.096  -6.190 -21.938  1.00  0.00     0.174 HD
ATOM     13  H81 UNL     1     -31.334  -6.952 -23.484  1.00  0.00     0.174 HD
ENDBRANCH  10  11
BRANCH   5  14
HETATM   14  C4  UNL     1     -25.326  -7.920 -23.117  1.00  0.00     0.125 C 
HETATM   15  N3  UNL     1     -24.790  -9.055 -23.075  1.00  0.00    -0.309 N 
ATOM     16  H3  UNL     1     -23.782  -9.063 -23.235  1.00  0.00     0.186 HD
BRANCH  15  17
HETATM   17  N4  UNL     1     -25.344 -10.271 -22.850  1.00  0.00    -0.276 N 
HETATM   18  C5  UNL     1     -25.495 -10.788 -21.673  1.00  0.00     0.215 C 
HETATM   19  N5  UNL     1     -25.063 -10.063 -20.533  1.00  0.00    -0.065 NA
HETATM   20  N6  UNL     1     -26.084 -12.068 -21.494  1.00  0.00    -0.065 NA
ATOM     21  H4  UNL     1     -25.662 -10.811 -23.656  1.00  0.00     0.189 HD
ENDBRANCH  15  17
ENDBRANCH   5  14
TORSDOF 3
ENDMDL
MODEL 4
REMARK VINA RESULT: -5.321500825      1.953      2.976
REMARK  3 active torsions:
REMARK  status: ('A' for Active; 'I' for Inactive)
REMARK    1  A    between atoms: C3_5  and  C4_6 
REMARK    2  A    between atoms: N3_7  and  N4_9 
REMARK    3  A    between atoms: C7_18  and  N8_19 
ROOT
HETATM    1  N1  UNL     1     -22.840   0.968 -24.214  1.00  0.00    -0.171 NA
HETATM    2  C1  UNL     1     -23.255   0.168 -24.937  1.00  0.00     0.203 C 
HETATM    3  N2  UNL     1     -23.737  -0.817 -25.806  1.00  0.00    -0.091 N 
HETATM    4  C2  UNL     1     -23.110  -2.024 -25.908  1.00  0.00     0.145 A 
HETATM    5  C3  UNL     1     -23.533  -3.022 -26.738  1.00  0.00     0.067 A 
HETATM    6  C6  UNL     1     -24.677  -2.717 -27.490  1.00  0.00     0.272 A 
HETATM    7  O1  UNL     1     -25.136  -3.573 -28.277  1.00  0.00    -0.267 OA
HETATM    8  N7  UNL     1     -25.262  -1.518 -27.358  1.00  0.00    -0.154 N 
ATOM      9  H7  UNL     1     -26.092  -1.328 -27.920  1.00  0.00     0.187 HD
HETATM   10  C7  UNL     1     -24.829  -0.552 -26.536  1.00  0.00     0.694 A 
ENDROOT
BRANCH  10  11
HETATM   11  N8  UNL     1     -25.447   0.581 -26.464  1.00  0.00    -0.233 N 
ATOM     12  H82 UNL     1     -26.317   0.668 -25.938  1.00  0.00     0.174 HD
ATOM     13  H81 UNL     1     -25.097   1.422 -26.924  1.00  0.00     0.174 HD
ENDBRANCH  10  11
BRANCH   5  14
HETATM   14  C4  UNL     1     -22.947  -4.321 -26.919  1.00  0.00     0.125 C 
HETATM   15  N3  UNL     1     -23.434  -5.455 -26.683  1.00  0.00    -0.309 N 
ATOM     16  H3  UNL     1     -22.820  -6.242 -26.894  1.00  0.00     0.186 HD
BRANCH  15  17
HETATM   17  N4  UNL     1     -24.651  -5.794 -26.190  1.00  0.00    -0.276 N 
HETATM   18  C5  UNL     1     -25.175  -6.971 -26.310  1.00  0.00     0.215 C 
HETATM   19  N5  UNL     1     -24.457  -7.987 -26.993  1.00  0.00    -0.065 NA
HETATM   20  N6  UNL     1     -26.455  -7.272 -25.774  1.00  0.00    -0.065 NA
ATOM     21  H4  UNL     1     -25.185  -5.078 -25.696  1.00  0.00     0.189 HD
ENDBRANCH  15  17
ENDBRANCH   5  14
TORSDOF 3
ENDMDL
MODEL 5
REMARK VINA RESULT: -5.257267941      1.447      4.898
REMARK  3 active torsions:
REMARK  status: ('A' for Active; 'I' for Inactive)
REMARK    1  A    between atoms: C3_5  and  C4_6 
REMARK    2  A    between atoms: N3_7  and  N4_9 
REMARK    3  A    between atoms: C7_18  and  N8_19 
ROOT
HETATM    1  N1  UNL     1     -26.186  -5.917 -28.609  1.00  0.00    -0.171 NA
HETATM    2  C1  UNL     1     -25.419  -5.273 -28.032  1.00  0.00     0.203 C 
HETATM    3  N2  UNL     1     -24.508  -4.472 -27.335  1.00  0.00    -0.091 N 
HETATM    4  C2  UNL     1     -24.836  -3.200 -26.970  1.00  0.00     0.145 A 
HETATM    5  C3  UNL     1     -23.989  -2.373 -26.289  1.00  0.00     0.067 A 
HETATM    6  C6  UNL     1     -22.739  -2.931 -25.986  1.00  0.00     0.272 A 
HETATM    7  O1  UNL     1     -21.900  -2.245 -25.364  1.00  0.00    -0.267 OA
HETATM    8  N7  UNL     1     -22.459  -4.186 -26.363  1.00  0.00    -0.154 N 
ATOM      9  H7  UNL     1     -21.540  -4.562 -26.127  1.00  0.00     0.187 HD
HETATM   10  C7  UNL     1     -23.306  -4.981 -27.032  1.00  0.00     0.694 A 
ENDROOT
BRANCH  10  11
HETATM   11  N8  UNL     1     -22.963  -6.183 -27.363  1.00  0.00    -0.233 N 
ATOM     12  H82 UNL     1     -23.125  -6.965 -26.728  1.00  0.00     0.174 HD
ATOM     13  H81 UNL     1     -22.523  -6.395 -28.257  1.00  0.00     0.174 HD
ENDBRANCH  10  11
BRANCH   5  14
HETATM   14  C4  UNL     1     -24.235  -1.023 -25.860  1.00  0.00     0.125 C 
HETATM   15  N3  UNL     1     -23.930   0.059 -26.421  1.00  0.00    -0.309 N 
ATOM     16  H3  UNL     1     -24.214   0.900 -25.918  1.00  0.00     0.186 HD
BRANCH  15  17
HETATM   17  N4  UNL     1     -23.282   0.280 -27.590  1.00  0.00    -0.276 N 
HETATM   18  C5  UNL     1     -23.877   0.384 -28.735  1.00  0.00     0.215 C 
HETATM   19  N5  UNL     1     -25.289   0.263 -28.801  1.00  0.00    -0.065 NA
HETATM   20  N6  UNL     1     -23.148   0.617 -29.932  1.00  0.00    -0.065 NA
ATOM     21  H4  UNL     1     -22.266   0.370 -27.567  1.00  0.00     0.189 HD
ENDBRANCH  15  17
ENDBRANCH   5  14
TORSDOF 3
ENDMDL
