MODEL 1
REMARK VINA RESULT: -4.952354274      0.000      0.000
REMARK  3 active torsions:
REMARK  status: ('A' for Active; 'I' for Inactive)
REMARK    1  A    between atoms: N1_1  and  C1_5 
REMARK    2  A    between atoms: C1_5  and  O1_6 
REMARK    3  A    between atoms: O1_6  and  C2_7 
ROOT
HETATM    1  C2  UNL     1     -23.449  -2.157 -26.968  1.00  0.00     0.145 C 
HETATM    2  C3  UNL     1     -23.822  -1.027 -27.652  1.00  0.00     0.117 C 
HETATM    3  C4  UNL     1     -23.960   0.279 -27.235  1.00  0.00     0.252 C 
HETATM    4  O2  UNL     1     -24.606   0.999 -28.037  1.00  0.00    -0.268 OA
HETATM    5  N2  UNL     1     -23.483   0.806 -26.103  1.00  0.00    -0.275 N 
ATOM      6  H2  UNL     1     -23.476   1.825 -26.061  1.00  0.00     0.173 HD
HETATM    7  C5  UNL     1     -23.006   0.174 -25.003  1.00  0.00     0.330 C 
HETATM    8  O3  UNL     1     -22.767   0.946 -24.057  1.00  0.00    -0.246 OA
HETATM    9  N3  UNL     1     -22.767  -1.157 -24.820  1.00  0.00    -0.273 N 
ATOM     10  H3  UNL     1     -22.510  -1.433 -23.872  1.00  0.00     0.173 HD
HETATM   11  C6  UNL     1     -22.824  -2.160 -25.724  1.00  0.00     0.283 C 
HETATM   12  O4  UNL     1     -22.231  -3.214 -25.377  1.00  0.00    -0.265 OA
ENDROOT
BRANCH   1  13
HETATM   13  O1  UNL     1     -23.680  -3.387 -27.486  1.00  0.00    -0.304 OA
BRANCH  13  14
HETATM   14  C1  UNL     1     -24.582  -4.349 -27.091  1.00  0.00     0.276 C 
HETATM   15  C7  UNL     1     -25.933  -3.822 -26.594  1.00  0.00     0.302 C 
HETATM   16  N4  UNL     1     -26.532  -4.946 -27.324  1.00  0.00    -0.066 N 
HETATM   17  C8  UNL     1     -25.443  -4.794 -28.281  1.00  0.00     0.302 C 
ATOM     18  H42 UNL     1     -26.719  -5.839 -26.867  1.00  0.00     0.277 HD
ATOM     19  H41 UNL     1     -27.508  -4.929 -27.621  1.00  0.00     0.277 HD
BRANCH  14  20
HETATM   20  N1  UNL     1     -24.118  -5.506 -26.411  1.00  0.00    -0.043 N 
ATOM     21  H13 UNL     1     -24.914  -6.116 -26.224  1.00  0.00     0.278 HD
ATOM     22  H12 UNL     1     -23.579  -6.074 -27.065  1.00  0.00     0.278 HD
ATOM     23  H11 UNL     1     -23.580  -5.401 -25.551  1.00  0.00     0.278 HD
ENDBRANCH  14  20
ENDBRANCH  13  14
ENDBRANCH   1  13
TORSDOF 3
ENDMDL
MODEL 2
REMARK VINA RESULT: -4.786772965      1.502      1.575
REMARK  3 active torsions:
REMARK  status: ('A' for Active; 'I' for Inactive)
REMARK    1  A    between atoms: N1_1  and  C1_5 
REMARK    2  A    between atoms: C1_5  and  O1_6 
REMARK    3  A    between atoms: O1_6  and  C2_7 
ROOT
HETATM    1  C2  UNL     1     -24.160  -2.711 -26.201  1.00  0.00     0.145 C 
HETATM    2  C3  UNL     1     -25.057  -1.809 -26.716  1.00  0.00     0.117 C 
HETATM    3  C4  UNL     1     -25.253  -0.473 -26.446  1.00  0.00     0.252 C 
HETATM    4  O2  UNL     1     -26.348  -0.027 -26.870  1.00  0.00    -0.268 OA
HETATM    5  N2  UNL     1     -24.408   0.339 -25.801  1.00  0.00    -0.275 N 
ATOM      6  H2  UNL     1     -24.604   1.336 -25.889  1.00  0.00     0.173 HD
HETATM    7  C5  UNL     1     -23.328   0.021 -25.048  1.00  0.00     0.330 C 
HETATM    8  O3  UNL     1     -22.830   1.000 -24.465  1.00  0.00    -0.246 OA
HETATM    9  N3  UNL     1     -22.746  -1.200 -24.862  1.00  0.00    -0.273 N 
ATOM     10  H3  UNL     1     -22.003  -1.232 -24.163  1.00  0.00     0.173 HD
HETATM   11  C6  UNL     1     -23.020  -2.370 -25.478  1.00  0.00     0.283 C 
HETATM   12  O4  UNL     1     -22.120  -3.243 -25.371  1.00  0.00    -0.265 OA
ENDROOT
BRANCH   1  13
HETATM   13  O1  UNL     1     -24.341  -4.043 -26.374  1.00  0.00    -0.304 OA
BRANCH  13  14
HETATM   14  C1  UNL     1     -23.847  -4.874 -27.356  1.00  0.00     0.276 C 
HETATM   15  C7  UNL     1     -24.852  -5.874 -27.939  1.00  0.00     0.302 C 
HETATM   16  N4  UNL     1     -24.243  -5.579 -29.242  1.00  0.00    -0.066 N 
HETATM   17  C8  UNL     1     -24.022  -4.230 -28.737  1.00  0.00     0.302 C 
ATOM     18  H42 UNL     1     -23.477  -6.143 -29.611  1.00  0.00     0.277 HD
ATOM     19  H41 UNL     1     -24.745  -5.746 -30.114  1.00  0.00     0.277 HD
BRANCH  14  20
HETATM   20  N1  UNL     1     -22.520  -5.368 -27.251  1.00  0.00    -0.043 N 
ATOM     21  H13 UNL     1     -22.126  -5.058 -26.362  1.00  0.00     0.278 HD
ATOM     22  H12 UNL     1     -22.559  -6.378 -27.112  1.00  0.00     0.278 HD
ATOM     23  H11 UNL     1     -21.850  -5.167 -27.993  1.00  0.00     0.278 HD
ENDBRANCH  14  20
ENDBRANCH  13  14
ENDBRANCH   1  13
TORSDOF 3
ENDMDL
MODEL 3
REMARK VINA RESULT: -4.728914949      2.090      5.064
REMARK  3 active torsions:
REMARK  status: ('A' for Active; 'I' for Inactive)
REMARK    1  A    between atoms: N1_1  and  C1_5 
REMARK    2  A    between atoms: C1_5  and  O1_6 
REMARK    3  A    between atoms: O1_6  and  C2_7 
ROOT
HETATM    1  C2  UNL     1     -24.236  -3.583 -26.549  1.00  0.00     0.145 C 
HETATM    2  C3  UNL     1     -25.562  -3.449 -26.879  1.00  0.00     0.117 C 
HETATM    3  C4  UNL     1     -26.250  -3.798 -28.020  1.00  0.00     0.252 C 
HETATM    4  O2  UNL     1     -27.383  -3.262 -28.110  1.00  0.00    -0.268 OA
HETATM    5  N2  UNL     1     -25.824  -4.620 -28.984  1.00  0.00    -0.275 N 
ATOM      6  H2  UNL     1     -26.541  -4.945 -29.633  1.00  0.00     0.173 HD
HETATM    7  C5  UNL     1     -24.572  -5.082 -29.219  1.00  0.00     0.330 C 
HETATM    8  O3  UNL     1     -24.475  -5.720 -30.282  1.00  0.00    -0.246 OA
HETATM    9  N3  UNL     1     -23.451  -4.934 -28.455  1.00  0.00    -0.273 N 
ATOM     10  H3  UNL     1     -22.584  -5.270 -28.875  1.00  0.00     0.173 HD
HETATM   11  C6  UNL     1     -23.332  -4.403 -27.219  1.00  0.00     0.283 C 
HETATM   12  O4  UNL     1     -22.267  -4.700 -26.619  1.00  0.00    -0.265 OA
ENDROOT
BRANCH   1  13
HETATM   13  O1  UNL     1     -23.709  -2.894 -25.509  1.00  0.00    -0.304 OA
BRANCH  13  14
HETATM   14  C1  UNL     1     -22.936  -1.753 -25.514  1.00  0.00     0.276 C 
HETATM   15  C7  UNL     1     -23.520  -0.565 -26.287  1.00  0.00     0.302 C 
HETATM   16  N4  UNL     1     -23.021   0.271 -25.189  1.00  0.00    -0.066 N 
HETATM   17  C8  UNL     1     -23.291  -0.863 -24.316  1.00  0.00     0.302 C 
ATOM     18  H42 UNL     1     -22.098   0.706 -25.229  1.00  0.00     0.277 HD
ATOM     19  H41 UNL     1     -23.414   1.194 -25.001  1.00  0.00     0.277 HD
BRANCH  14  20
HETATM   20  N1  UNL     1     -21.523  -1.867 -25.592  1.00  0.00    -0.043 N 
ATOM     21  H13 UNL     1     -21.111  -1.334 -24.826  1.00  0.00     0.278 HD
ATOM     22  H12 UNL     1     -21.259  -2.819 -25.341  1.00  0.00     0.278 HD
ATOM     23  H11 UNL     1     -21.047  -1.614 -26.458  1.00  0.00     0.278 HD
ENDBRANCH  14  20
ENDBRANCH  13  14
ENDBRANCH   1  13
TORSDOF 3
ENDMDL
MODEL 4
REMARK VINA RESULT: -4.668644415      1.960      5.016
REMARK  3 active torsions:
REMARK  status: ('A' for Active; 'I' for Inactive)
REMARK    1  A    between atoms: N1_1  and  C1_5 
REMARK    2  A    between atoms: C1_5  and  O1_6 
REMARK    3  A    between atoms: O1_6  and  C2_7 
ROOT
HETATM    1  C2  UNL     1     -23.661  -2.875 -27.167  1.00  0.00     0.145 C 
HETATM    2  C3  UNL     1     -24.537  -3.032 -28.212  1.00  0.00     0.117 C 
HETATM    3  C4  UNL     1     -24.822  -4.128 -28.996  1.00  0.00     0.252 C 
HETATM    4  O2  UNL     1     -25.447  -3.847 -30.049  1.00  0.00    -0.268 OA
HETATM    5  N2  UNL     1     -24.500  -5.399 -28.732  1.00  0.00    -0.275 N 
ATOM      6  H2  UNL     1     -24.982  -6.100 -29.295  1.00  0.00     0.173 HD
HETATM    7  C5  UNL     1     -23.623  -5.885 -27.821  1.00  0.00     0.330 C 
HETATM    8  O3  UNL     1     -23.443  -7.112 -27.917  1.00  0.00    -0.246 OA
HETATM    9  N3  UNL     1     -22.943  -5.211 -26.848  1.00  0.00    -0.273 N 
ATOM     10  H3  UNL     1     -22.246  -5.756 -26.339  1.00  0.00     0.173 HD
HETATM   11  C6  UNL     1     -23.066  -3.921 -26.467  1.00  0.00     0.283 C 
HETATM   12  O4  UNL     1     -22.576  -3.657 -25.339  1.00  0.00    -0.265 OA
ENDROOT
BRANCH   1  13
HETATM   13  O1  UNL     1     -23.309  -1.638 -26.740  1.00  0.00    -0.304 OA
BRANCH  13  14
HETATM   14  C1  UNL     1     -23.924  -0.823 -25.815  1.00  0.00     0.276 C 
HETATM   15  C7  UNL     1     -23.007  -0.250 -24.728  1.00  0.00     0.302 C 
HETATM   16  N4  UNL     1     -23.758   1.000 -24.887  1.00  0.00    -0.066 N 
HETATM   17  C8  UNL     1     -23.901   0.636 -26.291  1.00  0.00     0.302 C 
ATOM     18  H42 UNL     1     -24.569   1.212 -24.307  1.00  0.00     0.277 HD
ATOM     19  H41 UNL     1     -23.362   1.898 -24.609  1.00  0.00     0.277 HD
BRANCH  14  20
HETATM   20  N1  UNL     1     -25.236  -1.134 -25.372  1.00  0.00    -0.043 N 
ATOM     21  H13 UNL     1     -25.290  -2.136 -25.190  1.00  0.00     0.278 HD
ATOM     22  H12 UNL     1     -25.363  -0.752 -24.434  1.00  0.00     0.278 HD
ATOM     23  H11 UNL     1     -26.036  -0.863 -25.944  1.00  0.00     0.278 HD
ENDBRANCH  14  20
ENDBRANCH  13  14
ENDBRANCH   1  13
TORSDOF 3
ENDMDL
MODEL 5
REMARK VINA RESULT: -4.617309689      2.136      5.201
REMARK  3 active torsions:
REMARK  status: ('A' for Active; 'I' for Inactive)
REMARK    1  A    between atoms: N1_1  and  C1_5 
REMARK    2  A    between atoms: C1_5  and  O1_6 
REMARK    3  A    between atoms: O1_6  and  C2_7 
ROOT
HETATM    1  C2  UNL     1     -24.596  -3.265 -26.692  1.00  0.00     0.145 C 
HETATM    2  C3  UNL     1     -24.048  -3.466 -27.934  1.00  0.00     0.117 C 
HETATM    3  C4  UNL     1     -24.539  -4.117 -29.044  1.00  0.00     0.252 C 
HETATM    4  O2  UNL     1     -23.662  -4.377 -29.906  1.00  0.00    -0.268 OA
HETATM    5  N2  UNL     1     -25.810  -4.471 -29.260  1.00  0.00    -0.275 N 
ATOM      6  H2  UNL     1     -26.037  -4.733 -30.220  1.00  0.00     0.173 HD
HETATM    7  C5  UNL     1     -26.840  -4.530 -28.381  1.00  0.00     0.330 C 
HETATM    8  O3  UNL     1     -27.870  -5.034 -28.863  1.00  0.00    -0.246 OA
HETATM    9  N3  UNL     1     -26.876  -4.116 -27.081  1.00  0.00    -0.273 N 
ATOM     10  H3  UNL     1     -27.724  -4.356 -26.566  1.00  0.00     0.173 HD
HETATM   11  C6  UNL     1     -25.943  -3.433 -26.383  1.00  0.00     0.283 C 
HETATM   12  O4  UNL     1     -26.368  -2.889 -25.331  1.00  0.00    -0.265 OA
ENDROOT
BRANCH   1  13
HETATM   13  O1  UNL     1     -23.824  -2.874 -25.650  1.00  0.00    -0.304 OA
BRANCH  13  14
HETATM   14  C1  UNL     1     -22.982  -1.789 -25.541  1.00  0.00     0.276 C 
HETATM   15  C7  UNL     1     -23.490  -0.494 -26.186  1.00  0.00     0.302 C 
HETATM   16  N4  UNL     1     -22.943   0.194 -25.010  1.00  0.00    -0.066 N 
HETATM   17  C8  UNL     1     -23.285  -1.006 -24.256  1.00  0.00     0.302 C 
ATOM     18  H42 UNL     1     -21.996   0.573 -25.007  1.00  0.00     0.277 HD
ATOM     19  H41 UNL     1     -23.280   1.114 -24.727  1.00  0.00     0.277 HD
BRANCH  14  20
HETATM   20  N1  UNL     1     -21.579  -1.980 -25.634  1.00  0.00    -0.043 N 
ATOM     21  H13 UNL     1     -21.376  -2.491 -26.493  1.00  0.00     0.278 HD
ATOM     22  H12 UNL     1     -21.139  -1.079 -25.828  1.00  0.00     0.278 HD
ATOM     23  H11 UNL     1     -21.081  -2.426 -24.864  1.00  0.00     0.278 HD
ENDBRANCH  14  20
ENDBRANCH  13  14
ENDBRANCH   1  13
TORSDOF 3
ENDMDL
