MODEL 1
REMARK VINA RESULT: -5.107998387      0.000      0.000
REMARK  3 active torsions:
REMARK  status: ('A' for Active; 'I' for Inactive)
REMARK    1  A    between atoms: N1_1  and  N2_4 
REMARK    2  A    between atoms: N2_4  and  S1_6 
REMARK    3  A    between atoms: S1_6  and  C1_9 
ROOT
HETATM    1  C1  UNL     1     -23.955  -2.153 -26.327  1.00  0.00     0.189 A 
HETATM    2  C2  UNL     1     -24.728  -1.022 -26.421  1.00  0.00     0.149 A 
HETATM    3  N3  UNL     1     -25.868  -1.023 -27.251  1.00  0.00    -0.081 NA
HETATM    4  N4  UNL     1     -24.366   0.046 -25.713  1.00  0.00    -0.295 N 
ATOM      5  H4  UNL     1     -24.925   0.897 -25.766  1.00  0.00     0.171 HD
HETATM    6  C3  UNL     1     -23.270   0.018 -24.927  1.00  0.00     0.328 A 
HETATM    7  O3  UNL     1     -22.899   1.000 -24.249  1.00  0.00    -0.247 OA
HETATM    8  N5  UNL     1     -22.508  -1.106 -24.838  1.00  0.00    -0.274 N 
ATOM      9  H5  UNL     1     -21.683  -1.111 -24.237  1.00  0.00     0.173 HD
HETATM   10  C4  UNL     1     -22.833  -2.207 -25.531  1.00  0.00     0.276 A 
HETATM   11  O4  UNL     1     -22.136  -3.234 -25.450  1.00  0.00    -0.266 OA
ENDROOT
BRANCH   1  12
HETATM   12  S1  UNL     1     -24.396  -3.572 -27.237  1.00  0.00     0.284 S 
HETATM   13  O1  UNL     1     -25.897  -3.707 -27.179  1.00  0.00    -0.199 OA
HETATM   14  O2  UNL     1     -23.952  -3.435 -28.670  1.00  0.00    -0.199 OA
BRANCH  12  15
HETATM   15  N2  UNL     1     -23.649  -4.993 -26.610  1.00  0.00    -0.229 N 
ATOM     16  H2  UNL     1     -24.020  -5.510 -25.812  1.00  0.00     0.199 HD
BRANCH  15  17
HETATM   17  N1  UNL     1     -22.518  -5.365 -27.276  1.00  0.00    -0.336 N 
ATOM     18  H12 UNL     1     -21.596  -5.018 -27.015  1.00  0.00     0.177 HD
ATOM     19  H11 UNL     1     -22.685  -6.013 -28.046  1.00  0.00     0.177 HD
ENDBRANCH  15  17
ENDBRANCH  12  15
ENDBRANCH   1  12
TORSDOF 3
ENDMDL
MODEL 2
REMARK VINA RESULT: -4.987550087      1.287      2.322
REMARK  3 active torsions:
REMARK  status: ('A' for Active; 'I' for Inactive)
REMARK    1  A    between atoms: N1_1  and  N2_4 
REMARK    2  A    between atoms: N2_4  and  S1_6 
REMARK    3  A    between atoms: S1_6  and  C1_9 
ROOT
HETATM    1  C1  UNL     1     -24.097  -2.312 -26.302  1.00  0.00     0.189 A 
HETATM    2  C2  UNL     1     -22.893  -2.287 -25.642  1.00  0.00     0.149 A 
HETATM    3  N3  UNL     1     -22.078  -3.438 -25.633  1.00  0.00    -0.081 NA
HETATM    4  N4  UNL     1     -22.536  -1.160 -25.029  1.00  0.00    -0.295 N 
ATOM      5  H4  UNL     1     -21.646  -1.117 -24.534  1.00  0.00     0.171 HD
HETATM    6  C3  UNL     1     -23.337  -0.075 -25.054  1.00  0.00     0.328 A 
HETATM    7  O3  UNL     1     -23.037   1.000 -24.490  1.00  0.00    -0.247 OA
HETATM    8  N5  UNL     1     -24.529  -0.106 -25.709  1.00  0.00    -0.274 N 
ATOM      9  H5  UNL     1     -25.123   0.725 -25.720  1.00  0.00     0.173 HD
HETATM   10  C4  UNL     1     -24.931  -1.218 -26.342  1.00  0.00     0.276 A 
HETATM   11  O4  UNL     1     -26.021  -1.246 -26.941  1.00  0.00    -0.266 OA
ENDROOT
BRANCH   1  12
HETATM   12  S1  UNL     1     -24.598  -3.768 -27.117  1.00  0.00     0.284 S 
HETATM   13  O1  UNL     1     -25.140  -4.715 -26.075  1.00  0.00    -0.199 OA
HETATM   14  O2  UNL     1     -25.669  -3.460 -28.130  1.00  0.00    -0.199 OA
BRANCH  12  15
HETATM   15  N2  UNL     1     -23.294  -4.508 -27.968  1.00  0.00    -0.229 N 
ATOM     16  H2  UNL     1     -22.909  -4.129 -28.833  1.00  0.00     0.199 HD
BRANCH  15  17
HETATM   17  N1  UNL     1     -22.822  -5.645 -27.380  1.00  0.00    -0.336 N 
ATOM     18  H12 UNL     1     -23.436  -6.419 -27.126  1.00  0.00     0.177 HD
ATOM     19  H11 UNL     1     -21.814  -5.644 -27.224  1.00  0.00     0.177 HD
ENDBRANCH  15  17
ENDBRANCH  12  15
ENDBRANCH   1  12
TORSDOF 3
ENDMDL
MODEL 3
REMARK VINA RESULT: -4.884570104      2.404      4.119
REMARK  3 active torsions:
REMARK  status: ('A' for Active; 'I' for Inactive)
REMARK    1  A    between atoms: N1_1  and  N2_4 
REMARK    2  A    between atoms: N2_4  and  S1_6 
REMARK    3  A    between atoms: S1_6  and  C1_9 
ROOT
HETATM    1  C1  UNL     1     -24.746  -1.576 -26.141  1.00  0.00     0.189 A 
HETATM    2  C2  UNL     1     -24.656  -1.611 -27.510  1.00  0.00     0.149 A 
HETATM    3  N3  UNL     1     -23.434  -1.294 -28.139  1.00  0.00    -0.081 NA
HETATM    4  N4  UNL     1     -25.743  -1.948 -28.202  1.00  0.00    -0.295 N 
ATOM      5  H4  UNL     1     -25.701  -1.983 -29.220  1.00  0.00     0.171 HD
HETATM    6  C3  UNL     1     -26.899  -2.245 -27.574  1.00  0.00     0.328 A 
HETATM    7  O3  UNL     1     -27.940  -2.566 -28.189  1.00  0.00    -0.247 OA
HETATM    8  N5  UNL     1     -26.982  -2.209 -26.216  1.00  0.00    -0.274 N 
ATOM      9  H5  UNL     1     -27.864  -2.438 -25.757  1.00  0.00     0.173 HD
HETATM   10  C4  UNL     1     -25.914  -1.875 -25.477  1.00  0.00     0.276 A 
HETATM   11  O4  UNL     1     -25.989  -1.842 -24.236  1.00  0.00    -0.266 OA
ENDROOT
BRANCH   1  12
HETATM   12  S1  UNL     1     -23.345  -1.139 -25.201  1.00  0.00     0.284 S 
HETATM   13  O1  UNL     1     -23.161   0.353 -25.316  1.00  0.00    -0.199 OA
HETATM   14  O2  UNL     1     -23.544  -1.518 -23.757  1.00  0.00    -0.199 OA
BRANCH  12  15
HETATM   15  N2  UNL     1     -21.927  -1.954 -25.747  1.00  0.00    -0.229 N 
ATOM     16  H2  UNL     1     -21.077  -1.464 -26.024  1.00  0.00     0.199 HD
BRANCH  15  17
HETATM   17  N1  UNL     1     -22.045  -3.314 -25.776  1.00  0.00    -0.336 N 
ATOM     18  H12 UNL     1     -22.874  -3.793 -25.426  1.00  0.00     0.177 HD
ATOM     19  H11 UNL     1     -21.237  -3.791 -26.175  1.00  0.00     0.177 HD
ENDBRANCH  15  17
ENDBRANCH  12  15
ENDBRANCH   1  12
TORSDOF 3
ENDMDL
MODEL 4
REMARK VINA RESULT: -4.769663601      1.988      4.189
REMARK  3 active torsions:
REMARK  status: ('A' for Active; 'I' for Inactive)
REMARK    1  A    between atoms: N1_1  and  N2_4 
REMARK    2  A    between atoms: N2_4  and  S1_6 
REMARK    3  A    between atoms: S1_6  and  C1_9 
ROOT
HETATM    1  C1  UNL     1     -24.270  -2.378 -26.499  1.00  0.00     0.189 A 
HETATM    2  C2  UNL     1     -24.962  -2.018 -27.628  1.00  0.00     0.149 A 
HETATM    3  N3  UNL     1     -25.803  -0.886 -27.601  1.00  0.00    -0.081 NA
HETATM    4  N4  UNL     1     -24.809  -2.762 -28.723  1.00  0.00    -0.295 N 
ATOM      5  H4  UNL     1     -25.312  -2.513 -29.574  1.00  0.00     0.171 HD
HETATM    6  C3  UNL     1     -23.999  -3.840 -28.719  1.00  0.00     0.328 A 
HETATM    7  O3  UNL     1     -23.830  -4.562 -29.726  1.00  0.00    -0.247 OA
HETATM    8  N5  UNL     1     -23.315  -4.192 -27.597  1.00  0.00    -0.274 N 
ATOM      9  H5  UNL     1     -22.705  -5.010 -27.612  1.00  0.00     0.173 HD
HETATM   10  C4  UNL     1     -23.436  -3.474 -26.471  1.00  0.00     0.276 A 
HETATM   11  O4  UNL     1     -22.812  -3.796 -25.445  1.00  0.00    -0.266 OA
ENDROOT
BRANCH   1  12
HETATM   12  S1  UNL     1     -24.443  -1.430 -25.048  1.00  0.00     0.284 S 
HETATM   13  O1  UNL     1     -25.765  -1.789 -24.418  1.00  0.00    -0.199 OA
HETATM   14  O2  UNL     1     -23.323  -1.731 -24.087  1.00  0.00    -0.199 OA
BRANCH  12  15
HETATM   15  N2  UNL     1     -24.385   0.262 -25.377  1.00  0.00    -0.229 N 
ATOM     16  H2  UNL     1     -25.089   0.918 -25.040  1.00  0.00     0.199 HD
BRANCH  15  17
HETATM   17  N1  UNL     1     -23.312   0.644 -26.129  1.00  0.00    -0.336 N 
ATOM     18  H12 UNL     1     -22.890   0.029 -26.824  1.00  0.00     0.177 HD
ATOM     19  H11 UNL     1     -22.981   1.588 -25.929  1.00  0.00     0.177 HD
ENDBRANCH  15  17
ENDBRANCH  12  15
ENDBRANCH   1  12
TORSDOF 3
ENDMDL
MODEL 5
REMARK VINA RESULT: -4.767400218      2.227      4.068
REMARK  3 active torsions:
REMARK  status: ('A' for Active; 'I' for Inactive)
REMARK    1  A    between atoms: N1_1  and  N2_4 
REMARK    2  A    between atoms: N2_4  and  S1_6 
REMARK    3  A    between atoms: S1_6  and  C1_9 
ROOT
HETATM    1  C1  UNL     1     -24.638  -1.565 -26.279  1.00  0.00     0.189 A 
HETATM    2  C2  UNL     1     -25.862  -1.875 -25.742  1.00  0.00     0.149 A 
HETATM    3  N3  UNL     1     -26.039  -1.848 -24.343  1.00  0.00    -0.081 NA
HETATM    4  N4  UNL     1     -26.852  -2.193 -26.576  1.00  0.00    -0.295 N 
ATOM      5  H4  UNL     1     -27.770  -2.426 -26.201  1.00  0.00     0.171 HD
HETATM    6  C3  UNL     1     -26.653  -2.212 -27.910  1.00  0.00     0.328 A 
HETATM    7  O3  UNL     1     -27.556  -2.506 -28.723  1.00  0.00    -0.247 OA
HETATM    8  N5  UNL     1     -25.437  -1.904 -28.436  1.00  0.00    -0.274 N 
ATOM      9  H5  UNL     1     -25.304  -1.922 -29.448  1.00  0.00     0.173 HD
HETATM   10  C4  UNL     1     -24.411  -1.577 -27.637  1.00  0.00     0.276 A 
HETATM   11  O4  UNL     1     -23.299  -1.295 -28.118  1.00  0.00    -0.266 OA
ENDROOT
BRANCH   1  12
HETATM   12  S1  UNL     1     -23.320  -1.143 -25.221  1.00  0.00     0.284 S 
HETATM   13  O1  UNL     1     -23.126   0.350 -25.300  1.00  0.00    -0.199 OA
HETATM   14  O2  UNL     1     -23.636  -1.541 -23.803  1.00  0.00    -0.199 OA
BRANCH  12  15
HETATM   15  N2  UNL     1     -21.862  -1.953 -25.660  1.00  0.00    -0.229 N 
ATOM     16  H2  UNL     1     -20.979  -1.464 -25.812  1.00  0.00     0.199 HD
BRANCH  15  17
HETATM   17  N1  UNL     1     -21.994  -3.305 -25.784  1.00  0.00    -0.336 N 
ATOM     18  H12 UNL     1     -22.900  -3.750 -25.927  1.00  0.00     0.177 HD
ATOM     19  H11 UNL     1     -21.113  -3.815 -25.721  1.00  0.00     0.177 HD
ENDBRANCH  15  17
ENDBRANCH  12  15
ENDBRANCH   1  12
TORSDOF 3
ENDMDL
