MODEL 1
REMARK VINA RESULT: -4.515258751      0.000      0.000
REMARK  1 active torsions:
REMARK  status: ('A' for Active; 'I' for Inactive)
REMARK    1  A    between atoms: C2_2  and  C4_4 
REMARK       I    between atoms: N2_10  and  C7_11 
ROOT
HETATM    1  C4  UNL     1       0.538 -13.979  15.617  1.00  0.00     0.142 C 
HETATM    2  C5  UNL     1       0.649 -15.338  16.261  1.00  0.00     0.264 C 
HETATM    3  N1  UNL     1       2.060 -15.424  16.601  1.00  0.00    -0.057 N 
ATOM      4  H11 UNL     1       2.609 -15.955  15.925  1.00  0.00     0.279 HD
ATOM      5  H12 UNL     1       2.247 -16.018  17.408  1.00  0.00     0.279 HD
HETATM    6  C6  UNL     1       2.520 -14.048  16.772  1.00  0.00     0.360 C 
HETATM    7  N2  UNL     1       1.385 -13.210  16.504  1.00  0.00    -0.318 N 
HETATM    8  C7  UNL     1       1.158 -11.919  17.005  1.00  0.00     0.217 C 
HETATM    9  C8  UNL     1       2.129 -11.264  17.911  1.00  0.00     0.117 C 
HETATM   10  O1  UNL     1       0.116 -11.291  16.691  1.00  0.00    -0.274 OA
ENDROOT
BRANCH   1  11
HETATM   11  C2  UNL     1       1.100 -14.009  14.257  1.00  0.00    -0.069 C 
HETATM   12  C1  UNL     1       1.250 -15.082  13.519  1.00  0.00     0.016 C 
HETATM   13  C3  UNL     1       1.536 -12.698  13.668  1.00  0.00     0.044 C 
ENDBRANCH   1  11
TORSDOF 1
ENDMDL
MODEL 2
REMARK VINA RESULT: -4.020203421      1.953      3.128
REMARK  1 active torsions:
REMARK  status: ('A' for Active; 'I' for Inactive)
REMARK    1  A    between atoms: C2_2  and  C4_4 
REMARK       I    between atoms: N2_10  and  C7_11 
ROOT
HETATM    1  C4  UNL     1       1.524 -12.398  14.676  1.00  0.00     0.142 C 
HETATM    2  C5  UNL     1       1.480 -12.020  13.217  1.00  0.00     0.264 C 
HETATM    3  N1  UNL     1       0.055 -11.988  12.931  1.00  0.00    -0.057 N 
ATOM      4  H11 UNL     1      -0.290 -12.837  12.483  1.00  0.00     0.279 HD
ATOM      5  H12 UNL     1      -0.194 -11.342  12.182  1.00  0.00     0.279 HD
HETATM    6  C6  UNL     1      -0.605 -11.690  14.199  1.00  0.00     0.360 C 
HETATM    7  N2  UNL     1       0.438 -11.585  15.180  1.00  0.00    -0.318 N 
HETATM    8  C7  UNL     1       0.399 -10.845  16.371  1.00  0.00     0.217 C 
HETATM    9  C8  UNL     1      -0.797 -10.057  16.748  1.00  0.00     0.117 C 
HETATM   10  O1  UNL     1       1.389 -10.838  17.146  1.00  0.00    -0.274 OA
ENDROOT
BRANCH   1  11
HETATM   11  C2  UNL     1       1.225 -13.829  14.844  1.00  0.00    -0.069 C 
HETATM   12  C1  UNL     1       1.099 -14.700  13.872  1.00  0.00     0.016 C 
HETATM   13  C3  UNL     1       1.050 -14.332  16.248  1.00  0.00     0.044 C 
ENDBRANCH   1  11
TORSDOF 1
ENDMDL
MODEL 3
REMARK VINA RESULT: -3.999739994      3.041      4.281
REMARK  1 active torsions:
REMARK  status: ('A' for Active; 'I' for Inactive)
REMARK    1  A    between atoms: C2_2  and  C4_4 
REMARK       I    between atoms: N2_10  and  C7_11 
ROOT
HETATM    1  C4  UNL     1      -0.360 -10.385  15.503  1.00  0.00     0.142 C 
HETATM    2  C5  UNL     1      -1.692 -10.585  14.825  1.00  0.00     0.264 C 
HETATM    3  N1  UNL     1      -1.339 -11.311  13.616  1.00  0.00    -0.057 N 
ATOM      4  H11 UNL     1      -1.269 -10.717  12.790  1.00  0.00     0.279 HD
ATOM      5  H12 UNL     1      -2.085 -11.915  13.272  1.00  0.00     0.279 HD
HETATM    6  C6  UNL     1      -0.104 -12.030  13.923  1.00  0.00     0.360 C 
HETATM    7  N2  UNL     1       0.235 -11.685  15.274  1.00  0.00    -0.318 N 
HETATM    8  C7  UNL     1       0.987 -12.456  16.174  1.00  0.00     0.217 C 
HETATM    9  C8  UNL     1       1.532 -13.777  15.785  1.00  0.00     0.117 C 
HETATM   10  O1  UNL     1       1.212 -12.034  17.336  1.00  0.00    -0.274 OA
ENDROOT
BRANCH   1  11
HETATM   11  C2  UNL     1       0.409  -9.332  14.820  1.00  0.00    -0.069 C 
HETATM   12  C1  UNL     1       1.707  -9.334  14.639  1.00  0.00     0.016 C 
HETATM   13  C3  UNL     1      -0.362  -8.159  14.287  1.00  0.00     0.044 C 
ENDBRANCH   1  11
TORSDOF 1
ENDMDL
MODEL 4
REMARK VINA RESULT: -3.987656669      2.791      4.129
REMARK  1 active torsions:
REMARK  status: ('A' for Active; 'I' for Inactive)
REMARK    1  A    between atoms: C2_2  and  C4_4 
REMARK       I    between atoms: N2_10  and  C7_11 
ROOT
HETATM    1  C4  UNL     1       0.062 -11.519  15.466  1.00  0.00     0.142 C 
HETATM    2  C5  UNL     1       0.554 -10.658  16.602  1.00  0.00     0.264 C 
HETATM    3  N1  UNL     1       1.686  -9.959  16.015  1.00  0.00    -0.057 N 
ATOM      4  H11 UNL     1       2.587 -10.377  16.247  1.00  0.00     0.279 HD
ATOM      5  H12 UNL     1       1.861  -9.045  16.434  1.00  0.00     0.279 HD
HETATM    6  C6  UNL     1       1.425  -9.900  14.579  1.00  0.00     0.360 C 
HETATM    7  N2  UNL     1       0.178 -10.580  14.370  1.00  0.00    -0.318 N 
HETATM    8  C7  UNL     1      -0.728 -10.369  13.320  1.00  0.00     0.217 C 
HETATM    9  C8  UNL     1      -0.463  -9.363  12.266  1.00  0.00     0.117 C 
HETATM   10  O1  UNL     1      -1.791 -11.037  13.255  1.00  0.00    -0.274 OA
ENDROOT
BRANCH   1  11
HETATM   11  C2  UNL     1       0.961 -12.667  15.267  1.00  0.00    -0.069 C 
HETATM   12  C1  UNL     1       1.356 -13.132  14.106  1.00  0.00     0.016 C 
HETATM   13  C3  UNL     1       1.468 -13.361  16.498  1.00  0.00     0.044 C 
ENDBRANCH   1  11
TORSDOF 1
ENDMDL
MODEL 5
REMARK VINA RESULT: -3.901326853      1.913      3.116
REMARK  1 active torsions:
REMARK  status: ('A' for Active; 'I' for Inactive)
REMARK    1  A    between atoms: C2_2  and  C4_4 
REMARK       I    between atoms: N2_10  and  C7_11 
ROOT
HETATM    1  C4  UNL     1       1.438 -12.569  14.715  1.00  0.00     0.142 C 
HETATM    2  C5  UNL     1       1.554 -12.117  13.281  1.00  0.00     0.264 C 
HETATM    3  N1  UNL     1       0.167 -11.955  12.876  1.00  0.00    -0.057 N 
ATOM      4  H11 UNL     1      -0.199 -12.751  12.353  1.00  0.00     0.279 HD
ATOM      5  H12 UNL     1       0.037 -11.256  12.145  1.00  0.00     0.279 HD
HETATM    6  C6  UNL     1      -0.580 -11.668  14.097  1.00  0.00     0.360 C 
HETATM    7  N2  UNL     1       0.375 -11.696  15.168  1.00  0.00    -0.318 N 
HETATM    8  C7  UNL     1       0.285 -11.015  16.391  1.00  0.00     0.217 C 
HETATM    9  C8  UNL     1      -0.876 -10.152  16.708  1.00  0.00     0.117 C 
HETATM   10  O1  UNL     1       1.198 -11.126  17.248  1.00  0.00    -0.274 OA
ENDROOT
BRANCH   1  11
HETATM   11  C2  UNL     1       1.016 -13.978  14.776  1.00  0.00    -0.069 C 
HETATM   12  C1  UNL     1       0.534 -14.583  15.834  1.00  0.00     0.016 C 
HETATM   13  C3  UNL     1       1.151 -14.786  13.517  1.00  0.00     0.044 C 
ENDBRANCH   1  11
TORSDOF 1
ENDMDL
