MODEL 1
REMARK VINA RESULT: -4.357770142      0.000      0.000
REMARK  2 active torsions:
REMARK  status: ('A' for Active; 'I' for Inactive)
REMARK    1  A    between atoms: C2_2  and  C3_3 
REMARK    2  A    between atoms: C5_5  and  N1_6 
ROOT
HETATM    1  C3  UNL     1       1.860 -13.636  15.613  1.00  0.00     0.034 C 
HETATM    2  C4  UNL     1       0.995 -12.518  16.139  1.00  0.00     0.051 C 
HETATM    3  C5  UNL     1       0.646 -11.688  14.908  1.00  0.00     0.143 C 
HETATM    4  C6  UNL     1       1.733 -12.113  13.902  1.00  0.00     0.068 C 
HETATM    5  C7  UNL     1       1.496 -13.621  14.148  1.00  0.00     0.111 C 
HETATM    6  N2  UNL     1       0.076 -13.666  13.947  1.00  0.00    -0.326 N 
HETATM    7  N3  UNL     1      -0.562 -14.653  13.553  1.00  0.00    -0.347 N 
ATOM      8  H31 UNL     1      -1.571 -14.685  13.410  1.00  0.00     0.176 HD
ATOM      9  H32 UNL     1      -0.128 -15.548  13.328  1.00  0.00     0.176 HD
HETATM   10  C8  UNL     1      -0.536 -12.401  14.265  1.00  0.00     0.181 C 
ENDROOT
BRANCH   3  11
HETATM   11  N1  UNL     1       0.516 -10.318  15.100  1.00  0.00    -0.069 N 
ATOM     12  H13 UNL     1       0.271 -10.130  16.072  1.00  0.00     0.275 HD
ATOM     13  H12 UNL     1       1.433  -9.876  15.051  1.00  0.00     0.275 HD
ATOM     14  H11 UNL     1      -0.132  -9.831  14.482  1.00  0.00     0.275 HD
ENDBRANCH   3  11
BRANCH   1  15
HETATM   15  C2  UNL     1       1.696 -14.931  16.276  1.00  0.00    -0.030 C 
HETATM   16  C1  UNL     1       1.732 -15.197  17.555  1.00  0.00     0.007 C 
ENDBRANCH   1  15
TORSDOF 2
ENDMDL
MODEL 2
REMARK VINA RESULT: -4.261792233      1.726      2.876
REMARK  2 active torsions:
REMARK  status: ('A' for Active; 'I' for Inactive)
REMARK    1  A    between atoms: C2_2  and  C3_3 
REMARK    2  A    between atoms: C5_5  and  N1_6 
ROOT
HETATM    1  C3  UNL     1       0.616 -13.085  15.054  1.00  0.00     0.034 C 
HETATM    2  C4  UNL     1       1.306 -12.756  13.754  1.00  0.00     0.051 C 
HETATM    3  C5  UNL     1       0.660 -11.453  13.295  1.00  0.00     0.143 C 
HETATM    4  C6  UNL     1      -0.654 -11.431  14.098  1.00  0.00     0.068 C 
HETATM    5  C7  UNL     1       0.056 -11.737  15.437  1.00  0.00     0.111 C 
HETATM    6  N2  UNL     1       1.059 -10.711  15.403  1.00  0.00    -0.326 N 
HETATM    7  N3  UNL     1       1.582 -10.187  16.398  1.00  0.00    -0.347 N 
ATOM      8  H31 UNL     1       2.294  -9.457  16.374  1.00  0.00     0.176 HD
ATOM      9  H32 UNL     1       1.344 -10.441  17.357  1.00  0.00     0.176 HD
HETATM   10  C8  UNL     1       1.395 -10.353  14.050  1.00  0.00     0.181 C 
ENDROOT
BRANCH   3  11
HETATM   11  N1  UNL     1       0.522 -11.279  11.923  1.00  0.00    -0.069 N 
ATOM     12  H13 UNL     1       1.417 -11.445  11.464  1.00  0.00     0.275 HD
ATOM     13  H12 UNL     1      -0.030 -12.043  11.534  1.00  0.00     0.275 HD
ATOM     14  H11 UNL     1       0.137 -10.387  11.613  1.00  0.00     0.275 HD
ENDBRANCH   3  11
BRANCH   1  15
HETATM   15  C2  UNL     1       1.455 -13.717  16.074  1.00  0.00    -0.030 C 
HETATM   16  C1  UNL     1       1.740 -14.985  16.217  1.00  0.00     0.007 C 
ENDBRANCH   1  15
TORSDOF 2
ENDMDL
MODEL 3
REMARK VINA RESULT: -4.225221771      2.029      2.520
REMARK  2 active torsions:
REMARK  status: ('A' for Active; 'I' for Inactive)
REMARK    1  A    between atoms: C2_2  and  C3_3 
REMARK    2  A    between atoms: C5_5  and  N1_6 
ROOT
HETATM    1  C3  UNL     1       1.067 -12.442  14.883  1.00  0.00     0.034 C 
HETATM    2  C4  UNL     1       0.937 -12.104  16.347  1.00  0.00     0.051 C 
HETATM    3  C5  UNL     1       0.745 -10.591  16.378  1.00  0.00     0.143 C 
HETATM    4  C6  UNL     1       1.278 -10.161  14.999  1.00  0.00     0.068 C 
HETATM    5  C7  UNL     1       0.445 -11.223  14.246  1.00  0.00     0.111 C 
HETATM    6  N2  UNL     1      -0.848 -10.932  14.796  1.00  0.00    -0.326 N 
HETATM    7  N3  UNL     1      -1.931 -11.131  14.227  1.00  0.00    -0.347 N 
ATOM      8  H31 UNL     1      -2.850 -10.924  14.618  1.00  0.00     0.176 HD
ATOM      9  H32 UNL     1      -2.008 -11.530  13.291  1.00  0.00     0.176 HD
HETATM   10  C8  UNL     1      -0.739 -10.369  16.117  1.00  0.00     0.181 C 
ENDROOT
BRANCH   3  11
HETATM   11  N1  UNL     1       1.293  -9.919  17.464  1.00  0.00    -0.069 N 
ATOM     12  H13 UNL     1       1.563 -10.591  18.182  1.00  0.00     0.275 HD
ATOM     13  H12 UNL     1       2.206  -9.542  17.210  1.00  0.00     0.275 HD
ATOM     14  H11 UNL     1       0.722  -9.184  17.879  1.00  0.00     0.275 HD
ENDBRANCH   3  11
BRANCH   1  15
HETATM   15  C2  UNL     1       0.482 -13.720  14.472  1.00  0.00    -0.030 C 
HETATM   16  C1  UNL     1       0.377 -14.823  15.166  1.00  0.00     0.007 C 
ENDBRANCH   1  15
TORSDOF 2
ENDMDL
MODEL 4
REMARK VINA RESULT: -4.138315876      2.139      3.276
REMARK  2 active torsions:
REMARK  status: ('A' for Active; 'I' for Inactive)
REMARK    1  A    between atoms: C2_2  and  C3_3 
REMARK    2  A    between atoms: C5_5  and  N1_6 
ROOT
HETATM    1  C3  UNL     1       1.561 -12.971  16.119  1.00  0.00     0.034 C 
HETATM    2  C4  UNL     1       0.210 -13.187  15.484  1.00  0.00     0.051 C 
HETATM    3  C5  UNL     1       0.328 -14.532  14.775  1.00  0.00     0.143 C 
HETATM    4  C6  UNL     1       1.852 -14.710  14.651  1.00  0.00     0.068 C 
HETATM    5  C7  UNL     1       2.100 -14.381  16.142  1.00  0.00     0.111 C 
HETATM    6  N2  UNL     1       1.174 -15.300  16.737  1.00  0.00    -0.326 N 
HETATM    7  N3  UNL     1       1.286 -15.803  17.865  1.00  0.00    -0.347 N 
ATOM      8  H31 UNL     1       0.628 -16.457  18.288  1.00  0.00     0.176 HD
ATOM      9  H32 UNL     1       2.067 -15.606  18.491  1.00  0.00     0.176 HD
HETATM   10  C8  UNL     1       0.072 -15.578  15.852  1.00  0.00     0.181 C 
ENDROOT
BRANCH   3  11
HETATM   11  N1  UNL     1      -0.386 -14.672  13.590  1.00  0.00    -0.069 N 
ATOM     12  H13 UNL     1      -0.303 -13.819  13.037  1.00  0.00     0.275 HD
ATOM     13  H12 UNL     1       0.090 -15.336  12.980  1.00  0.00     0.275 HD
ATOM     14  H11 UNL     1      -1.368 -14.931  13.678  1.00  0.00     0.275 HD
ENDBRANCH   3  11
BRANCH   1  15
HETATM   15  C2  UNL     1       1.551 -12.293  17.417  1.00  0.00    -0.030 C 
HETATM   16  C1  UNL     1       1.938 -11.077  17.699  1.00  0.00     0.007 C 
ENDBRANCH   1  15
TORSDOF 2
ENDMDL
MODEL 5
REMARK VINA RESULT: -4.092571819      2.191      4.246
REMARK  2 active torsions:
REMARK  status: ('A' for Active; 'I' for Inactive)
REMARK    1  A    between atoms: C2_2  and  C3_3 
REMARK    2  A    between atoms: C5_5  and  N1_6 
ROOT
HETATM    1  C3  UNL     1      -0.357  -9.663  15.099  1.00  0.00     0.034 C 
HETATM    2  C4  UNL     1      -1.062 -10.977  14.872  1.00  0.00     0.051 C 
HETATM    3  C5  UNL     1       0.048 -11.948  14.481  1.00  0.00     0.143 C 
HETATM    4  C6  UNL     1       1.179 -10.999  14.041  1.00  0.00     0.068 C 
HETATM    5  C7  UNL     1       1.063 -10.127  15.313  1.00  0.00     0.111 C 
HETATM    6  N2  UNL     1       1.146 -11.160  16.306  1.00  0.00    -0.326 N 
HETATM    7  N3  UNL     1       1.580 -11.013  17.458  1.00  0.00    -0.347 N 
ATOM      8  H31 UNL     1       1.640 -11.747  18.164  1.00  0.00     0.176 HD
ATOM      9  H32 UNL     1       1.927 -10.124  17.818  1.00  0.00     0.176 HD
HETATM   10  C8  UNL     1       0.656 -12.415  15.798  1.00  0.00     0.181 C 
ENDROOT
BRANCH   3  11
HETATM   11  N1  UNL     1      -0.288 -12.938  13.566  1.00  0.00    -0.069 N 
ATOM     12  H13 UNL     1      -1.177 -13.362  13.831  1.00  0.00     0.275 HD
ATOM     13  H12 UNL     1      -0.544 -12.510  12.676  1.00  0.00     0.275 HD
ATOM     14  H11 UNL     1       0.407 -13.667  13.408  1.00  0.00     0.275 HD
ENDBRANCH   3  11
BRANCH   1  15
HETATM   15  C2  UNL     1      -0.902  -8.829  16.172  1.00  0.00    -0.030 C 
HETATM   16  C1  UNL     1      -1.813  -9.138  17.056  1.00  0.00     0.007 C 
ENDBRANCH   1  15
TORSDOF 2
ENDMDL
