MODEL 1
REMARK VINA RESULT: -4.539770753      0.000      0.000
REMARK  1 active torsions:
REMARK  status: ('A' for Active; 'I' for Inactive)
REMARK       I    between atoms: N1_2  and  C3_4 
REMARK       I    between atoms: C3_4  and  N2_6 
REMARK    1  A    between atoms: N2_6  and  C4_8 
ROOT
HETATM    1  C1  UNL     1       1.203 -10.203  14.440  1.00  0.00     0.154 C 
HETATM    2  N1  UNL     1       1.337 -11.324  13.528  1.00  0.00    -0.343 N 
HETATM    3  C2  UNL     1       1.208 -11.067  12.097  1.00  0.00     0.154 C 
HETATM    4  C3  UNL     1       1.584 -12.632  14.016  1.00  0.00     0.317 C 
HETATM    5  O1  UNL     1       1.692 -13.563  13.184  1.00  0.00    -0.247 OA
HETATM    6  N2  UNL     1       1.699 -12.830  15.416  1.00  0.00    -0.338 N 
ATOM      7  H2  UNL     1       1.606 -12.048  16.065  1.00  0.00     0.164 HD
ENDROOT
BRANCH   6   8
HETATM    8  C4  UNL     1       1.952 -14.167  15.898  1.00  0.00     0.086 C 
HETATM    9  C5  UNL     1       0.705 -15.035  16.036  1.00  0.00     0.025 C 
HETATM   10  C6  UNL     1       1.397 -15.649  17.262  1.00  0.00     0.004 C 
HETATM   11  C7  UNL     1       2.083 -14.281  17.403  1.00  0.00     0.025 C 
ENDBRANCH   6   8
TORSDOF 1
ENDMDL
MODEL 2
REMARK VINA RESULT: -4.459566200      2.007      4.872
REMARK  1 active torsions:
REMARK  status: ('A' for Active; 'I' for Inactive)
REMARK       I    between atoms: N1_2  and  C3_4 
REMARK       I    between atoms: C3_4  and  N2_6 
REMARK    1  A    between atoms: N2_6  and  C4_8 
ROOT
HETATM    1  C1  UNL     1       1.619 -15.486  15.822  1.00  0.00     0.154 C 
HETATM    2  N1  UNL     1       1.669 -14.534  16.916  1.00  0.00    -0.343 N 
HETATM    3  C2  UNL     1       1.957 -15.037  18.255  1.00  0.00     0.154 C 
HETATM    4  C3  UNL     1       1.440 -13.154  16.687  1.00  0.00     0.317 C 
HETATM    5  O1  UNL     1       1.496 -12.374  17.668  1.00  0.00    -0.247 OA
HETATM    6  N2  UNL     1       1.162 -12.714  15.368  1.00  0.00    -0.338 N 
ATOM      7  H2  UNL     1       1.125 -13.377  14.593  1.00  0.00     0.164 HD
ENDROOT
BRANCH   6   8
HETATM    8  C4  UNL     1       0.933 -11.306  15.151  1.00  0.00     0.086 C 
HETATM    9  C5  UNL     1      -0.506 -10.948  14.789  1.00  0.00     0.025 C 
HETATM   10  C6  UNL     1       0.102  -9.862  13.890  1.00  0.00     0.004 C 
HETATM   11  C7  UNL     1       1.303 -10.811  13.767  1.00  0.00     0.025 C 
ENDBRANCH   6   8
TORSDOF 1
ENDMDL
MODEL 3
REMARK VINA RESULT: -4.447251206      2.003      2.103
REMARK  1 active torsions:
REMARK  status: ('A' for Active; 'I' for Inactive)
REMARK       I    between atoms: N1_2  and  C3_4 
REMARK       I    between atoms: C3_4  and  N2_6 
REMARK    1  A    between atoms: N2_6  and  C4_8 
ROOT
HETATM    1  C1  UNL     1      -1.004  -9.969  15.669  1.00  0.00     0.154 C 
HETATM    2  N1  UNL     1      -1.063 -10.651  14.390  1.00  0.00    -0.343 N 
HETATM    3  C2  UNL     1      -1.888 -10.069  13.337  1.00  0.00     0.154 C 
HETATM    4  C3  UNL     1      -0.339 -11.850  14.172  1.00  0.00     0.317 C 
HETATM    5  O1  UNL     1      -0.425 -12.398  13.047  1.00  0.00    -0.247 OA
HETATM    6  N2  UNL     1       0.448 -12.377  15.228  1.00  0.00    -0.338 N 
ATOM      7  H2  UNL     1       0.495 -11.905  16.131  1.00  0.00     0.164 HD
ENDROOT
BRANCH   6   8
HETATM    8  C4  UNL     1       1.180 -13.598  14.991  1.00  0.00     0.086 C 
HETATM    9  C5  UNL     1       0.358 -14.872  15.164  1.00  0.00     0.025 C 
HETATM   10  C6  UNL     1       1.647 -15.503  15.710  1.00  0.00     0.004 C 
HETATM   11  C7  UNL     1       2.001 -14.081  16.170  1.00  0.00     0.025 C 
ENDBRANCH   6   8
TORSDOF 1
ENDMDL
MODEL 4
REMARK VINA RESULT: -4.386972167      1.737      1.767
REMARK  1 active torsions:
REMARK  status: ('A' for Active; 'I' for Inactive)
REMARK       I    between atoms: N1_2  and  C3_4 
REMARK       I    between atoms: C3_4  and  N2_6 
REMARK    1  A    between atoms: N2_6  and  C4_8 
ROOT
HETATM    1  C1  UNL     1      -1.819 -10.628  14.135  1.00  0.00     0.154 C 
HETATM    2  N1  UNL     1      -0.680 -10.866  13.268  1.00  0.00    -0.343 N 
HETATM    3  C2  UNL     1      -0.527 -10.024  12.085  1.00  0.00     0.154 C 
HETATM    4  C3  UNL     1       0.255 -11.890  13.563  1.00  0.00     0.317 C 
HETATM    5  O1  UNL     1       1.221 -12.052  12.780  1.00  0.00    -0.247 OA
HETATM    6  N2  UNL     1       0.061 -12.681  14.723  1.00  0.00    -0.338 N 
ATOM      7  H2  UNL     1      -0.737 -12.522  15.338  1.00  0.00     0.164 HD
ENDROOT
BRANCH   6   8
HETATM    8  C4  UNL     1       1.022 -13.719  15.011  1.00  0.00     0.086 C 
HETATM    9  C5  UNL     1       0.407 -15.065  15.382  1.00  0.00     0.025 C 
HETATM   10  C6  UNL     1       1.596 -15.226  16.339  1.00  0.00     0.004 C 
HETATM   11  C7  UNL     1       1.578 -13.692  16.420  1.00  0.00     0.025 C 
ENDBRANCH   6   8
TORSDOF 1
ENDMDL
MODEL 5
REMARK VINA RESULT: -4.311160149      1.978      4.692
REMARK  1 active torsions:
REMARK  status: ('A' for Active; 'I' for Inactive)
REMARK       I    between atoms: N1_2  and  C3_4 
REMARK       I    between atoms: C3_4  and  N2_6 
REMARK    1  A    between atoms: N2_6  and  C4_8 
ROOT
HETATM    1  C1  UNL     1       1.625 -13.277  16.939  1.00  0.00     0.154 C 
HETATM    2  N1  UNL     1       1.214 -14.098  15.815  1.00  0.00    -0.343 N 
HETATM    3  C2  UNL     1       1.588 -15.508  15.819  1.00  0.00     0.154 C 
HETATM    4  C3  UNL     1       0.471 -13.541  14.744  1.00  0.00     0.317 C 
HETATM    5  O1  UNL     1       0.141 -14.295  13.798  1.00  0.00    -0.247 OA
HETATM    6  N2  UNL     1       0.133 -12.164  14.786  1.00  0.00    -0.338 N 
ATOM      7  H2  UNL     1       0.418 -11.580  15.572  1.00  0.00     0.164 HD
ENDROOT
BRANCH   6   8
HETATM    8  C4  UNL     1      -0.624 -11.612  13.689  1.00  0.00     0.086 C 
HETATM    9  C5  UNL     1       0.059 -10.453  12.969  1.00  0.00     0.025 C 
HETATM   10  C6  UNL     1      -1.351  -9.872  12.789  1.00  0.00     0.004 C 
HETATM   11  C7  UNL     1      -1.686 -10.610  14.094  1.00  0.00     0.025 C 
ENDBRANCH   6   8
TORSDOF 1
ENDMDL
