MODEL 1
REMARK VINA RESULT: -5.449234756      0.000      0.000
REMARK  4 active torsions:
REMARK  status: ('A' for Active; 'I' for Inactive)
REMARK    1  A    between atoms: O1_2  and  C2_3 
REMARK    2  A    between atoms: N1_6  and  C5_7 
REMARK    3  A    between atoms: C5_7  and  O2_11 
REMARK    4  A    between atoms: O2_11  and  C6_12 
ROOT
HETATM    1  C2  UNL     1       2.118 -14.476  16.764  1.00  0.00     0.123 C 
HETATM    2  C3  UNL     1       0.877 -14.966  16.045  1.00  0.00     0.052 C 
HETATM    3  C4  UNL     1       0.825 -14.319  14.679  1.00  0.00     0.129 C 
HETATM    4  N1  UNL     1       0.601 -12.890  14.895  1.00  0.00    -0.347 N 
HETATM    5  C9  UNL     1       1.271 -12.304  16.038  1.00  0.00     0.129 C 
HETATM    6  C10 UNL     1       2.560 -13.108  16.229  1.00  0.00     0.052 C 
ENDROOT
BRANCH   4   7
HETATM    7  C5  UNL     1      -0.222 -12.107  14.046  1.00  0.00     0.215 C 
HETATM    8  N2  UNL     1      -1.208 -11.412  14.499  1.00  0.00    -0.365 N 
ATOM      9  H22 UNL     1      -1.370 -11.451  15.505  1.00  0.00     0.159 HD
ATOM     10  H21 UNL     1      -1.800 -10.849  13.887  1.00  0.00     0.159 HD
BRANCH   7  11
HETATM   11  O2  UNL     1      -0.002 -12.054  12.678  1.00  0.00    -0.318 OA
BRANCH  11  12
HETATM   12  C6  UNL     1       1.245 -11.624  12.213  1.00  0.00     0.123 C 
HETATM   13  C7  UNL     1       1.557 -10.232  12.713  1.00  0.00     0.040 C 
HETATM   14  C8  UNL     1       1.415 -11.750  10.723  1.00  0.00     0.040 C 
ENDBRANCH  11  12
ENDBRANCH   7  11
ENDBRANCH   4   7
BRANCH   1  15
HETATM   15  O1  UNL     1       1.832 -14.387  18.120  1.00  0.00    -0.391 OA
HETATM   16  C1  UNL     1       1.847 -15.677  18.645  1.00  0.00     0.202 C 
ENDBRANCH   1  15
TORSDOF 4
ENDMDL
MODEL 2
REMARK VINA RESULT: -5.385751774      1.469      5.473
REMARK  4 active torsions:
REMARK  status: ('A' for Active; 'I' for Inactive)
REMARK    1  A    between atoms: O1_2  and  C2_3 
REMARK    2  A    between atoms: N1_6  and  C5_7 
REMARK    3  A    between atoms: C5_7  and  O2_11 
REMARK    4  A    between atoms: O2_11  and  C6_12 
ROOT
HETATM    1  C2  UNL     1       0.265 -11.011  12.959  1.00  0.00     0.123 C 
HETATM    2  C3  UNL     1      -0.522 -11.543  14.139  1.00  0.00     0.052 C 
HETATM    3  C4  UNL     1       0.164 -11.103  15.413  1.00  0.00     0.129 C 
HETATM    4  N1  UNL     1       1.449 -11.800  15.466  1.00  0.00    -0.347 N 
HETATM    5  C9  UNL     1       2.134 -11.972  14.201  1.00  0.00     0.129 C 
HETATM    6  C10 UNL     1       1.732 -10.773  13.337  1.00  0.00     0.052 C 
ENDROOT
BRANCH   4   7
HETATM    7  C5  UNL     1       2.007 -12.286  16.675  1.00  0.00     0.215 C 
HETATM    8  N2  UNL     1       3.064 -11.768  17.198  1.00  0.00    -0.365 N 
ATOM      9  H22 UNL     1       3.484 -10.985  16.698  1.00  0.00     0.159 HD
ATOM     10  H21 UNL     1       3.466 -12.118  18.068  1.00  0.00     0.159 HD
BRANCH   7  11
HETATM   11  O2  UNL     1       1.436 -13.352  17.355  1.00  0.00    -0.318 OA
BRANCH  11  12
HETATM   12  C6  UNL     1       2.075 -14.595  17.314  1.00  0.00     0.123 C 
HETATM   13  C7  UNL     1       1.653 -15.379  16.092  1.00  0.00     0.040 C 
HETATM   14  C8  UNL     1       1.935 -15.392  18.583  1.00  0.00     0.040 C 
ENDBRANCH  11  12
ENDBRANCH   7  11
ENDBRANCH   4   7
BRANCH   1  15
HETATM   15  O1  UNL     1       0.183 -11.934  11.925  1.00  0.00    -0.391 OA
HETATM   16  C1  UNL     1       0.817 -11.387  10.813  1.00  0.00     0.202 C 
ENDBRANCH   1  15
TORSDOF 4
ENDMDL
MODEL 3
REMARK VINA RESULT: -5.223883229      0.666      1.133
REMARK  4 active torsions:
REMARK  status: ('A' for Active; 'I' for Inactive)
REMARK    1  A    between atoms: O1_2  and  C2_3 
REMARK    2  A    between atoms: N1_6  and  C5_7 
REMARK    3  A    between atoms: C5_7  and  O2_11 
REMARK    4  A    between atoms: O2_11  and  C6_12 
ROOT
HETATM    1  C2  UNL     1       2.284 -14.575  16.893  1.00  0.00     0.123 C 
HETATM    2  C3  UNL     1       1.209 -15.162  16.000  1.00  0.00     0.052 C 
HETATM    3  C4  UNL     1       1.374 -14.592  14.610  1.00  0.00     0.129 C 
HETATM    4  N1  UNL     1       1.060 -13.167  14.696  1.00  0.00    -0.347 N 
HETATM    5  C9  UNL     1       1.495 -12.488  15.900  1.00  0.00     0.129 C 
HETATM    6  C10 UNL     1       2.760 -13.218  16.361  1.00  0.00     0.052 C 
ENDROOT
BRANCH   4   7
HETATM    7  C5  UNL     1       0.370 -12.471  13.671  1.00  0.00     0.215 C 
HETATM    8  N2  UNL     1      -0.850 -12.082  13.809  1.00  0.00    -0.365 N 
ATOM      9  H22 UNL     1      -1.301 -12.299  14.698  1.00  0.00     0.159 HD
ATOM     10  H21 UNL     1      -1.346 -11.581  13.071  1.00  0.00     0.159 HD
BRANCH   7  11
HETATM   11  O2  UNL     1       0.983 -12.175  12.462  1.00  0.00    -0.318 OA
BRANCH  11  12
HETATM   12  C6  UNL     1       0.716 -10.943  11.857  1.00  0.00     0.123 C 
HETATM   13  C7  UNL     1       0.651 -11.083  10.353  1.00  0.00     0.040 C 
HETATM   14  C8  UNL     1       1.643  -9.839  12.291  1.00  0.00     0.040 C 
ENDBRANCH  11  12
ENDBRANCH   7  11
ENDBRANCH   4   7
BRANCH   1  15
HETATM   15  O1  UNL     1       1.761 -14.429  18.171  1.00  0.00    -0.391 OA
HETATM   16  C1  UNL     1       1.780 -15.677  18.786  1.00  0.00     0.202 C 
ENDBRANCH   1  15
TORSDOF 4
ENDMDL
MODEL 4
REMARK VINA RESULT: -5.151495864      1.412      1.576
REMARK  4 active torsions:
REMARK  status: ('A' for Active; 'I' for Inactive)
REMARK    1  A    between atoms: O1_2  and  C2_3 
REMARK    2  A    between atoms: N1_6  and  C5_7 
REMARK    3  A    between atoms: C5_7  and  O2_11 
REMARK    4  A    between atoms: O2_11  and  C6_12 
ROOT
HETATM    1  C2  UNL     1       1.826 -15.426  16.771  1.00  0.00     0.123 C 
HETATM    2  C3  UNL     1       0.753 -15.527  15.707  1.00  0.00     0.052 C 
HETATM    3  C4  UNL     1       1.087 -14.562  14.593  1.00  0.00     0.129 C 
HETATM    4  N1  UNL     1       0.951 -13.214  15.144  1.00  0.00    -0.347 N 
HETATM    5  C9  UNL     1       1.381 -13.039  16.516  1.00  0.00     0.129 C 
HETATM    6  C10 UNL     1       2.508 -14.053  16.737  1.00  0.00     0.052 C 
ENDROOT
BRANCH   4   7
HETATM    7  C5  UNL     1       0.430 -12.129  14.395  1.00  0.00     0.215 C 
HETATM    8  N2  UNL     1      -0.594 -12.258  13.624  1.00  0.00    -0.365 N 
ATOM      9  H22 UNL     1      -1.016 -13.185  13.577  1.00  0.00     0.159 HD
ATOM     10  H21 UNL     1      -0.969 -11.477  13.085  1.00  0.00     0.159 HD
BRANCH   7  11
HETATM   11  O2  UNL     1       1.004 -10.868  14.458  1.00  0.00    -0.318 OA
BRANCH  11  12
HETATM   12  C6  UNL     1       2.166 -10.620  13.720  1.00  0.00     0.123 C 
HETATM   13  C7  UNL     1       3.361 -10.464  14.632  1.00  0.00     0.040 C 
HETATM   14  C8  UNL     1       2.035  -9.481  12.745  1.00  0.00     0.040 C 
ENDBRANCH  11  12
ENDBRANCH   7  11
ENDBRANCH   4   7
BRANCH   1  15
HETATM   15  O1  UNL     1       1.236 -15.635  18.011  1.00  0.00    -0.391 OA
HETATM   16  C1  UNL     1       2.202 -15.407  18.987  1.00  0.00     0.202 C 
ENDBRANCH   1  15
TORSDOF 4
ENDMDL
MODEL 5
REMARK VINA RESULT: -5.133557031      1.659      2.127
REMARK  4 active torsions:
REMARK  status: ('A' for Active; 'I' for Inactive)
REMARK    1  A    between atoms: O1_2  and  C2_3 
REMARK    2  A    between atoms: N1_6  and  C5_7 
REMARK    3  A    between atoms: C5_7  and  O2_11 
REMARK    4  A    between atoms: O2_11  and  C6_12 
ROOT
HETATM    1  C2  UNL     1       2.168 -14.503  16.883  1.00  0.00     0.123 C 
HETATM    2  C3  UNL     1       0.999 -14.988  16.050  1.00  0.00     0.052 C 
HETATM    3  C4  UNL     1       1.036 -14.285  14.713  1.00  0.00     0.129 C 
HETATM    4  N1  UNL     1       0.760 -12.872  14.969  1.00  0.00    -0.347 N 
HETATM    5  C9  UNL     1       1.326 -12.320  16.184  1.00  0.00     0.129 C 
HETATM    6  C10 UNL     1       2.616 -13.105  16.441  1.00  0.00     0.052 C 
ENDROOT
BRANCH   4   7
HETATM    7  C5  UNL     1      -0.015 -12.071  14.092  1.00  0.00     0.215 C 
HETATM    8  N2  UNL     1       0.227 -12.009  12.828  1.00  0.00    -0.365 N 
ATOM      9  H22 UNL     1       1.008 -12.567  12.485  1.00  0.00     0.159 HD
ATOM     10  H21 UNL     1      -0.330 -11.432  12.197  1.00  0.00     0.159 HD
BRANCH   7  11
HETATM   11  O2  UNL     1      -1.077 -11.310  14.558  1.00  0.00    -0.318 OA
BRANCH  11  12
HETATM   12  C6  UNL     1      -1.462 -10.177  13.835  1.00  0.00     0.123 C 
HETATM   13  C7  UNL     1      -1.067  -8.912  14.562  1.00  0.00     0.040 C 
HETATM   14  C8  UNL     1      -2.911 -10.179  13.429  1.00  0.00     0.040 C 
ENDBRANCH  11  12
ENDBRANCH   7  11
ENDBRANCH   4   7
BRANCH   1  15
HETATM   15  O1  UNL     1       1.777 -14.479  18.216  1.00  0.00    -0.391 OA
HETATM   16  C1  UNL     1       1.769 -15.791  18.682  1.00  0.00     0.202 C 
ENDBRANCH   1  15
TORSDOF 4
ENDMDL
