MODEL 1
REMARK VINA RESULT: -5.860368590      0.000      0.000
REMARK  2 active torsions:
REMARK  status: ('A' for Active; 'I' for Inactive)
REMARK    1  A    between atoms: C3_4  and  N1_5 
REMARK    2  A    between atoms: N1_5  and  C4_7 
ROOT
HETATM    1  C4  UNL     1       0.192 -11.838  13.930  1.00  0.00     0.218 C 
HETATM    2  C5  UNL     1      -0.798 -10.998  14.699  1.00  0.00     0.065 C 
HETATM    3  C6  UNL     1      -1.522 -10.191  13.663  1.00  0.00    -0.015 C 
HETATM    4  C7  UNL     1      -3.005 -10.433  13.589  1.00  0.00     0.012 C 
HETATM    5  C8  UNL     1      -3.174  -8.940  13.348  1.00  0.00     0.002 C 
HETATM    6  C9  UNL     1      -1.782  -8.756  13.949  1.00  0.00     0.012 C 
HETATM    7  C10 UNL     1      -0.723 -10.443  12.423  1.00  0.00     0.180 C 
HETATM    8  O2  UNL     1      -0.091 -11.662  12.579  1.00  0.00    -0.366 OA
ENDROOT
BRANCH   1   9
HETATM    9  N1  UNL     1      -0.053 -13.226  14.239  1.00  0.00    -0.371 N 
ATOM     10  H1  UNL     1      -0.741 -13.786  13.734  1.00  0.00     0.158 HD
BRANCH   9  11
HETATM   11  C3  UNL     1       0.722 -13.750  15.281  1.00  0.00     0.218 C 
HETATM   12  O1  UNL     1       2.078 -13.625  15.253  1.00  0.00    -0.367 OA
HETATM   13  C2  UNL     1       2.421 -14.191  16.506  1.00  0.00     0.170 C 
HETATM   14  C1  UNL     1       1.509 -15.403  16.682  1.00  0.00     0.030 C 
HETATM   15  C11 UNL     1       0.568 -15.240  15.506  1.00  0.00     0.055 C 
ENDBRANCH   9  11
ENDBRANCH   1   9
TORSDOF 2
ENDMDL
MODEL 2
REMARK VINA RESULT: -5.812632608      0.745      1.037
REMARK  2 active torsions:
REMARK  status: ('A' for Active; 'I' for Inactive)
REMARK    1  A    between atoms: C3_4  and  N1_5 
REMARK    2  A    between atoms: N1_5  and  C4_7 
ROOT
HETATM    1  C4  UNL     1       0.075 -11.879  13.938  1.00  0.00     0.218 C 
HETATM    2  C5  UNL     1      -0.904 -10.989  14.664  1.00  0.00     0.065 C 
HETATM    3  C6  UNL     1      -1.530 -10.137  13.600  1.00  0.00    -0.015 C 
HETATM    4  C7  UNL     1      -3.018 -10.295  13.451  1.00  0.00     0.012 C 
HETATM    5  C8  UNL     1      -3.092  -8.794  13.214  1.00  0.00     0.002 C 
HETATM    6  C9  UNL     1      -1.723  -8.691  13.884  1.00  0.00     0.012 C 
HETATM    7  C10 UNL     1      -0.685 -10.427  12.399  1.00  0.00     0.180 C 
HETATM    8  O2  UNL     1      -0.130 -11.681  12.576  1.00  0.00    -0.366 OA
ENDROOT
BRANCH   1   9
HETATM    9  N1  UNL     1      -0.262 -13.252  14.223  1.00  0.00    -0.371 N 
ATOM     10  H1  UNL     1      -1.148 -13.670  13.937  1.00  0.00     0.158 HD
BRANCH   9  11
HETATM   11  C3  UNL     1       0.716 -13.972  14.922  1.00  0.00     0.218 C 
HETATM   12  O1  UNL     1       0.414 -15.184  15.465  1.00  0.00    -0.367 OA
HETATM   13  C2  UNL     1       1.680 -15.571  15.968  1.00  0.00     0.170 C 
HETATM   14  C1  UNL     1       2.299 -14.308  16.564  1.00  0.00     0.030 C 
HETATM   15  C11 UNL     1       1.308 -13.253  16.116  1.00  0.00     0.055 C 
ENDBRANCH   9  11
ENDBRANCH   1   9
TORSDOF 2
ENDMDL
MODEL 3
REMARK VINA RESULT: -5.506384862      2.363      3.297
REMARK  2 active torsions:
REMARK  status: ('A' for Active; 'I' for Inactive)
REMARK    1  A    between atoms: C3_4  and  N1_5 
REMARK    2  A    between atoms: N1_5  and  C4_7 
ROOT
HETATM    1  C4  UNL     1       0.149 -12.294  14.227  1.00  0.00     0.218 C 
HETATM    2  C5  UNL     1       1.353 -11.801  13.464  1.00  0.00     0.065 C 
HETATM    3  C6  UNL     1       1.970 -10.747  14.333  1.00  0.00    -0.015 C 
HETATM    4  C7  UNL     1       3.376 -11.034  14.783  1.00  0.00     0.012 C 
HETATM    5  C8  UNL     1       3.674  -9.555  14.590  1.00  0.00     0.002 C 
HETATM    6  C9  UNL     1       2.445  -9.495  13.686  1.00  0.00     0.012 C 
HETATM    7  C10 UNL     1       0.937 -10.543  15.397  1.00  0.00     0.180 C 
HETATM    8  O2  UNL     1       0.203 -11.711  15.490  1.00  0.00    -0.366 OA
ENDROOT
BRANCH   1   9
HETATM    9  N1  UNL     1       0.279 -13.719  14.411  1.00  0.00    -0.371 N 
ATOM     10  H1  UNL     1      -0.073 -14.394  13.732  1.00  0.00     0.158 HD
BRANCH   9  11
HETATM   11  C3  UNL     1       0.924 -14.110  15.592  1.00  0.00     0.218 C 
HETATM   12  O1  UNL     1       2.282 -14.061  15.676  1.00  0.00    -0.367 OA
HETATM   13  C2  UNL     1       2.476 -14.438  17.028  1.00  0.00     0.170 C 
HETATM   14  C1  UNL     1       1.474 -15.557  17.300  1.00  0.00     0.030 C 
HETATM   15  C11 UNL     1       0.652 -15.535  16.027  1.00  0.00     0.055 C 
ENDBRANCH   9  11
ENDBRANCH   1   9
TORSDOF 2
ENDMDL
MODEL 4
REMARK VINA RESULT: -5.405044949      1.431      1.875
REMARK  2 active torsions:
REMARK  status: ('A' for Active; 'I' for Inactive)
REMARK    1  A    between atoms: C3_4  and  N1_5 
REMARK    2  A    between atoms: N1_5  and  C4_7 
ROOT
HETATM    1  C4  UNL     1       0.793 -11.656  12.960  1.00  0.00     0.218 C 
HETATM    2  C5  UNL     1       1.085 -10.646  14.040  1.00  0.00     0.065 C 
HETATM    3  C6  UNL     1      -0.240 -10.352  14.678  1.00  0.00    -0.015 C 
HETATM    4  C7  UNL     1      -0.333 -10.694  16.140  1.00  0.00     0.012 C 
HETATM    5  C8  UNL     1      -1.155  -9.426  16.320  1.00  0.00     0.002 C 
HETATM    6  C9  UNL     1      -0.564  -8.937  14.999  1.00  0.00     0.012 C 
HETATM    7  C10 UNL     1      -1.211 -11.017  13.755  1.00  0.00     0.180 C 
HETATM    8  O2  UNL     1      -0.537 -12.039  13.111  1.00  0.00    -0.366 OA
ENDROOT
BRANCH   1   9
HETATM    9  N1  UNL     1       1.602 -12.827  13.200  1.00  0.00    -0.371 N 
ATOM     10  H1  UNL     1       2.096 -13.314  12.452  1.00  0.00     0.158 HD
BRANCH   9  11
HETATM   11  C3  UNL     1       1.659 -13.247  14.535  1.00  0.00     0.218 C 
HETATM   12  O1  UNL     1       2.839 -13.212  15.212  1.00  0.00    -0.367 OA
HETATM   13  C2  UNL     1       2.417 -13.617  16.502  1.00  0.00     0.170 C 
HETATM   14  C1  UNL     1       1.398 -14.732  16.279  1.00  0.00     0.030 C 
HETATM   15  C11 UNL     1       1.223 -14.677  14.775  1.00  0.00     0.055 C 
ENDBRANCH   9  11
ENDBRANCH   1   9
TORSDOF 2
ENDMDL
MODEL 5
REMARK VINA RESULT: -5.320488183      2.437      3.276
REMARK  2 active torsions:
REMARK  status: ('A' for Active; 'I' for Inactive)
REMARK    1  A    between atoms: C3_4  and  N1_5 
REMARK    2  A    between atoms: N1_5  and  C4_7 
ROOT
HETATM    1  C4  UNL     1       1.736 -12.947  15.296  1.00  0.00     0.218 C 
HETATM    2  C5  UNL     1       0.724 -12.469  14.285  1.00  0.00     0.065 C 
HETATM    3  C6  UNL     1       1.447 -11.458  13.446  1.00  0.00    -0.015 C 
HETATM    4  C7  UNL     1       1.551 -11.801  11.985  1.00  0.00     0.012 C 
HETATM    5  C8  UNL     1       1.325 -10.326  11.687  1.00  0.00     0.002 C 
HETATM    6  C9  UNL     1       0.733 -10.204  13.090  1.00  0.00     0.012 C 
HETATM    7  C10 UNL     1       2.726 -11.253  14.196  1.00  0.00     0.180 C 
HETATM    8  O2  UNL     1       2.963 -12.401  14.930  1.00  0.00    -0.366 OA
ENDROOT
BRANCH   1   9
HETATM    9  N1  UNL     1       1.856 -14.380  15.178  1.00  0.00    -0.371 N 
ATOM     10  H1  UNL     1       1.925 -14.851  14.275  1.00  0.00     0.158 HD
BRANCH   9  11
HETATM   11  C3  UNL     1       1.871 -15.078  16.392  1.00  0.00     0.218 C 
HETATM   12  O1  UNL     1       0.820 -15.873  16.735  1.00  0.00    -0.367 OA
HETATM   13  C2  UNL     1       1.296 -16.432  17.947  1.00  0.00     0.170 C 
HETATM   14  C1  UNL     1       2.003 -15.297  18.683  1.00  0.00     0.030 C 
HETATM   15  C11 UNL     1       2.000 -14.211  17.627  1.00  0.00     0.055 C 
ENDBRANCH   9  11
ENDBRANCH   1   9
TORSDOF 2
ENDMDL
