MODEL 1
REMARK VINA RESULT: -5.518307855      0.000      0.000
REMARK  2 active torsions:
REMARK  status: ('A' for Active; 'I' for Inactive)
REMARK    1  A    between atoms: C7_8  and  C9_10 
REMARK    2  A    between atoms: C9_10  and  C10_11 
ROOT
HETATM    1  C1  UNL     1       3.888 -11.064  15.869  1.00  0.00     0.045 C 
HETATM    2  C2  UNL     1       2.448 -11.453  16.098  1.00  0.00     0.056 C 
HETATM    3  C3  UNL     1       2.119 -11.133  17.547  1.00  0.00     0.045 C 
HETATM    4  C4  UNL     1       1.493 -10.646  15.248  1.00  0.00     0.059 C 
HETATM    5  C5  UNL     1       0.398 -11.706  15.103  1.00  0.00     0.130 C 
HETATM    6  C6  UNL     1      -0.505 -11.440  14.029  1.00  0.00     0.067 C 
HETATM    7  N1  UNL     1      -1.234 -11.241  13.159  1.00  0.00    -0.197 NA
HETATM    8  C7  UNL     1       1.261 -12.927  14.890  1.00  0.00     0.084 C 
HETATM    9  C8  UNL     1       1.718 -12.996  13.465  1.00  0.00     0.048 C 
HETATM   10  O3  UNL     1       2.299 -12.775  15.791  1.00  0.00    -0.368 OA
ENDROOT
BRANCH   8  11
HETATM   11  C9  UNL     1       0.528 -14.199  15.253  1.00  0.00     0.152 C 
BRANCH  11  12
HETATM   12  C10 UNL     1       1.335 -15.011  16.189  1.00  0.00     0.175 C 
HETATM   13  O1  UNL     1       1.976 -15.992  15.735  1.00  0.00    -0.648 OA
HETATM   14  O2  UNL     1       1.404 -14.724  17.544  1.00  0.00    -0.648 OA
ENDBRANCH  11  12
ENDBRANCH   8  11
TORSDOF 2
ENDMDL
MODEL 2
REMARK VINA RESULT: -5.428213544      1.411      1.763
REMARK  2 active torsions:
REMARK  status: ('A' for Active; 'I' for Inactive)
REMARK    1  A    between atoms: C7_8  and  C9_10 
REMARK    2  A    between atoms: C9_10  and  C10_11 
ROOT
HETATM    1  C1  UNL     1       1.763  -9.983  17.455  1.00  0.00     0.045 C 
HETATM    2  C2  UNL     1       0.858 -10.726  16.503  1.00  0.00     0.056 C 
HETATM    3  C3  UNL     1      -0.560 -10.239  16.755  1.00  0.00     0.045 C 
HETATM    4  C4  UNL     1       1.171 -10.420  15.056  1.00  0.00     0.059 C 
HETATM    5  C5  UNL     1       0.738 -11.762  14.462  1.00  0.00     0.130 C 
HETATM    6  C6  UNL     1       1.255 -11.990  13.149  1.00  0.00     0.067 C 
HETATM    7  N1  UNL     1       1.675 -12.190  12.095  1.00  0.00    -0.197 NA
HETATM    8  C7  UNL     1       1.299 -12.691  15.511  1.00  0.00     0.084 C 
HETATM    9  C8  UNL     1       2.766 -12.900  15.287  1.00  0.00     0.048 C 
HETATM   10  O3  UNL     1       1.013 -12.066  16.711  1.00  0.00    -0.368 OA
ENDROOT
BRANCH   8  11
HETATM   11  C9  UNL     1       0.589 -14.026  15.514  1.00  0.00     0.152 C 
BRANCH  11  12
HETATM   12  C10 UNL     1       1.381 -15.032  16.252  1.00  0.00     0.175 C 
HETATM   13  O1  UNL     1       1.872 -15.996  15.613  1.00  0.00    -0.648 OA
HETATM   14  O2  UNL     1       1.597 -14.944  17.619  1.00  0.00    -0.648 OA
ENDBRANCH  11  12
ENDBRANCH   8  11
TORSDOF 2
ENDMDL
MODEL 3
REMARK VINA RESULT: -5.311432457      2.118      3.307
REMARK  2 active torsions:
REMARK  status: ('A' for Active; 'I' for Inactive)
REMARK    1  A    between atoms: C7_8  and  C9_10 
REMARK    2  A    between atoms: C9_10  and  C10_11 
ROOT
HETATM    1  C1  UNL     1      -1.345 -10.542  14.951  1.00  0.00     0.045 C 
HETATM    2  C2  UNL     1      -0.171 -11.116  14.197  1.00  0.00     0.056 C 
HETATM    3  C3  UNL     1      -0.414 -10.855  12.718  1.00  0.00     0.045 C 
HETATM    4  C4  UNL     1       1.129 -10.432  14.550  1.00  0.00     0.059 C 
HETATM    5  C5  UNL     1       2.061 -11.623  14.315  1.00  0.00     0.130 C 
HETATM    6  C6  UNL     1       3.343 -11.466  14.927  1.00  0.00     0.067 C 
HETATM    7  N1  UNL     1       4.375 -11.355  15.425  1.00  0.00    -0.197 NA
HETATM    8  C7  UNL     1       1.221 -12.720  14.924  1.00  0.00     0.084 C 
HETATM    9  C8  UNL     1       1.366 -12.716  16.415  1.00  0.00     0.048 C 
HETATM   10  O3  UNL     1      -0.065 -12.444  14.499  1.00  0.00    -0.368 OA
ENDROOT
BRANCH   8  11
HETATM   11  C9  UNL     1       1.597 -14.080  14.379  1.00  0.00     0.152 C 
BRANCH  11  12
HETATM   12  C10 UNL     1       1.122 -15.148  15.283  1.00  0.00     0.175 C 
HETATM   13  O1  UNL     1      -0.111 -15.379  15.346  1.00  0.00    -0.648 OA
HETATM   14  O2  UNL     1       1.992 -15.898  16.061  1.00  0.00    -0.648 OA
ENDBRANCH  11  12
ENDBRANCH   8  11
TORSDOF 2
ENDMDL
MODEL 4
REMARK VINA RESULT: -5.214494821      2.183      3.407
REMARK  2 active torsions:
REMARK  status: ('A' for Active; 'I' for Inactive)
REMARK    1  A    between atoms: C7_8  and  C9_10 
REMARK    2  A    between atoms: C9_10  and  C10_11 
ROOT
HETATM    1  C1  UNL     1      -0.962 -10.413  15.594  1.00  0.00     0.045 C 
HETATM    2  C2  UNL     1       0.091 -11.275  14.944  1.00  0.00     0.056 C 
HETATM    3  C3  UNL     1      -0.407 -11.623  13.550  1.00  0.00     0.045 C 
HETATM    4  C4  UNL     1       1.403 -10.545  14.766  1.00  0.00     0.059 C 
HETATM    5  C5  UNL     1       2.331 -11.758  14.872  1.00  0.00     0.130 C 
HETATM    6  C6  UNL     1       3.690 -11.405  15.141  1.00  0.00     0.067 C 
HETATM    7  N1  UNL     1       4.786 -11.134  15.369  1.00  0.00    -0.197 NA
HETATM    8  C7  UNL     1       1.653 -12.493  16.003  1.00  0.00     0.084 C 
HETATM    9  C8  UNL     1       2.046 -11.894  17.319  1.00  0.00     0.048 C 
HETATM   10  O3  UNL     1       0.303 -12.372  15.729  1.00  0.00    -0.368 OA
ENDROOT
BRANCH   8  11
HETATM   11  C9  UNL     1       1.989 -13.967  15.992  1.00  0.00     0.152 C 
BRANCH  11  12
HETATM   12  C10 UNL     1       1.098 -14.693  15.063  1.00  0.00     0.175 C 
HETATM   13  O1  UNL     1       0.104 -15.301  15.535  1.00  0.00    -0.648 OA
HETATM   14  O2  UNL     1       1.324 -14.724  13.695  1.00  0.00    -0.648 OA
ENDBRANCH  11  12
ENDBRANCH   8  11
TORSDOF 2
ENDMDL
MODEL 5
REMARK VINA RESULT: -5.117772484      2.310      3.594
REMARK  2 active torsions:
REMARK  status: ('A' for Active; 'I' for Inactive)
REMARK    1  A    between atoms: C7_8  and  C9_10 
REMARK    2  A    between atoms: C9_10  and  C10_11 
ROOT
HETATM    1  C1  UNL     1      -0.436 -10.790  12.969  1.00  0.00     0.045 C 
HETATM    2  C2  UNL     1       0.894 -11.470  13.183  1.00  0.00     0.056 C 
HETATM    3  C3  UNL     1       1.451 -11.814  11.811  1.00  0.00     0.045 C 
HETATM    4  C4  UNL     1       1.903 -10.561  13.846  1.00  0.00     0.059 C 
HETATM    5  C5  UNL     1       2.704 -11.640  14.579  1.00  0.00     0.130 C 
HETATM    6  C6  UNL     1       3.515 -11.120  15.635  1.00  0.00     0.067 C 
HETATM    7  N1  UNL     1       4.165 -10.714  16.495  1.00  0.00    -0.197 NA
HETATM    8  C7  UNL     1       1.568 -12.514  15.053  1.00  0.00     0.084 C 
HETATM    9  C8  UNL     1       0.946 -11.932  16.286  1.00  0.00     0.048 C 
HETATM   10  O3  UNL     1       0.702 -12.564  13.976  1.00  0.00    -0.368 OA
ENDROOT
BRANCH   8  11
HETATM   11  C9  UNL     1       2.028 -13.927  15.332  1.00  0.00     0.152 C 
BRANCH  11  12
HETATM   12  C10 UNL     1       1.098 -14.902  14.725  1.00  0.00     0.175 C 
HETATM   13  O1  UNL     1       0.076 -15.243  15.373  1.00  0.00    -0.648 OA
HETATM   14  O2  UNL     1       1.319 -15.450  13.470  1.00  0.00    -0.648 OA
ENDBRANCH  11  12
ENDBRANCH   8  11
TORSDOF 2
ENDMDL
