MODEL 1
REMARK VINA RESULT: -5.125224563      0.000      0.000
REMARK  3 active torsions:
REMARK  status: ('A' for Active; 'I' for Inactive)
REMARK    1  A    between atoms: N1_2  and  C3_4 
REMARK    2  A    between atoms: C9_10  and  O1_11 
REMARK    3  A    between atoms: O1_11  and  C10_12 
ROOT
HETATM    1  C3  UNL     1       1.125 -12.518  16.003  1.00  0.00     0.251 C 
HETATM    2  C4  UNL     1       2.198 -12.835  16.982  1.00  0.00     0.038 C 
HETATM    3  C5  UNL     1       2.462 -14.263  17.238  1.00  0.00     0.002 C 
HETATM    4  C6  UNL     1       1.397 -15.221  16.848  1.00  0.00     0.000 C 
HETATM    5  C7  UNL     1       1.535 -15.480  15.352  1.00  0.00     0.002 C 
HETATM    6  C8  UNL     1       0.535 -14.556  14.679  1.00  0.00     0.035 C 
HETATM    7  C9  UNL     1       1.225 -13.174  14.673  1.00  0.00     0.166 C 
ENDROOT
BRANCH   7   8
HETATM    8  O1  UNL     1       0.660 -12.445  13.612  1.00  0.00    -0.299 OA
BRANCH   8   9
HETATM    9  C10 UNL     1       1.466 -11.968  12.583  1.00  0.00     0.373 C 
HETATM   10  N2  UNL     1       1.754 -12.733  11.432  1.00  0.00    -0.032 NA
HETATM   11  O2  UNL     1       1.941 -10.823  12.702  1.00  0.00    -0.242 OA
ENDBRANCH   8   9
ENDBRANCH   7   8
BRANCH   1  12
HETATM   12  N1  UNL     1       1.050 -11.075  15.840  1.00  0.00     0.087 N 
HETATM   13  C1  UNL     1      -0.171 -10.630  16.526  1.00  0.00     0.310 C 
HETATM   14  C2  UNL     1       2.136 -10.366  16.492  1.00  0.00     0.310 C 
ENDBRANCH   1  12
TORSDOF 3
ENDMDL
MODEL 2
REMARK VINA RESULT: -4.909182647      2.297      3.928
REMARK  3 active torsions:
REMARK  status: ('A' for Active; 'I' for Inactive)
REMARK    1  A    between atoms: N1_2  and  C3_4 
REMARK    2  A    between atoms: C9_10  and  O1_11 
REMARK    3  A    between atoms: O1_11  and  C10_12 
ROOT
HETATM    1  C3  UNL     1       1.018 -11.100  15.165  1.00  0.00     0.251 C 
HETATM    2  C4  UNL     1       1.498 -10.256  14.039  1.00  0.00     0.038 C 
HETATM    3  C5  UNL     1       2.929  -9.899  14.041  1.00  0.00     0.002 C 
HETATM    4  C6  UNL     1       3.652 -10.036  15.330  1.00  0.00     0.000 C 
HETATM    5  C7  UNL     1       4.034 -11.504  15.490  1.00  0.00     0.002 C 
HETATM    6  C8  UNL     1       2.959 -12.118  16.369  1.00  0.00     0.035 C 
HETATM    7  C9  UNL     1       1.768 -12.359  15.417  1.00  0.00     0.166 C 
ENDROOT
BRANCH   7   8
HETATM    8  O1  UNL     1       1.005 -13.396  15.980  1.00  0.00    -0.299 OA
BRANCH   8   9
HETATM    9  C10 UNL     1       0.984 -14.653  15.383  1.00  0.00     0.373 C 
HETATM   10  N2  UNL     1       1.829 -15.704  15.803  1.00  0.00    -0.032 NA
HETATM   11  O2  UNL     1       0.184 -14.837  14.446  1.00  0.00    -0.242 OA
ENDBRANCH   8   9
ENDBRANCH   7   8
BRANCH   1  12
HETATM   12  N1  UNL     1      -0.392 -11.394  14.963  1.00  0.00     0.087 N 
HETATM   13  C1  UNL     1      -1.147 -10.245  15.484  1.00  0.00     0.310 C 
HETATM   14  C2  UNL     1      -0.764 -11.494  13.564  1.00  0.00     0.310 C 
ENDBRANCH   1  12
TORSDOF 3
ENDMDL
MODEL 3
REMARK VINA RESULT: -4.845759916      2.200      3.874
REMARK  3 active torsions:
REMARK  status: ('A' for Active; 'I' for Inactive)
REMARK    1  A    between atoms: N1_2  and  C3_4 
REMARK    2  A    between atoms: C9_10  and  O1_11 
REMARK    3  A    between atoms: O1_11  and  C10_12 
ROOT
HETATM    1  C3  UNL     1       1.115 -11.336  14.628  1.00  0.00     0.251 C 
HETATM    2  C4  UNL     1       2.135 -10.424  14.045  1.00  0.00     0.038 C 
HETATM    3  C5  UNL     1       3.170  -9.913  14.961  1.00  0.00     0.002 C 
HETATM    4  C6  UNL     1       2.876  -9.992  16.415  1.00  0.00     0.000 C 
HETATM    5  C7  UNL     1       3.194 -11.412  16.872  1.00  0.00     0.002 C 
HETATM    6  C8  UNL     1       1.870 -12.155  16.867  1.00  0.00     0.035 C 
HETATM    7  C9  UNL     1       1.628 -12.508  15.384  1.00  0.00     0.166 C 
ENDROOT
BRANCH   7   8
HETATM    8  O1  UNL     1       0.785 -13.633  15.369  1.00  0.00    -0.299 OA
BRANCH   8   9
HETATM    9  C10 UNL     1       1.263 -14.861  14.920  1.00  0.00     0.373 C 
HETATM   10  N2  UNL     1       1.780 -15.838  15.799  1.00  0.00    -0.032 NA
HETATM   11  O2  UNL     1       1.224 -15.085  13.695  1.00  0.00    -0.242 OA
ENDBRANCH   8   9
ENDBRANCH   7   8
BRANCH   1  12
HETATM   12  N1  UNL     1       0.221 -11.778  13.570  1.00  0.00     0.087 N 
HETATM   13  C1  UNL     1      -1.056 -11.078  13.767  1.00  0.00     0.310 C 
HETATM   14  C2  UNL     1       0.667 -11.396  12.243  1.00  0.00     0.310 C 
ENDBRANCH   1  12
TORSDOF 3
ENDMDL
MODEL 4
REMARK VINA RESULT: -4.844825096      1.501      3.360
REMARK  3 active torsions:
REMARK  status: ('A' for Active; 'I' for Inactive)
REMARK    1  A    between atoms: N1_2  and  C3_4 
REMARK    2  A    between atoms: C9_10  and  O1_11 
REMARK    3  A    between atoms: O1_11  and  C10_12 
ROOT
HETATM    1  C3  UNL     1       2.083 -12.927  15.432  1.00  0.00     0.251 C 
HETATM    2  C4  UNL     1       1.422 -12.513  16.697  1.00  0.00     0.038 C 
HETATM    3  C5  UNL     1       1.587 -11.106  17.103  1.00  0.00     0.002 C 
HETATM    4  C6  UNL     1       2.705 -10.356  16.478  1.00  0.00     0.000 C 
HETATM    5  C7  UNL     1       2.237  -9.889  15.104  1.00  0.00     0.002 C 
HETATM    6  C8  UNL     1       2.766 -10.913  14.116  1.00  0.00     0.035 C 
HETATM    7  C9  UNL     1       1.790 -12.104  14.229  1.00  0.00     0.166 C 
ENDROOT
BRANCH   7   8
HETATM    8  O1  UNL     1       1.856 -12.799  13.009  1.00  0.00    -0.299 OA
BRANCH   8   9
HETATM    9  C10 UNL     1       1.230 -12.286  11.877  1.00  0.00     0.373 C 
HETATM   10  N2  UNL     1       1.792 -12.399  10.586  1.00  0.00    -0.032 NA
HETATM   11  O2  UNL     1       0.136 -11.711  12.029  1.00  0.00    -0.242 OA
ENDBRANCH   8   9
ENDBRANCH   7   8
BRANCH   1  12
HETATM   12  N1  UNL     1       1.763 -14.321  15.169  1.00  0.00     0.087 N 
HETATM   13  C1  UNL     1       2.111 -15.076  16.382  1.00  0.00     0.310 C 
HETATM   14  C2  UNL     1       0.345 -14.557  14.965  1.00  0.00     0.310 C 
ENDBRANCH   1  12
TORSDOF 3
ENDMDL
MODEL 5
REMARK VINA RESULT: -4.776035380      2.277      3.189
REMARK  3 active torsions:
REMARK  status: ('A' for Active; 'I' for Inactive)
REMARK    1  A    between atoms: N1_2  and  C3_4 
REMARK    2  A    between atoms: C9_10  and  O1_11 
REMARK    3  A    between atoms: O1_11  and  C10_12 
ROOT
HETATM    1  C3  UNL     1      -0.457 -10.966  13.998  1.00  0.00     0.251 C 
HETATM    2  C4  UNL     1      -0.097 -10.021  15.088  1.00  0.00     0.038 C 
HETATM    3  C5  UNL     1       0.918 -10.479  16.054  1.00  0.00     0.002 C 
HETATM    4  C6  UNL     1       1.171 -11.941  16.118  1.00  0.00     0.000 C 
HETATM    5  C7  UNL     1       2.119 -12.295  14.977  1.00  0.00     0.002 C 
HETATM    6  C8  UNL     1       1.238 -12.798  13.848  1.00  0.00     0.035 C 
HETATM    7  C9  UNL     1       0.668 -11.519  13.199  1.00  0.00     0.166 C 
ENDROOT
BRANCH   7   8
HETATM    8  O1  UNL     1       0.342 -11.849  11.872  1.00  0.00    -0.299 OA
BRANCH   8   9
HETATM    9  C10 UNL     1       1.284 -11.691  10.860  1.00  0.00     0.373 C 
HETATM   10  N2  UNL     1       1.891 -12.791  10.214  1.00  0.00    -0.032 NA
HETATM   11  O2  UNL     1       1.588 -10.531  10.526  1.00  0.00    -0.242 OA
ENDBRANCH   8   9
ENDBRANCH   7   8
BRANCH   1  12
HETATM   12  N1  UNL     1      -1.421 -10.323  13.119  1.00  0.00     0.087 N 
HETATM   13  C1  UNL     1      -2.740 -10.466  13.753  1.00  0.00     0.310 C 
HETATM   14  C2  UNL     1      -1.214  -8.893  12.986  1.00  0.00     0.310 C 
ENDBRANCH   1  12
TORSDOF 3
ENDMDL
