MODEL 1
REMARK VINA RESULT: -4.998551753      0.000      0.000
REMARK  3 active torsions:
REMARK  status: ('A' for Active; 'I' for Inactive)
REMARK    1  A    between atoms: S1_2  and  C2_3 
REMARK    2  A    between atoms: C9_13  and  N2_14 
REMARK    3  A    between atoms: N2_14  and  C10_16 
ROOT
HETATM    1  C2  UNL     1       0.665 -11.307  15.028  1.00  0.00     0.040 C 
HETATM    2  C3  UNL     1       0.621 -11.180  16.521  1.00  0.00     0.030 C 
HETATM    3  C4  UNL     1       0.313 -12.651  14.452  1.00  0.00     0.033 C 
HETATM    4  C5  UNL     1       0.731 -13.797  15.342  1.00  0.00     0.041 C 
HETATM    5  C6  UNL     1       2.223 -13.718  15.553  1.00  0.00     0.183 C 
HETATM    6  C7  UNL     1       2.485 -14.246  16.958  1.00  0.00     0.040 C 
HETATM    7  N1  UNL     1       2.733 -12.370  15.519  1.00  0.00    -0.064 N 
ATOM      8  H11 UNL     1       3.743 -12.366  15.373  1.00  0.00     0.278 HD
ATOM      9  H12 UNL     1       2.697 -11.944  16.445  1.00  0.00     0.278 HD
HETATM   10  C8  UNL     1       2.068 -11.543  14.544  1.00  0.00     0.227 C 
HETATM   11  C9  UNL     1       1.459 -12.433  13.467  1.00  0.00     0.121 C 
ENDROOT
BRANCH  11  12
HETATM   12  N2  UNL     1       1.069 -11.727  12.266  1.00  0.00    -0.361 N 
ATOM     13  H2  UNL     1       0.446 -10.920  12.303  1.00  0.00     0.162 HD
BRANCH  12  14
HETATM   14  C10 UNL     1       1.534 -12.153  11.169  1.00  0.00     0.348 C 
HETATM   15  O1  UNL     1       1.904 -12.810  10.186  1.00  0.00    -0.284 OA
ENDBRANCH  12  14
ENDBRANCH  11  12
BRANCH   1  16
HETATM   16  S1  UNL     1      -0.251  -9.990  14.231  1.00  0.00    -0.161 SA
HETATM   17  C1  UNL     1      -1.945 -10.590  13.927  1.00  0.00     0.090 C 
ENDBRANCH   1  16
TORSDOF 3
ENDMDL
MODEL 2
REMARK VINA RESULT: -4.891811299      0.926      1.244
REMARK  3 active torsions:
REMARK  status: ('A' for Active; 'I' for Inactive)
REMARK    1  A    between atoms: S1_2  and  C2_3 
REMARK    2  A    between atoms: C9_13  and  N2_14 
REMARK    3  A    between atoms: N2_14  and  C10_16 
ROOT
HETATM    1  C2  UNL     1       1.068 -11.311  15.191  1.00  0.00     0.040 C 
HETATM    2  C3  UNL     1       1.021 -11.325  16.689  1.00  0.00     0.030 C 
HETATM    3  C4  UNL     1       0.430 -12.475  14.484  1.00  0.00     0.033 C 
HETATM    4  C5  UNL     1       0.555 -13.768  15.253  1.00  0.00     0.041 C 
HETATM    5  C6  UNL     1       2.020 -14.057  15.469  1.00  0.00     0.183 C 
HETATM    6  C7  UNL     1       2.123 -14.766  16.813  1.00  0.00     0.040 C 
HETATM    7  N1  UNL     1       2.826 -12.866  15.570  1.00  0.00    -0.064 N 
ATOM      8  H11 UNL     1       3.813 -13.080  15.423  1.00  0.00     0.278 HD
ATOM      9  H12 UNL     1       2.869 -12.535  16.534  1.00  0.00     0.278 HD
HETATM   10  C8  UNL     1       2.389 -11.816  14.683  1.00  0.00     0.227 C 
HETATM   11  C9  UNL     1       1.616 -12.432  13.523  1.00  0.00     0.121 C 
ENDROOT
BRANCH  11  12
HETATM   12  N2  UNL     1       1.424 -11.541  12.400  1.00  0.00    -0.361 N 
ATOM     13  H2  UNL     1       1.131 -10.573  12.534  1.00  0.00     0.162 HD
BRANCH  12  14
HETATM   14  C10 UNL     1       1.637 -12.014  11.245  1.00  0.00     0.348 C 
HETATM   15  O1  UNL     1       1.794 -12.712  10.234  1.00  0.00    -0.284 OA
ENDBRANCH  12  14
ENDBRANCH  11  12
BRANCH   1  16
HETATM   16  S1  UNL     1       0.496  -9.748  14.531  1.00  0.00    -0.161 SA
HETATM   17  C1  UNL     1       1.895  -8.581  14.564  1.00  0.00     0.090 C 
ENDBRANCH   1  16
TORSDOF 3
ENDMDL
MODEL 3
REMARK VINA RESULT: -4.752743078      2.509      3.599
REMARK  3 active torsions:
REMARK  status: ('A' for Active; 'I' for Inactive)
REMARK    1  A    between atoms: S1_2  and  C2_3 
REMARK    2  A    between atoms: C9_13  and  N2_14 
REMARK    3  A    between atoms: N2_14  and  C10_16 
ROOT
HETATM    1  C2  UNL     1       1.649 -13.286  15.634  1.00  0.00     0.040 C 
HETATM    2  C3  UNL     1       2.680 -13.716  16.632  1.00  0.00     0.030 C 
HETATM    3  C4  UNL     1       2.116 -12.389  14.521  1.00  0.00     0.033 C 
HETATM    4  C5  UNL     1       3.219 -11.451  14.949  1.00  0.00     0.041 C 
HETATM    5  C6  UNL     1       2.713 -10.608  16.093  1.00  0.00     0.183 C 
HETATM    6  C7  UNL     1       3.916 -10.337  16.989  1.00  0.00     0.040 C 
HETATM    7  N1  UNL     1       1.736 -11.283  16.910  1.00  0.00    -0.064 N 
ATOM      8  H11 UNL     1       1.211 -10.616  17.477  1.00  0.00     0.278 HD
ATOM      9  H12 UNL     1       2.188 -11.814  17.655  1.00  0.00     0.278 HD
HETATM   10  C8  UNL     1       0.848 -12.122  16.145  1.00  0.00     0.227 C 
HETATM   11  C9  UNL     1       0.808 -11.622  14.705  1.00  0.00     0.121 C 
ENDROOT
BRANCH  11  12
HETATM   12  N2  UNL     1      -0.291 -12.150  13.927  1.00  0.00    -0.361 N 
ATOM     13  H2  UNL     1      -0.391 -13.151  13.758  1.00  0.00     0.162 HD
BRANCH  12  14
HETATM   14  C10 UNL     1      -1.124 -11.315  13.465  1.00  0.00     0.348 C 
HETATM   15  O1  UNL     1      -2.116 -10.640  13.158  1.00  0.00    -0.284 OA
ENDBRANCH  12  14
ENDBRANCH  11  12
BRANCH   1  16
HETATM   16  S1  UNL     1       0.723 -14.685  15.004  1.00  0.00    -0.161 SA
HETATM   17  C1  UNL     1       0.574 -15.908  16.348  1.00  0.00     0.090 C 
ENDBRANCH   1  16
TORSDOF 3
ENDMDL
MODEL 4
REMARK VINA RESULT: -4.671642575      2.621      4.199
REMARK  3 active torsions:
REMARK  status: ('A' for Active; 'I' for Inactive)
REMARK    1  A    between atoms: S1_2  and  C2_3 
REMARK    2  A    between atoms: C9_13  and  N2_14 
REMARK    3  A    between atoms: N2_14  and  C10_16 
ROOT
HETATM    1  C2  UNL     1       1.878 -10.988  14.871  1.00  0.00     0.040 C 
HETATM    2  C3  UNL     1       1.593  -9.553  14.549  1.00  0.00     0.030 C 
HETATM    3  C4  UNL     1       1.481 -12.006  13.837  1.00  0.00     0.033 C 
HETATM    4  C5  UNL     1       0.239 -11.613  13.075  1.00  0.00     0.041 C 
HETATM    5  C6  UNL     1      -0.890 -11.435  14.060  1.00  0.00     0.183 C 
HETATM    6  C7  UNL     1      -1.777 -10.331  13.499  1.00  0.00     0.040 C 
HETATM    7  N1  UNL     1      -0.449 -10.988  15.358  1.00  0.00    -0.064 N 
ATOM      8  H11 UNL     1      -1.166 -11.154  16.064  1.00  0.00     0.278 HD
ATOM      9  H12 UNL     1      -0.409  -9.969  15.398  1.00  0.00     0.278 HD
HETATM   10  C8  UNL     1       0.809 -11.570  15.754  1.00  0.00     0.227 C 
HETATM   11  C9  UNL     1       1.012 -12.879  15.000  1.00  0.00     0.121 C 
ENDROOT
BRANCH  11  12
HETATM   12  N2  UNL     1       2.050 -13.723  15.550  1.00  0.00    -0.361 N 
ATOM     13  H2  UNL     1       2.949 -13.340  15.840  1.00  0.00     0.162 HD
BRANCH  12  14
HETATM   14  C10 UNL     1       1.793 -14.959  15.656  1.00  0.00     0.348 C 
HETATM   15  O1  UNL     1       1.791 -16.197  15.663  1.00  0.00    -0.284 OA
ENDBRANCH  12  14
ENDBRANCH  11  12
BRANCH   1  16
HETATM   16  S1  UNL     1       3.573 -11.218  15.403  1.00  0.00    -0.161 SA
HETATM   17  C1  UNL     1       3.724 -10.557  17.094  1.00  0.00     0.090 C 
ENDBRANCH   1  16
TORSDOF 3
ENDMDL
MODEL 5
REMARK VINA RESULT: -4.651760470      2.583      4.228
REMARK  3 active torsions:
REMARK  status: ('A' for Active; 'I' for Inactive)
REMARK    1  A    between atoms: S1_2  and  C2_3 
REMARK    2  A    between atoms: C9_13  and  N2_14 
REMARK    3  A    between atoms: N2_14  and  C10_16 
ROOT
HETATM    1  C2  UNL     1       1.421 -10.915  15.635  1.00  0.00     0.040 C 
HETATM    2  C3  UNL     1       1.043  -9.505  15.295  1.00  0.00     0.030 C 
HETATM    3  C4  UNL     1       2.211 -11.672  14.603  1.00  0.00     0.033 C 
HETATM    4  C5  UNL     1       1.851 -11.283  13.189  1.00  0.00     0.041 C 
HETATM    5  C6  UNL     1       0.379 -11.544  12.981  1.00  0.00     0.183 C 
HETATM    6  C7  UNL     1      -0.111 -10.477  12.010  1.00  0.00     0.040 C 
HETATM    7  N1  UNL     1      -0.401 -11.393  14.184  1.00  0.00    -0.064 N 
ATOM      8  H11 UNL     1      -1.311 -11.846  14.088  1.00  0.00     0.278 HD
ATOM      9  H12 UNL     1      -0.708 -10.427  14.302  1.00  0.00     0.278 HD
HETATM   10  C8  UNL     1       0.287 -11.863  15.362  1.00  0.00     0.227 C 
HETATM   11  C9  UNL     1       1.344 -12.880  14.949  1.00  0.00     0.121 C 
ENDROOT
BRANCH  11  12
HETATM   12  N2  UNL     1       1.860 -13.674  16.043  1.00  0.00    -0.361 N 
ATOM     13  H2  UNL     1       2.236 -13.237  16.884  1.00  0.00     0.162 HD
BRANCH  12  14
HETATM   14  C10 UNL     1       1.824 -14.932  15.910  1.00  0.00     0.348 C 
HETATM   15  O1  UNL     1       1.840 -16.108  15.521  1.00  0.00    -0.284 OA
ENDBRANCH  12  14
ENDBRANCH  11  12
BRANCH   1  16
HETATM   16  S1  UNL     1       2.184 -11.019  17.252  1.00  0.00    -0.161 SA
HETATM   17  C1  UNL     1       3.919 -10.489  17.088  1.00  0.00     0.090 C 
ENDBRANCH   1  16
TORSDOF 3
ENDMDL
