MODEL 1
REMARK VINA RESULT: -4.686919346      0.000      0.000
REMARK  3 active torsions:
REMARK  status: ('A' for Active; 'I' for Inactive)
REMARK    1  A    between atoms: C3_3  and  C4_4 
REMARK    2  A    between atoms: C4_4  and  O1_5 
REMARK    3  A    between atoms: C4_4  and  C5_7 
ROOT
HETATM    1  C1  UNL     1       2.141 -15.271  18.305  1.00  0.00     0.112 C 
HETATM    2  C2  UNL     1       1.566 -14.780  17.048  1.00  0.00    -0.108 C 
HETATM    3  C3  UNL     1       1.075 -14.366  16.022  1.00  0.00    -0.075 C 
ENDROOT
BRANCH   3   4
HETATM    4  C4  UNL     1       0.453 -13.856  14.782  1.00  0.00     0.202 C 
BRANCH   4   5
HETATM    5  O1  UNL     1       0.252 -14.931  13.916  1.00  0.00    -0.383 OA
ATOM      6  H1  UNL     1       1.020 -15.019  13.364  1.00  0.00     0.211 HD
ENDBRANCH   4   5
BRANCH   4   7
HETATM    7  C5  UNL     1       1.354 -12.802  14.186  1.00  0.00     0.043 A 
HETATM    8  C6  UNL     1       0.872 -11.576  13.581  1.00  0.00    -0.033 A 
HETATM    9  C7  UNL     1      -0.613 -11.411  13.416  1.00  0.00     0.016 C 
HETATM   10  C8  UNL     1       1.678 -10.949  12.441  1.00  0.00     0.016 C 
HETATM   11  C9  UNL     1       1.474 -11.547  14.939  1.00  0.00    -0.033 A 
HETATM   12  C10 UNL     1       0.562 -11.200  16.072  1.00  0.00     0.016 C 
HETATM   13  C11 UNL     1       2.906 -11.042  15.123  1.00  0.00     0.016 C 
ENDBRANCH   4   7
ENDBRANCH   3   4
TORSDOF 3
ENDMDL
MODEL 2
REMARK VINA RESULT: -4.487955420      1.063      1.133
REMARK  3 active torsions:
REMARK  status: ('A' for Active; 'I' for Inactive)
REMARK    1  A    between atoms: C3_3  and  C4_4 
REMARK    2  A    between atoms: C4_4  and  O1_5 
REMARK    3  A    between atoms: C4_4  and  C5_7 
ROOT
HETATM    1  C1  UNL     1       1.581 -15.659  18.146  1.00  0.00     0.112 C 
HETATM    2  C2  UNL     1       1.431 -14.909  16.894  1.00  0.00    -0.108 C 
HETATM    3  C3  UNL     1       1.300 -14.272  15.873  1.00  0.00    -0.075 C 
ENDROOT
BRANCH   3   4
HETATM    4  C4  UNL     1       1.125 -13.478  14.639  1.00  0.00     0.202 C 
BRANCH   4   5
HETATM    5  O1  UNL     1       1.581 -14.235  13.560  1.00  0.00    -0.383 OA
ATOM      6  H1  UNL     1       0.832 -14.641  13.140  1.00  0.00     0.211 HD
ENDBRANCH   4   5
BRANCH   4   7
HETATM    7  C5  UNL     1       1.879 -12.179  14.787  1.00  0.00     0.043 A 
HETATM    8  C6  UNL     1       1.552 -10.968  14.061  1.00  0.00    -0.033 A 
HETATM    9  C7  UNL     1       0.489 -11.051  13.002  1.00  0.00     0.016 C 
HETATM   10  C8  UNL     1       2.677  -9.991  13.711  1.00  0.00     0.016 C 
HETATM   11  C9  UNL     1       1.182 -11.098  15.494  1.00  0.00    -0.033 A 
HETATM   12  C10 UNL     1      -0.278 -11.156  15.808  1.00  0.00     0.016 C 
HETATM   13  C11 UNL     1       2.015 -10.385  16.560  1.00  0.00     0.016 C 
ENDBRANCH   4   7
ENDBRANCH   3   4
TORSDOF 3
ENDMDL
MODEL 3
REMARK VINA RESULT: -4.367641751      1.581      1.942
REMARK  3 active torsions:
REMARK  status: ('A' for Active; 'I' for Inactive)
REMARK    1  A    between atoms: C3_3  and  C4_4 
REMARK    2  A    between atoms: C4_4  and  O1_5 
REMARK    3  A    between atoms: C4_4  and  C5_7 
ROOT
HETATM    1  C1  UNL     1       1.270 -15.550  16.002  1.00  0.00     0.112 C 
HETATM    2  C2  UNL     1       0.809 -14.306  15.376  1.00  0.00    -0.108 C 
HETATM    3  C3  UNL     1       0.432 -13.269  14.878  1.00  0.00    -0.075 C 
ENDROOT
BRANCH   3   4
HETATM    4  C4  UNL     1      -0.030 -11.993  14.294  1.00  0.00     0.202 C 
BRANCH   4   5
HETATM    5  O1  UNL     1      -0.840 -12.279  13.195  1.00  0.00    -0.383 OA
ATOM      6  H1  UNL     1      -0.284 -12.389  12.433  1.00  0.00     0.211 HD
ENDBRANCH   4   5
BRANCH   4   7
HETATM    7  C5  UNL     1       1.176 -11.168  13.916  1.00  0.00     0.043 A 
HETATM    8  C6  UNL     1       1.168  -9.721  13.823  1.00  0.00    -0.033 A 
HETATM    9  C7  UNL     1      -0.150  -9.016  13.978  1.00  0.00     0.016 C 
HETATM   10  C8  UNL     1       2.101  -9.041  12.819  1.00  0.00     0.016 C 
HETATM   11  C9  UNL     1       1.794 -10.387  14.995  1.00  0.00    -0.033 A 
HETATM   12  C10 UNL     1       1.130 -10.181  16.319  1.00  0.00     0.016 C 
HETATM   13  C11 UNL     1       3.317 -10.499  15.079  1.00  0.00     0.016 C 
ENDBRANCH   4   7
ENDBRANCH   3   4
TORSDOF 3
ENDMDL
MODEL 4
REMARK VINA RESULT: -4.287088357      2.015      4.148
REMARK  3 active torsions:
REMARK  status: ('A' for Active; 'I' for Inactive)
REMARK    1  A    between atoms: C3_3  and  C4_4 
REMARK    2  A    between atoms: C4_4  and  O1_5 
REMARK    3  A    between atoms: C4_4  and  C5_7 
ROOT
HETATM    1  C1  UNL     1      -2.407  -8.577  16.300  1.00  0.00     0.112 C 
HETATM    2  C2  UNL     1      -1.658  -9.634  15.613  1.00  0.00    -0.108 C 
HETATM    3  C3  UNL     1      -1.022 -10.501  15.057  1.00  0.00    -0.075 C 
ENDROOT
BRANCH   3   4
HETATM    4  C4  UNL     1      -0.224 -11.548  14.385  1.00  0.00     0.202 C 
BRANCH   4   5
HETATM    5  O1  UNL     1      -1.042 -12.204  13.466  1.00  0.00    -0.383 OA
ATOM      6  H1  UNL     1      -1.379 -12.992  13.874  1.00  0.00     0.211 HD
ENDBRANCH   4   5
BRANCH   4   7
HETATM    7  C5  UNL     1       0.327 -12.485  15.433  1.00  0.00     0.043 A 
HETATM    8  C6  UNL     1       1.208 -13.597  15.139  1.00  0.00    -0.033 A 
HETATM    9  C7  UNL     1       1.477 -13.916  13.695  1.00  0.00     0.016 C 
HETATM   10  C8  UNL     1       1.150 -14.840  16.031  1.00  0.00     0.016 C 
HETATM   11  C9  UNL     1       1.757 -12.353  15.738  1.00  0.00    -0.033 A 
HETATM   12  C10 UNL     1       2.688 -11.551  14.886  1.00  0.00     0.016 C 
HETATM   13  C11 UNL     1       2.096 -12.314  17.229  1.00  0.00     0.016 C 
ENDBRANCH   4   7
ENDBRANCH   3   4
TORSDOF 3
ENDMDL
MODEL 5
REMARK VINA RESULT: -4.267255696      2.308      3.288
REMARK  3 active torsions:
REMARK  status: ('A' for Active; 'I' for Inactive)
REMARK    1  A    between atoms: C3_3  and  C4_4 
REMARK    2  A    between atoms: C4_4  and  O1_5 
REMARK    3  A    between atoms: C4_4  and  C5_7 
ROOT
HETATM    1  C1  UNL     1       1.336 -15.553  16.978  1.00  0.00     0.112 C 
HETATM    2  C2  UNL     1       1.674 -14.128  16.894  1.00  0.00    -0.108 C 
HETATM    3  C3  UNL     1       1.933 -12.948  16.819  1.00  0.00    -0.075 C 
ENDROOT
BRANCH   3   4
HETATM    4  C4  UNL     1       2.226 -11.504  16.713  1.00  0.00     0.202 C 
BRANCH   4   5
HETATM    5  O1  UNL     1       2.613 -11.040  17.970  1.00  0.00    -0.383 OA
ATOM      6  H1  UNL     1       3.374 -10.482  17.863  1.00  0.00     0.211 HD
ENDBRANCH   4   5
BRANCH   4   7
HETATM    7  C5  UNL     1       0.999 -10.796  16.194  1.00  0.00     0.043 A 
HETATM    8  C6  UNL     1       1.039  -9.569  15.423  1.00  0.00    -0.033 A 
HETATM    9  C7  UNL     1       2.370  -8.893  15.249  1.00  0.00     0.016 C 
HETATM   10  C8  UNL     1      -0.127  -8.584  15.542  1.00  0.00     0.016 C 
HETATM   11  C9  UNL     1       0.771 -10.864  14.745  1.00  0.00    -0.033 A 
HETATM   12  C10 UNL     1       1.814 -11.352  13.791  1.00  0.00     0.016 C 
HETATM   13  C11 UNL     1      -0.658 -11.224  14.335  1.00  0.00     0.016 C 
ENDBRANCH   4   7
ENDBRANCH   3   4
TORSDOF 3
ENDMDL
