MODEL 1
REMARK VINA RESULT: -5.068333990      0.000      0.000
REMARK  2 active torsions:
REMARK  status: ('A' for Active; 'I' for Inactive)
REMARK    1  A    between atoms: N1_2  and  C2_4 
REMARK    2  A    between atoms: C5_7  and  C9_11 
ROOT
HETATM    1  C2  UNL     1       1.606 -12.976  14.676  1.00  0.00     0.037 C 
HETATM    2  C3  UNL     1       1.402 -12.044  13.538  1.00  0.00     0.015 C 
HETATM    3  C4  UNL     1       2.072 -10.682  13.697  1.00  0.00     0.012 C 
HETATM    4  C5  UNL     1       2.151 -10.627  15.192  1.00  0.00    -0.004 C 
HETATM    5  C6  UNL     1       3.441 -11.423  15.465  1.00  0.00     0.012 C 
HETATM    6  C7  UNL     1       2.654 -12.707  15.728  1.00  0.00     0.015 C 
HETATM    7  C8  UNL     1       1.885 -12.042  16.909  1.00  0.00     0.018 C 
HETATM    8  C9  UNL     1       1.040 -11.210  15.970  1.00  0.00    -0.026 A 
HETATM    9  C10 UNL     1      -0.099 -11.316  15.194  1.00  0.00     0.002 A 
HETATM   10  C11 UNL     1      -0.065 -11.558  13.672  1.00  0.00     0.013 C 
HETATM   11  C12 UNL     1       0.430 -12.572  15.499  1.00  0.00     0.028 A 
ENDROOT
BRANCH   1  12
HETATM   12  N1  UNL     1       1.696 -14.357  14.348  1.00  0.00    -0.416 N 
HETATM   13  C1  UNL     1       1.452 -15.294  15.382  1.00  0.00     0.140 C 
ATOM     14  H1  UNL     1       1.929 -14.662  13.403  1.00  0.00     0.153 HD
ENDBRANCH   1  12
TORSDOF 2
ENDMDL
MODEL 2
REMARK VINA RESULT: -5.030389331      1.052      2.939
REMARK  2 active torsions:
REMARK  status: ('A' for Active; 'I' for Inactive)
REMARK    1  A    between atoms: N1_2  and  C2_4 
REMARK    2  A    between atoms: C5_7  and  C9_11 
ROOT
HETATM    1  C2  UNL     1       0.395 -12.597  14.319  1.00  0.00     0.037 C 
HETATM    2  C3  UNL     1       0.831 -12.261  15.698  1.00  0.00     0.015 C 
HETATM    3  C4  UNL     1       0.405 -10.879  16.186  1.00  0.00     0.012 C 
HETATM    4  C5  UNL     1       0.244 -10.197  14.862  1.00  0.00    -0.004 C 
HETATM    5  C6  UNL     1      -1.182 -10.624  14.462  1.00  0.00     0.012 C 
HETATM    6  C7  UNL     1      -0.653 -11.776  13.608  1.00  0.00     0.015 C 
HETATM    7  C8  UNL     1       0.147 -10.790  12.703  1.00  0.00     0.018 C 
HETATM    8  C9  UNL     1       1.183 -10.548  13.779  1.00  0.00    -0.026 A 
HETATM    9  C10 UNL     1       2.331 -11.121  14.292  1.00  0.00     0.002 A 
HETATM   10  C11 UNL     1       2.350 -11.968  15.580  1.00  0.00     0.013 C 
HETATM   11  C12 UNL     1       1.569 -12.052  13.581  1.00  0.00     0.028 A 
ENDROOT
BRANCH   1  12
HETATM   12  N1  UNL     1       0.081 -13.963  14.075  1.00  0.00    -0.416 N 
HETATM   13  C1  UNL     1       0.456 -14.909  15.061  1.00  0.00     0.140 C 
ATOM     14  H1  UNL     1      -0.397 -14.252  13.221  1.00  0.00     0.153 HD
ENDBRANCH   1  12
TORSDOF 2
ENDMDL
MODEL 3
REMARK VINA RESULT: -4.772618674      1.404      2.299
REMARK  2 active torsions:
REMARK  status: ('A' for Active; 'I' for Inactive)
REMARK    1  A    between atoms: N1_2  and  C2_4 
REMARK    2  A    between atoms: C5_7  and  C9_11 
ROOT
HETATM    1  C2  UNL     1       0.066 -12.099  13.998  1.00  0.00     0.037 C 
HETATM    2  C3  UNL     1      -1.037 -11.179  13.621  1.00  0.00     0.015 C 
HETATM    3  C4  UNL     1      -0.596  -9.923  12.872  1.00  0.00     0.012 C 
HETATM    4  C5  UNL     1       0.819  -9.840  13.357  1.00  0.00    -0.004 C 
HETATM    5  C6  UNL     1       1.536 -10.806  12.394  1.00  0.00     0.012 C 
HETATM    6  C7  UNL     1       1.443 -11.956  13.397  1.00  0.00     0.015 C 
HETATM    7  C8  UNL     1       2.266 -11.155  14.452  1.00  0.00     0.018 C 
HETATM    8  C9  UNL     1       1.102 -10.236  14.751  1.00  0.00    -0.026 A 
HETATM    9  C10 UNL     1      -0.049 -10.197  15.514  1.00  0.00     0.002 A 
HETATM   10  C11 UNL     1      -1.452 -10.483  14.944  1.00  0.00     0.013 C 
HETATM   11  C12 UNL     1       0.396 -11.508  15.326  1.00  0.00     0.028 A 
ENDROOT
BRANCH   1  12
HETATM   12  N1  UNL     1      -0.245 -13.487  13.989  1.00  0.00    -0.416 N 
HETATM   13  C1  UNL     1       0.509 -14.333  14.840  1.00  0.00     0.140 C 
ATOM     14  H1  UNL     1      -0.983 -13.860  13.392  1.00  0.00     0.153 HD
ENDBRANCH   1  12
TORSDOF 2
ENDMDL
MODEL 4
REMARK VINA RESULT: -4.766462555      1.731      3.077
REMARK  2 active torsions:
REMARK  status: ('A' for Active; 'I' for Inactive)
REMARK    1  A    between atoms: N1_2  and  C2_4 
REMARK    2  A    between atoms: C5_7  and  C9_11 
ROOT
HETATM    1  C2  UNL     1       0.605 -11.223  15.822  1.00  0.00     0.037 C 
HETATM    2  C3  UNL     1      -0.118 -11.983  14.771  1.00  0.00     0.015 C 
HETATM    3  C4  UNL     1       0.442 -13.374  14.486  1.00  0.00     0.012 C 
HETATM    4  C5  UNL     1       1.851 -13.165  14.952  1.00  0.00    -0.004 C 
HETATM    5  C6  UNL     1       1.717 -13.403  16.468  1.00  0.00     0.012 C 
HETATM    6  C7  UNL     1       1.588 -11.905  16.744  1.00  0.00     0.015 C 
HETATM    7  C8  UNL     1       2.990 -11.629  16.120  1.00  0.00     0.018 C 
HETATM    8  C9  UNL     1       2.475 -11.848  14.715  1.00  0.00    -0.026 A 
HETATM    9  C10 UNL     1       1.814 -11.167  13.709  1.00  0.00     0.002 A 
HETATM   10  C11 UNL     1       0.306 -11.323  13.432  1.00  0.00     0.013 C 
HETATM   11  C12 UNL     1       1.618 -10.560  14.953  1.00  0.00     0.028 A 
ENDROOT
BRANCH   1  12
HETATM   12  N1  UNL     1      -0.186 -10.361  16.631  1.00  0.00    -0.416 N 
HETATM   13  C1  UNL     1      -0.003  -8.965  16.476  1.00  0.00     0.140 C 
ATOM     14  H1  UNL     1      -0.862 -10.735  17.298  1.00  0.00     0.153 HD
ENDBRANCH   1  12
TORSDOF 2
ENDMDL
MODEL 5
REMARK VINA RESULT: -4.757681439      1.415      2.329
REMARK  2 active torsions:
REMARK  status: ('A' for Active; 'I' for Inactive)
REMARK    1  A    between atoms: N1_2  and  C2_4 
REMARK    2  A    between atoms: C5_7  and  C9_11 
ROOT
HETATM    1  C2  UNL     1       0.240 -12.104  14.051  1.00  0.00     0.037 C 
HETATM    2  C3  UNL     1       1.588 -11.840  13.488  1.00  0.00     0.015 C 
HETATM    3  C4  UNL     1       2.367 -10.727  14.185  1.00  0.00     0.012 C 
HETATM    4  C5  UNL     1       1.218  -9.954  14.758  1.00  0.00    -0.004 C 
HETATM    5  C6  UNL     1       0.937 -10.731  16.058  1.00  0.00     0.012 C 
HETATM    6  C7  UNL     1      -0.171 -11.547  15.392  1.00  0.00     0.015 C 
HETATM    7  C8  UNL     1      -0.981 -10.256  15.066  1.00  0.00     0.018 C 
HETATM    8  C9  UNL     1      -0.023  -9.861  13.963  1.00  0.00    -0.026 A 
HETATM    9  C10 UNL     1       0.227 -10.127  12.630  1.00  0.00     0.002 A 
HETATM   10  C11 UNL     1       1.330 -11.093  12.153  1.00  0.00     0.013 C 
HETATM   11  C12 UNL     1      -0.534 -11.139  13.220  1.00  0.00     0.028 A 
ENDROOT
BRANCH   1  12
HETATM   12  N1  UNL     1      -0.202 -13.456  14.015  1.00  0.00    -0.416 N 
HETATM   13  C1  UNL     1       0.532 -14.406  14.767  1.00  0.00     0.140 C 
ATOM     14  H1  UNL     1      -1.017 -13.732  13.466  1.00  0.00     0.153 HD
ENDBRANCH   1  12
TORSDOF 2
ENDMDL
