MODEL 1
REMARK VINA RESULT: -4.712133006      0.000      0.000
REMARK  1 active torsions:
REMARK  status: ('A' for Active; 'I' for Inactive)
REMARK    1  A    between atoms: C5_5  and  C6_6 
ROOT
HETATM    1  C1  UNL     1       1.540 -15.623  18.245  1.00  0.00     0.011 C 
HETATM    2  C2  UNL     1       1.905 -14.936  16.927  1.00  0.00     0.007 C 
HETATM    3  C3  UNL     1       2.069 -13.486  17.208  1.00  0.00     0.008 C 
HETATM    4  C4  UNL     1       2.000 -12.592  16.026  1.00  0.00     0.039 C 
HETATM    5  C5  UNL     1       1.134 -13.110  14.907  1.00  0.00     0.224 C 
HETATM    6  N2  UNL     1       1.308 -14.518  14.671  1.00  0.00    -0.066 N 
ATOM      7  H21 UNL     1       2.258 -14.748  14.379  1.00  0.00     0.278 HD
ATOM      8  H22 UNL     1       0.820 -14.834  13.832  1.00  0.00     0.278 HD
HETATM    9  C9  UNL     1       0.900 -15.256  15.861  1.00  0.00     0.237 C 
ENDROOT
BRANCH   5  10
HETATM   10  C6  UNL     1       1.478 -12.362  13.675  1.00  0.00     0.090 C 
HETATM   11  N1  UNL     1       0.662 -11.556  13.111  1.00  0.00    -0.400 N 
HETATM   12  C7  UNL     1       1.090 -10.872  11.910  1.00  0.00     0.148 C 
HETATM   13  C8  UNL     1      -0.628 -11.365  13.683  1.00  0.00     0.148 C 
ENDBRANCH   5  10
TORSDOF 1
ENDMDL
MODEL 2
REMARK VINA RESULT: -4.531409184      1.334      1.466
REMARK  1 active torsions:
REMARK  status: ('A' for Active; 'I' for Inactive)
REMARK    1  A    between atoms: C5_5  and  C6_6 
ROOT
HETATM    1  C1  UNL     1       1.533 -15.272  17.112  1.00  0.00     0.011 C 
HETATM    2  C2  UNL     1       1.551 -14.329  15.907  1.00  0.00     0.007 C 
HETATM    3  C3  UNL     1       1.568 -12.937  16.427  1.00  0.00     0.008 C 
HETATM    4  C4  UNL     1       1.160 -11.887  15.461  1.00  0.00     0.039 C 
HETATM    5  C5  UNL     1       0.178 -12.353  14.417  1.00  0.00     0.224 C 
HETATM    6  N2  UNL     1       0.493 -13.655  13.894  1.00  0.00    -0.066 N 
ATOM      7  H21 UNL     1       1.394 -13.674  13.417  1.00  0.00     0.278 HD
ATOM      8  H22 UNL     1      -0.096 -13.907  13.100  1.00  0.00     0.278 HD
HETATM    9  C9  UNL     1       0.417 -14.634  14.973  1.00  0.00     0.237 C 
ENDROOT
BRANCH   5  10
HETATM   10  C6  UNL     1       0.183 -11.369  13.309  1.00  0.00     0.090 C 
HETATM   11  N1  UNL     1      -0.810 -10.600  13.070  1.00  0.00    -0.400 N 
HETATM   12  C7  UNL     1      -0.710  -9.672  11.965  1.00  0.00     0.148 C 
HETATM   13  C8  UNL     1      -1.968 -10.688  13.894  1.00  0.00     0.148 C 
ENDBRANCH   5  10
TORSDOF 1
ENDMDL
MODEL 3
REMARK VINA RESULT: -4.493697186      1.545      4.885
REMARK  1 active torsions:
REMARK  status: ('A' for Active; 'I' for Inactive)
REMARK    1  A    between atoms: C5_5  and  C6_6 
ROOT
HETATM    1  C1  UNL     1       1.265  -9.878  12.684  1.00  0.00     0.011 C 
HETATM    2  C2  UNL     1       1.266 -10.510  14.078  1.00  0.00     0.007 C 
HETATM    3  C3  UNL     1       2.679 -10.802  14.436  1.00  0.00     0.008 C 
HETATM    4  C4  UNL     1       2.872 -11.785  15.531  1.00  0.00     0.039 C 
HETATM    5  C5  UNL     1       1.776 -12.813  15.642  1.00  0.00     0.224 C 
HETATM    6  N2  UNL     1       0.463 -12.251  15.473  1.00  0.00    -0.066 N 
ATOM      7  H21 UNL     1       0.238 -11.566  16.195  1.00  0.00     0.278 HD
ATOM      8  H22 UNL     1      -0.277 -12.923  15.678  1.00  0.00     0.278 HD
HETATM    9  C9  UNL     1       0.350 -11.696  14.129  1.00  0.00     0.237 C 
ENDROOT
BRANCH   5  10
HETATM   10  C6  UNL     1       1.868 -13.442  16.980  1.00  0.00     0.090 C 
HETATM   11  N1  UNL     1       1.736 -14.702  17.157  1.00  0.00    -0.400 N 
HETATM   12  C7  UNL     1       1.843 -15.222  18.502  1.00  0.00     0.148 C 
HETATM   13  C8  UNL     1       1.489 -15.536  16.030  1.00  0.00     0.148 C 
ENDBRANCH   5  10
TORSDOF 1
ENDMDL
MODEL 4
REMARK VINA RESULT: -4.411657768      1.047      1.215
REMARK  1 active torsions:
REMARK  status: ('A' for Active; 'I' for Inactive)
REMARK    1  A    between atoms: C5_5  and  C6_6 
ROOT
HETATM    1  C1  UNL     1       1.932 -14.761  17.376  1.00  0.00     0.011 C 
HETATM    2  C2  UNL     1       2.095 -14.175  15.972  1.00  0.00     0.007 C 
HETATM    3  C3  UNL     1       2.588 -12.781  16.123  1.00  0.00     0.008 C 
HETATM    4  C4  UNL     1       2.408 -11.906  14.938  1.00  0.00     0.039 C 
HETATM    5  C5  UNL     1       1.221 -12.261  14.080  1.00  0.00     0.224 C 
HETATM    6  N2  UNL     1       1.070 -13.679  13.893  1.00  0.00    -0.066 N 
ATOM      7  H21 UNL     1       1.864 -14.092  13.405  1.00  0.00     0.278 HD
ATOM      8  H22 UNL     1       0.347 -13.905  13.209  1.00  0.00     0.278 HD
HETATM    9  C9  UNL     1       0.826 -14.308  15.186  1.00  0.00     0.237 C 
ENDROOT
BRANCH   5  10
HETATM   10  C6  UNL     1       1.396 -11.610  12.760  1.00  0.00     0.090 C 
HETATM   11  N1  UNL     1       0.506 -10.848  12.248  1.00  0.00    -0.400 N 
HETATM   12  C7  UNL     1       0.770 -10.259  10.953  1.00  0.00     0.148 C 
HETATM   13  C8  UNL     1      -0.700 -10.612  12.966  1.00  0.00     0.148 C 
ENDBRANCH   5  10
TORSDOF 1
ENDMDL
MODEL 5
REMARK VINA RESULT: -4.300799156      3.091      4.165
REMARK  1 active torsions:
REMARK  status: ('A' for Active; 'I' for Inactive)
REMARK    1  A    between atoms: C5_5  and  C6_6 
ROOT
HETATM    1  C1  UNL     1       1.503 -15.303  15.446  1.00  0.00     0.011 C 
HETATM    2  C2  UNL     1       1.434 -13.876  15.996  1.00  0.00     0.007 C 
HETATM    3  C3  UNL     1       1.845 -12.955  14.904  1.00  0.00     0.008 C 
HETATM    4  C4  UNL     1       2.257 -11.596  15.334  1.00  0.00     0.039 C 
HETATM    5  C5  UNL     1       2.854 -11.537  16.716  1.00  0.00     0.224 C 
HETATM    6  N2  UNL     1       2.147 -12.353  17.667  1.00  0.00    -0.066 N 
ATOM      7  H21 UNL     1       1.182 -12.047  17.797  1.00  0.00     0.278 HD
ATOM      8  H22 UNL     1       2.474 -12.207  18.622  1.00  0.00     0.278 HD
HETATM    9  C9  UNL     1       2.235 -13.749  17.257  1.00  0.00     0.237 C 
ENDROOT
BRANCH   5  10
HETATM   10  C6  UNL     1       2.828 -10.126  17.169  1.00  0.00     0.090 C 
HETATM   11  N1  UNL     1       3.881  -9.403  17.225  1.00  0.00    -0.400 N 
HETATM   12  C7  UNL     1       3.753  -8.037  17.681  1.00  0.00     0.148 C 
HETATM   13  C8  UNL     1       5.129  -9.969  16.839  1.00  0.00     0.148 C 
ENDBRANCH   5  10
TORSDOF 1
ENDMDL
