MODEL 1
REMARK VINA RESULT: -4.881414294      0.000      0.000
REMARK  1 active torsions:
REMARK  status: ('A' for Active; 'I' for Inactive)
REMARK    1  A    between atoms: C8_8  and  C10_10 
ROOT
HETATM    1  C1  UNL     1       1.794 -14.608  16.664  1.00  0.00     0.010 C 
HETATM    2  C2  UNL     1       1.943 -13.772  15.414  1.00  0.00    -0.014 C 
HETATM    3  C3  UNL     1       0.571 -13.506  14.794  1.00  0.00     0.010 C 
HETATM    4  C4  UNL     1       0.205 -12.095  15.136  1.00  0.00     0.003 C 
HETATM    5  C5  UNL     1       1.069 -11.870  16.390  1.00  0.00     0.011 C 
HETATM    6  C6  UNL     1       2.372 -12.353  15.727  1.00  0.00    -0.009 C 
HETATM    7  C7  UNL     1       2.385 -11.601  14.422  1.00  0.00     0.023 C 
HETATM    8  C8  UNL     1       0.950 -11.185  14.186  1.00  0.00     0.039 C 
HETATM    9  C9  UNL     1       0.789  -9.730  14.552  1.00  0.00     0.025 C 
ENDROOT
BRANCH   8  10
HETATM   10  C10 UNL     1       0.507 -11.380  12.811  1.00  0.00     0.239 C 
HETATM   11  N1  UNL     1       1.477 -11.627  11.806  1.00  0.00    -0.061 NA
HETATM   12  O1  UNL     1      -0.714 -11.329  12.531  1.00  0.00    -0.276 OA
ENDBRANCH   8  10
TORSDOF 1
ENDMDL
MODEL 2
REMARK VINA RESULT: -4.837966157      1.182      1.182
REMARK  1 active torsions:
REMARK  status: ('A' for Active; 'I' for Inactive)
REMARK    1  A    between atoms: C8_8  and  C10_10 
ROOT
HETATM    1  C1  UNL     1       1.956 -14.539  16.186  1.00  0.00     0.010 C 
HETATM    2  C2  UNL     1       1.725 -13.669  14.972  1.00  0.00    -0.014 C 
HETATM    3  C3  UNL     1       0.242 -13.318  14.853  1.00  0.00     0.010 C 
HETATM    4  C4  UNL     1       0.092 -11.903  15.320  1.00  0.00     0.003 C 
HETATM    5  C5  UNL     1       1.337 -11.762  16.215  1.00  0.00     0.011 C 
HETATM    6  C6  UNL     1       2.313 -12.284  15.144  1.00  0.00    -0.009 C 
HETATM    7  C7  UNL     1       1.931 -11.490  13.923  1.00  0.00     0.023 C 
HETATM    8  C8  UNL     1       0.525 -10.998  14.190  1.00  0.00     0.039 C 
HETATM    9  C9  UNL     1       0.579  -9.551  14.611  1.00  0.00     0.025 C 
ENDROOT
BRANCH   8  10
HETATM   10  C10 UNL     1      -0.362 -11.126  13.040  1.00  0.00     0.239 C 
HETATM   11  N1  UNL     1      -1.730 -10.784  13.186  1.00  0.00    -0.061 NA
HETATM   12  O1  UNL     1       0.088 -11.534  11.943  1.00  0.00    -0.276 OA
ENDBRANCH   8  10
TORSDOF 1
ENDMDL
MODEL 3
REMARK VINA RESULT: -4.542230319      2.099      2.865
REMARK  1 active torsions:
REMARK  status: ('A' for Active; 'I' for Inactive)
REMARK    1  A    between atoms: C8_8  and  C10_10 
ROOT
HETATM    1  C1  UNL     1       3.973 -10.430  16.899  1.00  0.00     0.010 C 
HETATM    2  C2  UNL     1       3.428 -11.273  15.769  1.00  0.00    -0.014 C 
HETATM    3  C3  UNL     1       2.564 -12.404  16.328  1.00  0.00     0.010 C 
HETATM    4  C4  UNL     1       1.136 -12.009  16.105  1.00  0.00     0.003 C 
HETATM    5  C5  UNL     1       1.273 -10.480  16.004  1.00  0.00     0.011 C 
HETATM    6  C6  UNL     1       2.395 -10.529  14.951  1.00  0.00    -0.009 C 
HETATM    7  C7  UNL     1       1.859 -11.500  13.932  1.00  0.00     0.023 C 
HETATM    8  C8  UNL     1       0.801 -12.299  14.660  1.00  0.00     0.039 C 
HETATM    9  C9  UNL     1      -0.563 -11.780  14.279  1.00  0.00     0.025 C 
ENDROOT
BRANCH   8  10
HETATM   10  C10 UNL     1       0.860 -13.729  14.380  1.00  0.00     0.239 C 
HETATM   11  N1  UNL     1       0.207 -14.629  15.259  1.00  0.00    -0.061 NA
HETATM   12  O1  UNL     1       1.483 -14.146  13.375  1.00  0.00    -0.276 OA
ENDBRANCH   8  10
TORSDOF 1
ENDMDL
MODEL 4
REMARK VINA RESULT: -4.487381854      2.423      4.028
REMARK  1 active torsions:
REMARK  status: ('A' for Active; 'I' for Inactive)
REMARK    1  A    between atoms: C8_8  and  C10_10 
ROOT
HETATM    1  C1  UNL     1      -0.125  -8.756  13.511  1.00  0.00     0.010 C 
HETATM    2  C2  UNL     1       0.881  -9.842  13.811  1.00  0.00    -0.014 C 
HETATM    3  C3  UNL     1       0.740 -10.302  15.262  1.00  0.00     0.010 C 
HETATM    4  C4  UNL     1       0.023 -11.617  15.233  1.00  0.00     0.003 C 
HETATM    5  C5  UNL     1      -0.708 -11.516  13.882  1.00  0.00     0.011 C 
HETATM    6  C6  UNL     1       0.556 -11.134  13.090  1.00  0.00    -0.009 C 
HETATM    7  C7  UNL     1       1.563 -12.156  13.548  1.00  0.00     0.023 C 
HETATM    8  C8  UNL     1       1.031 -12.681  14.863  1.00  0.00     0.039 C 
HETATM    9  C9  UNL     1       0.381 -14.023  14.636  1.00  0.00     0.025 C 
ENDROOT
BRANCH   8  10
HETATM   10  C10 UNL     1       2.057 -12.817  15.890  1.00  0.00     0.239 C 
HETATM   11  N1  UNL     1       1.664 -13.125  17.217  1.00  0.00    -0.061 NA
HETATM   12  O1  UNL     1       3.266 -12.662  15.594  1.00  0.00    -0.276 OA
ENDBRANCH   8  10
TORSDOF 1
ENDMDL
MODEL 5
REMARK VINA RESULT: -4.440242236      1.743      3.026
REMARK  1 active torsions:
REMARK  status: ('A' for Active; 'I' for Inactive)
REMARK    1  A    between atoms: C8_8  and  C10_10 
ROOT
HETATM    1  C1  UNL     1       4.001  -9.653  15.819  1.00  0.00     0.010 C 
HETATM    2  C2  UNL     1       2.525  -9.958  15.724  1.00  0.00    -0.014 C 
HETATM    3  C3  UNL     1       2.150 -10.292  14.280  1.00  0.00     0.010 C 
HETATM    4  C4  UNL     1       1.990 -11.779  14.205  1.00  0.00     0.003 C 
HETATM    5  C5  UNL     1       2.851 -12.221  15.402  1.00  0.00     0.011 C 
HETATM    6  C6  UNL     1       2.169 -11.267  16.399  1.00  0.00    -0.009 C 
HETATM    7  C7  UNL     1       0.704 -11.506  16.147  1.00  0.00     0.023 C 
HETATM    8  C8  UNL     1       0.630 -12.123  14.768  1.00  0.00     0.039 C 
HETATM    9  C9  UNL     1       0.432 -13.612  14.901  1.00  0.00     0.025 C 
ENDROOT
BRANCH   8  10
HETATM   10  C10 UNL     1      -0.439 -11.572  13.943  1.00  0.00     0.239 C 
HETATM   11  N1  UNL     1      -1.400 -10.720  14.543  1.00  0.00    -0.061 NA
HETATM   12  O1  UNL     1      -0.498 -11.856  12.723  1.00  0.00    -0.276 OA
ENDBRANCH   8  10
TORSDOF 1
ENDMDL
