MODEL 1
REMARK VINA RESULT: -5.362312132      0.000      0.000
REMARK  2 active torsions:
REMARK  status: ('A' for Active; 'I' for Inactive)
REMARK       I    between atoms: C1_2  and  N1_3 
REMARK    1  A    between atoms: C1_2  and  C5_8 
REMARK    2  A    between atoms: N1_3  and  C2_5 
ROOT
HETATM    1  C5  UNL     1       1.311 -13.780  15.841  1.00  0.00     0.084 C 
HETATM    2  C6  UNL     1       2.171 -13.851  17.072  1.00  0.00     0.058 C 
HETATM    3  C7  UNL     1       1.898 -14.988  17.959  1.00  0.00     0.056 C 
HETATM    4  N2  UNL     1       1.284 -16.134  17.423  1.00  0.00    -0.402 N 
ATOM      5  H2  UNL     1       1.407 -17.046  17.862  1.00  0.00     0.158 HD
HETATM    6  C8  UNL     1       0.493 -15.991  16.262  1.00  0.00     0.119 C 
HETATM    7  C9  UNL     1       1.312 -15.192  15.239  1.00  0.00     0.034 C 
ENDROOT
BRANCH   1   8
HETATM    8  C1  UNL     1       1.823 -12.859  14.830  1.00  0.00     0.222 C 
HETATM    9  O1  UNL     1       2.986 -12.396  14.971  1.00  0.00    -0.273 OA
HETATM   10  N1  UNL     1       1.102 -12.438  13.685  1.00  0.00    -0.356 N 
ATOM     11  H1  UNL     1       0.158 -12.802  13.555  1.00  0.00     0.162 HD
BRANCH  10  12
HETATM   12  C2  UNL     1       1.615 -11.532  12.699  1.00  0.00     0.084 A 
HETATM   13  C3  UNL     1       0.765 -10.999  11.619  1.00  0.00     0.027 A 
HETATM   14  C4  UNL     1       1.773 -12.054  11.317  1.00  0.00     0.027 A 
ENDBRANCH  10  12
ENDBRANCH   1   8
TORSDOF 2
ENDMDL
MODEL 2
REMARK VINA RESULT: -5.341707040      0.486      1.472
REMARK  2 active torsions:
REMARK  status: ('A' for Active; 'I' for Inactive)
REMARK       I    between atoms: C1_2  and  N1_3 
REMARK    1  A    between atoms: C1_2  and  C5_8 
REMARK    2  A    between atoms: N1_3  and  C2_5 
ROOT
HETATM    1  C5  UNL     1       2.026 -14.364  15.608  1.00  0.00     0.084 C 
HETATM    2  C6  UNL     1       0.752 -15.100  15.300  1.00  0.00     0.058 C 
HETATM    3  C7  UNL     1       0.387 -16.147  16.262  1.00  0.00     0.056 C 
HETATM    4  N2  UNL     1       0.895 -16.072  17.571  1.00  0.00    -0.402 N 
ATOM      5  H2  UNL     1       0.408 -16.520  18.346  1.00  0.00     0.158 HD
HETATM    6  C8  UNL     1       2.096 -15.360  17.785  1.00  0.00     0.119 C 
HETATM    7  C9  UNL     1       1.955 -13.995  17.097  1.00  0.00     0.034 C 
ENDROOT
BRANCH   1   8
HETATM    8  C1  UNL     1       2.180 -13.129  14.844  1.00  0.00     0.222 C 
HETATM    9  O1  UNL     1       3.026 -12.282  15.235  1.00  0.00    -0.273 OA
HETATM   10  N1  UNL     1       1.441 -12.804  13.680  1.00  0.00    -0.356 N 
ATOM     11  H1  UNL     1       0.751 -13.479  13.349  1.00  0.00     0.162 HD
BRANCH  10  12
HETATM   12  C2  UNL     1       1.601 -11.588  12.938  1.00  0.00     0.084 A 
HETATM   13  C3  UNL     1       0.499 -11.011  12.149  1.00  0.00     0.027 A 
HETATM   14  C4  UNL     1       1.626 -11.696  11.457  1.00  0.00     0.027 A 
ENDBRANCH  10  12
ENDBRANCH   1   8
TORSDOF 2
ENDMDL
MODEL 3
REMARK VINA RESULT: -5.253172904      2.091      2.375
REMARK  2 active torsions:
REMARK  status: ('A' for Active; 'I' for Inactive)
REMARK       I    between atoms: C1_2  and  N1_3 
REMARK    1  A    between atoms: C1_2  and  C5_8 
REMARK    2  A    between atoms: N1_3  and  C2_5 
ROOT
HETATM    1  C5  UNL     1       0.706 -13.511  15.572  1.00  0.00     0.084 C 
HETATM    2  C6  UNL     1       2.125 -13.328  16.032  1.00  0.00     0.058 C 
HETATM    3  C7  UNL     1       2.668 -14.431  16.833  1.00  0.00     0.056 C 
HETATM    4  N2  UNL     1       2.093 -15.708  16.707  1.00  0.00    -0.402 N 
ATOM      5  H2  UNL     1       2.631 -16.547  16.928  1.00  0.00     0.158 HD
HETATM    6  C8  UNL     1       0.755 -15.802  16.266  1.00  0.00     0.119 C 
HETATM    7  C9  UNL     1       0.620 -14.935  15.007  1.00  0.00     0.034 C 
ENDROOT
BRANCH   1   8
HETATM    8  C1  UNL     1       0.316 -12.582  14.515  1.00  0.00     0.222 C 
HETATM    9  O1  UNL     1       0.987 -12.568  13.449  1.00  0.00    -0.273 OA
HETATM   10  N1  UNL     1      -0.775 -11.681  14.596  1.00  0.00    -0.356 N 
ATOM     11  H1  UNL     1      -1.330 -11.679  15.452  1.00  0.00     0.162 HD
BRANCH  10  12
HETATM   12  C2  UNL     1      -1.148 -10.774  13.551  1.00  0.00     0.084 A 
HETATM   13  C3  UNL     1      -1.307  -9.329  13.798  1.00  0.00     0.027 A 
HETATM   14  C4  UNL     1      -2.511 -10.187  13.618  1.00  0.00     0.027 A 
ENDBRANCH  10  12
ENDBRANCH   1   8
TORSDOF 2
ENDMDL
MODEL 4
REMARK VINA RESULT: -5.184757072      1.725      2.390
REMARK  2 active torsions:
REMARK  status: ('A' for Active; 'I' for Inactive)
REMARK       I    between atoms: C1_2  and  N1_3 
REMARK    1  A    between atoms: C1_2  and  C5_8 
REMARK    2  A    between atoms: N1_3  and  C2_5 
ROOT
HETATM    1  C5  UNL     1       1.520 -13.907  15.194  1.00  0.00     0.084 C 
HETATM    2  C6  UNL     1       0.485 -14.997  15.234  1.00  0.00     0.058 C 
HETATM    3  C7  UNL     1       0.722 -16.046  16.231  1.00  0.00     0.056 C 
HETATM    4  N2  UNL     1       1.525 -15.752  17.348  1.00  0.00    -0.402 N 
ATOM      5  H2  UNL     1       1.423 -16.277  18.217  1.00  0.00     0.158 HD
HETATM    6  C8  UNL     1       2.474 -14.712  17.238  1.00  0.00     0.119 C 
HETATM    7  C9  UNL     1       1.756 -13.489  16.652  1.00  0.00     0.034 C 
ENDROOT
BRANCH   1   8
HETATM    8  C1  UNL     1       1.090 -12.726  14.450  1.00  0.00     0.222 C 
HETATM    9  O1  UNL     1       1.969 -11.957  13.980  1.00  0.00    -0.273 OA
HETATM   10  N1  UNL     1      -0.262 -12.372  14.213  1.00  0.00    -0.356 N 
ATOM     11  H1  UNL     1      -0.988 -12.984  14.587  1.00  0.00     0.162 HD
BRANCH  10  12
HETATM   12  C2  UNL     1      -0.673 -11.210  13.482  1.00  0.00     0.084 A 
HETATM   13  C3  UNL     1      -0.718  -9.876  14.107  1.00  0.00     0.027 A 
HETATM   14  C4  UNL     1      -1.985 -10.613  13.840  1.00  0.00     0.027 A 
ENDBRANCH  10  12
ENDBRANCH   1   8
TORSDOF 2
ENDMDL
MODEL 5
REMARK VINA RESULT: -5.125438496      1.321      1.407
REMARK  2 active torsions:
REMARK  status: ('A' for Active; 'I' for Inactive)
REMARK       I    between atoms: C1_2  and  N1_3 
REMARK    1  A    between atoms: C1_2  and  C5_8 
REMARK    2  A    between atoms: N1_3  and  C2_5 
ROOT
HETATM    1  C5  UNL     1       0.777 -13.454  15.663  1.00  0.00     0.084 C 
HETATM    2  C6  UNL     1       2.170 -13.336  16.218  1.00  0.00     0.058 C 
HETATM    3  C7  UNL     1       2.639 -14.499  16.980  1.00  0.00     0.056 C 
HETATM    4  N2  UNL     1       2.045 -15.751  16.740  1.00  0.00    -0.402 N 
ATOM      5  H2  UNL     1       2.550 -16.614  16.941  1.00  0.00     0.158 HD
HETATM    6  C8  UNL     1       0.735 -15.784  16.215  1.00  0.00     0.119 C 
HETATM    7  C9  UNL     1       0.696 -14.839  15.006  1.00  0.00     0.034 C 
ENDROOT
BRANCH   1   8
HETATM    8  C1  UNL     1       0.473 -12.453  14.644  1.00  0.00     0.222 C 
HETATM    9  O1  UNL     1      -0.353 -11.544  14.922  1.00  0.00    -0.273 OA
HETATM   10  N1  UNL     1       1.043 -12.425  13.347  1.00  0.00    -0.356 N 
ATOM     11  H1  UNL     1       1.714 -13.154  13.105  1.00  0.00     0.162 HD
BRANCH  10  12
HETATM   12  C2  UNL     1       0.737 -11.437  12.355  1.00  0.00     0.084 A 
HETATM   13  C3  UNL     1       1.321 -11.490  11.003  1.00  0.00     0.027 A 
HETATM   14  C4  UNL     1       1.818 -10.488  11.987  1.00  0.00     0.027 A 
ENDBRANCH  10  12
ENDBRANCH   1   8
TORSDOF 2
ENDMDL
