MODEL 1
REMARK VINA RESULT: -5.104798253      0.000      0.000
REMARK  2 active torsions:
REMARK  status: ('A' for Active; 'I' for Inactive)
REMARK    1  A    between atoms: C7_7  and  C8_8 
REMARK       I    between atoms: C8_8  and  N1_10 
REMARK    2  A    between atoms: N1_10  and  C9_12 
ROOT
HETATM    1  C1  UNL     1       1.832 -11.609  17.293  1.00  0.00     0.015 C 
HETATM    2  C2  UNL     1       2.510 -11.963  16.000  1.00  0.00    -0.036 C 
HETATM    3  C3  UNL     1       3.908 -11.394  16.042  1.00  0.00     0.015 C 
HETATM    4  C4  UNL     1       1.766 -11.178  14.910  1.00  0.00     0.010 C 
HETATM    5  C5  UNL     1       1.868 -12.098  13.708  1.00  0.00     0.002 C 
HETATM    6  C6  UNL     1       1.687 -13.448  14.326  1.00  0.00     0.015 C 
HETATM    7  C7  UNL     1       2.486 -13.371  15.610  1.00  0.00     0.086 C 
ENDROOT
BRANCH   7   8
HETATM    8  C8  UNL     1       2.051 -14.350  16.610  1.00  0.00     0.228 C 
HETATM    9  O1  UNL     1       0.933 -14.916  16.385  1.00  0.00    -0.273 OA
HETATM   10  N1  UNL     1       2.718 -14.732  17.770  1.00  0.00    -0.305 N 
ATOM     11  H1  UNL     1       3.618 -14.308  17.994  1.00  0.00     0.171 HD
BRANCH  10  12
HETATM   12  C9  UNL     1       2.171 -15.694  18.641  1.00  0.00     0.355 C 
HETATM   13  O2  UNL     1       1.838 -15.439  19.838  1.00  0.00    -0.283 OA
ENDBRANCH  10  12
ENDBRANCH   7   8
TORSDOF 2
ENDMDL
MODEL 2
REMARK VINA RESULT: -4.959476403      3.146      4.716
REMARK  2 active torsions:
REMARK  status: ('A' for Active; 'I' for Inactive)
REMARK    1  A    between atoms: C7_7  and  C8_8 
REMARK       I    between atoms: C8_8  and  N1_10 
REMARK    2  A    between atoms: N1_10  and  C9_12 
ROOT
HETATM    1  C1  UNL     1       3.447 -12.084  15.646  1.00  0.00     0.015 C 
HETATM    2  C2  UNL     1       2.204 -12.707  16.214  1.00  0.00    -0.036 C 
HETATM    3  C3  UNL     1       1.804 -11.909  17.431  1.00  0.00     0.015 C 
HETATM    4  C4  UNL     1       2.629 -14.088  16.733  1.00  0.00     0.010 C 
HETATM    5  C5  UNL     1       1.382 -14.925  16.517  1.00  0.00     0.002 C 
HETATM    6  C6  UNL     1       0.883 -14.415  15.202  1.00  0.00     0.015 C 
HETATM    7  C7  UNL     1       1.093 -12.917  15.288  1.00  0.00     0.086 C 
ENDROOT
BRANCH   7   8
HETATM    8  C8  UNL     1       1.170 -12.278  13.972  1.00  0.00     0.228 C 
HETATM    9  O1  UNL     1       0.640 -11.124  13.882  1.00  0.00    -0.273 OA
HETATM   10  N1  UNL     1       1.754 -12.784  12.815  1.00  0.00    -0.305 N 
ATOM     11  H1  UNL     1       2.192 -13.704  12.836  1.00  0.00     0.171 HD
BRANCH  10  12
HETATM   12  C9  UNL     1       1.750 -12.047  11.616  1.00  0.00     0.355 C 
HETATM   13  O2  UNL     1       1.808 -12.585  10.468  1.00  0.00    -0.283 OA
ENDBRANCH  10  12
ENDBRANCH   7   8
TORSDOF 2
ENDMDL
MODEL 3
REMARK VINA RESULT: -4.824615554      2.927      4.649
REMARK  2 active torsions:
REMARK  status: ('A' for Active; 'I' for Inactive)
REMARK    1  A    between atoms: C7_7  and  C8_8 
REMARK       I    between atoms: C8_8  and  N1_10 
REMARK    2  A    between atoms: N1_10  and  C9_12 
ROOT
HETATM    1  C1  UNL     1       3.474 -12.394  15.800  1.00  0.00     0.015 C 
HETATM    2  C2  UNL     1       2.239 -13.044  16.355  1.00  0.00    -0.036 C 
HETATM    3  C3  UNL     1       1.678 -12.132  17.420  1.00  0.00     0.015 C 
HETATM    4  C4  UNL     1       2.724 -14.303  17.089  1.00  0.00     0.010 C 
HETATM    5  C5  UNL     1       1.567 -15.266  16.899  1.00  0.00     0.002 C 
HETATM    6  C6  UNL     1       1.143 -14.978  15.494  1.00  0.00     0.015 C 
HETATM    7  C7  UNL     1       1.230 -13.470  15.389  1.00  0.00     0.086 C 
ENDROOT
BRANCH   7   8
HETATM    8  C8  UNL     1       1.367 -13.003  14.006  1.00  0.00     0.228 C 
HETATM    9  O1  UNL     1       1.891 -13.828  13.190  1.00  0.00    -0.273 OA
HETATM   10  N1  UNL     1       0.992 -11.769  13.485  1.00  0.00    -0.305 N 
ATOM     11  H1  UNL     1       0.567 -11.075  14.099  1.00  0.00     0.171 HD
BRANCH  10  12
HETATM   12  C9  UNL     1       1.188 -11.463  12.125  1.00  0.00     0.355 C 
HETATM   13  O2  UNL     1       0.294 -11.626  11.240  1.00  0.00    -0.283 OA
ENDBRANCH  10  12
ENDBRANCH   7   8
TORSDOF 2
ENDMDL
MODEL 4
REMARK VINA RESULT: -4.803104368      1.584      1.859
REMARK  2 active torsions:
REMARK  status: ('A' for Active; 'I' for Inactive)
REMARK    1  A    between atoms: C7_7  and  C8_8 
REMARK       I    between atoms: C8_8  and  N1_10 
REMARK    2  A    between atoms: N1_10  and  C9_12 
ROOT
HETATM    1  C1  UNL     1       1.529 -11.316  16.581  1.00  0.00     0.015 C 
HETATM    2  C2  UNL     1       2.351 -11.315  15.324  1.00  0.00    -0.036 C 
HETATM    3  C3  UNL     1       3.794 -11.109  15.718  1.00  0.00     0.015 C 
HETATM    4  C4  UNL     1       1.937 -10.052  14.556  1.00  0.00     0.010 C 
HETATM    5  C5  UNL     1       2.094 -10.476  13.107  1.00  0.00     0.002 C 
HETATM    6  C6  UNL     1       1.598 -11.887  13.135  1.00  0.00     0.015 C 
HETATM    7  C7  UNL     1       2.170 -12.449  14.420  1.00  0.00     0.086 C 
ENDROOT
BRANCH   7   8
HETATM    8  C8  UNL     1       1.422 -13.606  14.917  1.00  0.00     0.228 C 
HETATM    9  O1  UNL     1       0.217 -13.704  14.518  1.00  0.00    -0.273 OA
HETATM   10  N1  UNL     1       1.876 -14.608  15.771  1.00  0.00    -0.305 N 
ATOM     11  H1  UNL     1       2.834 -14.574  16.117  1.00  0.00     0.171 HD
BRANCH  10  12
HETATM   12  C9  UNL     1       1.034 -15.666  16.163  1.00  0.00     0.355 C 
HETATM   13  O2  UNL     1       1.093 -16.214  17.305  1.00  0.00    -0.283 OA
ENDBRANCH  10  12
ENDBRANCH   7   8
TORSDOF 2
ENDMDL
MODEL 5
REMARK VINA RESULT: -4.785709016      2.484      3.342
REMARK  2 active torsions:
REMARK  status: ('A' for Active; 'I' for Inactive)
REMARK    1  A    between atoms: C7_7  and  C8_8 
REMARK       I    between atoms: C8_8  and  N1_10 
REMARK    2  A    between atoms: N1_10  and  C9_12 
ROOT
HETATM    1  C1  UNL     1       2.580 -11.263  14.162  1.00  0.00     0.015 C 
HETATM    2  C2  UNL     1       1.257 -11.154  13.460  1.00  0.00    -0.036 C 
HETATM    3  C3  UNL     1       1.497 -11.378  11.987  1.00  0.00     0.015 C 
HETATM    4  C4  UNL     1       0.829  -9.686  13.602  1.00  0.00     0.010 C 
HETATM    5  C5  UNL     1      -0.684  -9.783  13.662  1.00  0.00     0.002 C 
HETATM    6  C6  UNL     1      -0.890 -11.011  14.490  1.00  0.00     0.015 C 
HETATM    7  C7  UNL     1       0.165 -11.973  13.984  1.00  0.00     0.086 C 
ENDROOT
BRANCH   7   8
HETATM    8  C8  UNL     1       0.500 -13.015  14.959  1.00  0.00     0.228 C 
HETATM    9  O1  UNL     1       0.654 -12.623  16.161  1.00  0.00    -0.273 OA
HETATM   10  N1  UNL     1       0.666 -14.376  14.723  1.00  0.00    -0.305 N 
ATOM     11  H1  UNL     1       0.552 -14.738  13.777  1.00  0.00     0.171 HD
BRANCH  10  12
HETATM   12  C9  UNL     1       0.988 -15.261  15.769  1.00  0.00     0.355 C 
HETATM   13  O2  UNL     1       1.928 -16.110  15.697  1.00  0.00    -0.283 OA
ENDBRANCH  10  12
ENDBRANCH   7   8
TORSDOF 2
ENDMDL
