MODEL 1
REMARK VINA RESULT: -4.871415878      0.000      0.000
REMARK  2 active torsions:
REMARK  status: ('A' for Active; 'I' for Inactive)
REMARK    1  A    between atoms: C5_5  and  N1_6 
REMARK       I    between atoms: N1_6  and  C6_8 
REMARK    2  A    between atoms: C6_8  and  C7_10 
ROOT
HETATM    1  N1  UNL     1      -0.014 -12.749  14.367  1.00  0.00    -0.356 N 
ATOM      2  H1  UNL     1      -0.083 -13.092  13.408  1.00  0.00     0.162 HD
HETATM    3  C6  UNL     1      -0.474 -11.434  14.660  1.00  0.00     0.222 C 
HETATM    4  O1  UNL     1      -0.402 -10.978  15.853  1.00  0.00    -0.273 OA
ENDROOT
BRANCH   1   5
HETATM    5  C5  UNL     1       0.542 -13.606  15.365  1.00  0.00     0.084 C 
HETATM    6  C4  UNL     1       0.375 -15.061  15.114  1.00  0.00     0.025 C 
HETATM    7  C3  UNL     1       1.737 -15.675  15.417  1.00  0.00     0.006 C 
HETATM    8  C2  UNL     1       2.434 -14.644  16.270  1.00  0.00    -0.017 C 
HETATM    9  C1  UNL     1       1.964 -14.633  17.691  1.00  0.00     0.010 C 
HETATM   10  C10 UNL     1       2.025 -13.353  15.588  1.00  0.00     0.029 C 
ENDBRANCH   1   5
BRANCH   3  11
HETATM   11  C7  UNL     1      -1.051 -10.545  13.619  1.00  0.00     0.078 A 
HETATM   12  C8  UNL     1      -2.559 -10.337  13.632  1.00  0.00     0.015 A 
HETATM   13  C9  UNL     1      -1.658  -9.239  14.016  1.00  0.00     0.015 A 
ENDBRANCH   3  11
TORSDOF 2
ENDMDL
MODEL 2
REMARK VINA RESULT: -4.759822332      1.913      5.297
REMARK  2 active torsions:
REMARK  status: ('A' for Active; 'I' for Inactive)
REMARK    1  A    between atoms: C5_5  and  N1_6 
REMARK       I    between atoms: N1_6  and  C6_8 
REMARK    2  A    between atoms: C6_8  and  C7_10 
ROOT
HETATM    1  N1  UNL     1       0.830 -13.272  14.336  1.00  0.00    -0.356 N 
ATOM      2  H1  UNL     1       0.040 -13.876  14.107  1.00  0.00     0.162 HD
HETATM    3  C6  UNL     1       1.884 -13.794  15.138  1.00  0.00     0.222 C 
HETATM    4  O1  UNL     1       2.888 -13.060  15.440  1.00  0.00    -0.273 OA
ENDROOT
BRANCH   1   5
HETATM    5  C5  UNL     1       0.838 -11.933  13.840  1.00  0.00     0.084 C 
HETATM    6  C4  UNL     1       1.543 -11.742  12.546  1.00  0.00     0.025 C 
HETATM    7  C3  UNL     1       0.617 -10.860  11.716  1.00  0.00     0.006 C 
HETATM    8  C2  UNL     1      -0.297 -10.215  12.727  1.00  0.00    -0.017 C 
HETATM    9  C1  UNL     1       0.344  -9.085  13.471  1.00  0.00     0.010 C 
HETATM   10  C10 UNL     1      -0.564 -11.366  13.678  1.00  0.00     0.029 C 
ENDBRANCH   1   5
BRANCH   3  11
HETATM   11  C7  UNL     1       1.872 -15.188  15.653  1.00  0.00     0.078 A 
HETATM   12  C8  UNL     1       1.585 -15.386  17.135  1.00  0.00     0.015 A 
HETATM   13  C9  UNL     1       0.589 -15.790  16.129  1.00  0.00     0.015 A 
ENDBRANCH   3  11
TORSDOF 2
ENDMDL
MODEL 3
REMARK VINA RESULT: -4.661837526      1.613      5.208
REMARK  2 active torsions:
REMARK  status: ('A' for Active; 'I' for Inactive)
REMARK    1  A    between atoms: C5_5  and  N1_6 
REMARK       I    between atoms: N1_6  and  C6_8 
REMARK    2  A    between atoms: C6_8  and  C7_10 
ROOT
HETATM    1  N1  UNL     1       0.392 -12.995  15.173  1.00  0.00    -0.356 N 
ATOM      2  H1  UNL     1      -0.437 -13.578  15.290  1.00  0.00     0.162 HD
HETATM    3  C6  UNL     1       1.676 -13.588  15.328  1.00  0.00     0.222 C 
HETATM    4  O1  UNL     1       2.733 -12.881  15.184  1.00  0.00    -0.273 OA
ENDROOT
BRANCH   1   5
HETATM    5  C5  UNL     1       0.220 -11.612  14.859  1.00  0.00     0.084 C 
HETATM    6  C4  UNL     1      -0.810 -11.321  13.829  1.00  0.00     0.025 C 
HETATM    7  C3  UNL     1      -1.607 -10.146  14.385  1.00  0.00     0.006 C 
HETATM    8  C2  UNL     1      -0.705  -9.540  15.431  1.00  0.00    -0.017 C 
HETATM    9  C1  UNL     1       0.395  -8.704  14.854  1.00  0.00     0.010 C 
HETATM   10  C10 UNL     1      -0.117 -10.776  16.084  1.00  0.00     0.029 C 
ENDBRANCH   1   5
BRANCH   3  11
HETATM   11  C7  UNL     1       1.851 -15.027  15.655  1.00  0.00     0.078 A 
HETATM   12  C8  UNL     1       1.787 -15.425  17.123  1.00  0.00     0.015 A 
HETATM   13  C9  UNL     1       0.700 -15.805  16.206  1.00  0.00     0.015 A 
ENDBRANCH   3  11
TORSDOF 2
ENDMDL
MODEL 4
REMARK VINA RESULT: -4.603161286      2.549      5.488
REMARK  2 active torsions:
REMARK  status: ('A' for Active; 'I' for Inactive)
REMARK    1  A    between atoms: C5_5  and  N1_6 
REMARK       I    between atoms: N1_6  and  C6_8 
REMARK    2  A    between atoms: C6_8  and  C7_10 
ROOT
HETATM    1  N1  UNL     1       0.870 -12.655  13.801  1.00  0.00    -0.356 N 
ATOM      2  H1  UNL     1      -0.054 -13.064  13.657  1.00  0.00     0.162 HD
HETATM    3  C6  UNL     1       1.667 -13.122  14.883  1.00  0.00     0.222 C 
HETATM    4  O1  UNL     1       2.831 -12.629  15.086  1.00  0.00    -0.273 OA
ENDROOT
BRANCH   1   5
HETATM    5  C5  UNL     1       1.316 -11.634  12.907  1.00  0.00     0.084 C 
HETATM    6  C4  UNL     1       1.742 -12.110  11.566  1.00  0.00     0.025 C 
HETATM    7  C3  UNL     1       1.101 -11.140  10.579  1.00  0.00     0.006 C 
HETATM    8  C2  UNL     1       0.769  -9.924  11.406  1.00  0.00    -0.017 C 
HETATM    9  C1  UNL     1       1.958  -9.062  11.698  1.00  0.00     0.010 C 
HETATM   10  C10 UNL     1       0.268 -10.553  12.691  1.00  0.00     0.029 C 
ENDBRANCH   1   5
BRANCH   3  11
HETATM   11  C7  UNL     1       1.201 -14.185  15.811  1.00  0.00     0.078 A 
HETATM   12  C8  UNL     1       1.636 -15.613  15.518  1.00  0.00     0.015 A 
HETATM   13  C9  UNL     1       2.189 -14.896  16.678  1.00  0.00     0.015 A 
ENDBRANCH   3  11
TORSDOF 2
ENDMDL
MODEL 5
REMARK VINA RESULT: -4.595796925      0.742      1.166
REMARK  2 active torsions:
REMARK  status: ('A' for Active; 'I' for Inactive)
REMARK    1  A    between atoms: C5_5  and  N1_6 
REMARK       I    between atoms: N1_6  and  C6_8 
REMARK    2  A    between atoms: C6_8  and  C7_10 
ROOT
HETATM    1  N1  UNL     1       0.254 -12.742  14.258  1.00  0.00    -0.356 N 
ATOM      2  H1  UNL     1       0.382 -13.051  13.294  1.00  0.00     0.162 HD
HETATM    3  C6  UNL     1      -0.349 -11.475  14.499  1.00  0.00     0.222 C 
HETATM    4  O1  UNL     1      -0.524 -11.063  15.698  1.00  0.00    -0.273 OA
ENDROOT
BRANCH   1   5
HETATM    5  C5  UNL     1       0.685 -13.598  15.317  1.00  0.00     0.084 C 
HETATM    6  C4  UNL     1       0.416 -15.045  15.110  1.00  0.00     0.025 C 
HETATM    7  C3  UNL     1       1.707 -15.750  15.512  1.00  0.00     0.006 C 
HETATM    8  C2  UNL     1       2.437 -14.742  16.364  1.00  0.00    -0.017 C 
HETATM    9  C1  UNL     1       1.895 -14.637  17.756  1.00  0.00     0.010 C 
HETATM   10  C10 UNL     1       2.170 -13.453  15.613  1.00  0.00     0.029 C 
ENDBRANCH   1   5
BRANCH   3  11
HETATM   11  C7  UNL     1      -0.796 -10.587  13.395  1.00  0.00     0.078 A 
HETATM   12  C8  UNL     1       0.051  -9.357  13.097  1.00  0.00     0.015 A 
HETATM   13  C9  UNL     1       0.025 -10.484  12.150  1.00  0.00     0.015 A 
ENDBRANCH   3  11
TORSDOF 2
ENDMDL
