MODEL 1
REMARK VINA RESULT: -4.933762400      0.000      0.000
REMARK  2 active torsions:
REMARK  status: ('A' for Active; 'I' for Inactive)
REMARK       I    between atoms: C2_2  and  N1_4 
REMARK    1  A    between atoms: N1_4  and  C3_6 
REMARK    2  A    between atoms: C7_10  and  N2_11 
ROOT
HETATM    1  C3  UNL     1      -1.060  12.051  15.022  1.00  0.00     0.117 C 
HETATM    2  C4  UNL     1      -2.091  11.020  15.540  1.00  0.00     0.027 C 
HETATM    3  C5  UNL     1      -3.325  11.906  15.535  1.00  0.00     0.004 C 
HETATM    4  C6  UNL     1      -2.817  13.210  16.052  1.00  0.00     0.038 C 
HETATM    5  C7  UNL     1      -1.280  13.129  16.023  1.00  0.00     0.244 C 
ENDROOT
BRANCH   1   6
HETATM    6  N1  UNL     1       0.203  11.409  15.021  1.00  0.00    -0.355 N 
HETATM    7  C2  UNL     1       0.946  11.288  13.821  1.00  0.00     0.213 C 
HETATM    8  C1  UNL     1       2.270  10.618  13.801  1.00  0.00     0.117 C 
HETATM    9  O1  UNL     1       0.521  11.743  12.707  1.00  0.00    -0.274 OA
ATOM     10  H1  UNL     1       0.581  11.031  15.890  1.00  0.00     0.162 HD
ENDBRANCH   1   6
BRANCH   5  11
HETATM   11  N2  UNL     1      -0.822  14.429  15.675  1.00  0.00     0.086 N 
HETATM   12  C8  UNL     1      -1.197  15.494  16.548  1.00  0.00     0.310 C 
HETATM   13  C9  UNL     1      -1.173  14.711  14.302  1.00  0.00     0.310 C 
ENDBRANCH   5  11
TORSDOF 2
ENDMDL
MODEL 2
REMARK VINA RESULT: -4.590760479      2.209      4.041
REMARK  2 active torsions:
REMARK  status: ('A' for Active; 'I' for Inactive)
REMARK       I    between atoms: C2_2  and  N1_4 
REMARK    1  A    between atoms: N1_4  and  C3_6 
REMARK    2  A    between atoms: C7_10  and  N2_11 
ROOT
HETATM    1  C3  UNL     1      -2.075  13.266  15.971  1.00  0.00     0.117 C 
HETATM    2  C4  UNL     1      -2.052  14.458  16.957  1.00  0.00     0.027 C 
HETATM    3  C5  UNL     1      -1.655  15.555  15.984  1.00  0.00     0.004 C 
HETATM    4  C6  UNL     1      -0.624  14.901  15.126  1.00  0.00     0.038 C 
HETATM    5  C7  UNL     1      -0.701  13.391  15.416  1.00  0.00     0.244 C 
ENDROOT
BRANCH   1   6
HETATM    6  N1  UNL     1      -2.371  12.107  16.730  1.00  0.00    -0.355 N 
HETATM    7  C2  UNL     1      -3.497  11.308  16.412  1.00  0.00     0.213 C 
HETATM    8  C1  UNL     1      -3.821  10.091  17.196  1.00  0.00     0.117 C 
HETATM    9  O1  UNL     1      -4.281  11.590  15.446  1.00  0.00    -0.274 OA
ATOM     10  H1  UNL     1      -1.768  11.845  17.511  1.00  0.00     0.162 HD
ENDBRANCH   1   6
BRANCH   5  11
HETATM   11  N2  UNL     1      -0.448  12.737  14.179  1.00  0.00     0.086 N 
HETATM   12  C8  UNL     1      -1.586  12.420  13.379  1.00  0.00     0.310 C 
HETATM   13  C9  UNL     1       0.386  11.580  14.409  1.00  0.00     0.310 C 
ENDBRANCH   5  11
TORSDOF 2
ENDMDL
MODEL 3
REMARK VINA RESULT: -4.464897242      2.604      4.594
REMARK  2 active torsions:
REMARK  status: ('A' for Active; 'I' for Inactive)
REMARK       I    between atoms: C2_2  and  N1_4 
REMARK    1  A    between atoms: N1_4  and  C3_6 
REMARK    2  A    between atoms: C7_10  and  N2_11 
ROOT
HETATM    1  C3  UNL     1      -2.159  13.116  15.616  1.00  0.00     0.117 C 
HETATM    2  C4  UNL     1      -0.810  13.233  14.869  1.00  0.00     0.027 C 
HETATM    3  C5  UNL     1      -1.187  12.496  13.595  1.00  0.00     0.004 C 
HETATM    4  C6  UNL     1      -2.001  11.346  14.088  1.00  0.00     0.038 C 
HETATM    5  C7  UNL     1      -2.333  11.640  15.562  1.00  0.00     0.244 C 
ENDROOT
BRANCH   1   6
HETATM    6  N1  UNL     1      -1.979  13.706  16.892  1.00  0.00    -0.355 N 
HETATM    7  C2  UNL     1      -1.921  15.114  17.029  1.00  0.00     0.213 C 
HETATM    8  C1  UNL     1      -1.732  15.749  18.357  1.00  0.00     0.117 C 
HETATM    9  O1  UNL     1      -2.027  15.902  16.031  1.00  0.00    -0.274 OA
ATOM     10  H1  UNL     1      -1.891  13.113  17.717  1.00  0.00     0.162 HD
ENDBRANCH   1   6
BRANCH   5  11
HETATM   11  N2  UNL     1      -3.646  11.140  15.779  1.00  0.00     0.086 N 
HETATM   12  C8  UNL     1      -3.941  10.664  17.091  1.00  0.00     0.310 C 
HETATM   13  C9  UNL     1      -3.960  10.157  14.767  1.00  0.00     0.310 C 
ENDBRANCH   5  11
TORSDOF 2
ENDMDL
MODEL 4
REMARK VINA RESULT: -4.452818676      2.336      4.011
REMARK  2 active torsions:
REMARK  status: ('A' for Active; 'I' for Inactive)
REMARK       I    between atoms: C2_2  and  N1_4 
REMARK    1  A    between atoms: N1_4  and  C3_6 
REMARK    2  A    between atoms: C7_10  and  N2_11 
ROOT
HETATM    1  C3  UNL     1      -2.483  13.099  16.489  1.00  0.00     0.117 C 
HETATM    2  C4  UNL     1      -2.256  14.223  17.528  1.00  0.00     0.027 C 
HETATM    3  C5  UNL     1      -1.809  15.325  16.583  1.00  0.00     0.004 C 
HETATM    4  C6  UNL     1      -0.922  14.615  15.616  1.00  0.00     0.038 C 
HETATM    5  C7  UNL     1      -1.146  13.108  15.836  1.00  0.00     0.244 C 
ENDROOT
BRANCH   1   6
HETATM    6  N1  UNL     1      -2.851  11.936  17.210  1.00  0.00    -0.355 N 
HETATM    7  C2  UNL     1      -3.655  10.940  16.604  1.00  0.00     0.213 C 
HETATM    8  C1  UNL     1      -4.050   9.717  17.344  1.00  0.00     0.117 C 
HETATM    9  O1  UNL     1      -4.076  11.042  15.403  1.00  0.00    -0.274 OA
ATOM     10  H1  UNL     1      -2.534  11.815  18.172  1.00  0.00     0.162 HD
ENDBRANCH   1   6
BRANCH   5  11
HETATM   11  N2  UNL     1      -1.057  12.503  14.552  1.00  0.00     0.086 N 
HETATM   12  C8  UNL     1       0.250  12.155  14.099  1.00  0.00     0.310 C 
HETATM   13  C9  UNL     1      -1.761  13.317  13.588  1.00  0.00     0.310 C 
ENDBRANCH   5  11
TORSDOF 2
ENDMDL
MODEL 5
REMARK VINA RESULT: -4.419134436      2.056      4.409
REMARK  2 active torsions:
REMARK  status: ('A' for Active; 'I' for Inactive)
REMARK       I    between atoms: C2_2  and  N1_4 
REMARK    1  A    between atoms: N1_4  and  C3_6 
REMARK    2  A    between atoms: C7_10  and  N2_11 
ROOT
HETATM    1  C3  UNL     1      -0.779  12.038  13.879  1.00  0.00     0.117 C 
HETATM    2  C4  UNL     1      -1.773  11.842  12.710  1.00  0.00     0.027 C 
HETATM    3  C5  UNL     1      -1.631  10.340  12.536  1.00  0.00     0.004 C 
HETATM    4  C6  UNL     1      -0.166  10.108  12.699  1.00  0.00     0.038 C 
HETATM    5  C7  UNL     1       0.424  11.408  13.275  1.00  0.00     0.244 C 
ENDROOT
BRANCH   1   6
HETATM    6  N1  UNL     1      -0.724  13.428  14.147  1.00  0.00    -0.355 N 
HETATM    7  C2  UNL     1      -0.945  13.916  15.459  1.00  0.00     0.213 C 
HETATM    8  C1  UNL     1      -0.891  15.368  15.757  1.00  0.00     0.117 C 
HETATM    9  O1  UNL     1      -1.198  13.141  16.441  1.00  0.00    -0.274 OA
ATOM     10  H1  UNL     1      -0.524  14.083  13.391  1.00  0.00     0.162 HD
ENDBRANCH   1   6
BRANCH   5  11
HETATM   11  N2  UNL     1       1.457  11.011  14.169  1.00  0.00     0.086 N 
HETATM   12  C8  UNL     1       2.541  10.274  13.606  1.00  0.00     0.310 C 
HETATM   13  C9  UNL     1       0.875  10.329  15.302  1.00  0.00     0.310 C 
ENDBRANCH   5  11
TORSDOF 2
ENDMDL
