MODEL 1
REMARK VINA RESULT: -4.869881141      0.000      0.000
REMARK  2 active torsions:
REMARK  status: ('A' for Active; 'I' for Inactive)
REMARK       I    between atoms: C2_2  and  N1_4 
REMARK    1  A    between atoms: N1_4  and  C3_6 
REMARK    2  A    between atoms: C6_9  and  N2_10 
ROOT
HETATM    1  C3  UNL     1      -1.990  12.587  13.801  1.00  0.00     0.086 C 
HETATM    2  C4  UNL     1      -2.722  11.887  14.919  1.00  0.00     0.027 C 
HETATM    3  C5  UNL     1      -2.172  12.525  16.174  1.00  0.00     0.027 C 
HETATM    4  C6  UNL     1      -1.978  13.942  15.713  1.00  0.00     0.080 C 
HETATM    5  C9  UNL     1      -1.183  13.697  14.447  1.00  0.00     0.050 C 
ENDROOT
BRANCH   1   6
HETATM    6  N1  UNL     1      -1.185  11.648  13.062  1.00  0.00    -0.357 N 
HETATM    7  C2  UNL     1      -1.234  11.493  11.665  1.00  0.00     0.213 C 
HETATM    8  C1  UNL     1      -0.377  10.508  10.957  1.00  0.00     0.117 C 
HETATM    9  O1  UNL     1      -2.011  12.185  10.944  1.00  0.00    -0.274 OA
ATOM     10  H1  UNL     1      -0.538  11.058  13.586  1.00  0.00     0.162 HD
ENDBRANCH   1   6
BRANCH   4  11
HETATM   11  N2  UNL     1      -1.454  14.847  16.615  1.00  0.00    -0.416 N 
HETATM   12  C7  UNL     1      -0.549  15.831  16.143  1.00  0.00     0.143 C 
HETATM   13  C8  UNL     1      -2.028  15.055  17.877  1.00  0.00     0.143 C 
ENDBRANCH   4  11
TORSDOF 2
ENDMDL
MODEL 2
REMARK VINA RESULT: -4.838980081      0.230      1.009
REMARK  2 active torsions:
REMARK  status: ('A' for Active; 'I' for Inactive)
REMARK       I    between atoms: C2_2  and  N1_4 
REMARK    1  A    between atoms: N1_4  and  C3_6 
REMARK    2  A    between atoms: C6_9  and  N2_10 
ROOT
HETATM    1  C3  UNL     1      -2.162  12.482  14.006  1.00  0.00     0.086 C 
HETATM    2  C4  UNL     1      -2.667  11.797  15.252  1.00  0.00     0.027 C 
HETATM    3  C5  UNL     1      -2.083  12.613  16.382  1.00  0.00     0.027 C 
HETATM    4  C6  UNL     1      -2.140  13.996  15.796  1.00  0.00     0.080 C 
HETATM    5  C9  UNL     1      -1.456  13.743  14.469  1.00  0.00     0.050 C 
ENDROOT
BRANCH   1   6
HETATM    6  N1  UNL     1      -1.315  11.594  13.252  1.00  0.00    -0.357 N 
HETATM    7  C2  UNL     1      -1.311  11.511  11.847  1.00  0.00     0.213 C 
HETATM    8  C1  UNL     1      -0.412  10.576  11.124  1.00  0.00     0.117 C 
HETATM    9  O1  UNL     1      -2.071  12.228  11.134  1.00  0.00    -0.274 OA
ATOM     10  H1  UNL     1      -0.679  10.987  13.768  1.00  0.00     0.162 HD
ENDBRANCH   1   6
BRANCH   4  11
HETATM   11  N2  UNL     1      -1.656  15.039  16.560  1.00  0.00    -0.416 N 
HETATM   12  C7  UNL     1      -2.024  15.106  17.929  1.00  0.00     0.143 C 
HETATM   13  C8  UNL     1      -0.566  15.818  16.150  1.00  0.00     0.143 C 
ENDBRANCH   4  11
TORSDOF 2
ENDMDL
MODEL 3
REMARK VINA RESULT: -4.792029411      1.242      1.582
REMARK  2 active torsions:
REMARK  status: ('A' for Active; 'I' for Inactive)
REMARK       I    between atoms: C2_2  and  N1_4 
REMARK    1  A    between atoms: N1_4  and  C3_6 
REMARK    2  A    between atoms: C6_9  and  N2_10 
ROOT
HETATM    1  C3  UNL     1      -1.531  12.488  14.332  1.00  0.00     0.086 C 
HETATM    2  C4  UNL     1      -2.771  12.198  15.141  1.00  0.00     0.027 C 
HETATM    3  C5  UNL     1      -2.598  13.032  16.390  1.00  0.00     0.027 C 
HETATM    4  C6  UNL     1      -1.919  14.250  15.828  1.00  0.00     0.080 C 
HETATM    5  C9  UNL     1      -0.789  13.589  15.067  1.00  0.00     0.050 C 
ENDROOT
BRANCH   1   6
HETATM    6  N1  UNL     1      -0.752  11.288  14.158  1.00  0.00    -0.357 N 
HETATM    7  C2  UNL     1      -0.001  10.995  13.006  1.00  0.00     0.213 C 
HETATM    8  C1  UNL     1       0.786   9.741  12.885  1.00  0.00     0.117 C 
HETATM    9  O1  UNL     1       0.042  11.785  12.018  1.00  0.00    -0.274 OA
ATOM     10  H1  UNL     1      -0.746  10.608  14.918  1.00  0.00     0.162 HD
ENDBRANCH   1   6
BRANCH   4  11
HETATM   11  N2  UNL     1      -1.575  15.257  16.707  1.00  0.00    -0.416 N 
HETATM   12  C7  UNL     1      -2.118  15.230  18.018  1.00  0.00     0.143 C 
HETATM   13  C8  UNL     1      -0.470  16.091  16.487  1.00  0.00     0.143 C 
ENDBRANCH   4  11
TORSDOF 2
ENDMDL
MODEL 4
REMARK VINA RESULT: -4.776926034      2.334      5.400
REMARK  2 active torsions:
REMARK  status: ('A' for Active; 'I' for Inactive)
REMARK       I    between atoms: C2_2  and  N1_4 
REMARK    1  A    between atoms: N1_4  and  C3_6 
REMARK    2  A    between atoms: C6_9  and  N2_10 
ROOT
HETATM    1  C3  UNL     1      -1.949  13.613  15.308  1.00  0.00     0.086 C 
HETATM    2  C4  UNL     1      -0.533  13.332  14.869  1.00  0.00     0.027 C 
HETATM    3  C5  UNL     1      -0.543  11.862  14.515  1.00  0.00     0.027 C 
HETATM    4  C6  UNL     1      -1.919  11.719  13.927  1.00  0.00     0.080 C 
HETATM    5  C9  UNL     1      -2.740  12.347  15.033  1.00  0.00     0.050 C 
ENDROOT
BRANCH   1   6
HETATM    6  N1  UNL     1      -1.975  14.017  16.691  1.00  0.00    -0.357 N 
HETATM    7  C2  UNL     1      -1.753  15.334  17.133  1.00  0.00     0.213 C 
HETATM    8  C1  UNL     1      -1.796  15.691  18.574  1.00  0.00     0.117 C 
HETATM    9  O1  UNL     1      -1.508  16.276  16.325  1.00  0.00    -0.274 OA
ATOM     10  H1  UNL     1      -2.167  13.303  17.394  1.00  0.00     0.162 HD
ENDBRANCH   1   6
BRANCH   4  11
HETATM   11  N2  UNL     1      -2.306  10.466  13.495  1.00  0.00    -0.416 N 
HETATM   12  C7  UNL     1      -1.761   9.967  12.284  1.00  0.00     0.143 C 
HETATM   13  C8  UNL     1      -2.924   9.543  14.349  1.00  0.00     0.143 C 
ENDBRANCH   4  11
TORSDOF 2
ENDMDL
MODEL 5
REMARK VINA RESULT: -4.741021659      1.032      1.032
REMARK  2 active torsions:
REMARK  status: ('A' for Active; 'I' for Inactive)
REMARK       I    between atoms: C2_2  and  N1_4 
REMARK    1  A    between atoms: N1_4  and  C3_6 
REMARK    2  A    between atoms: C6_9  and  N2_10 
ROOT
HETATM    1  C3  UNL     1      -1.539  12.193  14.029  1.00  0.00     0.086 C 
HETATM    2  C4  UNL     1      -2.720  11.837  14.898  1.00  0.00     0.027 C 
HETATM    3  C5  UNL     1      -2.468  12.588  16.186  1.00  0.00     0.027 C 
HETATM    4  C6  UNL     1      -1.836  13.848  15.662  1.00  0.00     0.080 C 
HETATM    5  C9  UNL     1      -0.756  13.250  14.784  1.00  0.00     0.050 C 
ENDROOT
BRANCH   1   6
HETATM    6  N1  UNL     1      -0.767  11.016  13.723  1.00  0.00    -0.357 N 
HETATM    7  C2  UNL     1      -0.068  10.821  12.518  1.00  0.00     0.213 C 
HETATM    8  C1  UNL     1       0.714   9.585  12.260  1.00  0.00     0.117 C 
HETATM    9  O1  UNL     1      -0.073  11.688  11.596  1.00  0.00    -0.274 OA
ATOM     10  H1  UNL     1      -0.723  10.277  14.426  1.00  0.00     0.162 HD
ENDBRANCH   1   6
BRANCH   4  11
HETATM   11  N2  UNL     1      -1.439  14.798  16.582  1.00  0.00    -0.416 N 
HETATM   12  C7  UNL     1      -0.558  15.827  16.159  1.00  0.00     0.143 C 
HETATM   13  C8  UNL     1      -2.123  14.995  17.789  1.00  0.00     0.143 C 
ENDBRANCH   4  11
TORSDOF 2
ENDMDL
