MODEL 1
REMARK VINA RESULT: -4.939790910      0.000      0.000
REMARK  2 active torsions:
REMARK  status: ('A' for Active; 'I' for Inactive)
REMARK    1  A    between atoms: C2_2  and  C3_3 
REMARK    2  A    between atoms: C4_9  and  C5_10 
ROOT
HETATM    1  C3  UNL     1      -0.935  13.433  15.227  1.00  0.00     0.135 C 
HETATM    2  N1  UNL     1       0.012  13.739  14.140  1.00  0.00    -0.309 N 
ATOM      3  H1  UNL     1       0.457  14.571  13.752  1.00  0.00     0.172 HD
HETATM    4  S1  UNL     1       0.020  12.026  13.823  1.00  0.00     0.234 S 
HETATM    5  O1  UNL     1       0.196  11.667  12.402  1.00  0.00    -0.205 OA
HETATM    6  O2  UNL     1       0.846  11.333  14.821  1.00  0.00    -0.205 OA
HETATM    7  C4  UNL     1      -1.614  12.494  14.319  1.00  0.00     0.159 C 
ENDROOT
BRANCH   7   8
HETATM    8  C5  UNL     1      -2.378  11.354  14.857  1.00  0.00    -0.000 C 
HETATM    9  C6  UNL     1      -2.685  10.272  13.856  1.00  0.00     0.011 C 
HETATM   10  C7  UNL     1      -3.682  11.728  15.529  1.00  0.00     0.011 C 
ENDBRANCH   7   8
BRANCH   1  11
HETATM   11  C2  UNL     1      -1.645  14.681  15.590  1.00  0.00    -0.010 C 
HETATM   12  C1  UNL     1      -2.037  14.994  16.800  1.00  0.00     0.009 C 
ENDBRANCH   1  11
TORSDOF 2
ENDMDL
MODEL 2
REMARK VINA RESULT: -4.827696040      2.942      3.482
REMARK  2 active torsions:
REMARK  status: ('A' for Active; 'I' for Inactive)
REMARK    1  A    between atoms: C2_2  and  C3_3 
REMARK    2  A    between atoms: C4_9  and  C5_10 
ROOT
HETATM    1  C3  UNL     1      -2.266  14.188  16.697  1.00  0.00     0.135 C 
HETATM    2  N1  UNL     1      -2.554  13.067  17.609  1.00  0.00    -0.309 N 
ATOM      3  H1  UNL     1      -2.704  12.940  18.610  1.00  0.00     0.172 HD
HETATM    4  S1  UNL     1      -2.519  12.057  16.189  1.00  0.00     0.234 S 
HETATM    5  O1  UNL     1      -2.014  10.690  16.423  1.00  0.00    -0.205 OA
HETATM    6  O2  UNL     1      -3.765  12.216  15.428  1.00  0.00    -0.205 OA
HETATM    7  C4  UNL     1      -1.297  13.324  16.002  1.00  0.00     0.159 C 
ENDROOT
BRANCH   7   8
HETATM    8  C5  UNL     1      -0.961  13.565  14.587  1.00  0.00    -0.000 C 
HETATM    9  C6  UNL     1      -0.119  12.491  13.948  1.00  0.00     0.011 C 
HETATM   10  C7  UNL     1      -0.279  14.889  14.317  1.00  0.00     0.011 C 
ENDBRANCH   7   8
BRANCH   1  11
HETATM   11  C2  UNL     1      -1.739  15.316  17.499  1.00  0.00    -0.010 C 
HETATM   12  C1  UNL     1      -2.051  15.555  18.749  1.00  0.00     0.009 C 
ENDBRANCH   1  11
TORSDOF 2
ENDMDL
MODEL 3
REMARK VINA RESULT: -4.818083765      2.888      3.976
REMARK  2 active torsions:
REMARK  status: ('A' for Active; 'I' for Inactive)
REMARK    1  A    between atoms: C2_2  and  C3_3 
REMARK    2  A    between atoms: C4_9  and  C5_10 
ROOT
HETATM    1  C3  UNL     1      -1.262  13.775  14.378  1.00  0.00     0.135 C 
HETATM    2  N1  UNL     1      -0.084  14.655  14.283  1.00  0.00    -0.309 N 
ATOM      3  H1  UNL     1       0.782  14.685  13.746  1.00  0.00     0.172 HD
HETATM    4  S1  UNL     1      -0.854  15.622  15.512  1.00  0.00     0.234 S 
HETATM    5  O1  UNL     1       0.080  16.290  16.439  1.00  0.00    -0.205 OA
HETATM    6  O2  UNL     1      -1.935  16.420  14.920  1.00  0.00    -0.205 OA
HETATM    7  C4  UNL     1      -1.203  13.918  15.842  1.00  0.00     0.159 C 
ENDROOT
BRANCH   7   8
HETATM    8  C5  UNL     1      -2.419  13.749  16.659  1.00  0.00    -0.000 C 
HETATM    9  C6  UNL     1      -2.425  14.529  17.948  1.00  0.00     0.011 C 
HETATM   10  C7  UNL     1      -2.755  12.314  17.001  1.00  0.00     0.011 C 
ENDBRANCH   7   8
BRANCH   1  11
HETATM   11  C2  UNL     1      -0.907  12.460  13.795  1.00  0.00    -0.010 C 
HETATM   12  C1  UNL     1      -1.769  11.600  13.309  1.00  0.00     0.009 C 
ENDBRANCH   1  11
TORSDOF 2
ENDMDL
MODEL 4
REMARK VINA RESULT: -4.588732852      2.312      3.491
REMARK  2 active torsions:
REMARK  status: ('A' for Active; 'I' for Inactive)
REMARK    1  A    between atoms: C2_2  and  C3_3 
REMARK    2  A    between atoms: C4_9  and  C5_10 
ROOT
HETATM    1  C3  UNL     1      -0.892  12.323  14.269  1.00  0.00     0.135 C 
HETATM    2  N1  UNL     1       0.326  13.126  14.060  1.00  0.00    -0.309 N 
ATOM      3  H1  UNL     1       1.282  12.962  13.746  1.00  0.00     0.172 HD
HETATM    4  S1  UNL     1      -0.622  14.487  14.596  1.00  0.00     0.234 S 
HETATM    5  O1  UNL     1       0.143  15.513  15.332  1.00  0.00    -0.205 OA
HETATM    6  O2  UNL     1      -1.520  14.929  13.522  1.00  0.00    -0.205 OA
HETATM    7  C4  UNL     1      -1.118  13.062  15.522  1.00  0.00     0.159 C 
ENDROOT
BRANCH   7   8
HETATM    8  C5  UNL     1      -2.478  13.204  16.071  1.00  0.00    -0.000 C 
HETATM    9  C6  UNL     1      -2.622  14.263  17.134  1.00  0.00     0.011 C 
HETATM   10  C7  UNL     1      -3.072  11.928  16.627  1.00  0.00     0.011 C 
ENDBRANCH   7   8
BRANCH   1  11
HETATM   11  C2  UNL     1      -0.497  10.899  14.366  1.00  0.00    -0.010 C 
HETATM   12  C1  UNL     1       0.207  10.382  15.343  1.00  0.00     0.009 C 
ENDBRANCH   1  11
TORSDOF 2
ENDMDL
MODEL 5
REMARK VINA RESULT: -4.558114613      2.336      2.595
REMARK  2 active torsions:
REMARK  status: ('A' for Active; 'I' for Inactive)
REMARK    1  A    between atoms: C2_2  and  C3_3 
REMARK    2  A    between atoms: C4_9  and  C5_10 
ROOT
HETATM    1  C3  UNL     1      -1.416  14.732  16.468  1.00  0.00     0.135 C 
HETATM    2  N1  UNL     1      -1.678  15.917  15.632  1.00  0.00    -0.309 N 
ATOM      3  H1  UNL     1      -2.045  16.858  15.767  1.00  0.00     0.172 HD
HETATM    4  S1  UNL     1      -1.072  14.966  14.302  1.00  0.00     0.234 S 
HETATM    5  O1  UNL     1      -1.706  15.259  13.002  1.00  0.00    -0.205 OA
HETATM    6  O2  UNL     1       0.393  14.897  14.360  1.00  0.00    -0.205 OA
HETATM    7  C4  UNL     1      -1.969  13.896  15.390  1.00  0.00     0.159 C 
ENDROOT
BRANCH   7   8
HETATM    8  C5  UNL     1      -1.556  12.488  15.248  1.00  0.00    -0.000 C 
HETATM    9  C6  UNL     1      -1.912  11.856  13.928  1.00  0.00     0.011 C 
HETATM   10  C7  UNL     1      -2.063  11.568  16.338  1.00  0.00     0.011 C 
ENDBRANCH   7   8
BRANCH   1  11
HETATM   11  C2  UNL     1      -2.202  14.862  17.717  1.00  0.00    -0.010 C 
HETATM   12  C1  UNL     1      -1.934  15.704  18.684  1.00  0.00     0.009 C 
ENDBRANCH   1  11
TORSDOF 2
ENDMDL
