MODEL 1
REMARK VINA RESULT: -4.605985558      0.000      0.000
REMARK  1 active torsions:
REMARK  status: ('A' for Active; 'I' for Inactive)
REMARK    1  A    between atoms: C3_6  and  C4_7 
REMARK       I    between atoms: C4_7  and  N2_9 
ROOT
HETATM    1  C1  UNL     1      -1.206  10.985  11.167  1.00  0.00     0.051 C 
HETATM    2  C2  UNL     1      -1.574  11.141  12.623  1.00  0.00     0.244 C 
HETATM    3  N1  UNL     1      -1.198  12.478  13.027  1.00  0.00    -0.049 N 
ATOM      4  H11 UNL     1      -1.846  13.195  12.703  1.00  0.00     0.279 HD
ATOM      5  H12 UNL     1      -0.370  12.828  12.544  1.00  0.00     0.279 HD
HETATM    6  C3  UNL     1      -1.050  12.444  14.475  1.00  0.00     0.287 C 
HETATM    7  C7  UNL     1       0.176  11.535  14.696  1.00  0.00     0.119 C 
HETATM    8  S1  UNL     1      -0.346  10.159  13.581  1.00  0.00    -0.134 SA
ENDROOT
BRANCH   6   9
HETATM    9  C4  UNL     1      -0.840  13.810  14.937  1.00  0.00     0.250 C 
HETATM   10  O1  UNL     1      -0.133  14.604  14.225  1.00  0.00    -0.271 OA
HETATM   11  N2  UNL     1      -1.357  14.378  16.135  1.00  0.00    -0.359 N 
HETATM   12  C5  UNL     1      -1.052  15.756  16.519  1.00  0.00     0.152 C 
HETATM   13  C6  UNL     1      -2.214  13.627  16.985  1.00  0.00     0.152 C 
ENDBRANCH   6   9
TORSDOF 1
ENDMDL
MODEL 2
REMARK VINA RESULT: -4.586989354      1.902      2.278
REMARK  1 active torsions:
REMARK  status: ('A' for Active; 'I' for Inactive)
REMARK    1  A    between atoms: C3_6  and  C4_7 
REMARK       I    between atoms: C4_7  and  N2_9 
ROOT
HETATM    1  C1  UNL     1       1.222  10.605  13.493  1.00  0.00     0.051 C 
HETATM    2  C2  UNL     1       0.257  11.765  13.447  1.00  0.00     0.244 C 
HETATM    3  N1  UNL     1      -0.049  12.130  14.813  1.00  0.00    -0.049 N 
ATOM      4  H11 UNL     1       0.694  12.662  15.265  1.00  0.00     0.279 HD
ATOM      5  H12 UNL     1      -0.046  11.337  15.454  1.00  0.00     0.279 HD
HETATM    6  C3  UNL     1      -1.322  12.836  14.774  1.00  0.00     0.287 C 
HETATM    7  C7  UNL     1      -2.330  11.748  14.352  1.00  0.00     0.119 C 
HETATM    8  S1  UNL     1      -1.369  11.074  12.928  1.00  0.00    -0.134 SA
ENDROOT
BRANCH   6   9
HETATM    9  C4  UNL     1      -1.581  13.370  16.105  1.00  0.00     0.250 C 
HETATM   10  O1  UNL     1      -1.669  12.560  17.092  1.00  0.00    -0.271 OA
HETATM   11  N2  UNL     1      -1.747  14.743  16.439  1.00  0.00    -0.359 N 
HETATM   12  C5  UNL     1      -2.040  15.165  17.809  1.00  0.00     0.152 C 
HETATM   13  C6  UNL     1      -1.607  15.755  15.449  1.00  0.00     0.152 C 
ENDBRANCH   6   9
TORSDOF 1
ENDMDL
MODEL 3
REMARK VINA RESULT: -4.559743540      2.361      4.441
REMARK  1 active torsions:
REMARK  status: ('A' for Active; 'I' for Inactive)
REMARK    1  A    between atoms: C3_6  and  C4_7 
REMARK       I    between atoms: C4_7  and  N2_9 
ROOT
HETATM    1  C1  UNL     1      -1.599  15.580  15.537  1.00  0.00     0.051 C 
HETATM    2  C2  UNL     1      -1.175  14.189  15.942  1.00  0.00     0.244 C 
HETATM    3  N1  UNL     1      -0.403  13.634  14.852  1.00  0.00    -0.049 N 
ATOM      4  H11 UNL     1       0.549  13.998  14.805  1.00  0.00     0.279 HD
ATOM      5  H12 UNL     1      -0.708  13.958  13.934  1.00  0.00     0.279 HD
HETATM    6  C3  UNL     1      -0.461  12.187  15.002  1.00  0.00     0.287 C 
HETATM    7  C7  UNL     1      -1.942  11.852  14.734  1.00  0.00     0.119 C 
HETATM    8  S1  UNL     1      -2.680  13.132  15.840  1.00  0.00    -0.134 SA
ENDROOT
BRANCH   6   9
HETATM    9  C4  UNL     1       0.445  11.597  14.025  1.00  0.00     0.250 C 
HETATM   10  O1  UNL     1       0.517  12.113  12.856  1.00  0.00    -0.271 OA
HETATM   11  N2  UNL     1       1.291  10.473  14.238  1.00  0.00    -0.359 N 
HETATM   12  C5  UNL     1       2.137   9.942  13.170  1.00  0.00     0.152 C 
HETATM   13  C6  UNL     1       1.359   9.846  15.513  1.00  0.00     0.152 C 
ENDBRANCH   6   9
TORSDOF 1
ENDMDL
MODEL 4
REMARK VINA RESULT: -4.460867960      2.861      4.918
REMARK  1 active torsions:
REMARK  status: ('A' for Active; 'I' for Inactive)
REMARK    1  A    between atoms: C3_6  and  C4_7 
REMARK       I    between atoms: C4_7  and  N2_9 
ROOT
HETATM    1  C1  UNL     1      -1.947  15.476  18.338  1.00  0.00     0.051 C 
HETATM    2  C2  UNL     1      -2.377  14.738  17.094  1.00  0.00     0.244 C 
HETATM    3  N1  UNL     1      -1.729  13.445  17.110  1.00  0.00    -0.049 N 
ATOM      4  H11 UNL     1      -2.165  12.782  17.751  1.00  0.00     0.279 HD
ATOM      5  H12 UNL     1      -0.808  13.459  17.549  1.00  0.00     0.279 HD
HETATM    6  C3  UNL     1      -1.704  12.980  15.730  1.00  0.00     0.287 C 
HETATM    7  C7  UNL     1      -0.745  13.966  15.031  1.00  0.00     0.119 C 
HETATM    8  S1  UNL     1      -1.489  15.524  15.685  1.00  0.00    -0.134 SA
ENDROOT
BRANCH   6   9
HETATM    9  C4  UNL     1      -1.214  11.608  15.727  1.00  0.00     0.250 C 
HETATM   10  O1  UNL     1      -0.127  11.335  16.343  1.00  0.00    -0.271 OA
HETATM   11  N2  UNL     1      -1.839  10.498  15.093  1.00  0.00    -0.359 N 
HETATM   12  C5  UNL     1      -1.239   9.164  15.124  1.00  0.00     0.152 C 
HETATM   13  C6  UNL     1      -3.088  10.647  14.429  1.00  0.00     0.152 C 
ENDBRANCH   6   9
TORSDOF 1
ENDMDL
MODEL 5
REMARK VINA RESULT: -4.370590574      2.458      4.866
REMARK  1 active torsions:
REMARK  status: ('A' for Active; 'I' for Inactive)
REMARK    1  A    between atoms: C3_6  and  C4_7 
REMARK       I    between atoms: C4_7  and  N2_9 
ROOT
HETATM    1  C1  UNL     1      -2.081  15.196  18.237  1.00  0.00     0.051 C 
HETATM    2  C2  UNL     1      -2.396  14.626  16.876  1.00  0.00     0.244 C 
HETATM    3  N1  UNL     1      -1.647  13.397  16.735  1.00  0.00    -0.049 N 
ATOM      4  H11 UNL     1      -2.054  12.614  17.246  1.00  0.00     0.279 HD
ATOM      5  H12 UNL     1      -0.750  13.412  17.220  1.00  0.00     0.279 HD
HETATM    6  C3  UNL     1      -1.525  13.151  15.304  1.00  0.00     0.287 C 
HETATM    7  C7  UNL     1      -0.621  14.300  14.813  1.00  0.00     0.119 C 
HETATM    8  S1  UNL     1      -1.516  15.680  15.649  1.00  0.00    -0.134 SA
ENDROOT
BRANCH   6   9
HETATM    9  C4  UNL     1      -0.926  11.835  15.124  1.00  0.00     0.250 C 
HETATM   10  O1  UNL     1      -0.287  11.305  16.098  1.00  0.00    -0.271 OA
HETATM   11  N2  UNL     1      -0.980  11.045  13.942  1.00  0.00    -0.359 N 
HETATM   12  C5  UNL     1      -0.310   9.748  13.860  1.00  0.00     0.152 C 
HETATM   13  C6  UNL     1      -1.716  11.485  12.806  1.00  0.00     0.152 C 
ENDBRANCH   6   9
TORSDOF 1
ENDMDL
