MODEL 1
REMARK VINA RESULT: -5.138818204      0.000      0.000
REMARK  2 active torsions:
REMARK  status: ('A' for Active; 'I' for Inactive)
REMARK    1  A    between atoms: S1_2  and  N1_5 
REMARK    2  A    between atoms: N1_5  and  C2_7 
ROOT
HETATM    1  C2  UNL     1      -1.356  13.486  14.553  1.00  0.00     0.092 C 
HETATM    2  C3  UNL     1      -2.443  13.281  15.572  1.00  0.00     0.026 C 
HETATM    3  C4  UNL     1      -2.120  13.813  16.919  1.00  0.00     0.002 C 
HETATM    4  C5  UNL     1      -1.881  15.320  16.774  1.00  0.00     0.000 C 
HETATM    5  C6  UNL     1      -0.642  15.462  15.953  1.00  0.00     0.002 C 
HETATM    6  C7  UNL     1      -0.671  14.800  14.639  1.00  0.00     0.026 C 
ENDROOT
BRANCH   1   7
HETATM    7  N1  UNL     1      -1.810  13.327  13.208  1.00  0.00    -0.315 N 
ATOM      8  H1  UNL     1      -2.351  14.048  12.730  1.00  0.00     0.172 HD
BRANCH   7   9
HETATM    9  S1  UNL     1      -1.391  11.865  12.458  1.00  0.00     0.223 S 
HETATM   10  C1  UNL     1      -2.056  10.442  13.269  1.00  0.00     0.185 C 
HETATM   11  O1  UNL     1       0.108  11.739  12.499  1.00  0.00    -0.206 OA
HETATM   12  O2  UNL     1      -1.793  11.801  11.014  1.00  0.00    -0.206 OA
ENDBRANCH   7   9
ENDBRANCH   1   7
TORSDOF 2
ENDMDL
MODEL 2
REMARK VINA RESULT: -5.111855770      3.342      4.666
REMARK  2 active torsions:
REMARK  status: ('A' for Active; 'I' for Inactive)
REMARK    1  A    between atoms: S1_2  and  N1_5 
REMARK    2  A    between atoms: N1_5  and  C2_7 
ROOT
HETATM    1  C2  UNL     1      -1.880  13.359  15.029  1.00  0.00     0.092 C 
HETATM    2  C3  UNL     1      -2.717  12.570  15.997  1.00  0.00     0.026 C 
HETATM    3  C4  UNL     1      -3.633  11.595  15.354  1.00  0.00     0.002 C 
HETATM    4  C5  UNL     1      -2.769  10.609  14.558  1.00  0.00     0.000 C 
HETATM    5  C6  UNL     1      -2.152  11.404  13.455  1.00  0.00     0.002 C 
HETATM    6  C7  UNL     1      -1.367  12.574  13.877  1.00  0.00     0.026 C 
ENDROOT
BRANCH   1   7
HETATM    7  N1  UNL     1      -0.760  13.996  15.644  1.00  0.00    -0.315 N 
ATOM      8  H1  UNL     1       0.159  13.555  15.688  1.00  0.00     0.172 HD
BRANCH   7   9
HETATM    9  S1  UNL     1      -1.056  15.533  16.299  1.00  0.00     0.223 S 
HETATM   10  C1  UNL     1      -1.789  15.484  17.906  1.00  0.00     0.185 C 
HETATM   11  O1  UNL     1      -2.025  16.241  15.390  1.00  0.00    -0.206 OA
HETATM   12  O2  UNL     1       0.172  16.391  16.379  1.00  0.00    -0.206 OA
ENDBRANCH   7   9
ENDBRANCH   1   7
TORSDOF 2
ENDMDL
MODEL 3
REMARK VINA RESULT: -5.060419751      1.388      2.050
REMARK  2 active torsions:
REMARK  status: ('A' for Active; 'I' for Inactive)
REMARK    1  A    between atoms: S1_2  and  N1_5 
REMARK    2  A    between atoms: N1_5  and  C2_7 
ROOT
HETATM    1  C2  UNL     1      -0.756  13.190  14.744  1.00  0.00     0.092 C 
HETATM    2  C3  UNL     1      -0.506  14.671  14.690  1.00  0.00     0.026 C 
HETATM    3  C4  UNL     1      -1.570  15.490  15.323  1.00  0.00     0.002 C 
HETATM    4  C5  UNL     1      -1.656  15.075  16.796  1.00  0.00     0.000 C 
HETATM    5  C6  UNL     1      -2.148  13.665  16.796  1.00  0.00     0.002 C 
HETATM    6  C7  UNL     1      -1.340  12.710  16.022  1.00  0.00     0.026 C 
ENDROOT
BRANCH   1   7
HETATM    7  N1  UNL     1       0.415  12.413  14.491  1.00  0.00    -0.315 N 
ATOM      8  H1  UNL     1       1.283  12.556  15.007  1.00  0.00     0.172 HD
BRANCH   7   9
HETATM    9  S1  UNL     1       0.269  11.237  13.276  1.00  0.00     0.223 S 
HETATM   10  C1  UNL     1      -0.801   9.901  13.716  1.00  0.00     0.185 C 
HETATM   11  O1  UNL     1       1.635  10.651  13.037  1.00  0.00    -0.206 OA
HETATM   12  O2  UNL     1      -0.202  11.792  11.965  1.00  0.00    -0.206 OA
ENDBRANCH   7   9
ENDBRANCH   1   7
TORSDOF 2
ENDMDL
MODEL 4
REMARK VINA RESULT: -5.013716628      3.376      4.734
REMARK  2 active torsions:
REMARK  status: ('A' for Active; 'I' for Inactive)
REMARK    1  A    between atoms: S1_2  and  N1_5 
REMARK    2  A    between atoms: N1_5  and  C2_7 
ROOT
HETATM    1  C2  UNL     1      -1.231  12.871  15.784  1.00  0.00     0.092 C 
HETATM    2  C3  UNL     1      -0.335  11.667  15.690  1.00  0.00     0.026 C 
HETATM    3  C4  UNL     1      -1.050  10.370  15.787  1.00  0.00     0.002 C 
HETATM    4  C5  UNL     1      -2.053  10.310  14.629  1.00  0.00     0.000 C 
HETATM    5  C6  UNL     1      -3.063  11.373  14.906  1.00  0.00     0.002 C 
HETATM    6  C7  UNL     1      -2.527  12.732  15.072  1.00  0.00     0.026 C 
ENDROOT
BRANCH   1   7
HETATM    7  N1  UNL     1      -0.612  14.070  15.317  1.00  0.00    -0.315 N 
ATOM      8  H1  UNL     1       0.039  14.074  14.531  1.00  0.00     0.172 HD
BRANCH   7   9
HETATM    9  S1  UNL     1      -1.029  15.488  16.150  1.00  0.00     0.223 S 
HETATM   10  C1  UNL     1      -1.855  15.185  17.683  1.00  0.00     0.185 C 
HETATM   11  O1  UNL     1      -1.978  16.270  15.282  1.00  0.00    -0.206 OA
HETATM   12  O2  UNL     1       0.143  16.381  16.428  1.00  0.00    -0.206 OA
ENDBRANCH   7   9
ENDBRANCH   1   7
TORSDOF 2
ENDMDL
MODEL 5
REMARK VINA RESULT: -4.890257714      1.773      2.390
REMARK  2 active torsions:
REMARK  status: ('A' for Active; 'I' for Inactive)
REMARK    1  A    between atoms: S1_2  and  N1_5 
REMARK    2  A    between atoms: N1_5  and  C2_7 
ROOT
HETATM    1  C2  UNL     1      -0.779  13.231  14.870  1.00  0.00     0.092 C 
HETATM    2  C3  UNL     1      -0.498  14.708  14.814  1.00  0.00     0.026 C 
HETATM    3  C4  UNL     1      -1.570  15.552  15.399  1.00  0.00     0.002 C 
HETATM    4  C5  UNL     1      -1.720  15.150  16.871  1.00  0.00     0.000 C 
HETATM    5  C6  UNL     1      -2.238  13.750  16.863  1.00  0.00     0.002 C 
HETATM    6  C7  UNL     1      -1.420  12.773  16.129  1.00  0.00     0.026 C 
ENDROOT
BRANCH   1   7
HETATM    7  N1  UNL     1       0.386  12.430  14.668  1.00  0.00    -0.315 N 
ATOM      8  H1  UNL     1       1.251  12.589  15.185  1.00  0.00     0.172 HD
BRANCH   7   9
HETATM    9  S1  UNL     1       0.240  11.198  13.512  1.00  0.00     0.223 S 
HETATM   10  C1  UNL     1       1.703  10.222  13.335  1.00  0.00     0.185 C 
HETATM   11  O1  UNL     1      -0.025  11.845  12.179  1.00  0.00    -0.206 OA
HETATM   12  O2  UNL     1      -0.905  10.265  13.778  1.00  0.00    -0.206 OA
ENDBRANCH   7   9
ENDBRANCH   1   7
TORSDOF 2
ENDMDL
