MODEL 1
REMARK VINA RESULT: -4.760219143      0.000      0.000
REMARK  2 active torsions:
REMARK  status: ('A' for Active; 'I' for Inactive)
REMARK    1  A    between atoms: C7_8  and  C8_9 
REMARK       I    between atoms: C8_9  and  N2_11 
REMARK    2  A    between atoms: N2_11  and  C9_13 
ROOT
HETATM    1  C1  UNL     1       2.213 -12.857  17.240  1.00  0.00     0.310 C 
HETATM    2  N1  UNL     1       1.244 -13.129  16.198  1.00  0.00     0.090 N 
HETATM    3  C2  UNL     1       1.922 -13.596  14.985  1.00  0.00     0.278 C 
HETATM    4  C3  UNL     1       1.394 -12.757  13.847  1.00  0.00     0.029 C 
HETATM    5  C4  UNL     1       2.075 -11.410  13.938  1.00  0.00     0.009 C 
HETATM    6  C5  UNL     1       1.605 -10.947  15.327  1.00  0.00     0.037 C 
HETATM    7  C6  UNL     1       0.560 -11.920  15.771  1.00  0.00     0.236 C 
HETATM    8  C7  UNL     1       0.013 -12.397  14.414  1.00  0.00     0.117 C 
ENDROOT
BRANCH   8   9
HETATM    9  C8  UNL     1      -0.620 -11.298  13.679  1.00  0.00     0.225 C 
HETATM   10  O1  UNL     1      -0.568 -11.301  12.439  1.00  0.00    -0.273 OA
HETATM   11  N2  UNL     1      -1.281 -10.242  14.335  1.00  0.00    -0.353 N 
ATOM     12  H2  UNL     1      -1.303 -10.270  15.354  1.00  0.00     0.163 HD
BRANCH  11  13
HETATM   13  C9  UNL     1      -1.920  -9.140  13.703  1.00  0.00     0.022 C 
HETATM   14  C10 UNL     1      -3.184  -9.568  13.005  1.00  0.00     0.037 C 
HETATM   15  C11 UNL     1      -2.343  -8.157  14.798  1.00  0.00     0.037 C 
HETATM   16  C12 UNL     1      -1.063  -8.376  12.742  1.00  0.00     0.037 C 
ENDBRANCH  11  13
ENDBRANCH   8   9
TORSDOF 2
ENDMDL
MODEL 2
REMARK VINA RESULT: -4.593170740      2.208      3.112
REMARK  2 active torsions:
REMARK  status: ('A' for Active; 'I' for Inactive)
REMARK    1  A    between atoms: C7_8  and  C8_9 
REMARK       I    between atoms: C8_9  and  N2_11 
REMARK    2  A    between atoms: N2_11  and  C9_13 
ROOT
HETATM    1  C1  UNL     1       1.307 -15.088  16.008  1.00  0.00     0.310 C 
HETATM    2  N1  UNL     1       2.167 -13.970  15.676  1.00  0.00     0.090 N 
HETATM    3  C2  UNL     1       2.145 -12.977  16.755  1.00  0.00     0.278 C 
HETATM    4  C3  UNL     1       1.868 -11.642  16.107  1.00  0.00     0.029 C 
HETATM    5  C4  UNL     1       0.390 -11.606  15.787  1.00  0.00     0.009 C 
HETATM    6  C5  UNL     1       0.277 -12.803  14.828  1.00  0.00     0.037 C 
HETATM    7  C6  UNL     1       1.674 -13.238  14.520  1.00  0.00     0.236 C 
HETATM    8  C7  UNL     1       2.438 -11.915  14.707  1.00  0.00     0.117 C 
ENDROOT
BRANCH   8   9
HETATM    9  C8  UNL     1       2.010 -10.911  13.728  1.00  0.00     0.225 C 
HETATM   10  O1  UNL     1       2.044  -9.713  14.048  1.00  0.00    -0.273 OA
HETATM   11  N2  UNL     1       1.561 -11.265  12.441  1.00  0.00    -0.353 N 
ATOM     12  H2  UNL     1       1.544 -12.258  12.211  1.00  0.00     0.163 HD
BRANCH  11  13
HETATM   13  C9  UNL     1       1.129 -10.360  11.433  1.00  0.00     0.022 C 
HETATM   14  C10 UNL     1       0.928 -11.063  10.117  1.00  0.00     0.037 C 
HETATM   15  C11 UNL     1      -0.242  -9.820  11.849  1.00  0.00     0.037 C 
HETATM   16  C12 UNL     1       2.017  -9.172  11.224  1.00  0.00     0.037 C 
ENDBRANCH  11  13
ENDBRANCH   8   9
TORSDOF 2
ENDMDL
MODEL 3
REMARK VINA RESULT: -4.580474845      2.193      3.322
REMARK  2 active torsions:
REMARK  status: ('A' for Active; 'I' for Inactive)
REMARK    1  A    between atoms: C7_8  and  C8_9 
REMARK       I    between atoms: C8_9  and  N2_11 
REMARK    2  A    between atoms: N2_11  and  C9_13 
ROOT
HETATM    1  C1  UNL     1       1.285 -15.117  16.012  1.00  0.00     0.310 C 
HETATM    2  N1  UNL     1       2.146 -13.995  15.696  1.00  0.00     0.090 N 
HETATM    3  C2  UNL     1       2.125 -13.018  16.788  1.00  0.00     0.278 C 
HETATM    4  C3  UNL     1       1.849 -11.674  16.158  1.00  0.00     0.029 C 
HETATM    5  C4  UNL     1       0.372 -11.631  15.837  1.00  0.00     0.009 C 
HETATM    6  C5  UNL     1       0.259 -12.815  14.862  1.00  0.00     0.037 C 
HETATM    7  C6  UNL     1       1.656 -13.247  14.550  1.00  0.00     0.236 C 
HETATM    8  C7  UNL     1       2.420 -11.928  14.755  1.00  0.00     0.117 C 
ENDROOT
BRANCH   8   9
HETATM    9  C8  UNL     1       1.994 -10.910  13.789  1.00  0.00     0.225 C 
HETATM   10  O1  UNL     1       2.022  -9.717  14.128  1.00  0.00    -0.273 OA
HETATM   11  N2  UNL     1       1.554 -11.245  12.494  1.00  0.00    -0.353 N 
ATOM     12  H2  UNL     1       1.543 -12.235  12.249  1.00  0.00     0.163 HD
BRANCH  11  13
HETATM   13  C9  UNL     1       1.125 -10.326  11.498  1.00  0.00     0.022 C 
HETATM   14  C10 UNL     1       2.149  -9.245  11.274  1.00  0.00     0.037 C 
HETATM   15  C11 UNL     1       1.010 -11.093  10.177  1.00  0.00     0.037 C 
HETATM   16  C12 UNL     1      -0.208  -9.694  11.750  1.00  0.00     0.037 C 
ENDBRANCH  11  13
ENDBRANCH   8   9
TORSDOF 2
ENDMDL
MODEL 4
REMARK VINA RESULT: -4.572503189      0.373      1.057
REMARK  2 active torsions:
REMARK  status: ('A' for Active; 'I' for Inactive)
REMARK    1  A    between atoms: C7_8  and  C8_9 
REMARK       I    between atoms: C8_9  and  N2_11 
REMARK    2  A    between atoms: N2_11  and  C9_13 
ROOT
HETATM    1  C1  UNL     1       2.439 -12.853  17.009  1.00  0.00     0.310 C 
HETATM    2  N1  UNL     1       1.368 -13.086  16.062  1.00  0.00     0.090 N 
HETATM    3  C2  UNL     1       1.920 -13.473  14.760  1.00  0.00     0.278 C 
HETATM    4  C3  UNL     1       1.263 -12.583  13.732  1.00  0.00     0.029 C 
HETATM    5  C4  UNL     1       1.932 -11.230  13.827  1.00  0.00     0.009 C 
HETATM    6  C5  UNL     1       1.605 -10.853  15.282  1.00  0.00     0.037 C 
HETATM    7  C6  UNL     1       0.626 -11.869  15.778  1.00  0.00     0.236 C 
HETATM    8  C7  UNL     1      -0.055 -12.282  14.461  1.00  0.00     0.117 C 
ENDROOT
BRANCH   8   9
HETATM    9  C8  UNL     1      -0.777 -11.157  13.860  1.00  0.00     0.225 C 
HETATM   10  O1  UNL     1      -0.789 -11.047  12.624  1.00  0.00    -0.273 OA
HETATM   11  N2  UNL     1      -1.454 -10.199  14.640  1.00  0.00    -0.353 N 
ATOM     12  H2  UNL     1      -1.423 -10.319  15.652  1.00  0.00     0.163 HD
BRANCH  11  13
HETATM   13  C9  UNL     1      -2.177  -9.081  14.142  1.00  0.00     0.022 C 
HETATM   14  C10 UNL     1      -2.816  -8.301  15.260  1.00  0.00     0.037 C 
HETATM   15  C11 UNL     1      -1.172  -8.137  13.476  1.00  0.00     0.037 C 
HETATM   16  C12 UNL     1      -3.216  -9.405  13.113  1.00  0.00     0.037 C 
ENDBRANCH  11  13
ENDBRANCH   8   9
TORSDOF 2
ENDMDL
MODEL 5
REMARK VINA RESULT: -4.507766454      1.945      2.672
REMARK  2 active torsions:
REMARK  status: ('A' for Active; 'I' for Inactive)
REMARK    1  A    between atoms: C7_8  and  C8_9 
REMARK       I    between atoms: C8_9  and  N2_11 
REMARK    2  A    between atoms: N2_11  and  C9_13 
ROOT
HETATM    1  C1  UNL     1       1.503 -14.997  16.397  1.00  0.00     0.310 C 
HETATM    2  N1  UNL     1       2.194 -13.830  15.886  1.00  0.00     0.090 N 
HETATM    3  C2  UNL     1       1.870 -12.654  16.700  1.00  0.00     0.278 C 
HETATM    4  C3  UNL     1       1.452 -11.568  15.739  1.00  0.00     0.029 C 
HETATM    5  C4  UNL     1       0.040 -11.887  15.300  1.00  0.00     0.009 C 
HETATM    6  C5  UNL     1       0.252 -13.260  14.638  1.00  0.00     0.037 C 
HETATM    7  C6  UNL     1       1.730 -13.471  14.556  1.00  0.00     0.236 C 
HETATM    8  C7  UNL     1       2.228 -12.016  14.492  1.00  0.00     0.117 C 
ENDROOT
BRANCH   8   9
HETATM    9  C8  UNL     1       1.759 -11.346  13.275  1.00  0.00     0.225 C 
HETATM   10  O1  UNL     1       1.692 -11.998  12.222  1.00  0.00    -0.273 OA
HETATM   11  N2  UNL     1       1.384  -9.988  13.266  1.00  0.00    -0.353 N 
ATOM     12  H2  UNL     1       1.452  -9.482  14.149  1.00  0.00     0.163 HD
BRANCH  11  13
HETATM   13  C9  UNL     1       0.919  -9.262  12.136  1.00  0.00     0.022 C 
HETATM   14  C10 UNL     1      -0.459  -9.711  11.726  1.00  0.00     0.037 C 
HETATM   15  C11 UNL     1       0.789  -7.793  12.549  1.00  0.00     0.037 C 
HETATM   16  C12 UNL     1       1.822  -9.298  10.943  1.00  0.00     0.037 C 
ENDBRANCH  11  13
ENDBRANCH   8   9
TORSDOF 2
ENDMDL
