MODEL 1
REMARK VINA RESULT: -6.082045254      0.000      0.000
REMARK  1 active torsions:
REMARK  status: ('A' for Active; 'I' for Inactive)
REMARK       I    between atoms: N1_2  and  C3_4 
REMARK       I    between atoms: C3_4  and  N2_6 
REMARK    1  A    between atoms: N2_6  and  C4_8 
ROOT
HETATM    1  C4  UNL     1       1.506 -11.821  14.792  1.00  0.00     0.069 C 
HETATM    2  C5  UNL     1       0.524 -10.997  15.600  1.00  0.00     0.039 C 
HETATM    3  C6  UNL     1      -0.397 -10.353  14.587  1.00  0.00    -0.011 C 
HETATM    4  C7  UNL     1       0.302  -9.167  14.015  1.00  0.00     0.009 C 
HETATM    5  C8  UNL     1       1.641  -9.487  13.405  1.00  0.00    -0.011 C 
HETATM    6  C9  UNL     1       2.719  -9.698  14.431  1.00  0.00     0.044 C 
HETATM    7  C10 UNL     1       2.855 -11.193  14.637  1.00  0.00     0.199 C 
HETATM    8  F1  UNL     1       3.765 -11.454  15.601  1.00  0.00    -0.247 F 
HETATM    9  C11 UNL     1       1.472 -10.711  12.534  1.00  0.00     0.012 C 
HETATM   10  C12 UNL     1       0.909 -11.836  13.376  1.00  0.00     0.017 C 
HETATM   11  C13 UNL     1      -0.547 -11.502  13.612  1.00  0.00     0.012 C 
ENDROOT
BRANCH   1  12
HETATM   12  N2  UNL     1       1.530 -13.169  15.268  1.00  0.00    -0.331 N 
HETATM   13  C3  UNL     1       1.671 -13.544  16.642  1.00  0.00     0.318 C 
HETATM   14  N1  UNL     1       1.693 -14.895  17.035  1.00  0.00    -0.343 N 
HETATM   15  O1  UNL     1       1.781 -12.680  17.556  1.00  0.00    -0.247 OA
HETATM   16  C1  UNL     1       1.573 -15.915  16.034  1.00  0.00     0.154 C 
HETATM   17  C2  UNL     1       1.834 -15.251  18.412  1.00  0.00     0.154 C 
ATOM     18  H2  UNL     1       1.441 -13.916  14.579  1.00  0.00     0.165 HD
ENDBRANCH   1  12
TORSDOF 1
ENDMDL
MODEL 2
REMARK VINA RESULT: -5.606987046      1.379      2.002
REMARK  1 active torsions:
REMARK  status: ('A' for Active; 'I' for Inactive)
REMARK       I    between atoms: N1_2  and  C3_4 
REMARK       I    between atoms: C3_4  and  N2_6 
REMARK    1  A    between atoms: N2_6  and  C4_8 
ROOT
HETATM    1  C4  UNL     1       0.578 -11.536  14.564  1.00  0.00     0.069 C 
HETATM    2  C5  UNL     1      -0.380 -11.487  13.393  1.00  0.00     0.039 C 
HETATM    3  C6  UNL     1       0.393 -10.847  12.261  1.00  0.00    -0.011 C 
HETATM    4  C7  UNL     1       0.387  -9.371  12.473  1.00  0.00     0.009 C 
HETATM    5  C8  UNL     1       0.933  -8.948  13.812  1.00  0.00    -0.011 C 
HETATM    6  C9  UNL     1      -0.036  -9.171  14.939  1.00  0.00     0.044 C 
HETATM    7  C10 UNL     1       0.340 -10.482  15.599  1.00  0.00     0.199 C 
HETATM    8  F1  UNL     1      -0.536 -10.779  16.584  1.00  0.00    -0.247 F 
HETATM    9  C11 UNL     1       2.222  -9.702  14.045  1.00  0.00     0.012 C 
HETATM   10  C12 UNL     1       1.943 -11.187  13.949  1.00  0.00     0.017 C 
HETATM   11  C13 UNL     1       1.746 -11.490  12.481  1.00  0.00     0.012 C 
ENDROOT
BRANCH   1  12
HETATM   12  N2  UNL     1       0.662 -12.866  15.082  1.00  0.00    -0.331 N 
HETATM   13  C3  UNL     1       1.422 -13.243  16.234  1.00  0.00     0.318 C 
HETATM   14  N1  UNL     1       1.462 -14.577  16.683  1.00  0.00    -0.343 N 
HETATM   15  O1  UNL     1       2.086 -12.398  16.895  1.00  0.00    -0.247 OA
HETATM   16  C1  UNL     1       0.725 -15.577  15.965  1.00  0.00     0.154 C 
HETATM   17  C2  UNL     1       2.226 -14.935  17.836  1.00  0.00     0.154 C 
ATOM     18  H2  UNL     1       0.143 -13.597  14.596  1.00  0.00     0.165 HD
ENDBRANCH   1  12
TORSDOF 1
ENDMDL
MODEL 3
REMARK VINA RESULT: -5.591152645      1.936      2.679
REMARK  1 active torsions:
REMARK  status: ('A' for Active; 'I' for Inactive)
REMARK       I    between atoms: N1_2  and  C3_4 
REMARK       I    between atoms: C3_4  and  N2_6 
REMARK    1  A    between atoms: N2_6  and  C4_8 
ROOT
HETATM    1  C4  UNL     1       0.446 -10.916  14.284  1.00  0.00     0.069 C 
HETATM    2  C5  UNL     1       0.866  -9.515  14.679  1.00  0.00     0.039 C 
HETATM    3  C6  UNL     1      -0.416  -8.784  15.008  1.00  0.00    -0.011 C 
HETATM    4  C7  UNL     1      -1.047  -8.356  13.726  1.00  0.00     0.009 C 
HETATM    5  C8  UNL     1      -1.299  -9.488  12.765  1.00  0.00    -0.011 C 
HETATM    6  C9  UNL     1      -0.052  -9.951  12.064  1.00  0.00     0.044 C 
HETATM    7  C10 UNL     1       0.455 -11.169  12.809  1.00  0.00     0.199 C 
HETATM    8  F1  UNL     1       1.617 -11.600  12.270  1.00  0.00    -0.247 F 
HETATM    9  C11 UNL     1      -1.939 -10.618  13.539  1.00  0.00     0.012 C 
HETATM   10  C12 UNL     1      -1.033 -10.995  14.692  1.00  0.00     0.017 C 
HETATM   11  C13 UNL     1      -1.167  -9.891  15.717  1.00  0.00     0.012 C 
ENDROOT
BRANCH   1  12
HETATM   12  N2  UNL     1       1.162 -11.884  15.055  1.00  0.00    -0.331 N 
HETATM   13  C3  UNL     1       0.998 -13.301  14.935  1.00  0.00     0.318 C 
HETATM   14  N1  UNL     1       1.735 -14.195  15.735  1.00  0.00    -0.343 N 
HETATM   15  O1  UNL     1       0.187 -13.806  14.110  1.00  0.00    -0.247 OA
HETATM   16  C1  UNL     1       2.668 -13.671  16.690  1.00  0.00     0.154 C 
HETATM   17  C2  UNL     1       1.558 -15.607  15.601  1.00  0.00     0.154 C 
ATOM     18  H2  UNL     1       1.837 -11.541  15.738  1.00  0.00     0.165 HD
ENDBRANCH   1  12
TORSDOF 1
ENDMDL
MODEL 4
REMARK VINA RESULT: -5.580947430      1.529      2.638
REMARK  1 active torsions:
REMARK  status: ('A' for Active; 'I' for Inactive)
REMARK       I    between atoms: N1_2  and  C3_4 
REMARK       I    between atoms: C3_4  and  N2_6 
REMARK    1  A    between atoms: N2_6  and  C4_8 
ROOT
HETATM    1  C4  UNL     1       1.521 -11.443  15.164  1.00  0.00     0.069 C 
HETATM    2  C5  UNL     1       2.105 -11.081  13.814  1.00  0.00     0.039 C 
HETATM    3  C6  UNL     1       3.172 -10.047  14.097  1.00  0.00    -0.011 C 
HETATM    4  C7  UNL     1       2.501  -8.730  14.285  1.00  0.00     0.009 C 
HETATM    5  C8  UNL     1       1.449  -8.733  15.364  1.00  0.00    -0.011 C 
HETATM    6  C9  UNL     1       0.167  -9.388  14.931  1.00  0.00     0.044 C 
HETATM    7  C10 UNL     1       0.195 -10.812  15.450  1.00  0.00     0.199 C 
HETATM    8  F1  UNL     1      -0.903 -11.483  15.038  1.00  0.00    -0.247 F 
HETATM    9  C11 UNL     1       2.031  -9.423  16.576  1.00  0.00     0.012 C 
HETATM   10  C12 UNL     1       2.489 -10.809  16.175  1.00  0.00     0.017 C 
HETATM   11  C13 UNL     1       3.756 -10.623  15.370  1.00  0.00     0.012 C 
ENDROOT
BRANCH   1  12
HETATM   12  N2  UNL     1       1.557 -12.859  15.357  1.00  0.00    -0.331 N 
HETATM   13  C3  UNL     1       1.635 -13.504  16.632  1.00  0.00     0.318 C 
HETATM   14  N1  UNL     1       1.672 -14.907  16.744  1.00  0.00    -0.343 N 
HETATM   15  O1  UNL     1       1.673 -12.843  17.707  1.00  0.00    -0.247 OA
HETATM   16  C1  UNL     1       1.633 -15.703  15.551  1.00  0.00     0.154 C 
HETATM   17  C2  UNL     1       1.749 -15.533  18.026  1.00  0.00     0.154 C 
ATOM     18  H2  UNL     1       1.524 -13.451  14.527  1.00  0.00     0.165 HD
ENDBRANCH   1  12
TORSDOF 1
ENDMDL
MODEL 5
REMARK VINA RESULT: -5.374884141      1.383      1.738
REMARK  1 active torsions:
REMARK  status: ('A' for Active; 'I' for Inactive)
REMARK       I    between atoms: N1_2  and  C3_4 
REMARK       I    between atoms: C3_4  and  N2_6 
REMARK    1  A    between atoms: N2_6  and  C4_8 
ROOT
HETATM    1  C4  UNL     1       0.228 -10.846  14.608  1.00  0.00     0.069 C 
HETATM    2  C5  UNL     1      -0.638 -10.396  15.766  1.00  0.00     0.039 C 
HETATM    3  C6  UNL     1      -1.867  -9.777  15.139  1.00  0.00    -0.011 C 
HETATM    4  C7  UNL     1      -1.521  -8.391  14.713  1.00  0.00     0.009 C 
HETATM    5  C8  UNL     1      -0.340  -8.320  13.780  1.00  0.00    -0.011 C 
HETATM    6  C9  UNL     1       0.977  -8.494  14.484  1.00  0.00     0.044 C 
HETATM    7  C10 UNL     1       1.386  -9.943  14.318  1.00  0.00     0.199 C 
HETATM    8  F1  UNL     1       2.534 -10.187  14.988  1.00  0.00    -0.247 F 
HETATM    9  C11 UNL     1      -0.529  -9.373  12.713  1.00  0.00     0.012 C 
HETATM   10  C12 UNL     1      -0.689 -10.722  13.382  1.00  0.00     0.017 C 
HETATM   11  C13 UNL     1      -2.076 -10.736  13.986  1.00  0.00     0.012 C 
ENDROOT
BRANCH   1  12
HETATM   12  N2  UNL     1       0.575 -12.225  14.755  1.00  0.00    -0.331 N 
HETATM   13  C3  UNL     1       1.086 -12.811  15.956  1.00  0.00     0.318 C 
HETATM   14  N1  UNL     1       1.412 -14.179  16.024  1.00  0.00    -0.343 N 
HETATM   15  O1  UNL     1       1.265 -12.128  17.002  1.00  0.00    -0.247 OA
HETATM   16  C1  UNL     1       1.228 -14.999  14.861  1.00  0.00     0.154 C 
HETATM   17  C2  UNL     1       1.920 -14.748  17.233  1.00  0.00     0.154 C 
ATOM     18  H2  UNL     1       0.450 -12.834  13.946  1.00  0.00     0.165 HD
ENDBRANCH   1  12
TORSDOF 1
ENDMDL
