MODEL 1
REMARK VINA RESULT: -5.466444665      0.000      0.000
REMARK  3 active torsions:
REMARK  status: ('A' for Active; 'I' for Inactive)
REMARK    1  A    between atoms: C2_2  and  C3_3 
REMARK       I    between atoms: C3_3  and  N1_5 
REMARK    2  A    between atoms: N1_5  and  C4_7 
REMARK    3  A    between atoms: C4_7  and  N2_9 
ROOT
HETATM    1  C3  UNL     1      -0.641 -11.059  14.674  1.00  0.00     0.232 C 
HETATM    2  O1  UNL     1      -0.524 -11.690  13.610  1.00  0.00    -0.272 OA
HETATM    3  N1  UNL     1       0.133 -11.177  15.813  1.00  0.00    -0.303 N 
ATOM      4  H1  UNL     1      -0.195 -10.546  16.544  1.00  0.00     0.171 HD
ENDROOT
BRANCH   3   5
HETATM    5  C4  UNL     1       1.214 -11.901  16.237  1.00  0.00     0.176 C 
HETATM    6  S1  UNL     1       2.296 -11.028  17.286  1.00  0.00    -0.041 SA
BRANCH   5   7
HETATM    7  N2  UNL     1       1.669 -13.159  15.958  1.00  0.00    -0.358 N 
HETATM    8  C5  UNL     1       2.391 -13.962  17.022  1.00  0.00     0.125 C 
HETATM    9  C6  UNL     1       1.640 -15.223  17.265  1.00  0.00     0.020 C 
HETATM   10  C7  UNL     1       0.862 -15.811  16.167  1.00  0.00     0.003 C 
HETATM   11  C8  UNL     1       0.492 -14.937  15.009  1.00  0.00     0.020 C 
HETATM   12  C9  UNL     1       1.618 -13.912  14.758  1.00  0.00     0.125 C 
ENDBRANCH   5   7
ENDBRANCH   3   5
BRANCH   1  13
HETATM   13  C2  UNL     1      -1.795 -10.058  14.639  1.00  0.00     0.038 A 
HETATM   14  C1  UNL     1      -2.791 -10.286  13.553  1.00  0.00     0.025 C 
HETATM   15  C10 UNL     1      -1.306  -8.629  14.801  1.00  0.00     0.020 A 
HETATM   16  C11 UNL     1      -2.122  -9.280  15.841  1.00  0.00     0.020 A 
ENDBRANCH   1  13
TORSDOF 3
ENDMDL
MODEL 2
REMARK VINA RESULT: -5.255958849      0.855      1.033
REMARK  3 active torsions:
REMARK  status: ('A' for Active; 'I' for Inactive)
REMARK    1  A    between atoms: C2_2  and  C3_3 
REMARK       I    between atoms: C3_3  and  N1_5 
REMARK    2  A    between atoms: N1_5  and  C4_7 
REMARK    3  A    between atoms: C4_7  and  N2_9 
ROOT
HETATM    1  C3  UNL     1      -0.456 -11.118  13.956  1.00  0.00     0.232 C 
HETATM    2  O1  UNL     1      -0.528 -12.054  13.144  1.00  0.00    -0.272 OA
HETATM    3  N1  UNL     1       0.319 -11.051  15.098  1.00  0.00    -0.303 N 
ATOM      4  H1  UNL     1       0.172 -10.169  15.588  1.00  0.00     0.171 HD
ENDROOT
BRANCH   3   5
HETATM    5  C4  UNL     1       1.229 -11.833  15.757  1.00  0.00     0.176 C 
HETATM    6  S1  UNL     1       2.085 -11.017  17.036  1.00  0.00    -0.041 SA
BRANCH   5   7
HETATM    7  N2  UNL     1       1.665 -13.116  15.581  1.00  0.00    -0.358 N 
HETATM    8  C5  UNL     1       2.474 -13.801  16.663  1.00  0.00     0.125 C 
HETATM    9  C6  UNL     1       1.750 -15.024  17.103  1.00  0.00     0.020 C 
HETATM   10  C7  UNL     1       0.889 -15.725  16.142  1.00  0.00     0.003 C 
HETATM   11  C8  UNL     1       0.423 -14.981  14.929  1.00  0.00     0.020 C 
HETATM   12  C9  UNL     1       1.521 -13.995  14.478  1.00  0.00     0.125 C 
ENDBRANCH   5   7
ENDBRANCH   3   5
BRANCH   1  13
HETATM   13  C2  UNL     1      -1.359  -9.944  13.580  1.00  0.00     0.038 A 
HETATM   14  C1  UNL     1      -2.809 -10.276  13.474  1.00  0.00     0.025 C 
HETATM   15  C10 UNL     1      -0.779  -9.132  12.434  1.00  0.00     0.020 A 
HETATM   16  C11 UNL     1      -0.892  -8.567  13.791  1.00  0.00     0.020 A 
ENDBRANCH   1  13
TORSDOF 3
ENDMDL
MODEL 3
REMARK VINA RESULT: -5.246385461      0.756      1.306
REMARK  3 active torsions:
REMARK  status: ('A' for Active; 'I' for Inactive)
REMARK    1  A    between atoms: C2_2  and  C3_3 
REMARK       I    between atoms: C3_3  and  N1_5 
REMARK    2  A    between atoms: N1_5  and  C4_7 
REMARK    3  A    between atoms: C4_7  and  N2_9 
ROOT
HETATM    1  C3  UNL     1      -0.163 -10.212  14.793  1.00  0.00     0.232 C 
HETATM    2  O1  UNL     1       0.615  -9.754  13.940  1.00  0.00    -0.272 OA
HETATM    3  N1  UNL     1       0.117 -11.146  15.773  1.00  0.00    -0.303 N 
ATOM      4  H1  UNL     1      -0.714 -11.352  16.328  1.00  0.00     0.171 HD
ENDROOT
BRANCH   3   5
HETATM    5  C4  UNL     1       1.192 -11.872  16.209  1.00  0.00     0.176 C 
HETATM    6  S1  UNL     1       2.247 -11.012  17.294  1.00  0.00    -0.041 SA
BRANCH   5   7
HETATM    7  N2  UNL     1       1.658 -13.124  15.919  1.00  0.00    -0.358 N 
HETATM    8  C5  UNL     1       2.431 -13.908  16.960  1.00  0.00     0.125 C 
HETATM    9  C6  UNL     1       1.710 -15.181  17.235  1.00  0.00     0.020 C 
HETATM   10  C7  UNL     1       0.905 -15.787  16.167  1.00  0.00     0.003 C 
HETATM   11  C8  UNL     1       0.480 -14.925  15.019  1.00  0.00     0.020 C 
HETATM   12  C9  UNL     1       1.578 -13.883  14.725  1.00  0.00     0.125 C 
ENDBRANCH   5   7
ENDBRANCH   3   5
BRANCH   1  13
HETATM   13  C2  UNL     1      -1.570  -9.627  14.679  1.00  0.00     0.038 A 
HETATM   14  C1  UNL     1      -2.178  -9.198  15.971  1.00  0.00     0.025 C 
HETATM   15  C10 UNL     1      -2.457 -10.468  13.776  1.00  0.00     0.020 A 
HETATM   16  C11 UNL     1      -2.042  -9.107  13.388  1.00  0.00     0.020 A 
ENDBRANCH   1  13
TORSDOF 3
ENDMDL
MODEL 4
REMARK VINA RESULT: -5.232431496      2.030      2.432
REMARK  3 active torsions:
REMARK  status: ('A' for Active; 'I' for Inactive)
REMARK    1  A    between atoms: C2_2  and  C3_3 
REMARK       I    between atoms: C3_3  and  N1_5 
REMARK    2  A    between atoms: N1_5  and  C4_7 
REMARK    3  A    between atoms: C4_7  and  N2_9 
ROOT
HETATM    1  C3  UNL     1       0.381 -11.340  13.168  1.00  0.00     0.232 C 
HETATM    2  O1  UNL     1      -0.573 -12.116  13.000  1.00  0.00    -0.272 OA
HETATM    3  N1  UNL     1       1.332 -11.380  14.170  1.00  0.00    -0.303 N 
ATOM      4  H1  UNL     1       1.995 -10.610  14.075  1.00  0.00     0.171 HD
ENDROOT
BRANCH   3   5
HETATM    5  C4  UNL     1       1.636 -12.158  15.254  1.00  0.00     0.176 C 
HETATM    6  S1  UNL     1       1.803 -11.277  16.747  1.00  0.00    -0.041 SA
BRANCH   5   7
HETATM    7  N2  UNL     1       1.906 -13.489  15.407  1.00  0.00    -0.358 N 
HETATM    8  C5  UNL     1       2.715 -13.971  16.594  1.00  0.00     0.125 C 
HETATM    9  C6  UNL     1       1.894 -14.932  17.378  1.00  0.00     0.020 C 
HETATM   10  C7  UNL     1       0.883 -15.737  16.681  1.00  0.00     0.003 C 
HETATM   11  C8  UNL     1       0.409 -15.278  15.337  1.00  0.00     0.020 C 
HETATM   12  C9  UNL     1       1.573 -14.597  14.588  1.00  0.00     0.125 C 
ENDBRANCH   5   7
ENDBRANCH   3   5
BRANCH   1  13
HETATM   13  C2  UNL     1       0.443 -10.245  12.104  1.00  0.00     0.038 A 
HETATM   14  C1  UNL     1      -0.833  -9.501  11.894  1.00  0.00     0.025 C 
HETATM   15  C10 UNL     1       1.147 -10.722  10.845  1.00  0.00     0.020 A 
HETATM   16  C11 UNL     1       1.742  -9.685  11.708  1.00  0.00     0.020 A 
ENDBRANCH   1  13
TORSDOF 3
ENDMDL
MODEL 5
REMARK VINA RESULT: -5.138713602      1.285      1.285
REMARK  3 active torsions:
REMARK  status: ('A' for Active; 'I' for Inactive)
REMARK    1  A    between atoms: C2_2  and  C3_3 
REMARK       I    between atoms: C3_3  and  N1_5 
REMARK    2  A    between atoms: N1_5  and  C4_7 
REMARK    3  A    between atoms: C4_7  and  N2_9 
ROOT
HETATM    1  C3  UNL     1      -0.556 -10.547  15.637  1.00  0.00     0.232 C 
HETATM    2  O1  UNL     1      -0.596 -10.508  16.877  1.00  0.00    -0.272 OA
HETATM    3  N1  UNL     1       0.407 -11.142  14.844  1.00  0.00    -0.303 N 
ATOM      4  H1  UNL     1       0.197 -11.010  13.854  1.00  0.00     0.171 HD
ENDROOT
BRANCH   3   5
HETATM    5  C4  UNL     1       1.561 -11.859  15.010  1.00  0.00     0.176 C 
HETATM    6  S1  UNL     1       3.006 -10.889  15.071  1.00  0.00    -0.041 SA
BRANCH   5   7
HETATM    7  N2  UNL     1       1.834 -13.196  15.073  1.00  0.00    -0.358 N 
HETATM    8  C5  UNL     1       2.620 -13.760  16.239  1.00  0.00     0.125 C 
HETATM    9  C6  UNL     1       1.786 -14.777  16.935  1.00  0.00     0.020 C 
HETATM   10  C7  UNL     1       0.794 -15.534  16.159  1.00  0.00     0.003 C 
HETATM   11  C8  UNL     1       0.348 -14.980  14.842  1.00  0.00     0.020 C 
HETATM   12  C9  UNL     1       1.524 -14.243  14.169  1.00  0.00     0.125 C 
ENDBRANCH   5   7
ENDBRANCH   3   5
BRANCH   1  13
HETATM   13  C2  UNL     1      -1.741  -9.833  14.988  1.00  0.00     0.038 A 
HETATM   14  C1  UNL     1      -2.334 -10.539  13.815  1.00  0.00     0.025 C 
HETATM   15  C10 UNL     1      -1.471  -8.350  14.801  1.00  0.00     0.020 A 
HETATM   16  C11 UNL     1      -2.493  -8.827  15.750  1.00  0.00     0.020 A 
ENDBRANCH   1  13
TORSDOF 3
ENDMDL
