MODEL 1
REMARK VINA RESULT: -6.037116462      0.000      0.000
REMARK  1 active torsions:
REMARK  status: ('A' for Active; 'I' for Inactive)
REMARK       I    between atoms: C2_5  and  N3_6 
REMARK       I    between atoms: C2_5  and  N4_14 
REMARK    1  A    between atoms: N3_6  and  C3_8 
ROOT
HETATM    1  N1  UNL     1       1.544 -10.770  10.326  1.00  0.00    -0.171 NA
HETATM    2  C1  UNL     1       1.742 -11.161  11.414  1.00  0.00     0.196 C 
HETATM    3  N2  UNL     1       2.001 -11.617  12.711  1.00  0.00    -0.126 N 
ATOM      4  H2  UNL     1       2.863 -12.135  12.886  1.00  0.00     0.197 HD
HETATM    5  C2  UNL     1       1.206 -11.412  13.679  1.00  0.00     0.685 C 
HETATM    6  N3  UNL     1       1.542 -11.909  14.966  1.00  0.00    -0.221 N 
ATOM      7  H3  UNL     1       1.441 -11.264  15.748  1.00  0.00     0.178 HD
HETATM    8  N4  UNL     1      -0.023 -10.704  13.548  1.00  0.00    -0.217 N 
HETATM    9  C8  UNL     1      -0.064  -9.296  13.191  1.00  0.00     0.141 C 
HETATM   10  C9  UNL     1      -1.267  -9.116  12.274  1.00  0.00     0.020 C 
HETATM   11  C10 UNL     1      -2.506  -9.262  13.139  1.00  0.00     0.003 C 
HETATM   12  C11 UNL     1      -2.386 -10.372  14.128  1.00  0.00     0.020 C 
HETATM   13  C12 UNL     1      -1.296 -11.364  13.767  1.00  0.00     0.141 C 
ENDROOT
BRANCH   6  14
HETATM   14  C3  UNL     1       2.007 -13.220  15.271  1.00  0.00     0.102 C 
HETATM   15  C4  UNL     1       1.304 -14.341  14.577  1.00  0.00     0.028 C 
HETATM   16  C5  UNL     1       0.723 -15.227  15.678  1.00  0.00     0.039 C 
HETATM   17  C6  UNL     1       1.799 -15.037  16.746  1.00  0.00     0.172 C 
HETATM   18  F1  UNL     1       1.434 -15.567  17.950  1.00  0.00    -0.249 F 
HETATM   19  C7  UNL     1       1.908 -13.527  16.768  1.00  0.00     0.062 C 
ENDBRANCH   6  14
TORSDOF 1
ENDMDL
MODEL 2
REMARK VINA RESULT: -5.867833628      1.745      3.156
REMARK  1 active torsions:
REMARK  status: ('A' for Active; 'I' for Inactive)
REMARK       I    between atoms: C2_5  and  N3_6 
REMARK       I    between atoms: C2_5  and  N4_14 
REMARK    1  A    between atoms: N3_6  and  C3_8 
ROOT
HETATM    1  N1  UNL     1      -3.169  -9.162  13.267  1.00  0.00    -0.171 NA
HETATM    2  C1  UNL     1      -2.481 -10.089  13.477  1.00  0.00     0.196 C 
HETATM    3  N2  UNL     1      -1.679 -11.211  13.718  1.00  0.00    -0.126 N 
ATOM      4  H2  UNL     1      -2.075 -11.993  14.240  1.00  0.00     0.197 HD
HETATM    5  C2  UNL     1      -0.478 -11.291  13.314  1.00  0.00     0.685 C 
HETATM    6  N3  UNL     1       0.269 -12.464  13.601  1.00  0.00    -0.221 N 
ATOM      7  H3  UNL     1       0.789 -12.878  12.828  1.00  0.00     0.178 HD
HETATM    8  N4  UNL     1       0.173 -10.258  12.580  1.00  0.00    -0.217 N 
HETATM    9  C8  UNL     1      -0.267  -9.865  11.253  1.00  0.00     0.141 C 
HETATM   10  C9  UNL     1      -0.104  -8.352  11.174  1.00  0.00     0.020 C 
HETATM   11  C10 UNL     1       1.387  -8.073  11.111  1.00  0.00     0.003 C 
HETATM   12  C11 UNL     1       2.171  -8.935  12.041  1.00  0.00     0.020 C 
HETATM   13  C12 UNL     1       1.313  -9.552  13.131  1.00  0.00     0.141 C 
ENDROOT
BRANCH   6  14
HETATM   14  C3  UNL     1       0.363 -13.119  14.861  1.00  0.00     0.102 C 
HETATM   15  C4  UNL     1       1.399 -12.586  15.799  1.00  0.00     0.028 C 
HETATM   16  C5  UNL     1       2.344 -13.749  16.097  1.00  0.00     0.039 C 
HETATM   17  C6  UNL     1       1.347 -14.905  16.029  1.00  0.00     0.172 C 
HETATM   18  F1  UNL     1       1.963 -16.123  16.058  1.00  0.00    -0.249 F 
HETATM   19  C7  UNL     1       0.667 -14.611  14.709  1.00  0.00     0.062 C 
ENDBRANCH   6  14
TORSDOF 1
ENDMDL
MODEL 3
REMARK VINA RESULT: -5.748938024      1.183      1.183
REMARK  1 active torsions:
REMARK  status: ('A' for Active; 'I' for Inactive)
REMARK       I    between atoms: C2_5  and  N3_6 
REMARK       I    between atoms: C2_5  and  N4_14 
REMARK    1  A    between atoms: N3_6  and  C3_8 
ROOT
HETATM    1  N1  UNL     1       2.499  -8.920  12.296  1.00  0.00    -0.171 NA
HETATM    2  C1  UNL     1       2.369  -9.724  13.140  1.00  0.00     0.196 C 
HETATM    3  N2  UNL     1       2.231 -10.673  14.160  1.00  0.00    -0.126 N 
ATOM      4  H2  UNL     1       3.067 -11.144  14.507  1.00  0.00     0.197 HD
HETATM    5  C2  UNL     1       1.107 -10.970  14.670  1.00  0.00     0.685 C 
HETATM    6  N3  UNL     1       1.053 -11.943  15.701  1.00  0.00    -0.221 N 
ATOM      7  H3  UNL     1       0.502 -11.709  16.526  1.00  0.00     0.178 HD
HETATM    8  N4  UNL     1      -0.121 -10.375  14.260  1.00  0.00    -0.217 N 
HETATM    9  C8  UNL     1      -0.389  -8.959  14.447  1.00  0.00     0.141 C 
HETATM   10  C9  UNL     1      -1.162  -8.499  13.218  1.00  0.00     0.020 C 
HETATM   11  C10 UNL     1      -2.551  -9.103  13.320  1.00  0.00     0.003 C 
HETATM   12  C11 UNL     1      -2.528 -10.517  13.793  1.00  0.00     0.020 C 
HETATM   13  C12 UNL     1      -1.165 -11.164  13.636  1.00  0.00     0.141 C 
ENDROOT
BRANCH   6  14
HETATM   14  C3  UNL     1       1.692 -13.215  15.698  1.00  0.00     0.102 C 
HETATM   15  C4  UNL     1       1.024 -14.281  14.890  1.00  0.00     0.028 C 
HETATM   16  C5  UNL     1       0.696 -15.412  15.863  1.00  0.00     0.039 C 
HETATM   17  C6  UNL     1       1.882 -15.274  16.816  1.00  0.00     0.172 C 
HETATM   18  F1  UNL     1       1.744 -16.047  17.932  1.00  0.00    -0.249 F 
HETATM   19  C7  UNL     1       1.832 -13.789  17.110  1.00  0.00     0.062 C 
ENDBRANCH   6  14
TORSDOF 1
ENDMDL
MODEL 4
REMARK VINA RESULT: -5.726806422      1.940      2.706
REMARK  1 active torsions:
REMARK  status: ('A' for Active; 'I' for Inactive)
REMARK       I    between atoms: C2_5  and  N3_6 
REMARK       I    between atoms: C2_5  and  N4_14 
REMARK    1  A    between atoms: N3_6  and  C3_8 
ROOT
HETATM    1  N1  UNL     1       4.520  -8.996  14.548  1.00  0.00    -0.171 NA
HETATM    2  C1  UNL     1       3.843  -9.920  14.803  1.00  0.00     0.196 C 
HETATM    3  N2  UNL     1       3.033 -11.014  15.130  1.00  0.00    -0.126 N 
ATOM      4  H2  UNL     1       3.236 -11.536  15.983  1.00  0.00     0.197 HD
HETATM    5  C2  UNL     1       2.057 -11.381  14.407  1.00  0.00     0.685 C 
HETATM    6  N3  UNL     1       1.284 -12.502  14.809  1.00  0.00    -0.221 N 
ATOM      7  H3  UNL     1       0.271 -12.395  14.781  1.00  0.00     0.178 HD
HETATM    8  N4  UNL     1       1.687 -10.725  13.197  1.00  0.00    -0.217 N 
HETATM    9  C8  UNL     1       1.207  -9.355  13.182  1.00  0.00     0.141 C 
HETATM   10  C9  UNL     1       1.783  -8.707  11.930  1.00  0.00     0.020 C 
HETATM   11  C10 UNL     1       1.052  -9.314  10.745  1.00  0.00     0.003 C 
HETATM   12  C11 UNL     1       0.848 -10.784  10.890  1.00  0.00     0.020 C 
HETATM   13  C12 UNL     1       1.774 -11.405  11.919  1.00  0.00     0.141 C 
ENDROOT
BRANCH   6  14
HETATM   14  C3  UNL     1       1.784 -13.761  15.247  1.00  0.00     0.102 C 
HETATM   15  C4  UNL     1       1.075 -14.966  14.717  1.00  0.00     0.028 C 
HETATM   16  C5  UNL     1       0.552 -15.723  15.937  1.00  0.00     0.039 C 
HETATM   17  C6  UNL     1       1.665 -15.395  16.931  1.00  0.00     0.172 C 
HETATM   18  F1  UNL     1       1.355 -15.784  18.202  1.00  0.00    -0.249 F 
HETATM   19  C7  UNL     1       1.747 -13.891  16.772  1.00  0.00     0.062 C 
ENDBRANCH   6  14
TORSDOF 1
ENDMDL
MODEL 5
REMARK VINA RESULT: -5.501169870      1.494      2.652
REMARK  1 active torsions:
REMARK  status: ('A' for Active; 'I' for Inactive)
REMARK       I    between atoms: C2_5  and  N3_6 
REMARK       I    between atoms: C2_5  and  N4_14 
REMARK    1  A    between atoms: N3_6  and  C3_8 
ROOT
HETATM    1  N1  UNL     1       1.225  -8.020  14.469  1.00  0.00    -0.171 NA
HETATM    2  C1  UNL     1       1.116  -9.185  14.555  1.00  0.00     0.196 C 
HETATM    3  N2  UNL     1       0.970 -10.572  14.676  1.00  0.00    -0.126 N 
ATOM      4  H2  UNL     1       1.083 -10.998  15.596  1.00  0.00     0.197 HD
HETATM    5  C2  UNL     1       0.704 -11.320  13.685  1.00  0.00     0.685 C 
HETATM    6  N3  UNL     1       0.573 -12.718  13.892  1.00  0.00    -0.221 N 
ATOM      7  H3  UNL     1      -0.238 -13.170  13.472  1.00  0.00     0.178 HD
HETATM    8  N4  UNL     1       0.529 -10.831  12.359  1.00  0.00    -0.217 N 
HETATM    9  C8  UNL     1      -0.565  -9.942  12.006  1.00  0.00     0.141 C 
HETATM   10  C9  UNL     1      -0.006  -8.947  10.997  1.00  0.00     0.020 C 
HETATM   11  C10 UNL     1       0.216  -9.709   9.703  1.00  0.00     0.003 C 
HETATM   12  C11 UNL     1       0.798 -11.063   9.928  1.00  0.00     0.020 C 
HETATM   13  C12 UNL     1       1.442 -11.203  11.295  1.00  0.00     0.141 C 
ENDROOT
BRANCH   6  14
HETATM   14  C3  UNL     1       1.462 -13.551  14.628  1.00  0.00     0.102 C 
HETATM   15  C4  UNL     1       1.244 -15.024  14.488  1.00  0.00     0.028 C 
HETATM   16  C5  UNL     1       0.966 -15.550  15.894  1.00  0.00     0.039 C 
HETATM   17  C6  UNL     1       1.846 -14.595  16.698  1.00  0.00     0.172 C 
HETATM   18  F1  UNL     1       1.636 -14.703  18.042  1.00  0.00    -0.249 F 
HETATM   19  C7  UNL     1       1.404 -13.262  16.130  1.00  0.00     0.062 C 
ENDBRANCH   6  14
TORSDOF 1
ENDMDL
