MODEL 1
REMARK VINA RESULT: -5.505638811      0.000      0.000
REMARK  3 active torsions:
REMARK  status: ('A' for Active; 'I' for Inactive)
REMARK    1  A    between atoms: C6_7  and  N2_8 
REMARK    2  A    between atoms: N2_8  and  O1_10 
REMARK    3  A    between atoms: C8_12  and  N3_13 
REMARK       I    between atoms: N3_13  and  C9_15 
ROOT
HETATM    1  C1  UNL     1     -21.878   3.043  17.190  1.00  0.00     0.014 C 
HETATM    2  C2  UNL     1     -22.238   3.852  15.995  1.00  0.00     0.034 C 
HETATM    3  C3  UNL     1     -23.426   4.731  16.311  1.00  0.00     0.245 C 
HETATM    4  N1  UNL     1     -24.571   4.078  15.668  1.00  0.00    -0.050 N 
HETATM    5  C4  UNL     1     -25.506   5.150  15.291  1.00  0.00     0.274 C 
HETATM    6  C5  UNL     1     -25.181   3.202  16.557  1.00  0.00     0.274 C 
HETATM    7  C6  UNL     1     -23.984   3.572  14.465  1.00  0.00     0.333 C 
HETATM    8  C8  UNL     1     -22.606   3.058  14.777  1.00  0.00     0.143 C 
ENDROOT
BRANCH   8   9
HETATM    9  N3  UNL     1     -22.476   1.657  14.905  1.00  0.00    -0.337 N 
HETATM   10  C9  UNL     1     -21.227   0.967  14.803  1.00  0.00     0.329 C 
HETATM   11  N4  UNL     1     -21.099  -0.442  14.933  1.00  0.00    -0.040 NA
HETATM   12  O2  UNL     1     -20.143   1.599  14.586  1.00  0.00    -0.251 OA
ATOM     13  H3  UNL     1     -23.318   1.108  15.079  1.00  0.00     0.164 HD
ENDBRANCH   8   9
BRANCH   7  14
HETATM   14  N2  UNL     1     -24.798   2.791  13.657  1.00  0.00    -0.268 N 
HETATM   15  C7  UNL     1     -25.621   3.184  12.563  1.00  0.00     0.181 C 
BRANCH  14  16
HETATM   16  O1  UNL     1     -24.850   1.593  13.872  1.00  0.00    -0.291 OA
ATOM     17  H1  UNL     1     -25.684   1.215  14.127  1.00  0.00     0.244 HD
ENDBRANCH  14  16
ENDBRANCH   7  14
TORSDOF 3
ENDMDL
MODEL 2
REMARK VINA RESULT: -5.068720702      3.039      4.084
REMARK  3 active torsions:
REMARK  status: ('A' for Active; 'I' for Inactive)
REMARK    1  A    between atoms: C6_7  and  N2_8 
REMARK    2  A    between atoms: N2_8  and  O1_10 
REMARK    3  A    between atoms: C8_12  and  N3_13 
REMARK       I    between atoms: N3_13  and  C9_15 
ROOT
HETATM    1  C1  UNL     1     -24.437   5.724  15.016  1.00  0.00     0.014 C 
HETATM    2  C2  UNL     1     -25.828   5.205  15.096  1.00  0.00     0.034 C 
HETATM    3  C3  UNL     1     -26.077   4.617  16.467  1.00  0.00     0.245 C 
HETATM    4  N1  UNL     1     -26.015   3.164  16.278  1.00  0.00    -0.050 N 
HETATM    5  C4  UNL     1     -26.927   2.575  17.272  1.00  0.00     0.274 C 
HETATM    6  C5  UNL     1     -24.719   2.710  16.491  1.00  0.00     0.274 C 
HETATM    7  C6  UNL     1     -26.619   3.007  14.991  1.00  0.00     0.333 C 
HETATM    8  C8  UNL     1     -26.167   4.134  14.103  1.00  0.00     0.143 C 
ENDROOT
BRANCH   8   9
HETATM    9  N3  UNL     1     -25.148   3.827  13.173  1.00  0.00    -0.337 N 
HETATM   10  C9  UNL     1     -25.217   4.165  11.784  1.00  0.00     0.329 C 
HETATM   11  N4  UNL     1     -24.192   3.855  10.852  1.00  0.00    -0.040 NA
HETATM   12  O2  UNL     1     -26.228   4.775  11.307  1.00  0.00    -0.251 OA
ATOM     13  H3  UNL     1     -24.319   3.337  13.509  1.00  0.00     0.164 HD
ENDBRANCH   8   9
BRANCH   7  14
HETATM   14  N2  UNL     1     -26.623   1.726  14.457  1.00  0.00    -0.268 N 
HETATM   15  C7  UNL     1     -27.726   0.858  14.212  1.00  0.00     0.181 C 
BRANCH  14  16
HETATM   16  O1  UNL     1     -25.558   1.228  14.137  1.00  0.00    -0.291 OA
ATOM     17  H1  UNL     1     -25.175   1.476  13.303  1.00  0.00     0.244 HD
ENDBRANCH  14  16
ENDBRANCH   7  14
TORSDOF 3
ENDMDL
MODEL 3
REMARK VINA RESULT: -5.057817869      1.403      1.661
REMARK  3 active torsions:
REMARK  status: ('A' for Active; 'I' for Inactive)
REMARK    1  A    between atoms: C6_7  and  N2_8 
REMARK    2  A    between atoms: N2_8  and  O1_10 
REMARK    3  A    between atoms: C8_12  and  N3_13 
REMARK       I    between atoms: N3_13  and  C9_15 
ROOT
HETATM    1  C1  UNL     1     -22.918   4.700  16.517  1.00  0.00     0.014 C 
HETATM    2  C2  UNL     1     -23.677   4.713  15.237  1.00  0.00     0.034 C 
HETATM    3  C3  UNL     1     -25.088   5.197  15.484  1.00  0.00     0.245 C 
HETATM    4  N1  UNL     1     -25.919   3.989  15.454  1.00  0.00    -0.050 N 
HETATM    5  C4  UNL     1     -27.238   4.403  14.947  1.00  0.00     0.274 C 
HETATM    6  C5  UNL     1     -26.043   3.464  16.734  1.00  0.00     0.274 C 
HETATM    7  C6  UNL     1     -25.283   3.220  14.429  1.00  0.00     0.333 C 
HETATM    8  C8  UNL     1     -23.794   3.385  14.552  1.00  0.00     0.143 C 
ENDROOT
BRANCH   8   9
HETATM    9  N3  UNL     1     -23.096   2.322  15.169  1.00  0.00    -0.337 N 
HETATM   10  C9  UNL     1     -22.102   1.538  14.502  1.00  0.00     0.329 C 
HETATM   11  N4  UNL     1     -21.401   0.471  15.125  1.00  0.00    -0.040 NA
HETATM   12  O2  UNL     1     -21.790   1.766  13.289  1.00  0.00    -0.251 OA
ATOM     13  H3  UNL     1     -23.312   2.102  16.141  1.00  0.00     0.164 HD
ENDBRANCH   8   9
BRANCH   7  14
HETATM   14  N2  UNL     1     -25.776   1.940  14.217  1.00  0.00    -0.268 N 
HETATM   15  C7  UNL     1     -26.888   1.292  14.829  1.00  0.00     0.181 C 
BRANCH  14  16
HETATM   16  O1  UNL     1     -25.214   1.230  13.402  1.00  0.00    -0.291 OA
ATOM     17  H1  UNL     1     -24.918   0.370  13.678  1.00  0.00     0.244 HD
ENDBRANCH  14  16
ENDBRANCH   7  14
TORSDOF 3
ENDMDL
MODEL 4
REMARK VINA RESULT: -5.042546981      2.649      4.840
REMARK  3 active torsions:
REMARK  status: ('A' for Active; 'I' for Inactive)
REMARK    1  A    between atoms: C6_7  and  N2_8 
REMARK    2  A    between atoms: N2_8  and  O1_10 
REMARK    3  A    between atoms: C8_12  and  N3_13 
REMARK       I    between atoms: N3_13  and  C9_15 
ROOT
HETATM    1  C1  UNL     1     -25.652   4.987  14.692  1.00  0.00     0.014 C 
HETATM    2  C2  UNL     1     -24.175   4.971  14.512  1.00  0.00     0.034 C 
HETATM    3  C3  UNL     1     -23.773   3.767  13.690  1.00  0.00     0.245 C 
HETATM    4  N1  UNL     1     -23.223   2.810  14.655  1.00  0.00    -0.050 N 
HETATM    5  C4  UNL     1     -22.198   2.035  13.937  1.00  0.00     0.274 C 
HETATM    6  C5  UNL     1     -24.226   1.965  15.114  1.00  0.00     0.274 C 
HETATM    7  C6  UNL     1     -22.547   3.673  15.575  1.00  0.00     0.333 C 
HETATM    8  C8  UNL     1     -23.379   4.908  15.781  1.00  0.00     0.143 C 
ENDROOT
BRANCH   8   9
HETATM    9  N3  UNL     1     -24.136   4.961  16.973  1.00  0.00    -0.337 N 
HETATM   10  C9  UNL     1     -24.240   6.129  17.792  1.00  0.00     0.329 C 
HETATM   11  N4  UNL     1     -25.002   6.179  18.990  1.00  0.00    -0.040 NA
HETATM   12  O2  UNL     1     -23.640   7.207  17.477  1.00  0.00    -0.251 OA
ATOM     13  H3  UNL     1     -24.634   4.120  17.266  1.00  0.00     0.164 HD
ENDBRANCH   8   9
BRANCH   7  14
HETATM   14  N2  UNL     1     -21.991   3.074  16.696  1.00  0.00    -0.268 N 
HETATM   15  C7  UNL     1     -20.730   2.426  16.837  1.00  0.00     0.181 C 
BRANCH  14  16
HETATM   16  O1  UNL     1     -22.633   3.075  17.732  1.00  0.00    -0.291 OA
ATOM     17  H1  UNL     1     -22.921   2.242  18.087  1.00  0.00     0.244 HD
ENDBRANCH  14  16
ENDBRANCH   7  14
TORSDOF 3
ENDMDL
MODEL 5
REMARK VINA RESULT: -4.994757333      2.133      3.340
REMARK  3 active torsions:
REMARK  status: ('A' for Active; 'I' for Inactive)
REMARK    1  A    between atoms: C6_7  and  N2_8 
REMARK    2  A    between atoms: N2_8  and  O1_10 
REMARK    3  A    between atoms: C8_12  and  N3_13 
REMARK       I    between atoms: N3_13  and  C9_15 
ROOT
HETATM    1  C1  UNL     1     -25.548   1.650  14.176  1.00  0.00     0.014 C 
HETATM    2  C2  UNL     1     -25.680   2.357  15.479  1.00  0.00     0.034 C 
HETATM    3  C3  UNL     1     -26.604   3.544  15.325  1.00  0.00     0.245 C 
HETATM    4  N1  UNL     1     -25.721   4.715  15.280  1.00  0.00    -0.050 N 
HETATM    5  C4  UNL     1     -26.479   5.831  15.868  1.00  0.00     0.274 C 
HETATM    6  C5  UNL     1     -25.383   5.007  13.965  1.00  0.00     0.274 C 
HETATM    7  C6  UNL     1     -24.698   4.349  16.211  1.00  0.00     0.333 C 
HETATM    8  C8  UNL     1     -24.398   2.884  16.050  1.00  0.00     0.143 C 
ENDROOT
BRANCH   8   9
HETATM    9  N3  UNL     1     -23.232   2.562  15.319  1.00  0.00    -0.337 N 
HETATM   10  C9  UNL     1     -21.970   2.278  15.930  1.00  0.00     0.329 C 
HETATM   11  N4  UNL     1     -20.800   1.954  15.193  1.00  0.00    -0.040 NA
HETATM   12  O2  UNL     1     -21.833   2.303  17.196  1.00  0.00    -0.251 OA
ATOM     13  H3  UNL     1     -23.293   2.530  14.301  1.00  0.00     0.164 HD
ENDBRANCH   8   9
BRANCH   7  14
HETATM   14  N2  UNL     1     -23.624   5.219  16.329  1.00  0.00    -0.268 N 
HETATM   15  C7  UNL     1     -23.245   6.034  17.435  1.00  0.00     0.181 C 
BRANCH  14  16
HETATM   16  O1  UNL     1     -22.868   5.339  15.382  1.00  0.00    -0.291 OA
ATOM     17  H1  UNL     1     -22.512   6.200  15.192  1.00  0.00     0.244 HD
ENDBRANCH  14  16
ENDBRANCH   7  14
TORSDOF 3
ENDMDL
