MODEL 1
REMARK VINA RESULT: -5.460008766      0.000      0.000
REMARK  4 active torsions:
REMARK  status: ('A' for Active; 'I' for Inactive)
REMARK    1  A    between atoms: C3_3  and  N1_4 
REMARK    2  A    between atoms: N1_4  and  C6_7 
REMARK    3  A    between atoms: C10_13  and  C11_14 
REMARK    4  A    between atoms: C11_14  and  O1_15 
ROOT
HETATM    1  C1  UNL     1     -25.204   4.172  12.058  1.00  0.00     0.013 C 
HETATM    2  C2  UNL     1     -25.134   4.122  13.264  1.00  0.00    -0.089 C 
HETATM    3  C3  UNL     1     -25.028   4.053  14.707  1.00  0.00     0.330 C 
ENDROOT
BRANCH   3   4
HETATM    4  N1  UNL     1     -24.767   2.668  15.142  1.00  0.00    -0.054 N 
HETATM    5  C4  UNL     1     -25.599   2.423  16.331  1.00  0.00     0.274 C 
HETATM    6  C5  UNL     1     -25.251   1.828  14.103  1.00  0.00     0.274 C 
BRANCH   4   7
HETATM    7  C6  UNL     1     -23.399   2.597  15.474  1.00  0.00     0.152 A 
HETATM    8  C7  UNL     1     -22.631   1.652  14.543  1.00  0.00     0.070 A 
HETATM    9  C8  UNL     1     -21.507   0.954  15.162  1.00  0.00     0.063 C 
HETATM   10  C12 UNL     1     -22.270   3.070  14.700  1.00  0.00     0.058 A 
HETATM   11  N2  UNL     1     -20.848   1.728  15.925  1.00  0.00    -0.396 N 
HETATM   12  C9  UNL     1     -21.430   3.041  15.929  1.00  0.00     0.096 C 
ATOM     13  H2  UNL     1     -20.023   1.455  16.459  1.00  0.00     0.159 HD
HETATM   14  C10 UNL     1     -22.769   3.051  16.705  1.00  0.00     0.070 C 
BRANCH  14  15
HETATM   15  C11 UNL     1     -22.975   4.418  17.250  1.00  0.00     0.173 C 
BRANCH  15  16
HETATM   16  O1  UNL     1     -23.671   4.396  18.482  1.00  0.00    -0.400 OA
ATOM     17  H1  UNL     1     -24.611   4.481  18.361  1.00  0.00     0.209 HD
ENDBRANCH  15  16
ENDBRANCH  14  15
ENDBRANCH   4   7
ENDBRANCH   3   4
TORSDOF 4
ENDMDL
MODEL 2
REMARK VINA RESULT: -5.274157536      1.022      1.832
REMARK  4 active torsions:
REMARK  status: ('A' for Active; 'I' for Inactive)
REMARK    1  A    between atoms: C3_3  and  N1_4 
REMARK    2  A    between atoms: N1_4  and  C6_7 
REMARK    3  A    between atoms: C10_13  and  C11_14 
REMARK    4  A    between atoms: C11_14  and  O1_15 
ROOT
HETATM    1  C1  UNL     1     -28.088   1.338  14.098  1.00  0.00     0.013 C 
HETATM    2  C2  UNL     1     -26.900   1.540  14.192  1.00  0.00    -0.089 C 
HETATM    3  C3  UNL     1     -25.477   1.774  14.329  1.00  0.00     0.330 C 
ENDROOT
BRANCH   3   4
HETATM    4  N1  UNL     1     -25.212   2.733  15.417  1.00  0.00    -0.054 N 
HETATM    5  C4  UNL     1     -25.739   4.038  14.984  1.00  0.00     0.274 C 
HETATM    6  C5  UNL     1     -25.993   2.305  16.524  1.00  0.00     0.274 C 
BRANCH   4   7
HETATM    7  C6  UNL     1     -23.812   2.794  15.572  1.00  0.00     0.152 A 
HETATM    8  C7  UNL     1     -23.083   1.917  14.548  1.00  0.00     0.070 A 
HETATM    9  C8  UNL     1     -21.829   1.333  15.016  1.00  0.00     0.063 C 
HETATM   10  C12 UNL     1     -22.840   3.364  14.663  1.00  0.00     0.058 A 
HETATM   11  N2  UNL     1     -21.154   2.171  15.692  1.00  0.00    -0.396 N 
HETATM   12  C9  UNL     1     -21.851   3.424  15.774  1.00  0.00     0.096 C 
ATOM     13  H2  UNL     1     -20.246   1.981  16.116  1.00  0.00     0.159 HD
HETATM   14  C10 UNL     1     -23.076   3.315  16.715  1.00  0.00     0.070 C 
BRANCH  14  15
HETATM   15  C11 UNL     1     -23.338   4.661  17.286  1.00  0.00     0.173 C 
BRANCH  15  16
HETATM   16  O1  UNL     1     -23.781   4.588  18.629  1.00  0.00    -0.400 OA
ATOM     17  H1  UNL     1     -24.430   3.905  18.752  1.00  0.00     0.209 HD
ENDBRANCH  15  16
ENDBRANCH  14  15
ENDBRANCH   4   7
ENDBRANCH   3   4
TORSDOF 4
ENDMDL
MODEL 3
REMARK VINA RESULT: -5.249984145      0.960      1.141
REMARK  4 active torsions:
REMARK  status: ('A' for Active; 'I' for Inactive)
REMARK    1  A    between atoms: C3_3  and  N1_4 
REMARK    2  A    between atoms: N1_4  and  C6_7 
REMARK    3  A    between atoms: C10_13  and  C11_14 
REMARK    4  A    between atoms: C11_14  and  O1_15 
ROOT
HETATM    1  C1  UNL     1     -28.035   4.274  14.396  1.00  0.00     0.013 C 
HETATM    2  C2  UNL     1     -26.846   4.199  14.603  1.00  0.00    -0.089 C 
HETATM    3  C3  UNL     1     -25.420   4.093  14.834  1.00  0.00     0.330 C 
ENDROOT
BRANCH   3   4
HETATM    4  N1  UNL     1     -25.052   2.704  15.171  1.00  0.00    -0.054 N 
HETATM    5  C4  UNL     1     -25.827   2.328  16.364  1.00  0.00     0.274 C 
HETATM    6  C5  UNL     1     -25.510   1.899  14.093  1.00  0.00     0.274 C 
BRANCH   4   7
HETATM    7  C6  UNL     1     -23.672   2.710  15.460  1.00  0.00     0.152 A 
HETATM    8  C7  UNL     1     -22.884   1.804  14.508  1.00  0.00     0.070 A 
HETATM    9  C8  UNL     1     -21.705   1.170  15.093  1.00  0.00     0.063 C 
HETATM   10  C12 UNL     1     -22.595   3.240  14.651  1.00  0.00     0.058 A 
HETATM   11  N2  UNL     1     -21.065   1.981  15.834  1.00  0.00    -0.396 N 
HETATM   12  C9  UNL     1     -21.717   3.261  15.853  1.00  0.00     0.096 C 
ATOM     13  H2  UNL     1     -20.211   1.756  16.343  1.00  0.00     0.159 HD
HETATM   14  C10 UNL     1     -23.031   3.201  16.671  1.00  0.00     0.070 C 
BRANCH  14  15
HETATM   15  C11 UNL     1     -23.293   4.557  17.219  1.00  0.00     0.173 C 
BRANCH  15  16
HETATM   16  O1  UNL     1     -23.756   4.506  18.556  1.00  0.00    -0.400 OA
ATOM     17  H1  UNL     1     -24.705   4.476  18.602  1.00  0.00     0.209 HD
ENDBRANCH  15  16
ENDBRANCH  14  15
ENDBRANCH   4   7
ENDBRANCH   3   4
TORSDOF 4
ENDMDL
MODEL 4
REMARK VINA RESULT: -5.215554632      0.983      2.137
REMARK  4 active torsions:
REMARK  status: ('A' for Active; 'I' for Inactive)
REMARK    1  A    between atoms: C3_3  and  N1_4 
REMARK    2  A    between atoms: N1_4  and  C6_7 
REMARK    3  A    between atoms: C10_13  and  C11_14 
REMARK    4  A    between atoms: C11_14  and  O1_15 
ROOT
HETATM    1  C1  UNL     1     -28.334   1.618  15.929  1.00  0.00     0.013 C 
HETATM    2  C2  UNL     1     -27.187   1.919  16.167  1.00  0.00    -0.089 C 
HETATM    3  C3  UNL     1     -25.819   2.303  16.445  1.00  0.00     0.330 C 
ENDROOT
BRANCH   3   4
HETATM    4  N1  UNL     1     -25.166   2.814  15.225  1.00  0.00    -0.054 N 
HETATM    5  C4  UNL     1     -25.508   1.890  14.131  1.00  0.00     0.274 C 
HETATM    6  C5  UNL     1     -25.781   4.061  14.937  1.00  0.00     0.274 C 
BRANCH   4   7
HETATM    7  C6  UNL     1     -23.777   2.795  15.469  1.00  0.00     0.152 A 
HETATM    8  C7  UNL     1     -23.032   1.902  14.471  1.00  0.00     0.070 A 
HETATM    9  C8  UNL     1     -21.842   1.241  15.002  1.00  0.00     0.063 C 
HETATM   10  C12 UNL     1     -22.720   3.331  14.638  1.00  0.00     0.058 A 
HETATM   11  N2  UNL     1     -21.169   2.027  15.741  1.00  0.00    -0.396 N 
HETATM   12  C9  UNL     1     -21.804   3.313  15.811  1.00  0.00     0.096 C 
ATOM     13  H2  UNL     1     -20.302   1.778  16.216  1.00  0.00     0.159 HD
HETATM   14  C10 UNL     1     -23.091   3.250  16.670  1.00  0.00     0.070 C 
BRANCH  14  15
HETATM   15  C11 UNL     1     -23.318   4.595  17.257  1.00  0.00     0.173 C 
BRANCH  15  16
HETATM   16  O1  UNL     1     -23.791   4.517  18.589  1.00  0.00    -0.400 OA
ATOM     17  H1  UNL     1     -23.130   4.787  19.217  1.00  0.00     0.209 HD
ENDBRANCH  15  16
ENDBRANCH  14  15
ENDBRANCH   4   7
ENDBRANCH   3   4
TORSDOF 4
ENDMDL
MODEL 5
REMARK VINA RESULT: -5.081576633      1.962      3.505
REMARK  4 active torsions:
REMARK  status: ('A' for Active; 'I' for Inactive)
REMARK    1  A    between atoms: C3_3  and  N1_4 
REMARK    2  A    between atoms: N1_4  and  C6_7 
REMARK    3  A    between atoms: C10_13  and  C11_14 
REMARK    4  A    between atoms: C11_14  and  O1_15 
ROOT
HETATM    1  C1  UNL     1     -23.232   8.116  17.453  1.00  0.00     0.013 C 
HETATM    2  C2  UNL     1     -23.203   7.151  16.725  1.00  0.00    -0.089 C 
HETATM    3  C3  UNL     1     -23.193   5.999  15.847  1.00  0.00     0.330 C 
ENDROOT
BRANCH   3   4
HETATM    4  N1  UNL     1     -24.208   5.016  16.269  1.00  0.00    -0.054 N 
HETATM    5  C4  UNL     1     -24.011   4.781  17.709  1.00  0.00     0.274 C 
HETATM    6  C5  UNL     1     -25.468   5.653  16.110  1.00  0.00     0.274 C 
BRANCH   4   7
HETATM    7  C6  UNL     1     -23.960   3.836  15.538  1.00  0.00     0.152 A 
HETATM    8  C7  UNL     1     -24.986   3.630  14.418  1.00  0.00     0.070 A 
HETATM    9  C8  UNL     1     -25.293   2.235  14.112  1.00  0.00     0.063 C 
HETATM   10  C12 UNL     1     -23.540   3.716  14.158  1.00  0.00     0.058 A 
HETATM   11  N2  UNL     1     -24.242   1.519  14.118  1.00  0.00    -0.396 N 
HETATM   12  C9  UNL     1     -23.092   2.322  14.426  1.00  0.00     0.096 C 
ATOM     13  H2  UNL     1     -24.219   0.517  13.930  1.00  0.00     0.159 HD
HETATM   14  C10 UNL     1     -23.088   2.734  15.919  1.00  0.00     0.070 C 
BRANCH  14  15
HETATM   15  C11 UNL     1     -21.678   2.939  16.336  1.00  0.00     0.173 C 
BRANCH  15  16
HETATM   16  O1  UNL     1     -21.415   2.376  17.608  1.00  0.00    -0.400 OA
ATOM     17  H1  UNL     1     -20.787   2.891  18.102  1.00  0.00     0.209 HD
ENDBRANCH  15  16
ENDBRANCH  14  15
ENDBRANCH   4   7
ENDBRANCH   3   4
TORSDOF 4
ENDMDL
