MODEL 1
REMARK VINA RESULT: -5.024276255      0.000      0.000
REMARK  5 active torsions:
REMARK  status: ('A' for Active; 'I' for Inactive)
REMARK    1  A    between atoms: C2_2  and  C3_3 
REMARK       I    between atoms: N1_7  and  C7_8 
REMARK    2  A    between atoms: C7_8  and  C8_10 
REMARK    3  A    between atoms: C9_11  and  C10_12 
REMARK    4  A    between atoms: C11_13  and  C12_14 
REMARK    5  A    between atoms: C12_14  and  O2_15 
ROOT
HETATM    1  C3  UNL     1     -26.899   4.289  12.507  1.00  0.00     0.116 C 
HETATM    2  C4  UNL     1     -27.507   3.098  13.239  1.00  0.00     0.037 A 
HETATM    3  C5  UNL     1     -27.645   2.916  14.661  1.00  0.00     0.035 A 
HETATM    4  C6  UNL     1     -26.607   3.831  14.320  1.00  0.00     0.095 A 
HETATM    5  N1  UNL     1     -25.714   3.845  13.213  1.00  0.00    -0.328 N 
HETATM    6  C7  UNL     1     -24.384   3.588  12.876  1.00  0.00     0.300 C 
HETATM    7  O1  UNL     1     -23.922   3.725  11.692  1.00  0.00    -0.258 OA
ENDROOT
BRANCH   6   8
HETATM    8  C8  UNL     1     -23.402   3.137  13.845  1.00  0.00     0.009 C 
HETATM    9  C9  UNL     1     -22.599   2.758  14.662  1.00  0.00    -0.005 C 
BRANCH   9  10
HETATM   10  C10 UNL     1     -21.677   2.314  15.637  1.00  0.00    -0.012 C 
HETATM   11  C11 UNL     1     -20.896   1.932  16.492  1.00  0.00    -0.067 C 
BRANCH  11  12
HETATM   12  C12 UNL     1     -19.976   1.479  17.537  1.00  0.00     0.258 C 
BRANCH  12  13
HETATM   13  O2  UNL     1     -19.413   2.578  18.215  1.00  0.00    -0.389 OA
ATOM     14  H2  UNL     1     -19.250   2.363  19.125  1.00  0.00     0.210 HD
ENDBRANCH  12  13
ENDBRANCH  11  12
ENDBRANCH   9  10
ENDBRANCH   6   8
BRANCH   1  15
HETATM   15  C2  UNL     1     -26.754   4.089  11.059  1.00  0.00    -0.012 C 
HETATM   16  C1  UNL     1     -27.709   3.660  10.263  1.00  0.00     0.009 C 
ENDBRANCH   1  15
TORSDOF 5
ENDMDL
MODEL 2
REMARK VINA RESULT: -4.956592774      4.708      5.797
REMARK  5 active torsions:
REMARK  status: ('A' for Active; 'I' for Inactive)
REMARK    1  A    between atoms: C2_2  and  C3_3 
REMARK       I    between atoms: N1_7  and  C7_8 
REMARK    2  A    between atoms: C7_8  and  C8_10 
REMARK    3  A    between atoms: C9_11  and  C10_12 
REMARK    4  A    between atoms: C11_13  and  C12_14 
REMARK    5  A    between atoms: C12_14  and  O2_15 
ROOT
HETATM    1  C3  UNL     1     -23.892   2.662  15.631  1.00  0.00     0.116 C 
HETATM    2  C4  UNL     1     -22.378   2.520  15.532  1.00  0.00     0.037 A 
HETATM    3  C5  UNL     1     -21.402   2.761  16.565  1.00  0.00     0.035 A 
HETATM    4  C6  UNL     1     -22.622   3.463  16.784  1.00  0.00     0.095 A 
HETATM    5  N1  UNL     1     -23.532   4.047  15.859  1.00  0.00    -0.328 N 
HETATM    6  C7  UNL     1     -23.942   5.284  15.360  1.00  0.00     0.300 C 
HETATM    7  O1  UNL     1     -24.853   5.416  14.473  1.00  0.00    -0.258 OA
ENDROOT
BRANCH   6   8
HETATM    8  C8  UNL     1     -23.367   6.541  15.806  1.00  0.00     0.009 C 
HETATM    9  C9  UNL     1     -22.874   7.582  16.163  1.00  0.00    -0.005 C 
BRANCH   9  10
HETATM   10  C10 UNL     1     -22.276   8.796  16.571  1.00  0.00    -0.012 C 
HETATM   11  C11 UNL     1     -21.741   9.834  16.923  1.00  0.00    -0.067 C 
BRANCH  11  12
HETATM   12  C12 UNL     1     -21.077  11.068  17.348  1.00  0.00     0.258 C 
BRANCH  12  13
HETATM   13  O2  UNL     1     -19.690  10.993  17.114  1.00  0.00    -0.389 OA
ATOM     14  H2  UNL     1     -19.392  11.747  16.620  1.00  0.00     0.210 HD
ENDBRANCH  12  13
ENDBRANCH  11  12
ENDBRANCH   9  10
ENDBRANCH   6   8
BRANCH   1  15
HETATM   15  C2  UNL     1     -24.591   2.505  14.348  1.00  0.00    -0.012 C 
HETATM   16  C1  UNL     1     -25.733   1.872  14.191  1.00  0.00     0.009 C 
ENDBRANCH   1  15
TORSDOF 5
ENDMDL
MODEL 3
REMARK VINA RESULT: -4.877003219      0.992      1.000
REMARK  5 active torsions:
REMARK  status: ('A' for Active; 'I' for Inactive)
REMARK    1  A    between atoms: C2_2  and  C3_3 
REMARK       I    between atoms: N1_7  and  C7_8 
REMARK    2  A    between atoms: C7_8  and  C8_10 
REMARK    3  A    between atoms: C9_11  and  C10_12 
REMARK    4  A    between atoms: C11_13  and  C12_14 
REMARK    5  A    between atoms: C12_14  and  O2_15 
ROOT
HETATM    1  C3  UNL     1     -27.076   4.557  11.667  1.00  0.00     0.116 C 
HETATM    2  C4  UNL     1     -27.779   3.444  12.437  1.00  0.00     0.037 A 
HETATM    3  C5  UNL     1     -28.034   3.379  13.853  1.00  0.00     0.035 A 
HETATM    4  C6  UNL     1     -26.943   4.236  13.528  1.00  0.00     0.095 A 
HETATM    5  N1  UNL     1     -25.965   4.137  12.498  1.00  0.00    -0.328 N 
HETATM    6  C7  UNL     1     -24.623   3.818  12.290  1.00  0.00     0.300 C 
HETATM    7  O1  UNL     1     -24.065   3.849  11.140  1.00  0.00    -0.258 OA
ENDROOT
BRANCH   6   8
HETATM    8  C8  UNL     1     -23.735   3.419  13.367  1.00  0.00     0.009 C 
HETATM    9  C9  UNL     1     -22.988   3.075  14.250  1.00  0.00    -0.005 C 
BRANCH   9  10
HETATM   10  C10 UNL     1     -22.107   2.651  15.271  1.00  0.00    -0.012 C 
HETATM   11  C11 UNL     1     -21.343   2.269  16.140  1.00  0.00    -0.067 C 
BRANCH  11  12
HETATM   12  C12 UNL     1     -20.423   1.787  17.173  1.00  0.00     0.258 C 
BRANCH  12  13
HETATM   13  O2  UNL     1     -20.022   0.464  16.905  1.00  0.00    -0.389 OA
ATOM     14  H2  UNL     1     -19.705   0.384  16.013  1.00  0.00     0.210 HD
ENDBRANCH  12  13
ENDBRANCH  11  12
ENDBRANCH   9  10
ENDBRANCH   6   8
BRANCH   1  15
HETATM   15  C2  UNL     1     -26.825   4.240  10.255  1.00  0.00    -0.012 C 
HETATM   16  C1  UNL     1     -27.581   3.455   9.519  1.00  0.00     0.009 C 
ENDBRANCH   1  15
TORSDOF 5
ENDMDL
MODEL 4
REMARK VINA RESULT: -4.788368500      3.072      7.290
REMARK  5 active torsions:
REMARK  status: ('A' for Active; 'I' for Inactive)
REMARK    1  A    between atoms: C2_2  and  C3_3 
REMARK       I    between atoms: N1_7  and  C7_8 
REMARK    2  A    between atoms: C7_8  and  C8_10 
REMARK    3  A    between atoms: C9_11  and  C10_12 
REMARK    4  A    between atoms: C11_13  and  C12_14 
REMARK    5  A    between atoms: C12_14  and  O2_15 
ROOT
HETATM    1  C3  UNL     1     -21.040   2.271  15.623  1.00  0.00     0.116 C 
HETATM    2  C4  UNL     1     -21.074   0.793  15.252  1.00  0.00     0.037 A 
HETATM    3  C5  UNL     1     -21.432   0.212  13.983  1.00  0.00     0.035 A 
HETATM    4  C6  UNL     1     -21.988   1.510  14.172  1.00  0.00     0.095 A 
HETATM    5  N1  UNL     1     -22.459   2.152  15.352  1.00  0.00    -0.328 N 
HETATM    6  C7  UNL     1     -23.637   2.522  16.001  1.00  0.00     0.300 C 
HETATM    7  O1  UNL     1     -23.658   3.126  17.127  1.00  0.00    -0.258 OA
ENDROOT
BRANCH   6   8
HETATM    8  C8  UNL     1     -24.954   2.251  15.452  1.00  0.00     0.009 C 
HETATM    9  C9  UNL     1     -26.045   2.007  14.999  1.00  0.00    -0.005 C 
BRANCH   9  10
HETATM   10  C10 UNL     1     -27.317   1.698  14.465  1.00  0.00    -0.012 C 
HETATM   11  C11 UNL     1     -28.408   1.411  14.004  1.00  0.00    -0.067 C 
BRANCH  11  12
HETATM   12  C12 UNL     1     -29.711   1.043  13.446  1.00  0.00     0.258 C 
BRANCH  12  13
HETATM   13  O2  UNL     1     -29.806   1.441  12.098  1.00  0.00    -0.389 OA
ATOM     14  H2  UNL     1     -30.712   1.583  11.853  1.00  0.00     0.210 HD
ENDBRANCH  12  13
ENDBRANCH  11  12
ENDBRANCH   9  10
ENDBRANCH   6   8
BRANCH   1  15
HETATM   15  C2  UNL     1     -20.797   2.523  17.050  1.00  0.00    -0.012 C 
HETATM   16  C1  UNL     1     -20.132   1.718  17.849  1.00  0.00     0.009 C 
ENDBRANCH   1  15
TORSDOF 5
ENDMDL
MODEL 5
REMARK VINA RESULT: -4.662662460      2.850      6.989
REMARK  5 active torsions:
REMARK  status: ('A' for Active; 'I' for Inactive)
REMARK    1  A    between atoms: C2_2  and  C3_3 
REMARK       I    between atoms: N1_7  and  C7_8 
REMARK    2  A    between atoms: C7_8  and  C8_10 
REMARK    3  A    between atoms: C9_11  and  C10_12 
REMARK    4  A    between atoms: C11_13  and  C12_14 
REMARK    5  A    between atoms: C12_14  and  O2_15 
ROOT
HETATM    1  C3  UNL     1     -22.702   3.834  15.774  1.00  0.00     0.116 C 
HETATM    2  C4  UNL     1     -22.866   2.325  15.626  1.00  0.00     0.037 A 
HETATM    3  C5  UNL     1     -22.391   1.489  14.553  1.00  0.00     0.035 A 
HETATM    4  C6  UNL     1     -22.548   2.851  14.163  1.00  0.00     0.095 A 
HETATM    5  N1  UNL     1     -23.505   3.824  14.568  1.00  0.00    -0.328 N 
HETATM    6  C7  UNL     1     -24.647   4.488  14.119  1.00  0.00     0.300 C 
HETATM    7  O1  UNL     1     -25.273   5.357  14.817  1.00  0.00    -0.258 OA
ENDROOT
BRANCH   6   8
HETATM    8  C8  UNL     1     -25.230   4.251  12.811  1.00  0.00     0.009 C 
HETATM    9  C9  UNL     1     -25.721   4.035  11.730  1.00  0.00    -0.005 C 
BRANCH   9  10
HETATM   10  C10 UNL     1     -26.297   3.760  10.469  1.00  0.00    -0.012 C 
HETATM   11  C11 UNL     1     -26.799   3.503   9.388  1.00  0.00    -0.067 C 
BRANCH  11  12
HETATM   12  C12 UNL     1     -27.403   3.169   8.096  1.00  0.00     0.258 C 
BRANCH  12  13
HETATM   13  O2  UNL     1     -27.956   1.874   8.125  1.00  0.00    -0.389 OA
ATOM     14  H2  UNL     1     -28.512   1.731   7.368  1.00  0.00     0.210 HD
ENDBRANCH  12  13
ENDBRANCH  11  12
ENDBRANCH   9  10
ENDBRANCH   6   8
BRANCH   1  15
HETATM   15  C2  UNL     1     -23.452   4.408  16.900  1.00  0.00    -0.012 C 
HETATM   16  C1  UNL     1     -23.241   5.602  17.408  1.00  0.00     0.009 C 
ENDBRANCH   1  15
TORSDOF 5
ENDMDL
