MODEL 1
REMARK VINA RESULT: -5.851133989      0.000      0.000
REMARK  5 active torsions:
REMARK  status: ('A' for Active; 'I' for Inactive)
REMARK    1  A    between atoms: N1_1  and  N2_4 
REMARK    2  A    between atoms: N2_4  and  C1_5 
REMARK    3  A    between atoms: C1_5  and  C2_6 
REMARK       I    between atoms: C2_6  and  N3_8 
REMARK    4  A    between atoms: C3_10  and  C4_11 
REMARK       I    between atoms: C4_11  and  N4_13 
REMARK    5  A    between atoms: N4_13  and  C5_15 
ROOT
HETATM    1  C4  UNL     1     -24.108   2.848  13.966  1.00  0.00     0.275 C 
HETATM    2  O2  UNL     1     -24.603   3.972  13.727  1.00  0.00    -0.266 OA
HETATM    3  N4  UNL     1     -24.986   1.730  13.922  1.00  0.00    -0.155 N 
ATOM      4  H4  UNL     1     -24.712   0.919  13.366  1.00  0.00     0.187 HD
ENDROOT
BRANCH   1   5
HETATM    5  C3  UNL     1     -22.717   2.677  14.274  1.00  0.00     0.166 C 
HETATM    6  N3  UNL     1     -22.280   1.597  14.820  1.00  0.00    -0.326 N 
HETATM    7  C2  UNL     1     -20.935   1.361  15.148  1.00  0.00     0.276 C 
ATOM      8  H3  UNL     1     -22.956   0.863  15.029  1.00  0.00     0.168 HD
HETATM    9  O1  UNL     1     -19.975   1.558  14.339  1.00  0.00    -0.265 OA
BRANCH   7  10
HETATM   10  C1  UNL     1     -20.578   0.867  16.471  1.00  0.00     0.282 C 
BRANCH  10  11
HETATM   11  N2  UNL     1     -19.872   1.518  17.272  1.00  0.00    -0.340 NA
BRANCH  11  12
HETATM   12  N1  UNL     1     -19.520   2.381  18.097  1.00  0.00    -0.281 N 
ATOM     13  H12 UNL     1     -18.877   2.871  17.474  1.00  0.00     0.191 HD
ATOM     14  H11 UNL     1     -19.446   2.913  18.964  1.00  0.00     0.191 HD
ENDBRANCH  11  12
ENDBRANCH  10  11
ENDBRANCH   7  10
ENDBRANCH   1   5
BRANCH   3  15
HETATM   15  C5  UNL     1     -26.091   1.694  14.541  1.00  0.00     0.684 A 
HETATM   16  N5  UNL     1     -26.466   2.516  15.527  1.00  0.00    -0.200 N 
HETATM   17  C6  UNL     1     -27.714   2.193  15.965  1.00  0.00     0.123 A 
ATOM     18  H5  UNL     1     -25.897   3.277  15.899  1.00  0.00     0.183 HD
HETATM   19  C7  UNL     1     -28.096   1.119  15.190  1.00  0.00     0.123 A 
HETATM   20  N6  UNL     1     -27.094   0.828  14.327  1.00  0.00    -0.200 N 
ATOM     21  H6  UNL     1     -27.100   0.080  13.633  1.00  0.00     0.183 HD
ENDBRANCH   3  15
TORSDOF 5
ENDMDL
MODEL 2
REMARK VINA RESULT: -5.838968469      2.614      3.256
REMARK  5 active torsions:
REMARK  status: ('A' for Active; 'I' for Inactive)
REMARK    1  A    between atoms: N1_1  and  N2_4 
REMARK    2  A    between atoms: N2_4  and  C1_5 
REMARK    3  A    between atoms: C1_5  and  C2_6 
REMARK       I    between atoms: C2_6  and  N3_8 
REMARK    4  A    between atoms: C3_10  and  C4_11 
REMARK       I    between atoms: C4_11  and  N4_13 
REMARK    5  A    between atoms: N4_13  and  C5_15 
ROOT
HETATM    1  C4  UNL     1     -24.309   2.874  13.458  1.00  0.00     0.275 C 
HETATM    2  O2  UNL     1     -25.142   1.976  13.713  1.00  0.00    -0.266 OA
HETATM    3  N4  UNL     1     -24.759   3.972  12.675  1.00  0.00    -0.155 N 
ATOM      4  H4  UNL     1     -24.577   4.918  13.014  1.00  0.00     0.187 HD
ENDROOT
BRANCH   1   5
HETATM    5  C3  UNL     1     -22.954   2.814  13.927  1.00  0.00     0.166 C 
HETATM    6  N3  UNL     1     -22.636   2.124  14.966  1.00  0.00    -0.326 N 
HETATM    7  C2  UNL     1     -21.334   2.019  15.481  1.00  0.00     0.276 C 
ATOM      8  H3  UNL     1     -23.380   1.620  15.448  1.00  0.00     0.168 HD
HETATM    9  O1  UNL     1     -20.321   1.748  14.765  1.00  0.00    -0.265 OA
BRANCH   7  10
HETATM   10  C1  UNL     1     -21.087   2.226  16.902  1.00  0.00     0.282 C 
BRANCH  10  11
HETATM   11  N2  UNL     1     -20.104   1.737  17.500  1.00  0.00    -0.340 NA
BRANCH  11  12
HETATM   12  N1  UNL     1     -19.006   1.190  17.706  1.00  0.00    -0.281 N 
ATOM     13  H12 UNL     1     -18.433   1.962  17.363  1.00  0.00     0.191 HD
ATOM     14  H11 UNL     1     -18.310   0.498  17.984  1.00  0.00     0.191 HD
ENDBRANCH  11  12
ENDBRANCH  10  11
ENDBRANCH   7  10
ENDBRANCH   1   5
BRANCH   3  15
HETATM   15  C5  UNL     1     -25.375   3.833  11.576  1.00  0.00     0.684 A 
HETATM   16  N5  UNL     1     -26.695   3.959  11.396  1.00  0.00    -0.200 N 
HETATM   17  C6  UNL     1     -27.017   3.742  10.090  1.00  0.00     0.123 A 
ATOM     18  H5  UNL     1     -27.364   4.186  12.131  1.00  0.00     0.183 HD
HETATM   19  C7  UNL     1     -25.817   3.473   9.468  1.00  0.00     0.123 A 
HETATM   20  N6  UNL     1     -24.827   3.533  10.390  1.00  0.00    -0.200 N 
ATOM     21  H6  UNL     1     -23.834   3.377  10.212  1.00  0.00     0.183 HD
ENDBRANCH   3  15
TORSDOF 5
ENDMDL
MODEL 3
REMARK VINA RESULT: -5.828544109      1.606      2.032
REMARK  5 active torsions:
REMARK  status: ('A' for Active; 'I' for Inactive)
REMARK    1  A    between atoms: N1_1  and  N2_4 
REMARK    2  A    between atoms: N2_4  and  C1_5 
REMARK    3  A    between atoms: C1_5  and  C2_6 
REMARK       I    between atoms: C2_6  and  N3_8 
REMARK    4  A    between atoms: C3_10  and  C4_11 
REMARK       I    between atoms: C4_11  and  N4_13 
REMARK    5  A    between atoms: N4_13  and  C5_15 
ROOT
HETATM    1  C4  UNL     1     -22.710   2.535  14.587  1.00  0.00     0.275 C 
HETATM    2  O2  UNL     1     -22.799   3.776  14.459  1.00  0.00    -0.266 OA
HETATM    3  N4  UNL     1     -23.815   1.756  14.145  1.00  0.00    -0.155 N 
ATOM      4  H4  UNL     1     -23.637   0.969  13.521  1.00  0.00     0.187 HD
ENDROOT
BRANCH   1   5
HETATM    5  C3  UNL     1     -21.550   1.907  15.152  1.00  0.00     0.166 C 
HETATM    6  N3  UNL     1     -21.423   1.756  16.423  1.00  0.00    -0.326 N 
HETATM    7  C2  UNL     1     -20.317   1.153  17.045  1.00  0.00     0.276 C 
ATOM      8  H3  UNL     1     -22.176   2.097  17.020  1.00  0.00     0.168 HD
HETATM    9  O1  UNL     1     -19.836   0.036  16.679  1.00  0.00    -0.265 OA
BRANCH   7  10
HETATM   10  C1  UNL     1     -19.659   1.807  18.168  1.00  0.00     0.282 C 
BRANCH  10  11
HETATM   11  N2  UNL     1     -19.882   1.500  19.359  1.00  0.00    -0.340 NA
BRANCH  11  12
HETATM   12  N1  UNL     1     -19.853   1.515  20.603  1.00  0.00    -0.281 N 
ATOM     13  H12 UNL     1     -18.896   1.175  20.694  1.00  0.00     0.191 HD
ATOM     14  H11 UNL     1     -20.144   1.637  21.573  1.00  0.00     0.191 HD
ENDBRANCH  11  12
ENDBRANCH  10  11
ENDBRANCH   7  10
ENDBRANCH   1   5
BRANCH   3  15
HETATM   15  C5  UNL     1     -25.011   1.995  14.491  1.00  0.00     0.684 A 
HETATM   16  N5  UNL     1     -26.084   1.268  14.156  1.00  0.00    -0.200 N 
HETATM   17  C6  UNL     1     -27.210   1.810  14.697  1.00  0.00     0.123 A 
ATOM     18  H5  UNL     1     -26.061   0.428  13.578  1.00  0.00     0.183 HD
HETATM   19  C7  UNL     1     -26.774   2.917  15.391  1.00  0.00     0.123 A 
HETATM   20  N6  UNL     1     -25.430   3.015  15.254  1.00  0.00    -0.200 N 
ATOM     21  H6  UNL     1     -24.838   3.740  15.660  1.00  0.00     0.183 HD
ENDBRANCH   3  15
TORSDOF 5
ENDMDL
MODEL 4
REMARK VINA RESULT: -5.720193943      3.007      3.647
REMARK  5 active torsions:
REMARK  status: ('A' for Active; 'I' for Inactive)
REMARK    1  A    between atoms: N1_1  and  N2_4 
REMARK    2  A    between atoms: N2_4  and  C1_5 
REMARK    3  A    between atoms: C1_5  and  C2_6 
REMARK       I    between atoms: C2_6  and  N3_8 
REMARK    4  A    between atoms: C3_10  and  C4_11 
REMARK       I    between atoms: C4_11  and  N4_13 
REMARK    5  A    between atoms: N4_13  and  C5_15 
ROOT
HETATM    1  C4  UNL     1     -24.712   4.058  13.234  1.00  0.00     0.275 C 
HETATM    2  O2  UNL     1     -25.475   5.013  13.499  1.00  0.00    -0.266 OA
HETATM    3  N4  UNL     1     -24.459   3.791  11.860  1.00  0.00    -0.155 N 
ATOM      4  H4  UNL     1     -23.491   3.693  11.554  1.00  0.00     0.187 HD
ENDROOT
BRANCH   1   5
HETATM    5  C3  UNL     1     -24.109   3.256  14.260  1.00  0.00     0.166 C 
HETATM    6  N3  UNL     1     -22.843   3.300  14.486  1.00  0.00    -0.326 N 
HETATM    7  C2  UNL     1     -22.186   2.545  15.472  1.00  0.00     0.276 C 
ATOM      8  H3  UNL     1     -22.279   3.925  13.911  1.00  0.00     0.168 HD
HETATM    9  O1  UNL     1     -22.584   2.474  16.676  1.00  0.00    -0.265 OA
BRANCH   7  10
HETATM   10  C1  UNL     1     -20.985   1.790  15.139  1.00  0.00     0.282 C 
BRANCH  10  11
HETATM   11  N2  UNL     1     -20.311   1.175  15.994  1.00  0.00    -0.340 NA
BRANCH  11  12
HETATM   12  N1  UNL     1     -19.968   0.659  17.072  1.00  0.00    -0.281 N 
ATOM     13  H12 UNL     1     -20.193   1.464  17.656  1.00  0.00     0.191 HD
ATOM     14  H11 UNL     1     -19.617  -0.020  17.748  1.00  0.00     0.191 HD
ENDBRANCH  11  12
ENDBRANCH  10  11
ENDBRANCH   7  10
ENDBRANCH   1   5
BRANCH   3  15
HETATM   15  C5  UNL     1     -25.381   3.669  10.998  1.00  0.00     0.684 A 
HETATM   16  N5  UNL     1     -25.213   3.340   9.712  1.00  0.00    -0.200 N 
HETATM   17  C6  UNL     1     -26.415   3.300   9.073  1.00  0.00     0.123 A 
ATOM     18  H5  UNL     1     -24.313   3.146   9.273  1.00  0.00     0.183 HD
HETATM   19  C7  UNL     1     -27.342   3.623  10.039  1.00  0.00     0.123 A 
HETATM   20  N6  UNL     1     -26.694   3.845  11.207  1.00  0.00    -0.200 N 
ATOM     21  H6  UNL     1     -27.128   4.102  12.094  1.00  0.00     0.183 HD
ENDBRANCH   3  15
TORSDOF 5
ENDMDL
MODEL 5
REMARK VINA RESULT: -5.704668641      1.559      1.853
REMARK  5 active torsions:
REMARK  status: ('A' for Active; 'I' for Inactive)
REMARK    1  A    between atoms: N1_1  and  N2_4 
REMARK    2  A    between atoms: N2_4  and  C1_5 
REMARK    3  A    between atoms: C1_5  and  C2_6 
REMARK       I    between atoms: C2_6  and  N3_8 
REMARK    4  A    between atoms: C3_10  and  C4_11 
REMARK       I    between atoms: C4_11  and  N4_13 
REMARK    5  A    between atoms: N4_13  and  C5_15 
ROOT
HETATM    1  C4  UNL     1     -25.083   2.130  13.993  1.00  0.00     0.275 C 
HETATM    2  O2  UNL     1     -25.077   2.701  12.880  1.00  0.00    -0.266 OA
HETATM    3  N4  UNL     1     -26.179   1.270  14.276  1.00  0.00    -0.155 N 
ATOM      4  H4  UNL     1     -25.983   0.328  14.614  1.00  0.00     0.187 HD
ENDROOT
BRANCH   1   5
HETATM    5  C3  UNL     1     -24.036   2.325  14.955  1.00  0.00     0.166 C 
HETATM    6  N3  UNL     1     -22.812   2.036  14.680  1.00  0.00    -0.326 N 
HETATM    7  C2  UNL     1     -21.738   2.199  15.570  1.00  0.00     0.276 C 
ATOM      8  H3  UNL     1     -22.609   1.663  13.753  1.00  0.00     0.168 HD
HETATM    9  O1  UNL     1     -21.531   3.269  16.223  1.00  0.00    -0.265 OA
BRANCH   7  10
HETATM   10  C1  UNL     1     -20.792   1.113  15.786  1.00  0.00     0.282 C 
BRANCH  10  11
HETATM   11  N2  UNL     1     -19.992   1.089  16.747  1.00  0.00    -0.340 NA
BRANCH  11  12
HETATM   12  N1  UNL     1     -19.238   1.472  17.659  1.00  0.00    -0.281 N 
ATOM     13  H12 UNL     1     -19.867   2.183  18.030  1.00  0.00     0.191 HD
ATOM     14  H11 UNL     1     -18.425   1.547  18.271  1.00  0.00     0.191 HD
ENDBRANCH  11  12
ENDBRANCH  10  11
ENDBRANCH   7  10
ENDBRANCH   1   5
BRANCH   3  15
HETATM   15  C5  UNL     1     -27.389   1.619  14.126  1.00  0.00     0.684 A 
HETATM   16  N5  UNL     1     -28.422   0.796  13.914  1.00  0.00    -0.200 N 
HETATM   17  C6  UNL     1     -29.578   1.507  13.799  1.00  0.00     0.123 A 
ATOM     18  H5  UNL     1     -28.354  -0.219  13.848  1.00  0.00     0.183 HD
HETATM   19  C7  UNL     1     -29.202   2.823  13.953  1.00  0.00     0.123 A 
HETATM   20  N6  UNL     1     -27.863   2.873  14.152  1.00  0.00    -0.200 N 
ATOM     21  H6  UNL     1     -27.311   3.718  14.296  1.00  0.00     0.183 HD
ENDBRANCH   3  15
TORSDOF 5
ENDMDL
