MODEL 1
REMARK VINA RESULT: -5.096411572      0.000      0.000
REMARK  3 active torsions:
REMARK  status: ('A' for Active; 'I' for Inactive)
REMARK    1  A    between atoms: C2_4  and  C3_5 
REMARK    2  A    between atoms: C2_4  and  N3_10 
REMARK    3  A    between atoms: C3_5  and  N2_6 
REMARK       I    between atoms: C7_12  and  N5_14 
ROOT
HETATM    1  C1  UNL     1     -25.959   3.049  12.587  1.00  0.00     0.147 C 
HETATM    2  N1  UNL     1     -25.048   2.476  13.497  1.00  0.00    -0.383 N 
ATOM      3  H1  UNL     1     -24.984   1.458  13.473  1.00  0.00     0.160 HD
HETATM    4  C2  UNL     1     -24.297   3.051  14.343  1.00  0.00     0.105 C 
ENDROOT
BRANCH   4   5
HETATM    5  C3  UNL     1     -24.279   4.500  14.494  1.00  0.00     0.311 C 
BRANCH   5   6
HETATM    6  N2  UNL     1     -24.834   4.979  15.739  1.00  0.00    -0.072 N 
HETATM    7  C4  UNL     1     -23.891   4.999  16.815  1.00  0.00     0.272 C 
HETATM    8  C5  UNL     1     -25.214   6.381  15.486  1.00  0.00     0.272 C 
HETATM    9  C6  UNL     1     -26.017   4.296  16.151  1.00  0.00     0.272 C 
ENDBRANCH   5   6
ENDBRANCH   4   5
BRANCH   4  10
HETATM   10  N3  UNL     1     -23.468   2.249  15.145  1.00  0.00    -0.319 N 
HETATM   11  C7  UNL     1     -22.351   1.806  14.625  1.00  0.00     0.195 C 
HETATM   12  N4  UNL     1     -21.980   2.127  13.278  1.00  0.00    -0.063 NA
HETATM   13  N5  UNL     1     -21.463   0.994  15.359  1.00  0.00    -0.307 N 
HETATM   14  C8  UNL     1     -20.650   1.452  16.250  1.00  0.00     0.203 C 
ATOM     15  H5  UNL     1     -21.463  -0.009  15.176  1.00  0.00     0.170 HD
HETATM   16  N6  UNL     1     -20.656   2.837  16.496  1.00  0.00    -0.066 NA
HETATM   17  N7  UNL     1     -19.768   0.609  16.972  1.00  0.00    -0.066 NA
ATOM     18  H3  UNL     1     -23.729   2.018  16.104  1.00  0.00     0.169 HD
ENDBRANCH   4  10
TORSDOF 3
ENDMDL
MODEL 2
REMARK VINA RESULT: -5.063655221      1.586      2.013
REMARK  3 active torsions:
REMARK  status: ('A' for Active; 'I' for Inactive)
REMARK    1  A    between atoms: C2_4  and  C3_5 
REMARK    2  A    between atoms: C2_4  and  N3_10 
REMARK    3  A    between atoms: C3_5  and  N2_6 
REMARK       I    between atoms: C7_12  and  N5_14 
ROOT
HETATM    1  C1  UNL     1     -25.148   4.407  13.423  1.00  0.00     0.147 C 
HETATM    2  N1  UNL     1     -24.049   4.108  14.254  1.00  0.00    -0.383 N 
ATOM      3  H1  UNL     1     -23.628   3.190  14.113  1.00  0.00     0.160 HD
HETATM    4  C2  UNL     1     -23.511   4.825  15.152  1.00  0.00     0.105 C 
ENDROOT
BRANCH   4   5
HETATM    5  C3  UNL     1     -24.001   6.161  15.466  1.00  0.00     0.311 C 
BRANCH   5   6
HETATM    6  N2  UNL     1     -24.799   6.237  16.667  1.00  0.00    -0.072 N 
HETATM    7  C4  UNL     1     -24.024   6.224  17.871  1.00  0.00     0.272 C 
HETATM    8  C5  UNL     1     -25.468   7.550  16.612  1.00  0.00     0.272 C 
HETATM    9  C6  UNL     1     -25.828   5.251  16.748  1.00  0.00     0.272 C 
ENDBRANCH   5   6
ENDBRANCH   4   5
BRANCH   4  10
HETATM   10  N3  UNL     1     -22.412   4.296  15.850  1.00  0.00    -0.319 N 
HETATM   11  C7  UNL     1     -22.591   3.194  16.535  1.00  0.00     0.195 C 
HETATM   12  N4  UNL     1     -23.868   2.543  16.573  1.00  0.00    -0.063 NA
HETATM   13  N5  UNL     1     -21.544   2.596  17.264  1.00  0.00    -0.307 N 
HETATM   14  C8  UNL     1     -20.611   1.889  16.722  1.00  0.00     0.203 C 
ATOM     15  H5  UNL     1     -21.522   2.730  18.274  1.00  0.00     0.170 HD
HETATM   16  N6  UNL     1     -20.649   1.708  15.327  1.00  0.00    -0.066 NA
HETATM   17  N7  UNL     1     -19.570   1.300  17.483  1.00  0.00    -0.066 NA
ATOM     18  H3  UNL     1     -21.502   4.756  15.825  1.00  0.00     0.169 HD
ENDBRANCH   4  10
TORSDOF 3
ENDMDL
MODEL 3
REMARK VINA RESULT: -4.974762890      1.626      2.332
REMARK  3 active torsions:
REMARK  status: ('A' for Active; 'I' for Inactive)
REMARK    1  A    between atoms: C2_4  and  C3_5 
REMARK    2  A    between atoms: C2_4  and  N3_10 
REMARK    3  A    between atoms: C3_5  and  N2_6 
REMARK       I    between atoms: C7_12  and  N5_14 
ROOT
HETATM    1  C1  UNL     1     -23.345   6.300  15.688  1.00  0.00     0.147 C 
HETATM    2  N1  UNL     1     -23.084   4.915  15.734  1.00  0.00    -0.383 N 
ATOM      3  H1  UNL     1     -22.115   4.656  15.917  1.00  0.00     0.160 HD
HETATM    4  C2  UNL     1     -23.889   3.947  15.579  1.00  0.00     0.105 C 
ENDROOT
BRANCH   4   5
HETATM    5  C3  UNL     1     -25.305   4.159  15.311  1.00  0.00     0.311 C 
BRANCH   5   6
HETATM    6  N2  UNL     1     -26.180   3.812  16.408  1.00  0.00    -0.072 N 
HETATM    7  C4  UNL     1     -25.824   4.439  17.644  1.00  0.00     0.272 C 
HETATM    8  C5  UNL     1     -27.506   4.338  16.035  1.00  0.00     0.272 C 
HETATM    9  C6  UNL     1     -26.332   2.407  16.609  1.00  0.00     0.272 C 
ENDBRANCH   5   6
ENDBRANCH   4   5
BRANCH   4  10
HETATM   10  N3  UNL     1     -23.378   2.641  15.673  1.00  0.00    -0.319 N 
HETATM   11  C7  UNL     1     -22.794   2.131  14.617  1.00  0.00     0.195 C 
HETATM   12  N4  UNL     1     -22.676   2.880  13.400  1.00  0.00    -0.063 NA
HETATM   13  N5  UNL     1     -22.256   0.829  14.624  1.00  0.00    -0.307 N 
HETATM   14  C8  UNL     1     -21.125   0.529  15.167  1.00  0.00     0.203 C 
ATOM     15  H5  UNL     1     -22.790   0.084  14.177  1.00  0.00     0.170 HD
HETATM   16  N6  UNL     1     -20.395   1.562  15.781  1.00  0.00    -0.066 NA
HETATM   17  N7  UNL     1     -20.610  -0.792  15.157  1.00  0.00    -0.066 NA
ATOM     18  H3  UNL     1     -23.460   2.105  16.537  1.00  0.00     0.169 HD
ENDBRANCH   4  10
TORSDOF 3
ENDMDL
MODEL 4
REMARK VINA RESULT: -4.942411226      2.090      3.336
REMARK  3 active torsions:
REMARK  status: ('A' for Active; 'I' for Inactive)
REMARK    1  A    between atoms: C2_4  and  C3_5 
REMARK    2  A    between atoms: C2_4  and  N3_10 
REMARK    3  A    between atoms: C3_5  and  N2_6 
REMARK       I    between atoms: C7_12  and  N5_14 
ROOT
HETATM    1  C1  UNL     1     -27.653   1.161  14.207  1.00  0.00     0.147 C 
HETATM    2  N1  UNL     1     -26.283   1.481  14.119  1.00  0.00    -0.383 N 
ATOM      3  H1  UNL     1     -25.639   0.710  14.296  1.00  0.00     0.160 HD
HETATM    4  C2  UNL     1     -25.740   2.596  13.849  1.00  0.00     0.105 C 
ENDROOT
BRANCH   4   5
HETATM    5  C3  UNL     1     -26.529   3.788  13.573  1.00  0.00     0.311 C 
BRANCH   5   6
HETATM    6  N2  UNL     1     -26.703   4.078  12.168  1.00  0.00    -0.072 N 
HETATM    7  C4  UNL     1     -27.898   3.521  11.612  1.00  0.00     0.272 C 
HETATM    8  C5  UNL     1     -26.841   5.543  12.083  1.00  0.00     0.272 C 
HETATM    9  C6  UNL     1     -25.584   3.720  11.356  1.00  0.00     0.272 C 
ENDBRANCH   5   6
ENDBRANCH   4   5
BRANCH   4  10
HETATM   10  N3  UNL     1     -24.336   2.658  13.821  1.00  0.00    -0.319 N 
HETATM   11  C7  UNL     1     -23.693   2.541  14.956  1.00  0.00     0.195 C 
HETATM   12  N4  UNL     1     -24.394   2.354  16.192  1.00  0.00    -0.063 NA
HETATM   13  N5  UNL     1     -22.286   2.593  15.017  1.00  0.00    -0.307 N 
HETATM   14  C8  UNL     1     -21.521   1.605  14.694  1.00  0.00     0.203 C 
ATOM     15  H5  UNL     1     -21.849   3.457  15.335  1.00  0.00     0.170 HD
HETATM   16  N6  UNL     1     -22.132   0.415  14.258  1.00  0.00    -0.066 NA
HETATM   17  N7  UNL     1     -20.108   1.689  14.768  1.00  0.00    -0.066 NA
ATOM     18  H3  UNL     1     -23.834   2.790  12.944  1.00  0.00     0.169 HD
ENDBRANCH   4  10
TORSDOF 3
ENDMDL
MODEL 5
REMARK VINA RESULT: -4.916225164      1.579      2.661
REMARK  3 active torsions:
REMARK  status: ('A' for Active; 'I' for Inactive)
REMARK    1  A    between atoms: C2_4  and  C3_5 
REMARK    2  A    between atoms: C2_4  and  N3_10 
REMARK    3  A    between atoms: C3_5  and  N2_6 
REMARK       I    between atoms: C7_12  and  N5_14 
ROOT
HETATM    1  C1  UNL     1     -25.448   5.353  14.094  1.00  0.00     0.147 C 
HETATM    2  N1  UNL     1     -24.653   4.326  14.643  1.00  0.00    -0.383 N 
ATOM      3  H1  UNL     1     -23.829   4.636  15.157  1.00  0.00     0.160 HD
HETATM    4  C2  UNL     1     -24.821   3.070  14.585  1.00  0.00     0.105 C 
ENDROOT
BRANCH   4   5
HETATM    5  C3  UNL     1     -25.953   2.477  13.885  1.00  0.00     0.311 C 
BRANCH   5   6
HETATM    6  N2  UNL     1     -27.101   2.213  14.722  1.00  0.00    -0.072 N 
HETATM    7  C4  UNL     1     -28.243   3.011  14.395  1.00  0.00     0.272 C 
HETATM    8  C5  UNL     1     -27.473   0.813  14.447  1.00  0.00     0.272 C 
HETATM    9  C6  UNL     1     -26.836   2.305  16.121  1.00  0.00     0.272 C 
ENDBRANCH   5   6
ENDBRANCH   4   5
BRANCH   4  10
HETATM   10  N3  UNL     1     -23.876   2.246  15.222  1.00  0.00    -0.319 N 
HETATM   11  C7  UNL     1     -22.746   2.013  14.602  1.00  0.00     0.195 C 
HETATM   12  N4  UNL     1     -22.476   2.579  13.313  1.00  0.00    -0.063 NA
HETATM   13  N5  UNL     1     -21.746   1.199  15.168  1.00  0.00    -0.307 N 
HETATM   14  C8  UNL     1     -20.942   1.597  16.095  1.00  0.00     0.203 C 
ATOM     15  H5  UNL     1     -21.652   0.242  14.827  1.00  0.00     0.170 HD
HETATM   16  N6  UNL     1     -21.077   2.918  16.560  1.00  0.00    -0.066 NA
HETATM   17  N7  UNL     1     -19.945   0.753  16.645  1.00  0.00    -0.066 NA
ATOM     18  H3  UNL     1     -24.065   1.842  16.139  1.00  0.00     0.169 HD
ENDBRANCH   4  10
TORSDOF 3
ENDMDL
