MODEL 1
REMARK VINA RESULT: -5.874371963      0.000      0.000
REMARK  6 active torsions:
REMARK  status: ('A' for Active; 'I' for Inactive)
REMARK       I    between atoms: N1_2  and  C3_4 
REMARK    1  A    between atoms: C3_4  and  C4_6 
REMARK    2  A    between atoms: C5_7  and  C6_8 
REMARK    3  A    between atoms: C6_8  and  C7_9 
REMARK    4  A    between atoms: C6_8  and  N4_15 
REMARK    5  A    between atoms: C7_9  and  N2_10 
REMARK       I    between atoms: N2_10  and  C8_12 
REMARK    6  A    between atoms: N4_15  and  N5_16 
ROOT
HETATM    1  C6  UNL     1     -23.610   3.378  15.398  1.00  0.00     0.179 C 
ENDROOT
BRANCH   1   2
HETATM    2  C5  UNL     1     -24.100   3.534  14.058  1.00  0.00    -0.025 C 
HETATM    3  C4  UNL     1     -24.503   3.655  12.918  1.00  0.00     0.002 C 
BRANCH   3   4
HETATM    4  C3  UNL     1     -24.965   3.784  11.561  1.00  0.00     0.298 C 
HETATM    5  N1  UNL     1     -26.363   3.765  11.315  1.00  0.00    -0.350 N 
HETATM    6  C1  UNL     1     -27.304   3.620  12.407  1.00  0.00     0.153 C 
HETATM    7  C2  UNL     1     -26.835   3.894   9.964  1.00  0.00     0.153 C 
HETATM    8  O1  UNL     1     -24.142   3.911  10.608  1.00  0.00    -0.258 OA
ENDBRANCH   3   4
ENDBRANCH   1   2
BRANCH   1   9
HETATM    9  C7  UNL     1     -22.193   3.651  15.655  1.00  0.00     0.208 C 
BRANCH   9  10
HETATM   10  N2  UNL     1     -21.589   2.765  16.598  1.00  0.00    -0.338 N 
HETATM   11  C8  UNL     1     -20.629   1.827  16.135  1.00  0.00     0.329 C 
HETATM   12  N3  UNL     1     -19.983   0.904  17.031  1.00  0.00    -0.040 NA
HETATM   13  O2  UNL     1     -20.287   1.745  14.926  1.00  0.00    -0.251 OA
ATOM     14  H2  UNL     1     -21.844   2.805  17.585  1.00  0.00     0.164 HD
ENDBRANCH   9  10
ENDBRANCH   1   9
BRANCH   1  15
HETATM   15  N4  UNL     1     -24.432   3.017  16.276  1.00  0.00    -0.327 NA
BRANCH  15  16
HETATM   16  N5  UNL     1     -25.258   2.692  17.136  1.00  0.00    -0.279 N 
ATOM     17  H52 UNL     1     -25.331   3.545  16.580  1.00  0.00     0.191 HD
ATOM     18  H51 UNL     1     -25.923   2.400  17.851  1.00  0.00     0.191 HD
ENDBRANCH  15  16
ENDBRANCH   1  15
TORSDOF 6
ENDMDL
MODEL 2
REMARK VINA RESULT: -5.662415725      3.051      3.786
REMARK  6 active torsions:
REMARK  status: ('A' for Active; 'I' for Inactive)
REMARK       I    between atoms: N1_2  and  C3_4 
REMARK    1  A    between atoms: C3_4  and  C4_6 
REMARK    2  A    between atoms: C5_7  and  C6_8 
REMARK    3  A    between atoms: C6_8  and  C7_9 
REMARK    4  A    between atoms: C6_8  and  N4_15 
REMARK    5  A    between atoms: C7_9  and  N2_10 
REMARK       I    between atoms: N2_10  and  C8_12 
REMARK    6  A    between atoms: N4_15  and  N5_16 
ROOT
HETATM    1  C6  UNL     1     -22.822   2.733  14.839  1.00  0.00     0.179 C 
ENDROOT
BRANCH   1   2
HETATM    2  C5  UNL     1     -24.197   2.333  14.932  1.00  0.00    -0.025 C 
HETATM    3  C4  UNL     1     -25.360   1.985  14.998  1.00  0.00     0.002 C 
BRANCH   3   4
HETATM    4  C3  UNL     1     -26.734   1.560  15.058  1.00  0.00     0.298 C 
HETATM    5  N1  UNL     1     -27.470   1.810  16.245  1.00  0.00    -0.350 N 
HETATM    6  C1  UNL     1     -26.852   2.478  17.372  1.00  0.00     0.153 C 
HETATM    7  C2  UNL     1     -28.843   1.390  16.316  1.00  0.00     0.153 C 
HETATM    8  O1  UNL     1     -27.272   0.975  14.073  1.00  0.00    -0.258 OA
ENDBRANCH   3   4
ENDBRANCH   1   2
BRANCH   1   9
HETATM    9  C7  UNL     1     -22.280   3.604  15.886  1.00  0.00     0.208 C 
BRANCH   9  10
HETATM   10  N2  UNL     1     -21.766   2.903  17.019  1.00  0.00    -0.338 N 
HETATM   11  C8  UNL     1     -20.645   2.048  16.842  1.00  0.00     0.329 C 
HETATM   12  N3  UNL     1     -20.077   1.312  17.940  1.00  0.00    -0.040 NA
HETATM   13  O2  UNL     1     -20.087   1.884  15.726  1.00  0.00    -0.251 OA
ATOM     14  H2  UNL     1     -22.195   3.014  17.938  1.00  0.00     0.164 HD
ENDBRANCH   9  10
ENDBRANCH   1   9
BRANCH   1  15
HETATM   15  N4  UNL     1     -22.162   2.308  13.859  1.00  0.00    -0.327 NA
BRANCH  15  16
HETATM   16  N5  UNL     1     -21.481   1.897  12.913  1.00  0.00    -0.279 N 
ATOM     17  H52 UNL     1     -21.564   1.402  13.802  1.00  0.00     0.191 HD
ATOM     18  H51 UNL     1     -20.928   1.582  12.117  1.00  0.00     0.191 HD
ENDBRANCH  15  16
ENDBRANCH   1  15
TORSDOF 6
ENDMDL
MODEL 3
REMARK VINA RESULT: -5.654785025      2.449      3.317
REMARK  6 active torsions:
REMARK  status: ('A' for Active; 'I' for Inactive)
REMARK       I    between atoms: N1_2  and  C3_4 
REMARK    1  A    between atoms: C3_4  and  C4_6 
REMARK    2  A    between atoms: C5_7  and  C6_8 
REMARK    3  A    between atoms: C6_8  and  C7_9 
REMARK    4  A    between atoms: C6_8  and  N4_15 
REMARK    5  A    between atoms: C7_9  and  N2_10 
REMARK       I    between atoms: N2_10  and  C8_12 
REMARK    6  A    between atoms: N4_15  and  N5_16 
ROOT
HETATM    1  C6  UNL     1     -21.507   1.555  15.547  1.00  0.00     0.179 C 
ENDROOT
BRANCH   1   2
HETATM    2  C5  UNL     1     -22.780   1.844  14.950  1.00  0.00    -0.025 C 
HETATM    3  C4  UNL     1     -23.860   2.103  14.454  1.00  0.00     0.002 C 
BRANCH   3   4
HETATM    4  C3  UNL     1     -25.140   2.425  13.882  1.00  0.00     0.298 C 
HETATM    5  N1  UNL     1     -26.275   2.461  14.733  1.00  0.00    -0.350 N 
HETATM    6  C1  UNL     1     -26.147   2.179  16.148  1.00  0.00     0.153 C 
HETATM    7  C2  UNL     1     -27.559   2.782  14.171  1.00  0.00     0.153 C 
HETATM    8  O1  UNL     1     -25.251   2.671  12.645  1.00  0.00    -0.258 OA
ENDBRANCH   3   4
ENDBRANCH   1   2
BRANCH   1   9
HETATM    9  C7  UNL     1     -20.820   2.628  16.271  1.00  0.00     0.208 C 
BRANCH   9  10
HETATM   10  N2  UNL     1     -20.789   2.449  17.688  1.00  0.00    -0.338 N 
HETATM   11  C8  UNL     1     -19.884   1.502  18.236  1.00  0.00     0.329 C 
HETATM   12  N3  UNL     1     -19.801   1.270  19.653  1.00  0.00    -0.040 NA
HETATM   13  O2  UNL     1     -19.107   0.813  17.523  1.00  0.00    -0.251 OA
ATOM     14  H2  UNL     1     -21.405   2.991  18.293  1.00  0.00     0.164 HD
ENDBRANCH   9  10
ENDBRANCH   1   9
BRANCH   1  15
HETATM   15  N4  UNL     1     -21.058   0.391  15.412  1.00  0.00    -0.327 NA
BRANCH  15  16
HETATM   16  N5  UNL     1     -20.607  -0.756  15.314  1.00  0.00    -0.279 N 
ATOM     17  H52 UNL     1     -20.080   0.023  15.711  1.00  0.00     0.191 HD
ATOM     18  H51 UNL     1     -20.260  -1.710  15.221  1.00  0.00     0.191 HD
ENDBRANCH  15  16
ENDBRANCH   1  15
TORSDOF 6
ENDMDL
MODEL 4
REMARK VINA RESULT: -5.603570751      1.766      6.294
REMARK  6 active torsions:
REMARK  status: ('A' for Active; 'I' for Inactive)
REMARK       I    between atoms: N1_2  and  C3_4 
REMARK    1  A    between atoms: C3_4  and  C4_6 
REMARK    2  A    between atoms: C5_7  and  C6_8 
REMARK    3  A    between atoms: C6_8  and  C7_9 
REMARK    4  A    between atoms: C6_8  and  N4_15 
REMARK    5  A    between atoms: C7_9  and  N2_10 
REMARK       I    between atoms: N2_10  and  C8_12 
REMARK    6  A    between atoms: N4_15  and  N5_16 
ROOT
HETATM    1  C6  UNL     1     -24.977   2.397  13.958  1.00  0.00     0.179 C 
ENDROOT
BRANCH   1   2
HETATM    2  C5  UNL     1     -23.713   2.052  14.544  1.00  0.00    -0.025 C 
HETATM    3  C4  UNL     1     -22.650   1.759  15.056  1.00  0.00     0.002 C 
BRANCH   3   4
HETATM    4  C3  UNL     1     -21.402   1.409  15.681  1.00  0.00     0.298 C 
HETATM    5  N1  UNL     1     -21.035   2.072  16.881  1.00  0.00    -0.350 N 
HETATM    6  C1  UNL     1     -21.900   3.078  17.465  1.00  0.00     0.153 C 
HETATM    7  C2  UNL     1     -19.790   1.731  17.515  1.00  0.00     0.153 C 
HETATM    8  O1  UNL     1     -20.647   0.531  15.171  1.00  0.00    -0.258 OA
ENDBRANCH   3   4
ENDBRANCH   1   2
BRANCH   1   9
HETATM    9  C7  UNL     1     -25.085   3.674  13.245  1.00  0.00     0.208 C 
BRANCH   9  10
HETATM   10  N2  UNL     1     -25.891   3.618  12.067  1.00  0.00    -0.338 N 
HETATM   11  C8  UNL     1     -25.256   3.711  10.801  1.00  0.00     0.329 C 
HETATM   12  N3  UNL     1     -26.007   3.662   9.575  1.00  0.00    -0.040 NA
HETATM   13  O2  UNL     1     -24.010   3.840  10.674  1.00  0.00    -0.251 OA
ATOM     14  H2  UNL     1     -26.903   3.514  12.135  1.00  0.00     0.164 HD
ENDBRANCH   9  10
ENDBRANCH   1   9
BRANCH   1  15
HETATM   15  N4  UNL     1     -25.919   1.578  14.090  1.00  0.00    -0.327 NA
BRANCH  15  16
HETATM   16  N5  UNL     1     -26.864   0.797  14.238  1.00  0.00    -0.279 N 
ATOM     17  H52 UNL     1     -26.933   1.669  13.713  1.00  0.00     0.191 HD
ATOM     18  H51 UNL     1     -27.628   0.134  14.376  1.00  0.00     0.191 HD
ENDBRANCH  15  16
ENDBRANCH   1  15
TORSDOF 6
ENDMDL
MODEL 5
REMARK VINA RESULT: -5.594431569      3.285      3.826
REMARK  6 active torsions:
REMARK  status: ('A' for Active; 'I' for Inactive)
REMARK       I    between atoms: N1_2  and  C3_4 
REMARK    1  A    between atoms: C3_4  and  C4_6 
REMARK    2  A    between atoms: C5_7  and  C6_8 
REMARK    3  A    between atoms: C6_8  and  C7_9 
REMARK    4  A    between atoms: C6_8  and  N4_15 
REMARK    5  A    between atoms: C7_9  and  N2_10 
REMARK       I    between atoms: N2_10  and  C8_12 
REMARK    6  A    between atoms: N4_15  and  N5_16 
ROOT
HETATM    1  C6  UNL     1     -23.506   2.593  15.605  1.00  0.00     0.179 C 
ENDROOT
BRANCH   1   2
HETATM    2  C5  UNL     1     -24.873   2.195  15.420  1.00  0.00    -0.025 C 
HETATM    3  C4  UNL     1     -26.026   1.844  15.259  1.00  0.00     0.002 C 
BRANCH   3   4
HETATM    4  C3  UNL     1     -27.383   1.408  15.061  1.00  0.00     0.298 C 
HETATM    5  N1  UNL     1     -28.244   1.339  16.187  1.00  0.00    -0.350 N 
HETATM    6  C1  UNL     1     -27.768   1.702  17.506  1.00  0.00     0.153 C 
HETATM    7  C2  UNL     1     -29.602   0.905  16.001  1.00  0.00     0.153 C 
HETATM    8  O1  UNL     1     -27.798   1.091  13.908  1.00  0.00    -0.258 OA
ENDBRANCH   3   4
ENDBRANCH   1   2
BRANCH   1   9
HETATM    9  C7  UNL     1     -22.561   2.355  14.510  1.00  0.00     0.208 C 
BRANCH   9  10
HETATM   10  N2  UNL     1     -22.144   0.995  14.384  1.00  0.00    -0.338 N 
HETATM   11  C8  UNL     1     -21.096   0.523  15.218  1.00  0.00     0.329 C 
HETATM   12  N3  UNL     1     -20.626  -0.835  15.143  1.00  0.00    -0.040 NA
HETATM   13  O2  UNL     1     -20.518   1.255  16.064  1.00  0.00    -0.251 OA
ATOM     14  H2  UNL     1     -22.590   0.375  13.709  1.00  0.00     0.164 HD
ENDBRANCH   9  10
ENDBRANCH   1   9
BRANCH   1  15
HETATM   15  N4  UNL     1     -23.202   3.124  16.700  1.00  0.00    -0.327 NA
BRANCH  15  16
HETATM   16  N5  UNL     1     -22.887   3.674  17.761  1.00  0.00    -0.279 N 
ATOM     17  H52 UNL     1     -23.080   4.185  16.899  1.00  0.00     0.191 HD
ATOM     18  H51 UNL     1     -22.624   4.101  18.649  1.00  0.00     0.191 HD
ENDBRANCH  15  16
ENDBRANCH   1  15
TORSDOF 6
ENDMDL
