MODEL 1
REMARK VINA RESULT: -4.526484379      0.000      0.000
REMARK  4 active torsions:
REMARK  status: ('A' for Active; 'I' for Inactive)
REMARK    1  A    between atoms: C2_2  and  C3_3 
REMARK    2  A    between atoms: C3_3  and  C4_4 
REMARK    3  A    between atoms: C6_6  and  N1_7 
REMARK    4  A    between atoms: C10_11  and  N2_12 
ROOT
HETATM    1  C4  UNL     1       2.076 -13.738  15.909  1.00  0.00     0.086 C 
HETATM    2  C5  UNL     1       1.550 -12.342  16.136  1.00  0.00     0.054 C 
HETATM    3  C6  UNL     1       1.662 -12.216  14.630  1.00  0.00     0.222 C 
HETATM    4  C10 UNL     1       1.464 -13.650  14.541  1.00  0.00     0.229 C 
ENDROOT
BRANCH   3   5
HETATM    5  N1  UNL     1       0.829 -11.195  14.161  1.00  0.00    -0.072 N 
HETATM    6  C7  UNL     1       1.647  -9.962  14.300  1.00  0.00     0.272 C 
HETATM    7  C8  UNL     1      -0.399 -10.915  14.792  1.00  0.00     0.272 C 
HETATM    8  C9  UNL     1       0.625 -11.291  12.709  1.00  0.00     0.272 C 
ENDBRANCH   3   5
BRANCH   4   9
HETATM    9  N2  UNL     1       0.147 -14.174  14.354  1.00  0.00    -0.072 N 
ATOM     10  H23 UNL     1      -0.234 -14.450  15.259  1.00  0.00     0.274 HD
ATOM     11  H22 UNL     1      -0.482 -13.412  14.103  1.00  0.00     0.274 HD
ATOM     12  H21 UNL     1       0.022 -14.941  13.694  1.00  0.00     0.274 HD
ENDBRANCH   4   9
BRANCH   1  13
HETATM   13  C3  UNL     1       1.832 -14.811  16.779  1.00  0.00    -0.176 C 
BRANCH  13  14
HETATM   14  C2  UNL     1       1.612 -15.775  17.559  1.00  0.00     0.076 C 
HETATM   15  C1  UNL     1       2.007 -15.594  19.030  1.00  0.00     0.017 C 
ENDBRANCH  13  14
ENDBRANCH   1  13
TORSDOF 4
ENDMDL
MODEL 2
REMARK VINA RESULT: -4.129675421      1.846      2.528
REMARK  4 active torsions:
REMARK  status: ('A' for Active; 'I' for Inactive)
REMARK    1  A    between atoms: C2_2  and  C3_3 
REMARK    2  A    between atoms: C3_3  and  C4_4 
REMARK    3  A    between atoms: C6_6  and  N1_7 
REMARK    4  A    between atoms: C10_11  and  N2_12 
ROOT
HETATM    1  C4  UNL     1       1.261 -13.088  15.594  1.00  0.00     0.086 C 
HETATM    2  C5  UNL     1       2.166 -12.462  14.562  1.00  0.00     0.054 C 
HETATM    3  C6  UNL     1       1.670 -11.152  15.140  1.00  0.00     0.222 C 
HETATM    4  C10 UNL     1       1.464 -11.838  16.400  1.00  0.00     0.229 C 
ENDROOT
BRANCH   3   5
HETATM    5  N1  UNL     1       2.568 -10.119  14.852  1.00  0.00    -0.072 N 
HETATM    6  C7  UNL     1       2.299  -9.785  13.429  1.00  0.00     0.272 C 
HETATM    7  C8  UNL     1       3.960 -10.323  14.942  1.00  0.00     0.272 C 
HETATM    8  C9  UNL     1       2.207  -8.879  15.554  1.00  0.00     0.272 C 
ENDBRANCH   3   5
BRANCH   4   9
HETATM    9  N2  UNL     1       2.497 -11.832  17.390  1.00  0.00    -0.072 N 
ATOM     10  H23 UNL     1       2.176 -11.308  18.204  1.00  0.00     0.274 HD
ATOM     11  H22 UNL     1       2.587 -12.768  17.783  1.00  0.00     0.274 HD
ATOM     12  H21 UNL     1       3.421 -11.493  17.121  1.00  0.00     0.274 HD
ENDBRANCH   4   9
BRANCH   1  13
HETATM   13  C3  UNL     1       1.459 -14.372  16.125  1.00  0.00    -0.176 C 
BRANCH  13  14
HETATM   14  C2  UNL     1       1.638 -15.523  16.603  1.00  0.00     0.076 C 
HETATM   15  C1  UNL     1       1.756 -15.642  18.127  1.00  0.00     0.017 C 
ENDBRANCH  13  14
ENDBRANCH   1  13
TORSDOF 4
ENDMDL
MODEL 3
REMARK VINA RESULT: -4.123502345      1.508      2.174
REMARK  4 active torsions:
REMARK  status: ('A' for Active; 'I' for Inactive)
REMARK    1  A    between atoms: C2_2  and  C3_3 
REMARK    2  A    between atoms: C3_3  and  C4_4 
REMARK    3  A    between atoms: C6_6  and  N1_7 
REMARK    4  A    between atoms: C10_11  and  N2_12 
ROOT
HETATM    1  C4  UNL     1       0.820 -13.381  14.877  1.00  0.00     0.086 C 
HETATM    2  C5  UNL     1       1.755 -12.694  13.912  1.00  0.00     0.054 C 
HETATM    3  C6  UNL     1       0.897 -11.474  14.182  1.00  0.00     0.222 C 
HETATM    4  C10 UNL     1       0.603 -12.028  15.490  1.00  0.00     0.229 C 
ENDROOT
BRANCH   3   5
HETATM    5  N1  UNL     1       1.600 -10.305  13.874  1.00  0.00    -0.072 N 
HETATM    6  C7  UNL     1       1.474 -10.180  12.398  1.00  0.00     0.272 C 
HETATM    7  C8  UNL     1       2.977 -10.192  14.153  1.00  0.00     0.272 C 
HETATM    8  C9  UNL     1       0.899  -9.110  14.365  1.00  0.00     0.272 C 
ENDBRANCH   3   5
BRANCH   4   9
HETATM    9  N2  UNL     1       1.406 -11.658  16.614  1.00  0.00    -0.072 N 
ATOM     10  H23 UNL     1       1.381 -12.409  17.304  1.00  0.00     0.274 HD
ATOM     11  H22 UNL     1       2.388 -11.676  16.343  1.00  0.00     0.274 HD
ATOM     12  H21 UNL     1       1.205 -10.773  17.080  1.00  0.00     0.274 HD
ENDBRANCH   4   9
BRANCH   1  13
HETATM   13  C3  UNL     1       1.175 -14.507  15.636  1.00  0.00    -0.176 C 
BRANCH  13  14
HETATM   14  C2  UNL     1       1.494 -15.516  16.317  1.00  0.00     0.076 C 
HETATM   15  C1  UNL     1       1.879 -15.282  17.783  1.00  0.00     0.017 C 
ENDBRANCH  13  14
ENDBRANCH   1  13
TORSDOF 4
ENDMDL
MODEL 4
REMARK VINA RESULT: -4.029148292      1.208      1.350
REMARK  4 active torsions:
REMARK  status: ('A' for Active; 'I' for Inactive)
REMARK    1  A    between atoms: C2_2  and  C3_3 
REMARK    2  A    between atoms: C3_3  and  C4_4 
REMARK    3  A    between atoms: C6_6  and  N1_7 
REMARK    4  A    between atoms: C10_11  and  N2_12 
ROOT
HETATM    1  C4  UNL     1       2.075 -13.386  14.860  1.00  0.00     0.086 C 
HETATM    2  C5  UNL     1       2.319 -12.005  15.416  1.00  0.00     0.054 C 
HETATM    3  C6  UNL     1       2.044 -11.548  13.997  1.00  0.00     0.222 C 
HETATM    4  C10 UNL     1       1.208 -12.721  13.830  1.00  0.00     0.229 C 
ENDROOT
BRANCH   3   5
HETATM    5  N1  UNL     1       1.664 -10.203  13.983  1.00  0.00    -0.072 N 
HETATM    6  C7  UNL     1       2.949  -9.458  13.920  1.00  0.00     0.272 C 
HETATM    7  C8  UNL     1       0.945  -9.641  15.057  1.00  0.00     0.272 C 
HETATM    8  C9  UNL     1       1.014  -9.841  12.715  1.00  0.00     0.272 C 
ENDBRANCH   3   5
BRANCH   4   9
HETATM    9  N2  UNL     1      -0.197 -12.633  14.083  1.00  0.00    -0.072 N 
ATOM     10  H23 UNL     1      -0.447 -13.299  14.814  1.00  0.00     0.274 HD
ATOM     11  H22 UNL     1      -0.397 -11.748  14.548  1.00  0.00     0.274 HD
ATOM     12  H21 UNL     1      -0.836 -12.748  13.297  1.00  0.00     0.274 HD
ENDBRANCH   4   9
BRANCH   1  13
HETATM   13  C3  UNL     1       1.632 -14.469  15.635  1.00  0.00    -0.176 C 
BRANCH  13  14
HETATM   14  C2  UNL     1       1.234 -15.440  16.331  1.00  0.00     0.076 C 
HETATM   15  C1  UNL     1       1.744 -15.527  17.774  1.00  0.00     0.017 C 
ENDBRANCH  13  14
ENDBRANCH   1  13
TORSDOF 4
ENDMDL
MODEL 5
REMARK VINA RESULT: -3.996296368      2.278      3.301
REMARK  4 active torsions:
REMARK  status: ('A' for Active; 'I' for Inactive)
REMARK    1  A    between atoms: C2_2  and  C3_3 
REMARK    2  A    between atoms: C3_3  and  C4_4 
REMARK    3  A    between atoms: C6_6  and  N1_7 
REMARK    4  A    between atoms: C10_11  and  N2_12 
ROOT
HETATM    1  C4  UNL     1       1.190 -12.354  15.103  1.00  0.00     0.086 C 
HETATM    2  C5  UNL     1       2.438 -11.761  14.497  1.00  0.00     0.054 C 
HETATM    3  C6  UNL     1       2.258 -10.686  15.550  1.00  0.00     0.222 C 
HETATM    4  C10 UNL     1       1.594 -11.673  16.379  1.00  0.00     0.229 C 
ENDROOT
BRANCH   3   5
HETATM    5  N1  UNL     1       3.469 -10.028  15.787  1.00  0.00    -0.072 N 
HETATM    6  C7  UNL     1       3.498  -8.936  14.779  1.00  0.00     0.272 C 
HETATM    7  C8  UNL     1       4.699 -10.703  15.658  1.00  0.00     0.272 C 
HETATM    8  C9  UNL     1       3.443  -9.296  17.062  1.00  0.00     0.272 C 
ENDBRANCH   3   5
BRANCH   4   9
HETATM    9  N2  UNL     1       2.350 -12.421  17.336  1.00  0.00    -0.072 N 
ATOM     10  H23 UNL     1       1.978 -12.240  18.269  1.00  0.00     0.274 HD
ATOM     11  H22 UNL     1       2.134 -13.411  17.230  1.00  0.00     0.274 HD
ATOM     12  H21 UNL     1       3.362 -12.300  17.353  1.00  0.00     0.274 HD
ENDBRANCH   4   9
BRANCH   1  13
HETATM   13  C3  UNL     1       0.870 -13.719  15.044  1.00  0.00    -0.176 C 
BRANCH  13  14
HETATM   14  C2  UNL     1       0.584 -14.944  14.991  1.00  0.00     0.076 C 
HETATM   15  C1  UNL     1       0.906 -15.796  16.225  1.00  0.00     0.017 C 
ENDBRANCH  13  14
ENDBRANCH   1  13
TORSDOF 4
ENDMDL
