MODEL 1
REMARK VINA RESULT: -5.150286056      0.000      0.000
REMARK  5 active torsions:
REMARK  status: ('A' for Active; 'I' for Inactive)
REMARK    1  A    between atoms: C3_3  and  C4_4 
REMARK    2  A    between atoms: C5_5  and  C6_6 
REMARK       I    between atoms: C6_6  and  N1_8 
REMARK    3  A    between atoms: N1_8  and  C7_10 
REMARK    4  A    between atoms: C7_10  and  C8_11 
REMARK    5  A    between atoms: C8_11  and  C9_12 
ROOT
HETATM    1  C1  UNL     1      -4.497  -7.987  12.495  1.00  0.00     0.113 C 
HETATM    2  C2  UNL     1      -3.462  -8.945  12.918  1.00  0.00    -0.097 C 
HETATM    3  C3  UNL     1      -2.604  -9.726  13.247  1.00  0.00    -0.015 C 
ENDROOT
BRANCH   3   4
HETATM    4  C4  UNL     1      -1.591 -10.639  13.610  1.00  0.00    -0.005 C 
HETATM    5  C5  UNL     1      -0.733 -11.430  13.912  1.00  0.00     0.009 C 
BRANCH   5   6
HETATM    6  C6  UNL     1       0.332 -12.377  14.278  1.00  0.00     0.301 C 
HETATM    7  O1  UNL     1       1.429 -11.843  14.468  1.00  0.00    -0.258 OA
HETATM    8  N1  UNL     1       0.076 -13.731  14.387  1.00  0.00    -0.327 N 
ATOM      9  H1  UNL     1      -0.891 -13.980  14.178  1.00  0.00     0.169 HD
BRANCH   8  10
HETATM   10  C7  UNL     1       0.874 -14.831  14.726  1.00  0.00     0.088 C 
BRANCH  10  11
HETATM   11  C8  UNL     1       0.888 -15.401  16.084  1.00  0.00    -0.006 C 
BRANCH  11  12
HETATM   12  C9  UNL     1       2.022 -15.239  16.998  1.00  0.00     0.001 C 
HETATM   13  C10 UNL     1       2.176 -13.694  17.226  1.00  0.00     0.013 C 
HETATM   14  C11 UNL     1       1.760 -15.823  18.386  1.00  0.00     0.013 C 
ENDBRANCH  11  12
ENDBRANCH  10  11
ENDBRANCH   8  10
ENDBRANCH   5   6
ENDBRANCH   3   4
TORSDOF 5
ENDMDL
MODEL 2
REMARK VINA RESULT: -4.845374078      1.041      1.659
REMARK  5 active torsions:
REMARK  status: ('A' for Active; 'I' for Inactive)
REMARK    1  A    between atoms: C3_3  and  C4_4 
REMARK    2  A    between atoms: C5_5  and  C6_6 
REMARK       I    between atoms: C6_6  and  N1_8 
REMARK    3  A    between atoms: N1_8  and  C7_10 
REMARK    4  A    between atoms: C7_10  and  C8_11 
REMARK    5  A    between atoms: C8_11  and  C9_12 
ROOT
HETATM    1  C1  UNL     1      -4.432  -8.175  12.428  1.00  0.00     0.113 C 
HETATM    2  C2  UNL     1      -3.389  -9.115  12.871  1.00  0.00    -0.097 C 
HETATM    3  C3  UNL     1      -2.536  -9.877  13.251  1.00  0.00    -0.015 C 
ENDROOT
BRANCH   3   4
HETATM    4  C4  UNL     1      -1.536 -10.758  13.717  1.00  0.00    -0.005 C 
HETATM    5  C5  UNL     1      -0.693 -11.519  14.120  1.00  0.00     0.009 C 
BRANCH   5   6
HETATM    6  C6  UNL     1       0.350 -12.444  14.592  1.00  0.00     0.301 C 
HETATM    7  O1  UNL     1       0.336 -13.540  14.023  1.00  0.00    -0.258 OA
HETATM    8  N1  UNL     1       1.240 -12.071  15.581  1.00  0.00    -0.327 N 
ATOM      9  H1  UNL     1       1.082 -11.128  15.936  1.00  0.00     0.169 HD
BRANCH   8  10
HETATM   10  C7  UNL     1       2.316 -12.725  16.196  1.00  0.00     0.088 C 
BRANCH  10  11
HETATM   11  C8  UNL     1       2.135 -13.608  17.360  1.00  0.00    -0.006 C 
BRANCH  11  12
HETATM   12  C9  UNL     1       2.224 -15.068  17.266  1.00  0.00     0.001 C 
HETATM   13  C10 UNL     1       1.893 -15.615  18.699  1.00  0.00     0.013 C 
HETATM   14  C11 UNL     1       1.159 -15.674  16.352  1.00  0.00     0.013 C 
ENDBRANCH  11  12
ENDBRANCH  10  11
ENDBRANCH   8  10
ENDBRANCH   5   6
ENDBRANCH   3   4
TORSDOF 5
ENDMDL
MODEL 3
REMARK VINA RESULT: -4.690549745      1.313      1.649
REMARK  5 active torsions:
REMARK  status: ('A' for Active; 'I' for Inactive)
REMARK    1  A    between atoms: C3_3  and  C4_4 
REMARK    2  A    between atoms: C5_5  and  C6_6 
REMARK       I    between atoms: C6_6  and  N1_8 
REMARK    3  A    between atoms: N1_8  and  C7_10 
REMARK    4  A    between atoms: C7_10  and  C8_11 
REMARK    5  A    between atoms: C8_11  and  C9_12 
ROOT
HETATM    1  C1  UNL     1      -4.873  -6.749  14.122  1.00  0.00     0.113 C 
HETATM    2  C2  UNL     1      -3.908  -7.855  14.010  1.00  0.00    -0.097 C 
HETATM    3  C3  UNL     1      -3.104  -8.747  13.913  1.00  0.00    -0.015 C 
ENDROOT
BRANCH   3   4
HETATM    4  C4  UNL     1      -2.147  -9.779  13.787  1.00  0.00    -0.005 C 
HETATM    5  C5  UNL     1      -1.342 -10.669  13.683  1.00  0.00     0.009 C 
BRANCH   5   6
HETATM    6  C6  UNL     1      -0.348 -11.745  13.536  1.00  0.00     0.301 C 
HETATM    7  O1  UNL     1      -0.010 -11.952  12.367  1.00  0.00    -0.258 OA
HETATM    8  N1  UNL     1       0.131 -12.428  14.638  1.00  0.00    -0.327 N 
ATOM      9  H1  UNL     1      -0.280 -12.120  15.518  1.00  0.00     0.169 HD
BRANCH   8  10
HETATM   10  C7  UNL     1       1.067 -13.459  14.791  1.00  0.00     0.088 C 
BRANCH  10  11
HETATM   11  C8  UNL     1       1.544 -13.897  16.114  1.00  0.00    -0.006 C 
BRANCH  11  12
HETATM   12  C9  UNL     1       1.661 -15.310  16.484  1.00  0.00     0.001 C 
HETATM   13  C10 UNL     1       1.873 -15.333  18.039  1.00  0.00     0.013 C 
HETATM   14  C11 UNL     1       0.375 -16.100  16.245  1.00  0.00     0.013 C 
ENDBRANCH  11  12
ENDBRANCH  10  11
ENDBRANCH   8  10
ENDBRANCH   5   6
ENDBRANCH   3   4
TORSDOF 5
ENDMDL
MODEL 4
REMARK VINA RESULT: -4.596538762      1.418      1.889
REMARK  5 active torsions:
REMARK  status: ('A' for Active; 'I' for Inactive)
REMARK    1  A    between atoms: C3_3  and  C4_4 
REMARK    2  A    between atoms: C5_5  and  C6_6 
REMARK       I    between atoms: C6_6  and  N1_8 
REMARK    3  A    between atoms: N1_8  and  C7_10 
REMARK    4  A    between atoms: C7_10  and  C8_11 
REMARK    5  A    between atoms: C8_11  and  C9_12 
ROOT
HETATM    1  C1  UNL     1      -4.365  -6.890  14.631  1.00  0.00     0.113 C 
HETATM    2  C2  UNL     1      -3.411  -8.011  14.610  1.00  0.00    -0.097 C 
HETATM    3  C3  UNL     1      -2.615  -8.916  14.600  1.00  0.00    -0.015 C 
ENDROOT
BRANCH   3   4
HETATM    4  C4  UNL     1      -1.665  -9.961  14.593  1.00  0.00    -0.005 C 
HETATM    5  C5  UNL     1      -0.849 -10.847  14.600  1.00  0.00     0.009 C 
BRANCH   5   6
HETATM    6  C6  UNL     1       0.131 -11.946  14.601  1.00  0.00     0.301 C 
HETATM    7  O1  UNL     1       0.013 -12.717  13.644  1.00  0.00    -0.258 OA
HETATM    8  N1  UNL     1       1.075 -12.059  15.604  1.00  0.00    -0.327 N 
ATOM      9  H1  UNL     1       1.003 -11.331  16.314  1.00  0.00     0.169 HD
BRANCH   8  10
HETATM   10  C7  UNL     1       2.113 -12.969  15.842  1.00  0.00     0.088 C 
BRANCH  10  11
HETATM   11  C8  UNL     1       2.135 -13.840  17.030  1.00  0.00    -0.006 C 
BRANCH  11  12
HETATM   12  C9  UNL     1       1.993 -15.296  16.946  1.00  0.00     0.001 C 
HETATM   13  C10 UNL     1       1.758 -15.793  18.416  1.00  0.00     0.013 C 
HETATM   14  C11 UNL     1       0.748 -15.731  16.174  1.00  0.00     0.013 C 
ENDBRANCH  11  12
ENDBRANCH  10  11
ENDBRANCH   8  10
ENDBRANCH   5   6
ENDBRANCH   3   4
TORSDOF 5
ENDMDL
MODEL 5
REMARK VINA RESULT: -4.496541507      1.498      1.867
REMARK  5 active torsions:
REMARK  status: ('A' for Active; 'I' for Inactive)
REMARK    1  A    between atoms: C3_3  and  C4_4 
REMARK    2  A    between atoms: C5_5  and  C6_6 
REMARK       I    between atoms: C6_6  and  N1_8 
REMARK    3  A    between atoms: N1_8  and  C7_10 
REMARK    4  A    between atoms: C7_10  and  C8_11 
REMARK    5  A    between atoms: C8_11  and  C9_12 
ROOT
HETATM    1  C1  UNL     1      -4.315  -7.131  14.697  1.00  0.00     0.113 C 
HETATM    2  C2  UNL     1      -3.285  -8.183  14.685  1.00  0.00    -0.097 C 
HETATM    3  C3  UNL     1      -2.456  -9.058  14.679  1.00  0.00    -0.015 C 
ENDROOT
BRANCH   3   4
HETATM    4  C4  UNL     1      -1.500 -10.097  14.682  1.00  0.00    -0.005 C 
HETATM    5  C5  UNL     1      -0.673 -10.974  14.681  1.00  0.00     0.009 C 
BRANCH   5   6
HETATM    6  C6  UNL     1       0.325 -12.055  14.700  1.00  0.00     0.301 C 
HETATM    7  O1  UNL     1       0.040 -13.008  13.969  1.00  0.00    -0.258 OA
HETATM    8  N1  UNL     1       1.462 -11.962  15.481  1.00  0.00    -0.327 N 
ATOM      9  H1  UNL     1       1.512 -11.102  16.026  1.00  0.00     0.169 HD
BRANCH   8  10
HETATM   10  C7  UNL     1       2.560 -12.810  15.677  1.00  0.00     0.088 C 
BRANCH  10  11
HETATM   11  C8  UNL     1       2.596 -13.810  16.757  1.00  0.00    -0.006 C 
BRANCH  11  12
HETATM   12  C9  UNL     1       1.536 -14.805  16.950  1.00  0.00     0.001 C 
HETATM   13  C10 UNL     1       1.586 -15.739  15.690  1.00  0.00     0.013 C 
HETATM   14  C11 UNL     1       1.792 -15.728  18.141  1.00  0.00     0.013 C 
ENDBRANCH  11  12
ENDBRANCH  10  11
ENDBRANCH   8  10
ENDBRANCH   5   6
ENDBRANCH   3   4
TORSDOF 5
ENDMDL
