MODEL 1
REMARK VINA RESULT: -5.390431437      0.000      0.000
REMARK  2 active torsions:
REMARK  status: ('A' for Active; 'I' for Inactive)
REMARK    1  A    between atoms: C4_5  and  N2_6 
REMARK    2  A    between atoms: N2_6  and  C5_8 
REMARK       I    between atoms: N3_10  and  C7_12 
ROOT
HETATM    1  C1  UNL     1       1.883 -15.708  18.783  1.00  0.00     0.221 C 
HETATM    2  N1  UNL     1       1.885 -15.513  17.634  1.00  0.00    -0.464 NA
HETATM    3  C2  UNL     1       1.911 -15.291  16.254  1.00  0.00     0.185 A 
HETATM    4  C3  UNL     1       0.579 -15.356  15.564  1.00  0.00     0.069 A 
HETATM    5  C4  UNL     1       1.221 -14.030  15.711  1.00  0.00     0.121 A 
ENDROOT
BRANCH   5   6
HETATM    6  N2  UNL     1       1.827 -13.360  14.588  1.00  0.00    -0.372 N 
ATOM      7  H2  UNL     1       2.816 -13.536  14.409  1.00  0.00     0.161 HD
BRANCH   6   8
HETATM    8  C5  UNL     1       1.152 -12.484  13.723  1.00  0.00     0.075 C 
HETATM    9  C6  UNL     1      -0.179 -11.895  13.982  1.00  0.00     0.089 C 
HETATM   10  N3  UNL     1       1.719 -12.156  12.617  1.00  0.00    -0.318 N 
HETATM   11  C7  UNL     1       1.115 -11.277  11.682  1.00  0.00     0.218 C 
ATOM     12  H3  UNL     1       2.639 -12.543  12.403  1.00  0.00     0.170 HD
HETATM   13  C8  UNL     1       1.710  -9.968  11.317  1.00  0.00     0.117 C 
HETATM   14  O1  UNL     1       0.032 -11.615  11.137  1.00  0.00    -0.274 OA
ENDBRANCH   6   8
ENDBRANCH   5   6
TORSDOF 2
ENDMDL
MODEL 2
REMARK VINA RESULT: -5.329324217      1.988      2.100
REMARK  2 active torsions:
REMARK  status: ('A' for Active; 'I' for Inactive)
REMARK    1  A    between atoms: C4_5  and  N2_6 
REMARK    2  A    between atoms: N2_6  and  C5_8 
REMARK       I    between atoms: N3_10  and  C7_12 
ROOT
HETATM    1  C1  UNL     1       1.897 -15.478  18.707  1.00  0.00     0.221 C 
HETATM    2  N1  UNL     1       1.964 -15.215  17.573  1.00  0.00    -0.464 NA
HETATM    3  C2  UNL     1       2.066 -14.888  16.218  1.00  0.00     0.185 A 
HETATM    4  C3  UNL     1       1.509 -15.905  15.263  1.00  0.00     0.069 A 
HETATM    5  C4  UNL     1       0.768 -14.636  15.435  1.00  0.00     0.121 A 
ENDROOT
BRANCH   5   6
HETATM    6  N2  UNL     1       0.782 -13.615  14.417  1.00  0.00    -0.372 N 
ATOM      7  H2  UNL     1       1.294 -13.812  13.556  1.00  0.00     0.161 HD
BRANCH   6   8
HETATM    8  C5  UNL     1       0.142 -12.370  14.526  1.00  0.00     0.075 C 
HETATM    9  C6  UNL     1       0.332 -11.414  15.638  1.00  0.00     0.089 C 
HETATM   10  N3  UNL     1      -0.675 -12.017  13.598  1.00  0.00    -0.318 N 
HETATM   11  C7  UNL     1      -1.367 -10.779  13.624  1.00  0.00     0.218 C 
ATOM     12  H3  UNL     1      -0.832 -12.651  12.814  1.00  0.00     0.170 HD
HETATM   13  C8  UNL     1      -1.171  -9.735  12.587  1.00  0.00     0.117 C 
HETATM   14  O1  UNL     1      -2.179 -10.551  14.557  1.00  0.00    -0.274 OA
ENDBRANCH   6   8
ENDBRANCH   5   6
TORSDOF 2
ENDMDL
MODEL 3
REMARK VINA RESULT: -5.062283860      1.084      1.209
REMARK  2 active torsions:
REMARK  status: ('A' for Active; 'I' for Inactive)
REMARK    1  A    between atoms: C4_5  and  N2_6 
REMARK    2  A    between atoms: N2_6  and  C5_8 
REMARK       I    between atoms: N3_10  and  C7_12 
ROOT
HETATM    1  C1  UNL     1       1.866 -15.697  18.710  1.00  0.00     0.221 C 
HETATM    2  N1  UNL     1       1.783 -15.654  17.548  1.00  0.00    -0.464 NA
HETATM    3  C2  UNL     1       1.704 -15.616  16.153  1.00  0.00     0.185 A 
HETATM    4  C3  UNL     1       0.316 -15.657  15.582  1.00  0.00     0.069 A 
HETATM    5  C4  UNL     1       1.064 -14.382  15.498  1.00  0.00     0.121 A 
ENDROOT
BRANCH   5   6
HETATM    6  N2  UNL     1       1.617 -13.918  14.250  1.00  0.00    -0.372 N 
ATOM      7  H2  UNL     1       2.065 -14.606  13.645  1.00  0.00     0.161 HD
BRANCH   6   8
HETATM    8  C5  UNL     1       1.582 -12.585  13.809  1.00  0.00     0.075 C 
HETATM    9  C6  UNL     1       2.415 -11.490  14.352  1.00  0.00     0.089 C 
HETATM   10  N3  UNL     1       0.772 -12.273  12.861  1.00  0.00    -0.318 N 
HETATM   11  C7  UNL     1       0.668 -10.953  12.351  1.00  0.00     0.218 C 
ATOM     12  H3  UNL     1       0.180 -13.002  12.461  1.00  0.00     0.170 HD
HETATM   13  C8  UNL     1       0.999 -10.614  10.945  1.00  0.00     0.117 C 
HETATM   14  O1  UNL     1       0.281 -10.031  13.115  1.00  0.00    -0.274 OA
ENDBRANCH   6   8
ENDBRANCH   5   6
TORSDOF 2
ENDMDL
MODEL 4
REMARK VINA RESULT: -5.035099102      1.707      2.285
REMARK  2 active torsions:
REMARK  status: ('A' for Active; 'I' for Inactive)
REMARK    1  A    between atoms: C4_5  and  N2_6 
REMARK    2  A    between atoms: N2_6  and  C5_8 
REMARK       I    between atoms: N3_10  and  C7_12 
ROOT
HETATM    1  C1  UNL     1       1.892 -15.814  18.533  1.00  0.00     0.221 C 
HETATM    2  N1  UNL     1       1.795 -15.648  17.383  1.00  0.00    -0.464 NA
HETATM    3  C2  UNL     1       1.702 -15.456  16.002  1.00  0.00     0.185 A 
HETATM    4  C3  UNL     1       0.371 -15.791  15.390  1.00  0.00     0.069 A 
HETATM    5  C4  UNL     1       0.752 -14.364  15.485  1.00  0.00     0.121 A 
ENDROOT
BRANCH   5   6
HETATM    6  N2  UNL     1       1.155 -13.616  14.321  1.00  0.00    -0.372 N 
ATOM      7  H2  UNL     1       1.853 -14.035  13.706  1.00  0.00     0.161 HD
BRANCH   6   8
HETATM    8  C5  UNL     1       0.654 -12.351  13.972  1.00  0.00     0.075 C 
HETATM    9  C6  UNL     1       1.273 -11.437  12.988  1.00  0.00     0.089 C 
HETATM   10  N3  UNL     1      -0.423 -11.939  14.540  1.00  0.00    -0.318 N 
HETATM   11  C7  UNL     1      -1.001 -10.677  14.251  1.00  0.00     0.218 C 
ATOM     12  H3  UNL     1      -0.878 -12.543  15.225  1.00  0.00     0.170 HD
HETATM   13  C8  UNL     1      -2.351 -10.537  13.651  1.00  0.00     0.117 C 
HETATM   14  O1  UNL     1      -0.350  -9.631  14.512  1.00  0.00    -0.274 OA
ENDBRANCH   6   8
ENDBRANCH   5   6
TORSDOF 2
ENDMDL
MODEL 5
REMARK VINA RESULT: -4.843987652      2.029      2.358
REMARK  2 active torsions:
REMARK  status: ('A' for Active; 'I' for Inactive)
REMARK    1  A    between atoms: C4_5  and  N2_6 
REMARK    2  A    between atoms: N2_6  and  C5_8 
REMARK       I    between atoms: N3_10  and  C7_12 
ROOT
HETATM    1  C1  UNL     1       1.873 -15.708  18.645  1.00  0.00     0.221 C 
HETATM    2  N1  UNL     1       1.803 -15.633  17.484  1.00  0.00    -0.464 NA
HETATM    3  C2  UNL     1       1.742 -15.554  16.090  1.00  0.00     0.185 A 
HETATM    4  C3  UNL     1       0.373 -15.709  15.492  1.00  0.00     0.069 A 
HETATM    5  C4  UNL     1       0.994 -14.366  15.465  1.00  0.00     0.121 A 
ENDROOT
BRANCH   5   6
HETATM    6  N2  UNL     1       1.518 -13.806  14.244  1.00  0.00    -0.372 N 
ATOM      7  H2  UNL     1       1.731 -14.449  13.481  1.00  0.00     0.161 HD
BRANCH   6   8
HETATM    8  C5  UNL     1       1.756 -12.439  14.030  1.00  0.00     0.075 C 
HETATM    9  C6  UNL     1       1.498 -11.721  12.763  1.00  0.00     0.089 C 
HETATM   10  N3  UNL     1       2.234 -11.740  14.997  1.00  0.00    -0.318 N 
HETATM   11  C7  UNL     1       2.507 -10.354  14.874  1.00  0.00     0.218 C 
ATOM     12  H3  UNL     1       2.426 -12.201  15.888  1.00  0.00     0.170 HD
HETATM   13  C8  UNL     1       1.809  -9.329  15.688  1.00  0.00     0.117 C 
HETATM   14  O1  UNL     1       3.372  -9.972  14.044  1.00  0.00    -0.274 OA
ENDBRANCH   6   8
ENDBRANCH   5   6
TORSDOF 2
ENDMDL
