MODEL 1
REMARK VINA RESULT: -5.518842155      0.000      0.000
REMARK  5 active torsions:
REMARK  status: ('A' for Active; 'I' for Inactive)
REMARK    1  A    between atoms: C2_2  and  C3_3 
REMARK    2  A    between atoms: C3_3  and  C4_4 
REMARK    3  A    between atoms: C4_4  and  C5_5 
REMARK    4  A    between atoms: C6_6  and  C7_7 
REMARK    5  A    between atoms: C8_8  and  C9_9 
REMARK       I    between atoms: C9_9  and  N1_11 
ROOT
HETATM    1  C7  UNL     1       0.235 -11.842  15.112  1.00  0.00    -0.005 C 
HETATM    2  C8  UNL     1       1.198 -12.382  15.626  1.00  0.00     0.009 C 
ENDROOT
BRANCH   2   3
HETATM    3  C9  UNL     1       2.352 -13.020  16.212  1.00  0.00     0.302 C 
HETATM    4  O1  UNL     1       3.502 -12.922  15.679  1.00  0.00    -0.258 OA
HETATM    5  N1  UNL     1       2.201 -13.757  17.385  1.00  0.00    -0.308 N 
HETATM    6  C10 UNL     1       1.988 -15.017  17.356  1.00  0.00     0.092 C 
ATOM      7  H1  UNL     1       2.261 -13.281  18.285  1.00  0.00     0.170 HD
HETATM    8  C11 UNL     1       1.835 -15.758  18.632  1.00  0.00     0.085 C 
HETATM    9  N2  UNL     1       1.908 -15.668  16.098  1.00  0.00    -0.088 NA
ENDBRANCH   2   3
BRANCH   1  10
HETATM   10  C6  UNL     1      -0.874 -11.194  14.510  1.00  0.00    -0.015 C 
HETATM   11  C5  UNL     1      -1.812 -10.633  13.978  1.00  0.00    -0.092 C 
BRANCH  11  12
HETATM   12  C4  UNL     1      -2.939  -9.936  13.347  1.00  0.00     0.095 C 
BRANCH  12  13
HETATM   13  C3  UNL     1      -3.077  -8.552  13.980  1.00  0.00     0.012 C 
BRANCH  13  14
HETATM   14  C2  UNL     1      -4.152  -7.789  13.260  1.00  0.00    -0.004 C 
HETATM   15  C1  UNL     1      -4.161  -8.206  11.818  1.00  0.00     0.005 C 
ENDBRANCH  13  14
ENDBRANCH  12  13
ENDBRANCH  11  12
ENDBRANCH   1  10
TORSDOF 5
ENDMDL
MODEL 2
REMARK VINA RESULT: -5.381977056      1.990      2.521
REMARK  5 active torsions:
REMARK  status: ('A' for Active; 'I' for Inactive)
REMARK    1  A    between atoms: C2_2  and  C3_3 
REMARK    2  A    between atoms: C3_3  and  C4_4 
REMARK    3  A    between atoms: C4_4  and  C5_5 
REMARK    4  A    between atoms: C6_6  and  C7_7 
REMARK    5  A    between atoms: C8_8  and  C9_9 
REMARK       I    between atoms: C9_9  and  N1_11 
ROOT
HETATM    1  C7  UNL     1       0.353 -11.123  15.903  1.00  0.00    -0.005 C 
HETATM    2  C8  UNL     1       1.288 -11.878  16.094  1.00  0.00     0.009 C 
ENDROOT
BRANCH   2   3
HETATM    3  C9  UNL     1       2.405 -12.758  16.340  1.00  0.00     0.302 C 
HETATM    4  O1  UNL     1       3.406 -12.788  15.558  1.00  0.00    -0.258 OA
HETATM    5  N1  UNL     1       2.383 -13.592  17.456  1.00  0.00    -0.308 N 
HETATM    6  C10 UNL     1       1.941 -14.789  17.385  1.00  0.00     0.092 C 
ATOM      7  H1  UNL     1       2.727 -13.239  18.349  1.00  0.00     0.170 HD
HETATM    8  C11 UNL     1       1.939 -15.637  18.602  1.00  0.00     0.085 C 
HETATM    9  N2  UNL     1       1.465 -15.268  16.137  1.00  0.00    -0.088 NA
ENDBRANCH   2   3
BRANCH   1  10
HETATM   10  C6  UNL     1      -0.745 -10.246  15.702  1.00  0.00    -0.015 C 
HETATM   11  C5  UNL     1      -1.681  -9.486  15.548  1.00  0.00    -0.092 C 
BRANCH  11  12
HETATM   12  C4  UNL     1      -2.825  -8.584  15.373  1.00  0.00     0.095 C 
BRANCH  12  13
HETATM   13  C3  UNL     1      -3.111  -7.889  16.703  1.00  0.00     0.012 C 
BRANCH  13  14
HETATM   14  C2  UNL     1      -3.394  -8.931  17.748  1.00  0.00    -0.004 C 
HETATM   15  C1  UNL     1      -4.650  -8.556  18.480  1.00  0.00     0.005 C 
ENDBRANCH  13  14
ENDBRANCH  12  13
ENDBRANCH  11  12
ENDBRANCH   1  10
TORSDOF 5
ENDMDL
MODEL 3
REMARK VINA RESULT: -5.155391657      0.914      1.089
REMARK  5 active torsions:
REMARK  status: ('A' for Active; 'I' for Inactive)
REMARK    1  A    between atoms: C2_2  and  C3_3 
REMARK    2  A    between atoms: C3_3  and  C4_4 
REMARK    3  A    between atoms: C4_4  and  C5_5 
REMARK    4  A    between atoms: C6_6  and  C7_7 
REMARK    5  A    between atoms: C8_8  and  C9_9 
REMARK       I    between atoms: C9_9  and  N1_11 
ROOT
HETATM    1  C7  UNL     1       0.389 -11.165  15.925  1.00  0.00    -0.005 C 
HETATM    2  C8  UNL     1       1.316 -11.928  16.132  1.00  0.00     0.009 C 
ENDROOT
BRANCH   2   3
HETATM    3  C9  UNL     1       2.427 -12.812  16.385  1.00  0.00     0.302 C 
HETATM    4  O1  UNL     1       3.435 -12.844  15.611  1.00  0.00    -0.258 OA
HETATM    5  N1  UNL     1       2.393 -13.646  17.501  1.00  0.00    -0.308 N 
HETATM    6  C10 UNL     1       1.947 -14.842  17.425  1.00  0.00     0.092 C 
ATOM      7  H1  UNL     1       2.732 -13.296  18.397  1.00  0.00     0.170 HD
HETATM    8  C11 UNL     1       1.933 -15.691  18.641  1.00  0.00     0.085 C 
HETATM    9  N2  UNL     1       1.481 -15.318  16.172  1.00  0.00    -0.088 NA
ENDBRANCH   2   3
BRANCH   1  10
HETATM   10  C6  UNL     1      -0.691 -10.272  15.708  1.00  0.00    -0.015 C 
HETATM   11  C5  UNL     1      -1.626  -9.514  15.538  1.00  0.00    -0.092 C 
BRANCH  11  12
HETATM   12  C4  UNL     1      -2.766  -8.616  15.319  1.00  0.00     0.095 C 
BRANCH  12  13
HETATM   13  C3  UNL     1      -2.696  -8.071  13.893  1.00  0.00     0.012 C 
BRANCH  13  14
HETATM   14  C2  UNL     1      -3.369  -9.041  12.965  1.00  0.00    -0.004 C 
HETATM   15  C1  UNL     1      -4.338  -8.292  12.097  1.00  0.00     0.005 C 
ENDBRANCH  13  14
ENDBRANCH  12  13
ENDBRANCH  11  12
ENDBRANCH   1  10
TORSDOF 5
ENDMDL
MODEL 4
REMARK VINA RESULT: -5.066278128      2.247      2.809
REMARK  5 active torsions:
REMARK  status: ('A' for Active; 'I' for Inactive)
REMARK    1  A    between atoms: C2_2  and  C3_3 
REMARK    2  A    between atoms: C3_3  and  C4_4 
REMARK    3  A    between atoms: C4_4  and  C5_5 
REMARK    4  A    between atoms: C6_6  and  C7_7 
REMARK    5  A    between atoms: C8_8  and  C9_9 
REMARK       I    between atoms: C9_9  and  N1_11 
ROOT
HETATM    1  C7  UNL     1      -0.353 -11.205  14.851  1.00  0.00    -0.005 C 
HETATM    2  C8  UNL     1       0.455 -12.106  14.718  1.00  0.00     0.009 C 
ENDROOT
BRANCH   2   3
HETATM    3  C9  UNL     1       1.416 -13.174  14.586  1.00  0.00     0.302 C 
HETATM    4  O1  UNL     1       1.834 -13.548  13.445  1.00  0.00    -0.258 OA
HETATM    5  N1  UNL     1       1.894 -13.807  15.732  1.00  0.00    -0.308 N 
HETATM    6  C10 UNL     1       1.343 -14.867  16.186  1.00  0.00     0.092 C 
ATOM      7  H1  UNL     1       2.701 -13.416  16.218  1.00  0.00     0.170 HD
HETATM    8  C11 UNL     1       1.889 -15.504  17.408  1.00  0.00     0.085 C 
HETATM    9  N2  UNL     1       0.222 -15.401  15.499  1.00  0.00    -0.088 NA
ENDBRANCH   2   3
BRANCH   1  10
HETATM   10  C6  UNL     1      -1.307 -10.168  15.020  1.00  0.00    -0.015 C 
HETATM   11  C5  UNL     1      -2.111  -9.270  15.174  1.00  0.00    -0.092 C 
BRANCH  11  12
HETATM   12  C4  UNL     1      -3.088  -8.195  15.382  1.00  0.00     0.095 C 
BRANCH  12  13
HETATM   13  C3  UNL     1      -3.008  -7.732  16.836  1.00  0.00     0.012 C 
BRANCH  13  14
HETATM   14  C2  UNL     1      -3.355  -8.883  17.736  1.00  0.00    -0.004 C 
HETATM   15  C1  UNL     1      -4.643  -8.577  18.443  1.00  0.00     0.005 C 
ENDBRANCH  13  14
ENDBRANCH  12  13
ENDBRANCH  11  12
ENDBRANCH   1  10
TORSDOF 5
ENDMDL
MODEL 5
REMARK VINA RESULT: -4.924159309      1.446      1.962
REMARK  5 active torsions:
REMARK  status: ('A' for Active; 'I' for Inactive)
REMARK    1  A    between atoms: C2_2  and  C3_3 
REMARK    2  A    between atoms: C3_3  and  C4_4 
REMARK    3  A    between atoms: C4_4  and  C5_5 
REMARK    4  A    between atoms: C6_6  and  C7_7 
REMARK    5  A    between atoms: C8_8  and  C9_9 
REMARK       I    between atoms: C9_9  and  N1_11 
ROOT
HETATM    1  C7  UNL     1      -0.690 -11.233  14.041  1.00  0.00    -0.005 C 
HETATM    2  C8  UNL     1       0.253 -11.884  14.451  1.00  0.00     0.009 C 
ENDROOT
BRANCH   2   3
HETATM    3  C9  UNL     1       1.386 -12.640  14.927  1.00  0.00     0.302 C 
HETATM    4  O1  UNL     1       2.567 -12.374  14.539  1.00  0.00    -0.258 OA
HETATM    5  N1  UNL     1       1.181 -13.682  15.829  1.00  0.00    -0.308 N 
HETATM    6  C10 UNL     1       1.024 -14.887  15.431  1.00  0.00     0.092 C 
ATOM      7  H1  UNL     1       1.155 -13.480  16.828  1.00  0.00     0.170 HD
HETATM    8  C11 UNL     1       0.809 -15.961  16.430  1.00  0.00     0.085 C 
HETATM    9  N2  UNL     1       1.062 -15.155  14.038  1.00  0.00    -0.088 NA
ENDBRANCH   2   3
BRANCH   1  10
HETATM   10  C6  UNL     1      -1.782 -10.455  13.576  1.00  0.00    -0.015 C 
HETATM   11  C5  UNL     1      -2.711  -9.773  13.189  1.00  0.00    -0.092 C 
BRANCH  11  12
HETATM   12  C4  UNL     1      -3.846  -8.958  12.740  1.00  0.00     0.095 C 
BRANCH  12  13
HETATM   13  C3  UNL     1      -3.632  -7.519  13.207  1.00  0.00     0.012 C 
BRANCH  13  14
HETATM   14  C2  UNL     1      -4.854  -7.060  13.951  1.00  0.00    -0.004 C 
HETATM   15  C1  UNL     1      -4.553  -7.053  15.422  1.00  0.00     0.005 C 
ENDBRANCH  13  14
ENDBRANCH  12  13
ENDBRANCH  11  12
ENDBRANCH   1  10
TORSDOF 5
ENDMDL
