MODEL 1
REMARK VINA RESULT: -7.044489639      0.000      0.000
REMARK  13 active torsions:
REMARK  status: ('A' for Active; 'I' for Inactive)
REMARK    1  A    between atoms: C2_2  and  C3_3 
REMARK    2  A    between atoms: C3_3  and  N1_4 
REMARK    3  A    between atoms: N1_4  and  C4_5 
REMARK       I    between atoms: N1_4  and  C7_8 
REMARK    4  A    between atoms: C4_5  and  C5_6 
REMARK    5  A    between atoms: C7_8  and  C8_10 
REMARK    6  A    between atoms: N2_13  and  C11_14 
REMARK    7  A    between atoms: C11_14  and  N3_16 
REMARK    8  A    between atoms: N3_16  and  C12_18 
REMARK    9  A    between atoms: C13_19  and  O2_20 
REMARK   10  A    between atoms: C15_23  and  C16_24 
REMARK   11  A    between atoms: C16_24  and  O4_25 
REMARK   12  A    between atoms: C17_27  and  O5_28 
REMARK   13  A    between atoms: C18_30  and  O6_31 
ROOT
HETATM    1  C11 UNL     1      18.667  13.155  13.868  1.00  0.00     0.170 C 
HETATM    2  S1  UNL     1      17.028  13.566  13.646  1.00  0.00    -0.041 SA
ENDROOT
BRANCH   1   3
HETATM    3  N2  UNL     1      19.544  14.002  13.196  1.00  0.00    -0.358 N 
HETATM    4  C10 UNL     1      20.187  13.537  11.967  1.00  0.00     0.126 C 
HETATM    5  C9  UNL     1      20.014  14.517  10.826  1.00  0.00     0.034 C 
HETATM    6  C8  UNL     1      20.480  15.903  11.218  1.00  0.00     0.081 C 
HETATM    7  C20 UNL     1      20.894  15.974  12.653  1.00  0.00     0.034 C 
HETATM    8  C19 UNL     1      19.860  15.338  13.581  1.00  0.00     0.126 C 
BRANCH   6   9
HETATM    9  C7  UNL     1      21.620  16.286  10.367  1.00  0.00     0.224 C 
HETATM   10  N1  UNL     1      21.516  16.987   9.127  1.00  0.00    -0.352 N 
HETATM   11  O1  UNL     1      22.776  15.958  10.784  1.00  0.00    -0.273 OA
BRANCH  10  12
HETATM   12  C3  UNL     1      20.288  17.426   8.556  1.00  0.00     0.125 C 
BRANCH  12  13
HETATM   13  C2  UNL     1      20.087  18.926   8.569  1.00  0.00     0.015 C 
HETATM   14  C1  UNL     1      19.578  19.497   7.290  1.00  0.00     0.006 C 
ENDBRANCH  12  13
ENDBRANCH  10  12
BRANCH  10  15
HETATM   15  C4  UNL     1      22.758  17.273   8.394  1.00  0.00     0.125 C 
BRANCH  15  16
HETATM   16  C5  UNL     1      22.654  16.999   6.933  1.00  0.00     0.015 C 
HETATM   17  C6  UNL     1      22.850  18.181   6.049  1.00  0.00     0.006 C 
ENDBRANCH  15  16
ENDBRANCH  10  15
ENDBRANCH   6   9
ENDBRANCH   1   3
BRANCH   1  18
HETATM   18  N3  UNL     1      18.916  12.040  14.678  1.00  0.00    -0.355 N 
ATOM     19  H3  UNL     1      19.056  11.162  14.179  1.00  0.00     0.162 HD
BRANCH  18  20
HETATM   20  C12 UNL     1      19.002  11.953  16.102  1.00  0.00     0.170 C 
HETATM   21  C13 UNL     1      19.212  10.500  16.547  1.00  0.00     0.284 C 
HETATM   22  O3  UNL     1      20.102   9.928  15.645  1.00  0.00    -0.349 OA
HETATM   23  C15 UNL     1      21.379  10.343  16.058  1.00  0.00     0.179 C 
HETATM   24  C17 UNL     1      21.523  11.827  16.045  1.00  0.00     0.180 C 
HETATM   25  C18 UNL     1      20.349  12.608  16.508  1.00  0.00     0.177 C 
BRANCH  21  26
HETATM   26  O2  UNL     1      19.839  10.540  17.787  1.00  0.00    -0.364 OA
HETATM   27  C14 UNL     1      19.164   9.745  18.725  1.00  0.00     0.204 C 
ENDBRANCH  21  26
BRANCH  23  28
HETATM   28  C16 UNL     1      22.369   9.761  15.069  1.00  0.00     0.198 C 
BRANCH  28  29
HETATM   29  O4  UNL     1      21.674   9.627  13.852  1.00  0.00    -0.398 OA
ATOM     30  H4  UNL     1      20.939   9.052  14.029  1.00  0.00     0.209 HD
ENDBRANCH  28  29
ENDBRANCH  23  28
BRANCH  24  31
HETATM   31  O5  UNL     1      21.938  12.190  14.751  1.00  0.00    -0.390 OA
ATOM     32  H5  UNL     1      22.455  12.982  14.837  1.00  0.00     0.210 HD
ENDBRANCH  24  31
BRANCH  25  33
HETATM   33  O6  UNL     1      20.332  12.846  17.865  1.00  0.00    -0.391 OA
ATOM     34  H6  UNL     1      20.622  13.738  18.021  1.00  0.00     0.210 HD
ENDBRANCH  25  33
ENDBRANCH  18  20
ENDBRANCH   1  18
TORSDOF 13
ENDMDL
MODEL 2
REMARK VINA RESULT: -6.968298066      1.818      3.225
REMARK  13 active torsions:
REMARK  status: ('A' for Active; 'I' for Inactive)
REMARK    1  A    between atoms: C2_2  and  C3_3 
REMARK    2  A    between atoms: C3_3  and  N1_4 
REMARK    3  A    between atoms: N1_4  and  C4_5 
REMARK       I    between atoms: N1_4  and  C7_8 
REMARK    4  A    between atoms: C4_5  and  C5_6 
REMARK    5  A    between atoms: C7_8  and  C8_10 
REMARK    6  A    between atoms: N2_13  and  C11_14 
REMARK    7  A    between atoms: C11_14  and  N3_16 
REMARK    8  A    between atoms: N3_16  and  C12_18 
REMARK    9  A    between atoms: C13_19  and  O2_20 
REMARK   10  A    between atoms: C15_23  and  C16_24 
REMARK   11  A    between atoms: C16_24  and  O4_25 
REMARK   12  A    between atoms: C17_27  and  O5_28 
REMARK   13  A    between atoms: C18_30  and  O6_31 
ROOT
HETATM    1  C11 UNL     1      19.117  14.687  14.969  1.00  0.00     0.170 C 
HETATM    2  S1  UNL     1      17.871  15.334  15.934  1.00  0.00    -0.041 SA
ENDROOT
BRANCH   1   3
HETATM    3  N2  UNL     1      19.288  15.363  13.763  1.00  0.00    -0.358 N 
HETATM    4  C10 UNL     1      20.404  16.299  13.620  1.00  0.00     0.126 C 
HETATM    5  C9  UNL     1      21.228  16.019  12.382  1.00  0.00     0.034 C 
HETATM    6  C8  UNL     1      20.360  15.980  11.142  1.00  0.00     0.081 C 
HETATM    7  C20 UNL     1      18.908  16.125  11.466  1.00  0.00     0.034 C 
HETATM    8  C19 UNL     1      18.477  15.199  12.602  1.00  0.00     0.126 C 
BRANCH   6   9
HETATM    9  C7  UNL     1      20.764  17.070  10.237  1.00  0.00     0.224 C 
HETATM   10  N1  UNL     1      21.877  17.021   9.343  1.00  0.00    -0.352 N 
HETATM   11  O1  UNL     1      20.057  18.127  10.268  1.00  0.00    -0.273 OA
BRANCH  10  12
HETATM   12  C3  UNL     1      22.738  15.896   9.198  1.00  0.00     0.125 C 
BRANCH  12  13
HETATM   13  C2  UNL     1      24.206  16.192   9.417  1.00  0.00     0.015 C 
HETATM   14  C1  UNL     1      25.119  15.604   8.397  1.00  0.00     0.006 C 
ENDBRANCH  12  13
ENDBRANCH  10  12
BRANCH  10  15
HETATM   15  C4  UNL     1      22.151  18.209   8.523  1.00  0.00     0.125 C 
BRANCH  15  16
HETATM   16  C5  UNL     1      21.679  18.073   7.115  1.00  0.00     0.015 C 
HETATM   17  C6  UNL     1      22.755  17.985   6.089  1.00  0.00     0.006 C 
ENDBRANCH  15  16
ENDBRANCH  10  15
ENDBRANCH   6   9
ENDBRANCH   1   3
BRANCH   1  18
HETATM   18  N3  UNL     1      19.792  13.580  15.498  1.00  0.00    -0.355 N 
ATOM     19  H3  UNL     1      19.781  13.509  16.516  1.00  0.00     0.162 HD
BRANCH  18  20
HETATM   20  C12 UNL     1      20.495  12.535  14.822  1.00  0.00     0.170 C 
HETATM   21  C13 UNL     1      20.930  11.444  15.808  1.00  0.00     0.284 C 
HETATM   22  O3  UNL     1      19.879  11.268  16.702  1.00  0.00    -0.349 OA
HETATM   23  C15 UNL     1      18.955  10.440  16.041  1.00  0.00     0.179 C 
HETATM   24  C17 UNL     1      18.452  11.052  14.777  1.00  0.00     0.180 C 
HETATM   25  C18 UNL     1      19.448  11.784  13.956  1.00  0.00     0.177 C 
BRANCH  21  26
HETATM   26  O2  UNL     1      21.064  10.268  15.080  1.00  0.00    -0.364 OA
HETATM   27  C14 UNL     1      22.345   9.717  15.234  1.00  0.00     0.204 C 
ENDBRANCH  21  26
BRANCH  23  28
HETATM   28  C16 UNL     1      17.780  10.259  16.980  1.00  0.00     0.198 C 
BRANCH  28  29
HETATM   29  O4  UNL     1      17.025   9.191  16.462  1.00  0.00    -0.398 OA
ATOM     30  H4  UNL     1      16.265   9.581  16.047  1.00  0.00     0.209 HD
ENDBRANCH  28  29
ENDBRANCH  23  28
BRANCH  24  31
HETATM   31  O5  UNL     1      17.342  11.844  15.115  1.00  0.00    -0.390 OA
ATOM     32  H5  UNL     1      17.569  12.744  14.909  1.00  0.00     0.210 HD
ENDBRANCH  24  31
BRANCH  25  33
HETATM   33  O6  UNL     1      20.117  10.994  13.045  1.00  0.00    -0.391 OA
ATOM     34  H6  UNL     1      20.560  10.297  13.516  1.00  0.00     0.210 HD
ENDBRANCH  25  33
ENDBRANCH  18  20
ENDBRANCH   1  18
TORSDOF 13
ENDMDL
MODEL 3
REMARK VINA RESULT: -6.893102640      1.302      2.349
REMARK  13 active torsions:
REMARK  status: ('A' for Active; 'I' for Inactive)
REMARK    1  A    between atoms: C2_2  and  C3_3 
REMARK    2  A    between atoms: C3_3  and  N1_4 
REMARK    3  A    between atoms: N1_4  and  C4_5 
REMARK       I    between atoms: N1_4  and  C7_8 
REMARK    4  A    between atoms: C4_5  and  C5_6 
REMARK    5  A    between atoms: C7_8  and  C8_10 
REMARK    6  A    between atoms: N2_13  and  C11_14 
REMARK    7  A    between atoms: C11_14  and  N3_16 
REMARK    8  A    between atoms: N3_16  and  C12_18 
REMARK    9  A    between atoms: C13_19  and  O2_20 
REMARK   10  A    between atoms: C15_23  and  C16_24 
REMARK   11  A    between atoms: C16_24  and  O4_25 
REMARK   12  A    between atoms: C17_27  and  O5_28 
REMARK   13  A    between atoms: C18_30  and  O6_31 
ROOT
HETATM    1  C11 UNL     1      17.739  13.158  14.154  1.00  0.00     0.170 C 
HETATM    2  S1  UNL     1      16.281  13.910  14.613  1.00  0.00    -0.041 SA
ENDROOT
BRANCH   1   3
HETATM    3  N2  UNL     1      18.353  13.766  13.062  1.00  0.00    -0.358 N 
HETATM    4  C10 UNL     1      18.446  15.225  13.015  1.00  0.00     0.126 C 
HETATM    5  C9  UNL     1      19.860  15.699  12.751  1.00  0.00     0.034 C 
HETATM    6  C8  UNL     1      20.430  15.055  11.505  1.00  0.00     0.081 C 
HETATM    7  C20 UNL     1      19.498  14.047  10.914  1.00  0.00     0.034 C 
HETATM    8  C19 UNL     1      18.954  13.081  11.966  1.00  0.00     0.126 C 
BRANCH   6   9
HETATM    9  C7  UNL     1      20.706  16.102  10.505  1.00  0.00     0.224 C 
HETATM   10  N1  UNL     1      21.890  16.184   9.712  1.00  0.00    -0.352 N 
HETATM   11  O1  UNL     1      19.810  16.993  10.352  1.00  0.00    -0.273 OA
BRANCH  10  12
HETATM   12  C3  UNL     1      22.960  15.246   9.771  1.00  0.00     0.125 C 
BRANCH  12  13
HETATM   13  C2  UNL     1      23.954  15.493  10.886  1.00  0.00     0.015 C 
HETATM   14  C1  UNL     1      23.928  14.481  11.979  1.00  0.00     0.006 C 
ENDBRANCH  12  13
ENDBRANCH  10  12
BRANCH  10  15
HETATM   15  C4  UNL     1      22.012  17.309   8.774  1.00  0.00     0.125 C 
BRANCH  15  16
HETATM   16  C5  UNL     1      22.915  17.021   7.624  1.00  0.00     0.015 C 
HETATM   17  C6  UNL     1      22.596  17.751   6.366  1.00  0.00     0.006 C 
ENDBRANCH  15  16
ENDBRANCH  10  15
ENDBRANCH   6   9
ENDBRANCH   1   3
BRANCH   1  18
HETATM   18  N3  UNL     1      18.122  12.046  14.914  1.00  0.00    -0.355 N 
ATOM     19  H3  UNL     1      18.274  11.187  14.384  1.00  0.00     0.162 HD
BRANCH  18  20
HETATM   20  C12 UNL     1      18.331  11.937  16.324  1.00  0.00     0.170 C 
HETATM   21  C13 UNL     1      18.826  10.533  16.695  1.00  0.00     0.284 C 
HETATM   22  O3  UNL     1      19.731  10.153  15.710  1.00  0.00    -0.349 OA
HETATM   23  C15 UNL     1      20.943  10.778  16.048  1.00  0.00     0.179 C 
HETATM   24  C17 UNL     1      20.823  12.263  16.083  1.00  0.00     0.180 C 
HETATM   25  C18 UNL     1      19.569  12.811  16.659  1.00  0.00     0.177 C 
BRANCH  21  26
HETATM   26  O2  UNL     1      19.529  10.652  17.888  1.00  0.00    -0.364 OA
HETATM   27  C14 UNL     1      19.088   9.714  18.834  1.00  0.00     0.204 C 
ENDBRANCH  21  26
BRANCH  23  28
HETATM   28  C16 UNL     1      21.940  10.407  14.969  1.00  0.00     0.198 C 
BRANCH  28  29
HETATM   29  O4  UNL     1      21.191  10.206  13.795  1.00  0.00    -0.398 OA
ATOM     30  H4  UNL     1      21.153   9.266  13.664  1.00  0.00     0.209 HD
ENDBRANCH  28  29
ENDBRANCH  23  28
BRANCH  24  31
HETATM   31  O5  UNL     1      21.068  12.728  14.779  1.00  0.00    -0.390 OA
ATOM     32  H5  UNL     1      21.985  12.971  14.738  1.00  0.00     0.210 HD
ENDBRANCH  24  31
BRANCH  25  33
HETATM   33  O6  UNL     1      19.614  13.006  18.023  1.00  0.00    -0.391 OA
ATOM     34  H6  UNL     1      20.524  13.020  18.297  1.00  0.00     0.210 HD
ENDBRANCH  25  33
ENDBRANCH  18  20
ENDBRANCH   1  18
TORSDOF 13
ENDMDL
MODEL 4
REMARK VINA RESULT: -6.878879048      1.583      2.698
REMARK  13 active torsions:
REMARK  status: ('A' for Active; 'I' for Inactive)
REMARK    1  A    between atoms: C2_2  and  C3_3 
REMARK    2  A    between atoms: C3_3  and  N1_4 
REMARK    3  A    between atoms: N1_4  and  C4_5 
REMARK       I    between atoms: N1_4  and  C7_8 
REMARK    4  A    between atoms: C4_5  and  C5_6 
REMARK    5  A    between atoms: C7_8  and  C8_10 
REMARK    6  A    between atoms: N2_13  and  C11_14 
REMARK    7  A    between atoms: C11_14  and  N3_16 
REMARK    8  A    between atoms: N3_16  and  C12_18 
REMARK    9  A    between atoms: C13_19  and  O2_20 
REMARK   10  A    between atoms: C15_23  and  C16_24 
REMARK   11  A    between atoms: C16_24  and  O4_25 
REMARK   12  A    between atoms: C17_27  and  O5_28 
REMARK   13  A    between atoms: C18_30  and  O6_31 
ROOT
HETATM    1  C11 UNL     1      19.533  14.903  14.535  1.00  0.00     0.170 C 
HETATM    2  S1  UNL     1      18.163  15.638  15.233  1.00  0.00    -0.041 SA
ENDROOT
BRANCH   1   3
HETATM    3  N2  UNL     1      20.053  15.615  13.458  1.00  0.00    -0.358 N 
HETATM    4  C10 UNL     1      21.338  15.213  12.887  1.00  0.00     0.126 C 
HETATM    5  C9  UNL     1      21.263  15.026  11.386  1.00  0.00     0.034 C 
HETATM    6  C8  UNL     1      20.704  16.259  10.708  1.00  0.00     0.081 C 
HETATM    7  C20 UNL     1      20.277  17.300  11.692  1.00  0.00     0.034 C 
HETATM    8  C19 UNL     1      19.415  16.714  12.810  1.00  0.00     0.126 C 
BRANCH   6   9
HETATM    9  C7  UNL     1      21.733  16.828   9.819  1.00  0.00     0.224 C 
HETATM   10  N1  UNL     1      21.466  17.614   8.658  1.00  0.00    -0.352 N 
HETATM   11  O1  UNL     1      22.944  16.587  10.125  1.00  0.00    -0.273 OA
BRANCH  10  12
HETATM   12  C3  UNL     1      20.161  17.970   8.213  1.00  0.00     0.125 C 
BRANCH  12  13
HETATM   13  C2  UNL     1      19.996  19.427   7.843  1.00  0.00     0.015 C 
HETATM   14  C1  UNL     1      19.774  19.679   6.391  1.00  0.00     0.006 C 
ENDBRANCH  12  13
ENDBRANCH  10  12
BRANCH  10  15
HETATM   15  C4  UNL     1      22.614  18.087   7.871  1.00  0.00     0.125 C 
BRANCH  15  16
HETATM   16  C5  UNL     1      22.880  17.257   6.662  1.00  0.00     0.015 C 
HETATM   17  C6  UNL     1      23.884  16.173   6.842  1.00  0.00     0.006 C 
ENDBRANCH  15  16
ENDBRANCH  10  15
ENDBRANCH   6   9
ENDBRANCH   1   3
BRANCH   1  18
HETATM   18  N3  UNL     1      19.950  13.701  15.120  1.00  0.00    -0.355 N 
ATOM     19  H3  UNL     1      19.748  13.607  16.116  1.00  0.00     0.162 HD
BRANCH  18  20
HETATM   20  C12 UNL     1      20.617  12.585  14.527  1.00  0.00     0.170 C 
HETATM   21  C13 UNL     1      20.992  11.545  15.591  1.00  0.00     0.284 C 
HETATM   22  O3  UNL     1      19.923  11.473  16.477  1.00  0.00    -0.349 OA
HETATM   23  C15 UNL     1      18.974  10.642  15.858  1.00  0.00     0.179 C 
HETATM   24  C17 UNL     1      18.515  11.186  14.548  1.00  0.00     0.180 C 
HETATM   25  C18 UNL     1      19.552  11.820  13.696  1.00  0.00     0.177 C 
BRANCH  21  26
HETATM   26  O2  UNL     1      21.087  10.318  14.946  1.00  0.00    -0.364 OA
HETATM   27  C14 UNL     1      22.342   9.728  15.155  1.00  0.00     0.204 C 
ENDBRANCH  21  26
BRANCH  23  28
HETATM   28  C16 UNL     1      17.781  10.573  16.789  1.00  0.00     0.198 C 
BRANCH  28  29
HETATM   29  O4  UNL     1      17.085   9.398  16.447  1.00  0.00    -0.398 OA
ATOM     30  H4  UNL     1      16.741   9.048  17.260  1.00  0.00     0.209 HD
ENDBRANCH  28  29
ENDBRANCH  23  28
BRANCH  24  31
HETATM   31  O5  UNL     1      17.434  12.045  14.814  1.00  0.00    -0.390 OA
ATOM     32  H5  UNL     1      16.790  11.902  14.131  1.00  0.00     0.210 HD
ENDBRANCH  24  31
BRANCH  25  33
HETATM   33  O6  UNL     1      20.199  10.944  12.851  1.00  0.00    -0.391 OA
ATOM     34  H6  UNL     1      20.668  11.446  12.195  1.00  0.00     0.210 HD
ENDBRANCH  25  33
ENDBRANCH  18  20
ENDBRANCH   1  18
TORSDOF 13
ENDMDL
MODEL 5
REMARK VINA RESULT: -6.870834457      1.845      3.181
REMARK  13 active torsions:
REMARK  status: ('A' for Active; 'I' for Inactive)
REMARK    1  A    between atoms: C2_2  and  C3_3 
REMARK    2  A    between atoms: C3_3  and  N1_4 
REMARK    3  A    between atoms: N1_4  and  C4_5 
REMARK       I    between atoms: N1_4  and  C7_8 
REMARK    4  A    between atoms: C4_5  and  C5_6 
REMARK    5  A    between atoms: C7_8  and  C8_10 
REMARK    6  A    between atoms: N2_13  and  C11_14 
REMARK    7  A    between atoms: C11_14  and  N3_16 
REMARK    8  A    between atoms: N3_16  and  C12_18 
REMARK    9  A    between atoms: C13_19  and  O2_20 
REMARK   10  A    between atoms: C15_23  and  C16_24 
REMARK   11  A    between atoms: C16_24  and  O4_25 
REMARK   12  A    between atoms: C17_27  and  O5_28 
REMARK   13  A    between atoms: C18_30  and  O6_31 
ROOT
HETATM    1  C11 UNL     1      18.117  14.794  14.866  1.00  0.00     0.170 C 
HETATM    2  S1  UNL     1      16.525  15.283  15.223  1.00  0.00    -0.041 SA
ENDROOT
BRANCH   1   3
HETATM    3  N2  UNL     1      18.578  15.265  13.639  1.00  0.00    -0.358 N 
HETATM    4  C10 UNL     1      19.499  16.402  13.609  1.00  0.00     0.126 C 
HETATM    5  C9  UNL     1      20.734  16.113  12.784  1.00  0.00     0.034 C 
HETATM    6  C8  UNL     1      20.367  15.646  11.392  1.00  0.00     0.081 C 
HETATM    7  C20 UNL     1      18.890  15.493  11.219  1.00  0.00     0.034 C 
HETATM    8  C19 UNL     1      18.257  14.707  12.367  1.00  0.00     0.126 C 
BRANCH   6   9
HETATM    9  C7  UNL     1      20.869  16.623  10.409  1.00  0.00     0.224 C 
HETATM   10  N1  UNL     1      22.065  16.472   9.644  1.00  0.00    -0.352 N 
HETATM   11  O1  UNL     1      20.171  17.674  10.244  1.00  0.00    -0.273 OA
BRANCH  10  12
HETATM   12  C3  UNL     1      22.927  15.341   9.719  1.00  0.00     0.125 C 
BRANCH  12  13
HETATM   13  C2  UNL     1      24.010  15.442  10.771  1.00  0.00     0.015 C 
HETATM   14  C1  UNL     1      23.872  14.481  11.901  1.00  0.00     0.006 C 
ENDBRANCH  12  13
ENDBRANCH  10  12
BRANCH  10  15
HETATM   15  C4  UNL     1      22.430  17.556   8.720  1.00  0.00     0.125 C 
BRANCH  15  16
HETATM   16  C5  UNL     1      22.955  17.064   7.415  1.00  0.00     0.015 C 
HETATM   17  C6  UNL     1      22.553  17.864   6.225  1.00  0.00     0.006 C 
ENDBRANCH  15  16
ENDBRANCH  10  15
ENDBRANCH   6   9
ENDBRANCH   1   3
BRANCH   1  18
HETATM   18  N3  UNL     1      18.744  13.993  15.829  1.00  0.00    -0.355 N 
ATOM     19  H3  UNL     1      18.221  13.864  16.695  1.00  0.00     0.162 HD
BRANCH  18  20
HETATM   20  C12 UNL     1      20.010  13.332  15.777  1.00  0.00     0.170 C 
HETATM   21  C13 UNL     1      20.252  12.515  17.052  1.00  0.00     0.284 C 
HETATM   22  O3  UNL     1      19.039  11.919  17.383  1.00  0.00    -0.349 OA
HETATM   23  C15 UNL     1      18.936  10.786  16.559  1.00  0.00     0.179 C 
HETATM   24  C17 UNL     1      18.953  11.139  15.110  1.00  0.00     0.180 C 
HETATM   25  C18 UNL     1      19.886  12.218  14.703  1.00  0.00     0.177 C 
BRANCH  21  26
HETATM   26  O2  UNL     1      21.142  11.500  16.723  1.00  0.00    -0.364 OA
HETATM   27  C14 UNL     1      22.294  11.554  17.522  1.00  0.00     0.204 C 
ENDBRANCH  21  26
BRANCH  23  28
HETATM   28  C16 UNL     1      17.605  10.136  16.875  1.00  0.00     0.198 C 
BRANCH  28  29
HETATM   29  O4  UNL     1      17.581   8.925  16.158  1.00  0.00    -0.398 OA
ATOM     30  H4  UNL     1      17.155   9.116  15.330  1.00  0.00     0.209 HD
ENDBRANCH  28  29
ENDBRANCH  23  28
BRANCH  24  31
HETATM   31  O5  UNL     1      17.624  11.403  14.735  1.00  0.00    -0.390 OA
ATOM     32  H5  UNL     1      17.085  11.270  15.506  1.00  0.00     0.210 HD
ENDBRANCH  24  31
BRANCH  25  33
HETATM   33  O6  UNL     1      21.151  11.775  14.380  1.00  0.00    -0.391 OA
ATOM     34  H6  UNL     1      21.293  10.932  14.796  1.00  0.00     0.210 HD
ENDBRANCH  25  33
ENDBRANCH  18  20
ENDBRANCH   1  18
TORSDOF 13
ENDMDL
