MODEL 1
REMARK VINA RESULT: -8.139618533      0.000      0.000
REMARK  9 active torsions:
REMARK  status: ('A' for Active; 'I' for Inactive)
REMARK    1  A    between atoms: C5_9  and  C6_10 
REMARK       I    between atoms: C6_10  and  N3_12 
REMARK    2  A    between atoms: N3_12  and  C7_14 
REMARK    3  A    between atoms: C7_14  and  C8_15 
REMARK    4  A    between atoms: C7_14  and  C15_22 
REMARK    5  A    between atoms: C8_15  and  C9_16 
REMARK    6  A    between atoms: C15_22  and  O2_23 
REMARK    7  A    between atoms: C15_22  and  C16_25 
REMARK    8  A    between atoms: C16_25  and  C17_26 
REMARK       I    between atoms: C17_26  and  N4_28 
REMARK    9  A    between atoms: C21_32  and  C22_33 
ROOT
HETATM    1  C7  UNL     1      18.914  15.496  11.664  1.00  0.00     0.019 C 
ENDROOT
BRANCH   1   2
HETATM    2  N3  UNL     1      18.392  16.546  10.881  1.00  0.00    -0.330 N 
HETATM    3  C6  UNL     1      18.569  17.941  11.005  1.00  0.00     0.257 C 
HETATM    4  O1  UNL     1      19.282  18.461  11.885  1.00  0.00    -0.271 OA
ATOM      5  H3  UNL     1      17.795  16.253  10.107  1.00  0.00     0.168 HD
BRANCH   3   6
HETATM    6  C5  UNL     1      17.896  18.878  10.067  1.00  0.00     0.339 C 
HETATM    7  N1  UNL     1      17.579  18.291   8.810  1.00  0.00     0.101 N 
HETATM    8  C1  UNL     1      18.550  18.812   7.835  1.00  0.00     0.311 C 
HETATM    9  C2  UNL     1      16.273  18.704   8.321  1.00  0.00     0.300 C 
HETATM   10  C3  UNL     1      15.973  20.146   8.663  1.00  0.00     0.262 C 
HETATM   11  N2  UNL     1      16.081  20.425  10.072  1.00  0.00    -0.071 N 
HETATM   12  C4  UNL     1      16.576  19.265  10.744  1.00  0.00     0.277 C 
ATOM     13  H22 UNL     1      16.647  21.253  10.261  1.00  0.00     0.277 HD
ATOM     14  H21 UNL     1      15.202  20.758  10.469  1.00  0.00     0.277 HD
ENDBRANCH   3   6
ENDBRANCH   1   2
BRANCH   1  15
HETATM   15  C8  UNL     1      20.175  14.824  11.161  1.00  0.00     0.060 C 
BRANCH  15  16
HETATM   16  C9  UNL     1      21.420  15.492  11.689  1.00  0.00    -0.009 C 
HETATM   17  C10 UNL     1      21.973  16.317  10.529  1.00  0.00     0.005 C 
HETATM   18  C11 UNL     1      22.802  15.484   9.587  1.00  0.00     0.000 C 
HETATM   19  C12 UNL     1      24.139  15.196  10.255  1.00  0.00     0.000 C 
HETATM   20  C13 UNL     1      23.842  15.091  11.735  1.00  0.00     0.000 C 
HETATM   21  C14 UNL     1      22.500  14.440  11.977  1.00  0.00     0.005 C 
ENDBRANCH  15  16
ENDBRANCH   1  15
BRANCH   1  22
HETATM   22  C15 UNL     1      17.972  14.479  12.186  1.00  0.00     0.172 C 
BRANCH  22  23
HETATM   23  O2  UNL     1      16.826  14.341  11.401  1.00  0.00    -0.389 OA
ATOM     24  H2  UNL     1      16.986  13.880  10.586  1.00  0.00     0.210 HD
ENDBRANCH  22  23
BRANCH  22  25
HETATM   25  C16 UNL     1      18.592  13.104  12.328  1.00  0.00     0.140 C 
BRANCH  25  26
HETATM   26  C17 UNL     1      18.543  12.717  13.779  1.00  0.00     0.223 C 
HETATM   27  O3  UNL     1      17.478  12.947  14.400  1.00  0.00    -0.273 OA
HETATM   28  N4  UNL     1      19.644  12.120  14.424  1.00  0.00    -0.337 N 
HETATM   29  C18 UNL     1      20.907  11.825  13.771  1.00  0.00     0.127 C 
HETATM   30  C21 UNL     1      19.693  11.717  15.804  1.00  0.00     0.188 C 
HETATM   31  C19 UNL     1      21.927  11.691  14.869  1.00  0.00     0.022 C 
HETATM   32  C20 UNL     1      21.161  11.716  16.188  1.00  0.00     0.038 C 
BRANCH  30  33
HETATM   33  C22 UNL     1      19.119  10.363  16.017  1.00  0.00     0.196 C 
HETATM   34  O4  UNL     1      19.868   9.487  16.503  1.00  0.00    -0.646 OA
HETATM   35  O5  UNL     1      17.808  10.030  15.706  1.00  0.00    -0.646 OA
ENDBRANCH  30  33
ENDBRANCH  25  26
ENDBRANCH  22  25
ENDBRANCH   1  22
TORSDOF 9
ENDMDL
MODEL 2
REMARK VINA RESULT: -8.098050819      3.126      8.280
REMARK  9 active torsions:
REMARK  status: ('A' for Active; 'I' for Inactive)
REMARK    1  A    between atoms: C5_9  and  C6_10 
REMARK       I    between atoms: C6_10  and  N3_12 
REMARK    2  A    between atoms: N3_12  and  C7_14 
REMARK    3  A    between atoms: C7_14  and  C8_15 
REMARK    4  A    between atoms: C7_14  and  C15_22 
REMARK    5  A    between atoms: C8_15  and  C9_16 
REMARK    6  A    between atoms: C15_22  and  O2_23 
REMARK    7  A    between atoms: C15_22  and  C16_25 
REMARK    8  A    between atoms: C16_25  and  C17_26 
REMARK       I    between atoms: C17_26  and  N4_28 
REMARK    9  A    between atoms: C21_32  and  C22_33 
ROOT
HETATM    1  C7  UNL     1      20.611  14.415  13.562  1.00  0.00     0.019 C 
ENDROOT
BRANCH   1   2
HETATM    2  N3  UNL     1      20.208  13.629  14.663  1.00  0.00    -0.330 N 
HETATM    3  C6  UNL     1      19.691  12.317  14.695  1.00  0.00     0.257 C 
HETATM    4  O1  UNL     1      19.526  11.624  13.672  1.00  0.00    -0.271 OA
ATOM      5  H3  UNL     1      20.307  14.078  15.573  1.00  0.00     0.168 HD
BRANCH   3   6
HETATM    6  C5  UNL     1      19.308  11.684  15.985  1.00  0.00     0.339 C 
HETATM    7  N1  UNL     1      17.961  11.227  16.013  1.00  0.00     0.101 N 
HETATM    8  C1  UNL     1      17.199  12.181  16.836  1.00  0.00     0.311 C 
HETATM    9  C2  UNL     1      17.827   9.941  16.680  1.00  0.00     0.300 C 
HETATM   10  C3  UNL     1      18.772   9.814  17.853  1.00  0.00     0.262 C 
HETATM   11  N2  UNL     1      20.149  10.042  17.497  1.00  0.00    -0.071 N 
HETATM   12  C4  UNL     1      20.217  10.458  16.131  1.00  0.00     0.277 C 
ATOM     13  H22 UNL     1      20.608  10.701  18.125  1.00  0.00     0.277 HD
ATOM     14  H21 UNL     1      20.737   9.230  17.685  1.00  0.00     0.277 HD
ENDBRANCH   3   6
ENDBRANCH   1   2
BRANCH   1  15
HETATM   15  C8  UNL     1      19.537  14.808  12.568  1.00  0.00     0.060 C 
BRANCH  15  16
HETATM   16  C9  UNL     1      19.034  16.210  12.805  1.00  0.00    -0.009 C 
HETATM   17  C10 UNL     1      17.915  16.427  11.790  1.00  0.00     0.005 C 
HETATM   18  C11 UNL     1      18.446  16.830  10.439  1.00  0.00     0.000 C 
HETATM   19  C12 UNL     1      18.900  18.280  10.517  1.00  0.00     0.000 C 
HETATM   20  C13 UNL     1      19.415  18.472  11.928  1.00  0.00     0.000 C 
HETATM   21  C14 UNL     1      20.117  17.229  12.425  1.00  0.00     0.005 C 
ENDBRANCH  15  16
ENDBRANCH   1  15
BRANCH   1  22
HETATM   22  C15 UNL     1      21.849  14.032  12.846  1.00  0.00     0.172 C 
BRANCH  22  23
HETATM   23  O2  UNL     1      22.247  12.719  13.104  1.00  0.00    -0.389 OA
ATOM     24  H2  UNL     1      22.388  12.548  14.029  1.00  0.00     0.210 HD
ENDBRANCH  22  23
BRANCH  22  25
HETATM   25  C16 UNL     1      21.744  14.186  11.342  1.00  0.00     0.140 C 
BRANCH  25  26
HETATM   26  C17 UNL     1      23.020  14.805  10.846  1.00  0.00     0.223 C 
HETATM   27  O3  UNL     1      24.091  14.405  11.361  1.00  0.00    -0.273 OA
HETATM   28  N4  UNL     1      23.022  15.794   9.844  1.00  0.00    -0.337 N 
HETATM   29  C18 UNL     1      21.824  16.305   9.202  1.00  0.00     0.127 C 
HETATM   30  C21 UNL     1      24.187  16.444   9.305  1.00  0.00     0.188 C 
HETATM   31  C19 UNL     1      22.197  17.638   8.613  1.00  0.00     0.022 C 
HETATM   32  C20 UNL     1      23.709  17.777   8.761  1.00  0.00     0.038 C 
BRANCH  30  33
HETATM   33  C22 UNL     1      24.821  15.656   8.216  1.00  0.00     0.196 C 
HETATM   34  O4  UNL     1      25.808  14.949   8.515  1.00  0.00    -0.646 OA
HETATM   35  O5  UNL     1      24.375  15.669   6.903  1.00  0.00    -0.646 OA
ENDBRANCH  30  33
ENDBRANCH  25  26
ENDBRANCH  22  25
ENDBRANCH   1  22
TORSDOF 9
ENDMDL
MODEL 3
REMARK VINA RESULT: -8.053756036      2.466      4.244
REMARK  9 active torsions:
REMARK  status: ('A' for Active; 'I' for Inactive)
REMARK    1  A    between atoms: C5_9  and  C6_10 
REMARK       I    between atoms: C6_10  and  N3_12 
REMARK    2  A    between atoms: N3_12  and  C7_14 
REMARK    3  A    between atoms: C7_14  and  C8_15 
REMARK    4  A    between atoms: C7_14  and  C15_22 
REMARK    5  A    between atoms: C8_15  and  C9_16 
REMARK    6  A    between atoms: C15_22  and  O2_23 
REMARK    7  A    between atoms: C15_22  and  C16_25 
REMARK    8  A    between atoms: C16_25  and  C17_26 
REMARK       I    between atoms: C17_26  and  N4_28 
REMARK    9  A    between atoms: C21_32  and  C22_33 
ROOT
HETATM    1  C7  UNL     1      18.444  18.547  10.612  1.00  0.00     0.019 C 
ENDROOT
BRANCH   1   2
HETATM    2  N3  UNL     1      17.281  19.327  10.435  1.00  0.00    -0.330 N 
HETATM    3  C6  UNL     1      15.930  18.930  10.362  1.00  0.00     0.257 C 
HETATM    4  O1  UNL     1      15.561  17.745  10.472  1.00  0.00    -0.271 OA
ATOM      5  H3  UNL     1      17.443  20.330  10.345  1.00  0.00     0.168 HD
BRANCH   3   6
HETATM    6  C5  UNL     1      14.854  19.934  10.146  1.00  0.00     0.339 C 
HETATM    7  N1  UNL     1      14.360  20.503  11.353  1.00  0.00     0.101 N 
HETATM    8  C1  UNL     1      13.043  19.895  11.608  1.00  0.00     0.311 C 
HETATM    9  C2  UNL     1      14.113  21.932  11.230  1.00  0.00     0.300 C 
HETATM   10  C3  UNL     1      13.584  22.296   9.863  1.00  0.00     0.262 C 
HETATM   11  N2  UNL     1      14.436  21.851   8.790  1.00  0.00    -0.071 N 
HETATM   12  C4  UNL     1      15.498  21.062   9.331  1.00  0.00     0.277 C 
ATOM     13  H22 UNL     1      13.918  21.357   8.063  1.00  0.00     0.277 HD
ATOM     14  H21 UNL     1      14.779  22.625   8.221  1.00  0.00     0.277 HD
ENDBRANCH   3   6
ENDBRANCH   1   2
BRANCH   1  15
HETATM   15  C8  UNL     1      18.984  17.830   9.393  1.00  0.00     0.060 C 
BRANCH  15  16
HETATM   16  C9  UNL     1      20.418  18.202   9.108  1.00  0.00    -0.009 C 
HETATM   17  C10 UNL     1      20.358  19.493   8.295  1.00  0.00     0.005 C 
HETATM   18  C11 UNL     1      20.119  19.231   6.832  1.00  0.00     0.000 C 
HETATM   19  C12 UNL     1      21.409  18.699   6.225  1.00  0.00     0.000 C 
HETATM   20  C13 UNL     1      22.075  17.895   7.321  1.00  0.00     0.000 C 
HETATM   21  C14 UNL     1      21.052  17.170   8.164  1.00  0.00     0.005 C 
ENDBRANCH  15  16
ENDBRANCH   1  15
BRANCH   1  22
HETATM   22  C15 UNL     1      18.516  17.660  11.796  1.00  0.00     0.172 C 
BRANCH  22  23
HETATM   23  O2  UNL     1      18.183  16.335  11.507  1.00  0.00    -0.389 OA
ATOM     24  H2  UNL     1      17.405  16.038  11.965  1.00  0.00     0.210 HD
ENDBRANCH  22  23
BRANCH  22  25
HETATM   25  C16 UNL     1      19.879  17.651  12.457  1.00  0.00     0.140 C 
BRANCH  25  26
HETATM   26  C17 UNL     1      20.072  16.312  13.111  1.00  0.00     0.223 C 
HETATM   27  O3  UNL     1      19.407  16.079  14.149  1.00  0.00    -0.273 OA
HETATM   28  N4  UNL     1      20.960  15.353  12.587  1.00  0.00    -0.337 N 
HETATM   29  C18 UNL     1      21.761  15.553  11.393  1.00  0.00     0.127 C 
HETATM   30  C21 UNL     1      21.212  14.049  13.140  1.00  0.00     0.188 C 
HETATM   31  C19 UNL     1      22.892  14.564  11.474  1.00  0.00     0.022 C 
HETATM   32  C20 UNL     1      22.594  13.649  12.658  1.00  0.00     0.038 C 
BRANCH  30  33
HETATM   33  C22 UNL     1      20.214  13.043  12.691  1.00  0.00     0.196 C 
HETATM   34  O4  UNL     1      20.354  11.869  13.099  1.00  0.00    -0.646 OA
HETATM   35  O5  UNL     1      19.150  13.342  11.853  1.00  0.00    -0.646 OA
ENDBRANCH  30  33
ENDBRANCH  25  26
ENDBRANCH  22  25
ENDBRANCH   1  22
TORSDOF 9
ENDMDL
MODEL 4
REMARK VINA RESULT: -8.038223681      3.243      8.143
REMARK  9 active torsions:
REMARK  status: ('A' for Active; 'I' for Inactive)
REMARK    1  A    between atoms: C5_9  and  C6_10 
REMARK       I    between atoms: C6_10  and  N3_12 
REMARK    2  A    between atoms: N3_12  and  C7_14 
REMARK    3  A    between atoms: C7_14  and  C8_15 
REMARK    4  A    between atoms: C7_14  and  C15_22 
REMARK    5  A    between atoms: C8_15  and  C9_16 
REMARK    6  A    between atoms: C15_22  and  O2_23 
REMARK    7  A    between atoms: C15_22  and  C16_25 
REMARK    8  A    between atoms: C16_25  and  C17_26 
REMARK       I    between atoms: C17_26  and  N4_28 
REMARK    9  A    between atoms: C21_32  and  C22_33 
ROOT
HETATM    1  C7  UNL     1      18.293  15.881  12.097  1.00  0.00     0.019 C 
ENDROOT
BRANCH   1   2
HETATM    2  N3  UNL     1      18.939  14.803  12.739  1.00  0.00    -0.330 N 
HETATM    3  C6  UNL     1      19.785  14.800  13.867  1.00  0.00     0.257 C 
HETATM    4  O1  UNL     1      20.080  15.831  14.501  1.00  0.00    -0.271 OA
ATOM      5  H3  UNL     1      18.767  13.887  12.323  1.00  0.00     0.168 HD
BRANCH   3   6
HETATM    6  C5  UNL     1      20.381  13.531  14.365  1.00  0.00     0.339 C 
HETATM    7  N1  UNL     1      19.513  12.795  15.220  1.00  0.00     0.101 N 
HETATM    8  C1  UNL     1      20.007  12.976  16.595  1.00  0.00     0.311 C 
HETATM    9  C2  UNL     1      19.573  11.364  14.968  1.00  0.00     0.300 C 
HETATM   10  C3  UNL     1      20.971  10.911  14.616  1.00  0.00     0.262 C 
HETATM   11  N2  UNL     1      21.533  11.630  13.502  1.00  0.00    -0.071 N 
HETATM   12  C4  UNL     1      20.638  12.677  13.119  1.00  0.00     0.277 C 
ATOM     13  H22 UNL     1      22.473  11.976  13.698  1.00  0.00     0.277 HD
ATOM     14  H21 UNL     1      21.767  11.015  12.722  1.00  0.00     0.277 HD
ENDBRANCH   3   6
ENDBRANCH   1   2
BRANCH   1  15
HETATM   15  C8  UNL     1      16.890  15.634  11.583  1.00  0.00     0.060 C 
BRANCH  15  16
HETATM   16  C9  UNL     1      15.857  15.764  12.675  1.00  0.00    -0.009 C 
HETATM   17  C10 UNL     1      15.342  14.350  12.929  1.00  0.00     0.005 C 
HETATM   18  C11 UNL     1      14.273  13.951  11.946  1.00  0.00     0.000 C 
HETATM   19  C12 UNL     1      12.988  14.678  12.315  1.00  0.00     0.000 C 
HETATM   20  C13 UNL     1      13.423  16.013  12.881  1.00  0.00     0.000 C 
HETATM   21  C14 UNL     1      14.639  16.542  12.158  1.00  0.00     0.005 C 
ENDBRANCH  15  16
ENDBRANCH   1  15
BRANCH   1  22
HETATM   22  C15 UNL     1      19.064  16.669  11.108  1.00  0.00     0.172 C 
BRANCH  22  23
HETATM   23  O2  UNL     1      20.037  17.482  11.695  1.00  0.00    -0.389 OA
ATOM     24  H2  UNL     1      20.887  17.061  11.755  1.00  0.00     0.210 HD
ENDBRANCH  22  23
BRANCH  22  25
HETATM   25  C16 UNL     1      19.757  15.813  10.068  1.00  0.00     0.140 C 
BRANCH  25  26
HETATM   26  C17 UNL     1      21.241  15.977  10.243  1.00  0.00     0.223 C 
HETATM   27  O3  UNL     1      21.755  15.491  11.278  1.00  0.00    -0.273 OA
HETATM   28  N4  UNL     1      22.029  16.647   9.287  1.00  0.00    -0.337 N 
HETATM   29  C18 UNL     1      21.505  17.234   8.067  1.00  0.00     0.127 C 
HETATM   30  C21 UNL     1      23.450  16.854   9.364  1.00  0.00     0.188 C 
HETATM   31  C19 UNL     1      22.520  18.248   7.616  1.00  0.00     0.022 C 
HETATM   32  C20 UNL     1      23.744  18.074   8.511  1.00  0.00     0.038 C 
BRANCH  30  33
HETATM   33  C22 UNL     1      24.220  15.689   8.854  1.00  0.00     0.196 C 
HETATM   34  O4  UNL     1      24.629  14.855   9.692  1.00  0.00    -0.646 OA
HETATM   35  O5  UNL     1      24.501  15.487   7.510  1.00  0.00    -0.646 OA
ENDBRANCH  30  33
ENDBRANCH  25  26
ENDBRANCH  22  25
ENDBRANCH   1  22
TORSDOF 9
ENDMDL
MODEL 5
REMARK VINA RESULT: -7.855136889      3.028      8.475
REMARK  9 active torsions:
REMARK  status: ('A' for Active; 'I' for Inactive)
REMARK    1  A    between atoms: C5_9  and  C6_10 
REMARK       I    between atoms: C6_10  and  N3_12 
REMARK    2  A    between atoms: N3_12  and  C7_14 
REMARK    3  A    between atoms: C7_14  and  C8_15 
REMARK    4  A    between atoms: C7_14  and  C15_22 
REMARK    5  A    between atoms: C8_15  and  C9_16 
REMARK    6  A    between atoms: C15_22  and  O2_23 
REMARK    7  A    between atoms: C15_22  and  C16_25 
REMARK    8  A    between atoms: C16_25  and  C17_26 
REMARK       I    between atoms: C17_26  and  N4_28 
REMARK    9  A    between atoms: C21_32  and  C22_33 
ROOT
HETATM    1  C7  UNL     1      18.590  14.650  12.525  1.00  0.00     0.019 C 
ENDROOT
BRANCH   1   2
HETATM    2  N3  UNL     1      18.772  14.061  13.794  1.00  0.00    -0.330 N 
HETATM    3  C6  UNL     1      18.885  12.701  14.151  1.00  0.00     0.257 C 
HETATM    4  O1  UNL     1      18.852  11.774  13.320  1.00  0.00    -0.271 OA
ATOM      5  H3  UNL     1      18.830  14.720  14.572  1.00  0.00     0.168 HD
BRANCH   3   6
HETATM    6  C5  UNL     1      19.052  12.302  15.574  1.00  0.00     0.339 C 
HETATM    7  N1  UNL     1      19.278  10.908  15.748  1.00  0.00     0.101 N 
HETATM    8  C1  UNL     1      18.024  10.328  16.259  1.00  0.00     0.311 C 
HETATM    9  C2  UNL     1      20.280  10.633  16.766  1.00  0.00     0.300 C 
HETATM   10  C3  UNL     1      20.196  11.610  17.916  1.00  0.00     0.262 C 
HETATM   11  N2  UNL     1      20.287  12.985  17.496  1.00  0.00    -0.071 N 
HETATM   12  C4  UNL     1      20.302  13.039  16.068  1.00  0.00     0.277 C 
ATOM     13  H22 UNL     1      19.549  13.562  17.898  1.00  0.00     0.277 HD
ATOM     14  H21 UNL     1      21.086  13.464  17.911  1.00  0.00     0.277 HD
ENDBRANCH   3   6
ENDBRANCH   1   2
BRANCH   1  15
HETATM   15  C8  UNL     1      17.203  14.574  11.923  1.00  0.00     0.060 C 
BRANCH  15  16
HETATM   16  C9  UNL     1      16.184  15.311  12.757  1.00  0.00    -0.009 C 
HETATM   17  C10 UNL     1      15.139  14.271  13.153  1.00  0.00     0.005 C 
HETATM   18  C11 UNL     1      14.117  14.054  12.069  1.00  0.00     0.000 C 
HETATM   19  C12 UNL     1      13.178  15.252  12.051  1.00  0.00     0.000 C 
HETATM   20  C13 UNL     1      14.026  16.442  12.446  1.00  0.00     0.000 C 
HETATM   21  C14 UNL     1      15.425  16.323  11.888  1.00  0.00     0.005 C 
ENDBRANCH  15  16
ENDBRANCH   1  15
BRANCH   1  22
HETATM   22  C15 UNL     1      19.610  14.391  11.482  1.00  0.00     0.172 C 
BRANCH  22  23
HETATM   23  O2  UNL     1      19.283  13.316  10.653  1.00  0.00    -0.389 OA
ATOM     24  H2  UNL     1      19.212  13.561   9.737  1.00  0.00     0.210 HD
ENDBRANCH  22  23
BRANCH  22  25
HETATM   25  C16 UNL     1      19.873  15.587  10.591  1.00  0.00     0.140 C 
BRANCH  25  26
HETATM   26  C17 UNL     1      21.353  15.852  10.591  1.00  0.00     0.223 C 
HETATM   27  O3  UNL     1      22.009  15.444  11.578  1.00  0.00    -0.273 OA
HETATM   28  N4  UNL     1      21.983  16.530   9.529  1.00  0.00    -0.337 N 
HETATM   29  C18 UNL     1      21.288  17.030   8.356  1.00  0.00     0.127 C 
HETATM   30  C21 UNL     1      23.387  16.831   9.438  1.00  0.00     0.188 C 
HETATM   31  C19 UNL     1      22.176  18.088   7.759  1.00  0.00     0.022 C 
HETATM   32  C20 UNL     1      23.500  18.030   8.516  1.00  0.00     0.038 C 
BRANCH  30  33
HETATM   33  C22 UNL     1      24.172  15.696   8.886  1.00  0.00     0.196 C 
HETATM   34  O4  UNL     1      24.646  14.872   9.698  1.00  0.00    -0.646 OA
HETATM   35  O5  UNL     1      24.402  15.514   7.530  1.00  0.00    -0.646 OA
ENDBRANCH  30  33
ENDBRANCH  25  26
ENDBRANCH  22  25
ENDBRANCH   1  22
TORSDOF 9
ENDMDL
