MODEL 1
REMARK VINA RESULT: -7.730635256      0.000      0.000
REMARK  11 active torsions:
REMARK  status: ('A' for Active; 'I' for Inactive)
REMARK    1  A    between atoms: C3_3  and  C4_4 
REMARK    2  A    between atoms: C4_4  and  C5_5 
REMARK    3  A    between atoms: C5_5  and  N1_6 
REMARK    4  A    between atoms: N1_6  and  C6_8 
REMARK    5  A    between atoms: N3_14  and  C9_15 
REMARK    6  A    between atoms: C9_15  and  C10_16 
REMARK    7  A    between atoms: C10_16  and  N4_17 
REMARK    8  A    between atoms: C15_23  and  N5_24 
REMARK    9  A    between atoms: C17_32  and  N8_33 
REMARK   10  A    between atoms: N8_33  and  C18_35 
REMARK   11  A    between atoms: C18_35  and  C19_36 
ROOT
HETATM    1  C1  UNL     1      19.848  19.678   6.357  1.00  0.00     0.012 C 
HETATM    2  C2  UNL     1      20.136  19.192   7.433  1.00  0.00    -0.117 C 
HETATM    3  C3  UNL     1      20.457  18.612   8.731  1.00  0.00     0.104 C 
ENDROOT
BRANCH   3   4
HETATM    4  C4  UNL     1      19.272  17.921   9.354  1.00  0.00    -0.014 A 
HETATM    5  C21 UNL     1      17.888  18.251   9.011  1.00  0.00     0.013 A 
HETATM    6  C22 UNL     1      18.460  18.581  10.397  1.00  0.00     0.013 A 
BRANCH   4   7
HETATM    7  C5  UNL     1      19.546  16.416   9.624  1.00  0.00     0.131 C 
BRANCH   7   8
HETATM    8  N1  UNL     1      20.769  16.326  10.323  1.00  0.00    -0.372 N 
ATOM      9  H1  UNL     1      21.427  17.094  10.192  1.00  0.00     0.161 HD
BRANCH   8  10
HETATM   10  C6  UNL     1      21.133  15.396  11.092  1.00  0.00     0.146 A 
HETATM   11  N2  UNL     1      20.140  14.668  11.722  1.00  0.00    -0.332 N 
HETATM   12  C7  UNL     1      20.396  13.662  12.556  1.00  0.00     0.148 A 
ATOM     13  H2  UNL     1      19.167  14.913  11.539  1.00  0.00     0.168 HD
HETATM   14  C8  UNL     1      19.377  12.941  13.181  1.00  0.00     0.292 A 
HETATM   15  C16 UNL     1      21.686  13.281  12.846  1.00  0.00     0.155 A 
HETATM   16  O1  UNL     1      18.200  13.273  12.929  1.00  0.00    -0.265 OA
HETATM   17  N3  UNL     1      19.637  11.927  14.021  1.00  0.00    -0.144 N 
HETATM   18  C15 UNL     1      20.906  11.589  14.275  1.00  0.00     0.682 A 
HETATM   19  N6  UNL     1      21.946  12.259  13.693  1.00  0.00    -0.174 N 
ATOM     20  H6  UNL     1      22.910  11.991  13.895  1.00  0.00     0.186 HD
HETATM   21  N7  UNL     1      22.661  13.975  12.244  1.00  0.00    -0.323 N 
HETATM   22  C17 UNL     1      22.419  15.009  11.386  1.00  0.00     0.147 A 
ATOM     23  H7  UNL     1      23.629  13.719  12.437  1.00  0.00     0.169 HD
BRANCH  17  24
HETATM   24  C9  UNL     1      18.576  11.183  14.664  1.00  0.00     0.181 C 
BRANCH  24  25
HETATM   25  C10 UNL     1      18.047  11.844  15.887  1.00  0.00     0.293 C 
BRANCH  25  26
HETATM   26  N4  UNL     1      17.471  10.863  16.774  1.00  0.00     0.094 N 
HETATM   27  C11 UNL     1      18.004   9.531  16.511  1.00  0.00     0.298 C 
HETATM   28  C12 UNL     1      19.024   9.139  17.570  1.00  0.00     0.198 C 
HETATM   29  O2  UNL     1      19.818  10.237  17.848  1.00  0.00    -0.388 OA
HETATM   30  C13 UNL     1      19.054  11.119  18.627  1.00  0.00     0.198 C 
HETATM   31  C14 UNL     1      17.612  11.137  18.169  1.00  0.00     0.298 C 
ENDBRANCH  25  26
ENDBRANCH  24  25
ENDBRANCH  17  24
BRANCH  18  32
HETATM   32  N5  UNL     1      21.121  10.612  15.086  1.00  0.00    -0.234 N 
ATOM     33  H52 UNL     1      21.711   9.826  14.814  1.00  0.00     0.174 HD
ATOM     34  H51 UNL     1      20.685  10.649  16.008  1.00  0.00     0.174 HD
ENDBRANCH  18  32
BRANCH  22  35
HETATM   35  N8  UNL     1      23.394  15.641  10.836  1.00  0.00    -0.373 N 
ATOM     36  H8  UNL     1      23.650  16.540  11.243  1.00  0.00     0.161 HD
BRANCH  35  37
HETATM   37  C18 UNL     1      24.157  15.197   9.703  1.00  0.00     0.121 C 
BRANCH  37  38
HETATM   38  C19 UNL     1      23.983  16.139   8.517  1.00  0.00     0.015 C 
HETATM   39  C20 UNL     1      23.933  17.563   9.033  1.00  0.00     0.006 C 
ENDBRANCH  37  38
ENDBRANCH  35  37
ENDBRANCH  22  35
ENDBRANCH   8  10
ENDBRANCH   7   8
ENDBRANCH   4   7
ENDBRANCH   3   4
TORSDOF 11
ENDMDL
MODEL 2
REMARK VINA RESULT: -7.644890006      4.333      8.708
REMARK  11 active torsions:
REMARK  status: ('A' for Active; 'I' for Inactive)
REMARK    1  A    between atoms: C3_3  and  C4_4 
REMARK    2  A    between atoms: C4_4  and  C5_5 
REMARK    3  A    between atoms: C5_5  and  N1_6 
REMARK    4  A    between atoms: N1_6  and  C6_8 
REMARK    5  A    between atoms: N3_14  and  C9_15 
REMARK    6  A    between atoms: C9_15  and  C10_16 
REMARK    7  A    between atoms: C10_16  and  N4_17 
REMARK    8  A    between atoms: C15_23  and  N5_24 
REMARK    9  A    between atoms: C17_32  and  N8_33 
REMARK   10  A    between atoms: N8_33  and  C18_35 
REMARK   11  A    between atoms: C18_35  and  C19_36 
ROOT
HETATM    1  C1  UNL     1      24.098  14.442  11.958  1.00  0.00     0.012 C 
HETATM    2  C2  UNL     1      22.982  14.075  12.268  1.00  0.00    -0.117 C 
HETATM    3  C3  UNL     1      21.637  13.658  12.644  1.00  0.00     0.104 C 
ENDROOT
BRANCH   3   4
HETATM    4  C4  UNL     1      20.620  14.747  12.421  1.00  0.00    -0.014 A 
HETATM    5  C21 UNL     1      20.805  16.118  12.898  1.00  0.00     0.013 A 
HETATM    6  C22 UNL     1      19.734  15.205  13.511  1.00  0.00     0.013 A 
BRANCH   4   7
HETATM    7  C5  UNL     1      19.912  14.615  11.045  1.00  0.00     0.131 C 
BRANCH   7   8
HETATM    8  N1  UNL     1      20.486  15.571  10.179  1.00  0.00    -0.372 N 
ATOM      9  H1  UNL     1      21.488  15.490  10.009  1.00  0.00     0.161 HD
BRANCH   8  10
HETATM   10  C6  UNL     1      19.889  16.515   9.594  1.00  0.00     0.146 A 
HETATM   11  N2  UNL     1      18.619  16.836  10.040  1.00  0.00    -0.332 N 
HETATM   12  C7  UNL     1      17.888  17.812   9.505  1.00  0.00     0.148 A 
ATOM     13  H2  UNL     1      18.226  16.302  10.814  1.00  0.00     0.168 HD
HETATM   14  C8  UNL     1      16.609  18.118   9.971  1.00  0.00     0.292 A 
HETATM   15  C16 UNL     1      18.359  18.571   8.459  1.00  0.00     0.155 A 
HETATM   16  O1  UNL     1      16.165  17.439  10.920  1.00  0.00    -0.265 OA
HETATM   17  N3  UNL     1      15.873  19.102   9.431  1.00  0.00    -0.144 N 
HETATM   18  C15 UNL     1      16.369  19.817   8.415  1.00  0.00     0.682 A 
HETATM   19  N6  UNL     1      17.617  19.562   7.915  1.00  0.00    -0.174 N 
ATOM     20  H6  UNL     1      17.984  20.115   7.140  1.00  0.00     0.186 HD
HETATM   21  N7  UNL     1      19.587  18.274   8.014  1.00  0.00    -0.323 N 
HETATM   22  C17 UNL     1      20.353  17.278   8.549  1.00  0.00     0.147 A 
ATOM     23  H7  UNL     1      19.968  18.817   7.240  1.00  0.00     0.169 HD
BRANCH  17  24
HETATM   24  C9  UNL     1      14.548  19.415   9.920  1.00  0.00     0.181 C 
BRANCH  24  25
HETATM   25  C10 UNL     1      14.545  20.009  11.283  1.00  0.00     0.293 C 
BRANCH  25  26
HETATM   26  N4  UNL     1      14.358  21.437  11.205  1.00  0.00     0.094 N 
HETATM   27  C11 UNL     1      13.357  21.788  10.204  1.00  0.00     0.298 C 
HETATM   28  C12 UNL     1      12.041  22.168  10.868  1.00  0.00     0.198 C 
HETATM   29  O2  UNL     1      11.803  21.292  11.911  1.00  0.00    -0.388 OA
HETATM   30  C13 UNL     1      12.662  21.648  12.961  1.00  0.00     0.198 C 
HETATM   31  C14 UNL     1      14.013  22.080  12.433  1.00  0.00     0.298 C 
ENDBRANCH  25  26
ENDBRANCH  24  25
ENDBRANCH  17  24
BRANCH  18  32
HETATM   32  N5  UNL     1      15.637  20.753   7.918  1.00  0.00    -0.234 N 
ATOM     33  H52 UNL     1      16.045  21.478   7.328  1.00  0.00     0.174 HD
ATOM     34  H51 UNL     1      14.640  20.746   8.132  1.00  0.00     0.174 HD
ENDBRANCH  18  32
BRANCH  22  35
HETATM   35  N8  UNL     1      21.526  17.037   8.083  1.00  0.00    -0.373 N 
ATOM     36  H8  UNL     1      21.632  16.202   7.506  1.00  0.00     0.161 HD
BRANCH  35  37
HETATM   37  C18 UNL     1      22.702  17.833   8.297  1.00  0.00     0.121 C 
BRANCH  37  38
HETATM   38  C19 UNL     1      23.693  17.122   9.213  1.00  0.00     0.015 C 
HETATM   39  C20 UNL     1      24.238  15.909   8.486  1.00  0.00     0.006 C 
ENDBRANCH  37  38
ENDBRANCH  35  37
ENDBRANCH  22  35
ENDBRANCH   8  10
ENDBRANCH   7   8
ENDBRANCH   4   7
ENDBRANCH   3   4
TORSDOF 11
ENDMDL
MODEL 3
REMARK VINA RESULT: -7.570991122      4.399      8.479
REMARK  11 active torsions:
REMARK  status: ('A' for Active; 'I' for Inactive)
REMARK    1  A    between atoms: C3_3  and  C4_4 
REMARK    2  A    between atoms: C4_4  and  C5_5 
REMARK    3  A    between atoms: C5_5  and  N1_6 
REMARK    4  A    between atoms: N1_6  and  C6_8 
REMARK    5  A    between atoms: N3_14  and  C9_15 
REMARK    6  A    between atoms: C9_15  and  C10_16 
REMARK    7  A    between atoms: C10_16  and  N4_17 
REMARK    8  A    between atoms: C15_23  and  N5_24 
REMARK    9  A    between atoms: C17_32  and  N8_33 
REMARK   10  A    between atoms: N8_33  and  C18_35 
REMARK   11  A    between atoms: C18_35  and  C19_36 
ROOT
HETATM    1  C1  UNL     1      19.937  17.787  13.003  1.00  0.00     0.012 C 
HETATM    2  C2  UNL     1      20.248  16.631  13.206  1.00  0.00    -0.117 C 
HETATM    3  C3  UNL     1      20.622  15.239  13.426  1.00  0.00     0.104 C 
ENDROOT
BRANCH   3   4
HETATM    4  C4  UNL     1      21.391  14.666  12.264  1.00  0.00    -0.014 A 
HETATM    5  C21 UNL     1      22.432  13.650  12.422  1.00  0.00     0.013 A 
HETATM    6  C22 UNL     1      22.783  15.080  11.987  1.00  0.00     0.013 A 
BRANCH   4   7
HETATM    7  C5  UNL     1      20.511  14.520  10.993  1.00  0.00     0.131 C 
BRANCH   7   8
HETATM    8  N1  UNL     1      20.988  15.443  10.037  1.00  0.00    -0.372 N 
ATOM      9  H1  UNL     1      21.966  15.353   9.765  1.00  0.00     0.161 HD
BRANCH   8  10
HETATM   10  C6  UNL     1      20.330  16.366   9.486  1.00  0.00     0.146 A 
HETATM   11  N2  UNL     1      19.020  16.545   9.895  1.00  0.00    -0.332 N 
HETATM   12  C7  UNL     1      18.224  17.485   9.389  1.00  0.00     0.148 A 
ATOM     13  H2  UNL     1      18.648  15.928  10.616  1.00  0.00     0.168 HD
HETATM   14  C8  UNL     1      16.906  17.646   9.817  1.00  0.00     0.292 A 
HETATM   15  C16 UNL     1      18.664  18.349   8.413  1.00  0.00     0.155 A 
HETATM   16  O1  UNL     1      16.489  16.870  10.702  1.00  0.00    -0.265 OA
HETATM   17  N3  UNL     1      16.105  18.594   9.306  1.00  0.00    -0.144 N 
HETATM   18  C15 UNL     1      16.573  19.415   8.359  1.00  0.00     0.682 A 
HETATM   19  N6  UNL     1      17.856  19.304   7.900  1.00  0.00    -0.174 N 
ATOM     20  H6  UNL     1      18.201  19.936   7.177  1.00  0.00     0.186 HD
HETATM   21  N7  UNL     1      19.930  18.191   8.005  1.00  0.00    -0.323 N 
HETATM   22  C17 UNL     1      20.762  17.234   8.511  1.00  0.00     0.147 A 
ATOM     23  H7  UNL     1      20.289  18.815   7.283  1.00  0.00     0.169 HD
BRANCH  17  24
HETATM   24  C9  UNL     1      14.739  18.757   9.755  1.00  0.00     0.181 C 
BRANCH  24  25
HETATM   25  C10 UNL     1      14.609  19.635  10.948  1.00  0.00     0.293 C 
BRANCH  25  26
HETATM   26  N4  UNL     1      13.340  20.322  10.925  1.00  0.00     0.094 N 
HETATM   27  C11 UNL     1      12.875  20.621  12.275  1.00  0.00     0.298 C 
HETATM   28  C12 UNL     1      13.085  22.091  12.605  1.00  0.00     0.198 C 
HETATM   29  O2  UNL     1      14.321  22.481  12.121  1.00  0.00    -0.388 OA
HETATM   30  C13 UNL     1      14.204  22.607  10.729  1.00  0.00     0.198 C 
HETATM   31  C14 UNL     1      13.308  21.528  10.161  1.00  0.00     0.298 C 
ENDBRANCH  25  26
ENDBRANCH  24  25
ENDBRANCH  17  24
BRANCH  18  32
HETATM   32  N5  UNL     1      15.778  20.313   7.889  1.00  0.00    -0.234 N 
ATOM     33  H52 UNL     1      14.910  20.050   7.423  1.00  0.00     0.174 HD
ATOM     34  H51 UNL     1      16.042  21.291   7.999  1.00  0.00     0.174 HD
ENDBRANCH  18  32
BRANCH  22  35
HETATM   35  N8  UNL     1      21.970  17.128   8.082  1.00  0.00    -0.373 N 
ATOM     36  H8  UNL     1      22.168  16.357   7.445  1.00  0.00     0.161 HD
BRANCH  35  37
HETATM   37  C18 UNL     1      23.065  17.994   8.417  1.00  0.00     0.121 C 
BRANCH  37  38
HETATM   38  C19 UNL     1      24.106  17.269   9.262  1.00  0.00     0.015 C 
HETATM   39  C20 UNL     1      24.287  15.869   8.711  1.00  0.00     0.006 C 
ENDBRANCH  37  38
ENDBRANCH  35  37
ENDBRANCH  22  35
ENDBRANCH   8  10
ENDBRANCH   7   8
ENDBRANCH   4   7
ENDBRANCH   3   4
TORSDOF 11
ENDMDL
MODEL 4
REMARK VINA RESULT: -7.529315529      1.358      1.623
REMARK  11 active torsions:
REMARK  status: ('A' for Active; 'I' for Inactive)
REMARK    1  A    between atoms: C3_3  and  C4_4 
REMARK    2  A    between atoms: C4_4  and  C5_5 
REMARK    3  A    between atoms: C5_5  and  N1_6 
REMARK    4  A    between atoms: N1_6  and  C6_8 
REMARK    5  A    between atoms: N3_14  and  C9_15 
REMARK    6  A    between atoms: C9_15  and  C10_16 
REMARK    7  A    between atoms: C10_16  and  N4_17 
REMARK    8  A    between atoms: C15_23  and  N5_24 
REMARK    9  A    between atoms: C17_32  and  N8_33 
REMARK   10  A    between atoms: N8_33  and  C18_35 
REMARK   11  A    between atoms: C18_35  and  C19_36 
ROOT
HETATM    1  C1  UNL     1      19.673  19.655   6.356  1.00  0.00     0.012 C 
HETATM    2  C2  UNL     1      19.880  19.435   7.533  1.00  0.00    -0.117 C 
HETATM    3  C3  UNL     1      20.104  19.173   8.949  1.00  0.00     0.104 C 
ENDROOT
BRANCH   3   4
HETATM    4  C4  UNL     1      18.918  18.507   9.599  1.00  0.00    -0.014 A 
HETATM    5  C21 UNL     1      18.078  17.528   8.908  1.00  0.00     0.013 A 
HETATM    6  C22 UNL     1      17.536  18.917   9.275  1.00  0.00     0.013 A 
BRANCH   4   7
HETATM    7  C5  UNL     1      19.157  18.227  11.107  1.00  0.00     0.131 C 
BRANCH   7   8
HETATM    8  N1  UNL     1      20.448  17.670  11.236  1.00  0.00    -0.372 N 
ATOM      9  H1  UNL     1      21.232  18.320  11.182  1.00  0.00     0.161 HD
BRANCH   8  10
HETATM   10  C6  UNL     1      20.732  16.454  11.412  1.00  0.00     0.146 A 
HETATM   11  N2  UNL     1      20.390  15.891  12.628  1.00  0.00    -0.332 N 
HETATM   12  C7  UNL     1      20.637  14.619  12.933  1.00  0.00     0.148 A 
ATOM     13  H2  UNL     1      19.929  16.478  13.323  1.00  0.00     0.168 HD
HETATM   14  C8  UNL     1      20.283  14.072  14.167  1.00  0.00     0.292 A 
HETATM   15  C16 UNL     1      21.257  13.774  12.041  1.00  0.00     0.155 A 
HETATM   16  O1  UNL     1      19.720  14.824  14.989  1.00  0.00    -0.265 OA
HETATM   17  N3  UNL     1      20.532  12.790  14.473  1.00  0.00    -0.144 N 
HETATM   18  C15 UNL     1      21.137  12.001  13.576  1.00  0.00     0.682 A 
HETATM   19  N6  UNL     1      21.507  12.482  12.350  1.00  0.00    -0.174 N 
ATOM     20  H6  UNL     1      21.967  11.871  11.675  1.00  0.00     0.186 HD
HETATM   21  N7  UNL     1      21.594  14.302  10.858  1.00  0.00    -0.323 N 
HETATM   22  C17 UNL     1      21.350  15.604  10.526  1.00  0.00     0.147 A 
ATOM     23  H7  UNL     1      22.055  13.704  10.172  1.00  0.00     0.169 HD
BRANCH  17  24
HETATM   24  C9  UNL     1      20.162  12.228  15.754  1.00  0.00     0.181 C 
BRANCH  24  25
HETATM   25  C10 UNL     1      18.764  11.722  15.797  1.00  0.00     0.293 C 
BRANCH  25  26
HETATM   26  N4  UNL     1      18.745  10.348  16.235  1.00  0.00     0.094 N 
HETATM   27  C11 UNL     1      19.808  10.081  17.197  1.00  0.00     0.298 C 
HETATM   28  C12 UNL     1      19.250  10.004  18.610  1.00  0.00     0.198 C 
HETATM   29  O2  UNL     1      18.310  11.005  18.770  1.00  0.00    -0.388 OA
HETATM   30  C13 UNL     1      17.155  10.608  18.081  1.00  0.00     0.198 C 
HETATM   31  C14 UNL     1      17.510   9.897  16.793  1.00  0.00     0.298 C 
ENDBRANCH  25  26
ENDBRANCH  24  25
ENDBRANCH  17  24
BRANCH  18  32
HETATM   32  N5  UNL     1      21.362  10.776  13.902  1.00  0.00    -0.234 N 
ATOM     33  H52 UNL     1      21.091  10.420  14.818  1.00  0.00     0.174 HD
ATOM     34  H51 UNL     1      21.817  10.174  13.216  1.00  0.00     0.174 HD
ENDBRANCH  18  32
BRANCH  22  35
HETATM   35  N8  UNL     1      21.696  16.058   9.374  1.00  0.00    -0.373 N 
ATOM     36  H8  UNL     1      20.945  16.294   8.725  1.00  0.00     0.161 HD
BRANCH  35  37
HETATM   37  C18 UNL     1      23.041  16.265   8.915  1.00  0.00     0.121 C 
BRANCH  37  38
HETATM   38  C19 UNL     1      23.168  17.573   8.142  1.00  0.00     0.015 C 
HETATM   39  C20 UNL     1      22.810  17.315   6.693  1.00  0.00     0.006 C 
ENDBRANCH  37  38
ENDBRANCH  35  37
ENDBRANCH  22  35
ENDBRANCH   8  10
ENDBRANCH   7   8
ENDBRANCH   4   7
ENDBRANCH   3   4
TORSDOF 11
ENDMDL
MODEL 5
REMARK VINA RESULT: -7.507345086      4.333      7.334
REMARK  11 active torsions:
REMARK  status: ('A' for Active; 'I' for Inactive)
REMARK    1  A    between atoms: C3_3  and  C4_4 
REMARK    2  A    between atoms: C4_4  and  C5_5 
REMARK    3  A    between atoms: C5_5  and  N1_6 
REMARK    4  A    between atoms: N1_6  and  C6_8 
REMARK    5  A    between atoms: N3_14  and  C9_15 
REMARK    6  A    between atoms: C9_15  and  C10_16 
REMARK    7  A    between atoms: C10_16  and  N4_17 
REMARK    8  A    between atoms: C15_23  and  N5_24 
REMARK    9  A    between atoms: C17_32  and  N8_33 
REMARK   10  A    between atoms: N8_33  and  C18_35 
REMARK   11  A    between atoms: C18_35  and  C19_36 
ROOT
HETATM    1  C1  UNL     1      20.049  17.712  13.077  1.00  0.00     0.012 C 
HETATM    2  C2  UNL     1      20.309  16.533  13.220  1.00  0.00    -0.117 C 
HETATM    3  C3  UNL     1      20.623  15.117  13.366  1.00  0.00     0.104 C 
ENDROOT
BRANCH   3   4
HETATM    4  C4  UNL     1      21.479  14.605  12.236  1.00  0.00    -0.014 A 
HETATM    5  C21 UNL     1      22.560  13.639  12.432  1.00  0.00     0.013 A 
HETATM    6  C22 UNL     1      22.860  15.092  12.038  1.00  0.00     0.013 A 
BRANCH   4   7
HETATM    7  C5  UNL     1      20.673  14.438  10.919  1.00  0.00     0.131 C 
BRANCH   7   8
HETATM    8  N1  UNL     1      21.136  15.416  10.012  1.00  0.00    -0.372 N 
ATOM      9  H1  UNL     1      22.125  15.379   9.766  1.00  0.00     0.161 HD
BRANCH   8  10
HETATM   10  C6  UNL     1      20.453  16.330   9.474  1.00  0.00     0.146 A 
HETATM   11  N2  UNL     1      19.151  16.492   9.912  1.00  0.00    -0.332 N 
HETATM   12  C7  UNL     1      18.332  17.420   9.423  1.00  0.00     0.148 A 
ATOM     13  H2  UNL     1      18.804  15.872  10.643  1.00  0.00     0.168 HD
HETATM   14  C8  UNL     1      17.021  17.565   9.880  1.00  0.00     0.292 A 
HETATM   15  C16 UNL     1      18.739  18.289   8.436  1.00  0.00     0.155 A 
HETATM   16  O1  UNL     1      16.635  16.786  10.775  1.00  0.00    -0.265 OA
HETATM   17  N3  UNL     1      16.197  18.502   9.386  1.00  0.00    -0.144 N 
HETATM   18  C15 UNL     1      16.632  19.327   8.426  1.00  0.00     0.682 A 
HETATM   19  N6  UNL     1      17.907  19.232   7.939  1.00  0.00    -0.174 N 
ATOM     20  H6  UNL     1      18.227  19.867   7.207  1.00  0.00     0.186 HD
HETATM   21  N7  UNL     1      19.997  18.146   8.000  1.00  0.00    -0.323 N 
HETATM   22  C17 UNL     1      20.853  17.201   8.488  1.00  0.00     0.147 A 
ATOM     23  H7  UNL     1      20.332  18.773   7.268  1.00  0.00     0.169 HD
BRANCH  17  24
HETATM   24  C9  UNL     1      14.839  18.648   9.865  1.00  0.00     0.181 C 
BRANCH  24  25
HETATM   25  C10 UNL     1      14.752  19.245  11.224  1.00  0.00     0.293 C 
BRANCH  25  26
HETATM   26  N4  UNL     1      13.558  18.791  11.893  1.00  0.00     0.094 N 
HETATM   27  C11 UNL     1      13.403  17.345  11.779  1.00  0.00     0.298 C 
HETATM   28  C12 UNL     1      13.778  16.657  13.083  1.00  0.00     0.198 C 
HETATM   29  O2  UNL     1      14.911  17.265  13.593  1.00  0.00    -0.388 OA
HETATM   30  C13 UNL     1      14.519  18.500  14.129  1.00  0.00     0.198 C 
HETATM   31  C14 UNL     1      13.452  19.147  13.272  1.00  0.00     0.298 C 
ENDBRANCH  25  26
ENDBRANCH  24  25
ENDBRANCH  17  24
BRANCH  18  32
HETATM   32  N5  UNL     1      15.816  20.213   7.974  1.00  0.00    -0.234 N 
ATOM     33  H52 UNL     1      15.124  19.973   7.265  1.00  0.00     0.174 HD
ATOM     34  H51 UNL     1      15.882  21.160   8.346  1.00  0.00     0.174 HD
ENDBRANCH  18  32
BRANCH  22  35
HETATM   35  N8  UNL     1      22.051  17.110   8.033  1.00  0.00    -0.373 N 
ATOM     36  H8  UNL     1      22.238  16.358   7.369  1.00  0.00     0.161 HD
BRANCH  35  37
HETATM   37  C18 UNL     1      23.152  17.969   8.370  1.00  0.00     0.121 C 
BRANCH  37  38
HETATM   38  C19 UNL     1      24.131  17.271   9.308  1.00  0.00     0.015 C 
HETATM   39  C20 UNL     1      24.475  15.915   8.726  1.00  0.00     0.006 C 
ENDBRANCH  37  38
ENDBRANCH  35  37
ENDBRANCH  22  35
ENDBRANCH   8  10
ENDBRANCH   7   8
ENDBRANCH   4   7
ENDBRANCH   3   4
TORSDOF 11
ENDMDL
