MODEL 1
REMARK VINA RESULT: -7.929902126      0.000      0.000
REMARK  11 active torsions:
REMARK  status: ('A' for Active; 'I' for Inactive)
REMARK    1  A    between atoms: C2_2  and  C3_3 
REMARK       I    between atoms: C3_3  and  N1_5 
REMARK    2  A    between atoms: C7_9  and  O2_10 
REMARK    3  A    between atoms: C8_12  and  O3_13 
REMARK    4  A    between atoms: C9_15  and  C10_16 
REMARK    5  A    between atoms: C10_16  and  O4_17 
REMARK    6  A    between atoms: C11_19  and  C12_20 
REMARK    7  A    between atoms: C12_20  and  C13_21 
REMARK    8  A    between atoms: C13_21  and  C14_22 
REMARK    9  A    between atoms: C14_22  and  C15_23 
REMARK   10  A    between atoms: C15_23  and  C16_24 
REMARK       I    between atoms: C16_24  and  N2_26 
REMARK   11  A    between atoms: C19_32  and  C20_33 
ROOT
HETATM    1  C3  UNL     1      21.598  16.146  10.517  1.00  0.00     0.219 C 
HETATM    2  O1  UNL     1      21.270  15.970  11.733  1.00  0.00    -0.273 OA
HETATM    3  N1  UNL     1      21.004  17.092   9.668  1.00  0.00    -0.347 N 
HETATM    4  C4  UNL     1      21.441  17.255   8.268  1.00  0.00     0.127 C 
HETATM    5  C5  UNL     1      21.239  18.740   8.010  1.00  0.00     0.029 C 
HETATM    6  C6  UNL     1      19.902  18.944   8.710  1.00  0.00     0.042 C 
HETATM    7  C7  UNL     1      18.845  18.618   7.694  1.00  0.00     0.153 C 
HETATM    8  C8  UNL     1      17.494  18.716   8.346  1.00  0.00     0.153 C 
HETATM    9  C9  UNL     1      17.647  18.610   9.868  1.00  0.00     0.046 C 
HETATM   10  C11 UNL     1      18.609  17.536  10.242  1.00  0.00     0.017 C 
HETATM   11  C23 UNL     1      19.981  18.036   9.881  1.00  0.00     0.098 C 
ENDROOT
BRANCH  10  12
HETATM   12  C12 UNL     1      18.275  16.196   9.841  1.00  0.00     0.007 C 
BRANCH  12  13
HETATM   13  C13 UNL     1      18.005  15.099  10.829  1.00  0.00     0.001 C 
BRANCH  13  14
HETATM   14  C14 UNL     1      16.703  15.236  11.536  1.00  0.00     0.009 C 
BRANCH  14  15
HETATM   15  C15 UNL     1      16.798  15.221  13.019  1.00  0.00     0.103 C 
BRANCH  15  16
HETATM   16  C16 UNL     1      18.116  15.262  13.609  1.00  0.00     0.219 C 
HETATM   17  O5  UNL     1      18.764  16.293  13.826  1.00  0.00    -0.273 OA
HETATM   18  N2  UNL     1      18.752  14.026  13.984  1.00  0.00    -0.349 N 
HETATM   19  C17 UNL     1      18.126  12.733  13.794  1.00  0.00     0.153 C 
HETATM   20  C22 UNL     1      20.069  14.023  14.580  1.00  0.00     0.158 C 
HETATM   21  C18 UNL     1      19.056  11.841  12.987  1.00  0.00     0.252 C 
HETATM   22  N3  UNL     1      20.332  12.445  12.738  1.00  0.00    -0.068 N 
HETATM   23  C19 UNL     1      20.946  12.991  13.915  1.00  0.00     0.203 C 
ATOM     24  H32 UNL     1      20.960  11.787  12.275  1.00  0.00     0.277 HD
ATOM     25  H31 UNL     1      20.260  13.153  12.007  1.00  0.00     0.277 HD
BRANCH  23  26
HETATM   26  C20 UNL     1      21.299  11.857  14.857  1.00  0.00     0.030 C 
HETATM   27  C21 UNL     1      20.941  12.156  16.284  1.00  0.00     0.007 C 
ENDBRANCH  23  26
ENDBRANCH  15  16
ENDBRANCH  14  15
ENDBRANCH  13  14
ENDBRANCH  12  13
ENDBRANCH  10  12
BRANCH   9  28
HETATM   28  C10 UNL     1      16.335  18.703  10.501  1.00  0.00     0.172 C 
BRANCH  28  29
HETATM   29  O4  UNL     1      16.269  20.002  11.106  1.00  0.00    -0.400 OA
ATOM     30  H4  UNL     1      15.669  20.515  10.576  1.00  0.00     0.209 HD
ENDBRANCH  28  29
ENDBRANCH   9  28
BRANCH   8  31
HETATM   31  O3  UNL     1      16.965  19.976   8.080  1.00  0.00    -0.393 OA
ATOM     32  H3  UNL     1      16.856  20.437   8.903  1.00  0.00     0.210 HD
ENDBRANCH   8  31
BRANCH   7  33
HETATM   33  O2  UNL     1      18.950  19.653   6.714  1.00  0.00    -0.393 OA
ATOM     34  H2  UNL     1      18.120  19.633   6.251  1.00  0.00     0.210 HD
ENDBRANCH   7  33
BRANCH   1  35
HETATM   35  C2  UNL     1      22.680  15.272  10.012  1.00  0.00     0.098 C 
HETATM   36  C1  UNL     1      23.828  15.132  10.952  1.00  0.00     0.014 C 
ENDBRANCH   1  35
TORSDOF 11
ENDMDL
MODEL 2
REMARK VINA RESULT: -7.842355923      1.172      1.535
REMARK  11 active torsions:
REMARK  status: ('A' for Active; 'I' for Inactive)
REMARK    1  A    between atoms: C2_2  and  C3_3 
REMARK       I    between atoms: C3_3  and  N1_5 
REMARK    2  A    between atoms: C7_9  and  O2_10 
REMARK    3  A    between atoms: C8_12  and  O3_13 
REMARK    4  A    between atoms: C9_15  and  C10_16 
REMARK    5  A    between atoms: C10_16  and  O4_17 
REMARK    6  A    between atoms: C11_19  and  C12_20 
REMARK    7  A    between atoms: C12_20  and  C13_21 
REMARK    8  A    between atoms: C13_21  and  C14_22 
REMARK    9  A    between atoms: C14_22  and  C15_23 
REMARK   10  A    between atoms: C15_23  and  C16_24 
REMARK       I    between atoms: C16_24  and  N2_26 
REMARK   11  A    between atoms: C19_32  and  C20_33 
ROOT
HETATM    1  C3  UNL     1      21.978  15.996  10.703  1.00  0.00     0.219 C 
HETATM    2  O1  UNL     1      21.300  16.096  11.774  1.00  0.00    -0.273 OA
HETATM    3  N1  UNL     1      21.842  16.851   9.599  1.00  0.00    -0.347 N 
HETATM    4  C4  UNL     1      22.671  16.687   8.389  1.00  0.00     0.127 C 
HETATM    5  C5  UNL     1      22.848  18.114   7.893  1.00  0.00     0.029 C 
HETATM    6  C6  UNL     1      21.439  18.644   8.121  1.00  0.00     0.042 C 
HETATM    7  C7  UNL     1      20.659  18.304   6.882  1.00  0.00     0.153 C 
HETATM    8  C8  UNL     1      19.229  18.725   7.075  1.00  0.00     0.153 C 
HETATM    9  C9  UNL     1      18.933  18.875   8.572  1.00  0.00     0.046 C 
HETATM   10  C11 UNL     1      19.520  17.754   9.356  1.00  0.00     0.017 C 
HETATM   11  C23 UNL     1      21.009  17.964   9.367  1.00  0.00     0.098 C 
ENDROOT
BRANCH  10  12
HETATM   12  C12 UNL     1      19.048  16.430   9.049  1.00  0.00     0.007 C 
BRANCH  12  13
HETATM   13  C13 UNL     1      18.275  15.598  10.029  1.00  0.00     0.001 C 
BRANCH  13  14
HETATM   14  C14 UNL     1      17.126  16.313  10.648  1.00  0.00     0.009 C 
BRANCH  14  15
HETATM   15  C15 UNL     1      16.825  15.912  12.047  1.00  0.00     0.103 C 
BRANCH  15  16
HETATM   16  C16 UNL     1      17.914  15.915  12.996  1.00  0.00     0.219 C 
HETATM   17  O5  UNL     1      18.457  16.931  13.450  1.00  0.00    -0.273 OA
HETATM   18  N2  UNL     1      18.430  14.658  13.471  1.00  0.00    -0.349 N 
HETATM   19  C17 UNL     1      17.905  13.379  13.035  1.00  0.00     0.153 C 
HETATM   20  C22 UNL     1      19.517  14.617  14.423  1.00  0.00     0.158 C 
HETATM   21  C18 UNL     1      19.043  12.533  12.486  1.00  0.00     0.252 C 
HETATM   22  N3  UNL     1      20.328  13.147  12.653  1.00  0.00    -0.068 N 
HETATM   23  C19 UNL     1      20.565  13.623  13.986  1.00  0.00     0.203 C 
ATOM     24  H32 UNL     1      21.071  12.515  12.357  1.00  0.00     0.277 HD
ATOM     25  H31 UNL     1      20.461  13.895  11.973  1.00  0.00     0.277 HD
BRANCH  23  26
HETATM   26  C20 UNL     1      20.645  12.435  14.926  1.00  0.00     0.030 C 
HETATM   27  C21 UNL     1      21.897  11.631  14.736  1.00  0.00     0.007 C 
ENDBRANCH  23  26
ENDBRANCH  15  16
ENDBRANCH  14  15
ENDBRANCH  13  14
ENDBRANCH  12  13
ENDBRANCH  10  12
BRANCH   9  28
HETATM   28  C10 UNL     1      17.543  19.281   8.760  1.00  0.00     0.172 C 
BRANCH  28  29
HETATM   29  O4  UNL     1      16.802  18.699   7.677  1.00  0.00    -0.400 OA
ATOM     30  H4  UNL     1      15.903  18.991   7.779  1.00  0.00     0.209 HD
ENDBRANCH  28  29
ENDBRANCH   9  28
BRANCH   8  31
HETATM   31  O3  UNL     1      19.056  19.981   6.501  1.00  0.00    -0.393 OA
ATOM     32  H3  UNL     1      19.317  19.934   5.589  1.00  0.00     0.210 HD
ENDBRANCH   8  31
BRANCH   7  33
HETATM   33  O2  UNL     1      21.234  19.115   5.856  1.00  0.00    -0.393 OA
ATOM     34  H2  UNL     1      20.502  19.602   5.493  1.00  0.00     0.210 HD
ENDBRANCH   7  33
BRANCH   1  35
HETATM   35  C2  UNL     1      22.960  14.890  10.668  1.00  0.00     0.098 C 
HETATM   36  C1  UNL     1      23.733  14.731  11.932  1.00  0.00     0.014 C 
ENDBRANCH   1  35
TORSDOF 11
ENDMDL
MODEL 3
REMARK VINA RESULT: -7.704367819      2.727      5.687
REMARK  11 active torsions:
REMARK  status: ('A' for Active; 'I' for Inactive)
REMARK    1  A    between atoms: C2_2  and  C3_3 
REMARK       I    between atoms: C3_3  and  N1_5 
REMARK    2  A    between atoms: C7_9  and  O2_10 
REMARK    3  A    between atoms: C8_12  and  O3_13 
REMARK    4  A    between atoms: C9_15  and  C10_16 
REMARK    5  A    between atoms: C10_16  and  O4_17 
REMARK    6  A    between atoms: C11_19  and  C12_20 
REMARK    7  A    between atoms: C12_20  and  C13_21 
REMARK    8  A    between atoms: C13_21  and  C14_22 
REMARK    9  A    between atoms: C14_22  and  C15_23 
REMARK   10  A    between atoms: C15_23  and  C16_24 
REMARK       I    between atoms: C16_24  and  N2_26 
REMARK   11  A    between atoms: C19_32  and  C20_33 
ROOT
HETATM    1  C3  UNL     1      21.737  17.392   8.363  1.00  0.00     0.219 C 
HETATM    2  O1  UNL     1      20.519  17.320   8.005  1.00  0.00    -0.273 OA
HETATM    3  N1  UNL     1      22.370  16.462   9.202  1.00  0.00    -0.347 N 
HETATM    4  C4  UNL     1      23.793  16.597   9.569  1.00  0.00     0.127 C 
HETATM    5  C5  UNL     1      24.258  15.155   9.699  1.00  0.00     0.029 C 
HETATM    6  C6  UNL     1      23.053  14.559  10.415  1.00  0.00     0.042 C 
HETATM    7  C7  UNL     1      23.292  14.774  11.883  1.00  0.00     0.153 C 
HETATM    8  C8  UNL     1      22.095  14.283  12.649  1.00  0.00     0.153 C 
HETATM    9  C9  UNL     1      20.880  14.210  11.717  1.00  0.00     0.046 C 
HETATM   10  C11 UNL     1      20.797  15.412  10.841  1.00  0.00     0.017 C 
HETATM   11  C23 UNL     1      21.903  15.290   9.829  1.00  0.00     0.098 C 
ENDROOT
BRANCH  10  12
HETATM   12  C12 UNL     1      20.645  16.684  11.495  1.00  0.00     0.007 C 
BRANCH  12  13
HETATM   13  C13 UNL     1      19.307  17.245  11.875  1.00  0.00     0.001 C 
BRANCH  13  14
HETATM   14  C14 UNL     1      18.660  18.038  10.794  1.00  0.00     0.009 C 
BRANCH  14  15
HETATM   15  C15 UNL     1      17.345  17.514  10.342  1.00  0.00     0.103 C 
BRANCH  15  16
HETATM   16  C16 UNL     1      17.018  16.145  10.668  1.00  0.00     0.219 C 
HETATM   17  O5  UNL     1      17.525  15.149  10.136  1.00  0.00    -0.273 OA
HETATM   18  N2  UNL     1      16.031  15.885  11.682  1.00  0.00    -0.349 N 
HETATM   19  C17 UNL     1      15.344  16.941  12.398  1.00  0.00     0.153 C 
HETATM   20  C22 UNL     1      15.677  14.530  12.040  1.00  0.00     0.158 C 
HETATM   21  C18 UNL     1      13.843  16.745  12.258  1.00  0.00     0.252 C 
HETATM   22  N3  UNL     1      13.499  15.528  11.583  1.00  0.00    -0.068 N 
HETATM   23  C19 UNL     1      14.178  14.375  12.102  1.00  0.00     0.203 C 
ATOM     24  H32 UNL     1      12.489  15.385  11.587  1.00  0.00     0.277 HD
ATOM     25  H31 UNL     1      13.653  15.616  10.579  1.00  0.00     0.277 HD
BRANCH  23  26
HETATM   26  C20 UNL     1      13.694  14.114  13.515  1.00  0.00     0.030 C 
HETATM   27  C21 UNL     1      14.821  13.963  14.495  1.00  0.00     0.007 C 
ENDBRANCH  23  26
ENDBRANCH  15  16
ENDBRANCH  14  15
ENDBRANCH  13  14
ENDBRANCH  12  13
ENDBRANCH  10  12
BRANCH   9  28
HETATM   28  C10 UNL     1      19.717  13.736  12.462  1.00  0.00     0.172 C 
BRANCH  28  29
HETATM   29  O4  UNL     1      18.953  12.933  11.550  1.00  0.00    -0.400 OA
ATOM     30  H4  UNL     1      19.036  12.035  11.851  1.00  0.00     0.209 HD
ENDBRANCH  28  29
ENDBRANCH   9  28
BRANCH   8  31
HETATM   31  O3  UNL     1      22.350  12.985  13.083  1.00  0.00    -0.393 OA
ATOM     32  H3  UNL     1      22.065  12.380  12.408  1.00  0.00     0.210 HD
ENDBRANCH   8  31
BRANCH   7  33
HETATM   33  O2  UNL     1      24.405  13.934  12.198  1.00  0.00    -0.393 OA
ATOM     34  H2  UNL     1      24.077  13.335  12.859  1.00  0.00     0.210 HD
ENDBRANCH   7  33
BRANCH   1  35
HETATM   35  C2  UNL     1      22.493  18.549   7.835  1.00  0.00     0.098 C 
HETATM   36  C1  UNL     1      22.861  18.422   6.397  1.00  0.00     0.014 C 
ENDBRANCH   1  35
TORSDOF 11
ENDMDL
MODEL 4
REMARK VINA RESULT: -7.670363580      2.285      3.853
REMARK  11 active torsions:
REMARK  status: ('A' for Active; 'I' for Inactive)
REMARK    1  A    between atoms: C2_2  and  C3_3 
REMARK       I    between atoms: C3_3  and  N1_5 
REMARK    2  A    between atoms: C7_9  and  O2_10 
REMARK    3  A    between atoms: C8_12  and  O3_13 
REMARK    4  A    between atoms: C9_15  and  C10_16 
REMARK    5  A    between atoms: C10_16  and  O4_17 
REMARK    6  A    between atoms: C11_19  and  C12_20 
REMARK    7  A    between atoms: C12_20  and  C13_21 
REMARK    8  A    between atoms: C13_21  and  C14_22 
REMARK    9  A    between atoms: C14_22  and  C15_23 
REMARK   10  A    between atoms: C15_23  and  C16_24 
REMARK       I    between atoms: C16_24  and  N2_26 
REMARK   11  A    between atoms: C19_32  and  C20_33 
ROOT
HETATM    1  C3  UNL     1      21.659  16.235  10.486  1.00  0.00     0.219 C 
HETATM    2  O1  UNL     1      21.354  16.070  11.710  1.00  0.00    -0.273 OA
HETATM    3  N1  UNL     1      21.031  17.154   9.632  1.00  0.00    -0.347 N 
HETATM    4  C4  UNL     1      21.443  17.305   8.224  1.00  0.00     0.127 C 
HETATM    5  C5  UNL     1      21.205  18.781   7.947  1.00  0.00     0.029 C 
HETATM    6  C6  UNL     1      19.875  18.967   8.664  1.00  0.00     0.042 C 
HETATM    7  C7  UNL     1      18.809  18.602   7.670  1.00  0.00     0.153 C 
HETATM    8  C8  UNL     1      17.466  18.682   8.341  1.00  0.00     0.153 C 
HETATM    9  C9  UNL     1      17.645  18.602   9.862  1.00  0.00     0.046 C 
HETATM   10  C11 UNL     1      18.636  17.556  10.237  1.00  0.00     0.017 C 
HETATM   11  C23 UNL     1      19.991  18.080   9.848  1.00  0.00     0.098 C 
ENDROOT
BRANCH  10  12
HETATM   12  C12 UNL     1      18.325  16.202   9.862  1.00  0.00     0.007 C 
BRANCH  12  13
HETATM   13  C13 UNL     1      17.456  15.309  10.698  1.00  0.00     0.001 C 
BRANCH  13  14
HETATM   14  C14 UNL     1      18.178  14.644  11.816  1.00  0.00     0.009 C 
BRANCH  14  15
HETATM   15  C15 UNL     1      17.671  14.983  13.171  1.00  0.00     0.103 C 
BRANCH  15  16
HETATM   16  C16 UNL     1      16.530  14.249  13.665  1.00  0.00     0.219 C 
HETATM   17  O5  UNL     1      16.564  13.089  14.096  1.00  0.00    -0.273 OA
HETATM   18  N2  UNL     1      15.239  14.886  13.671  1.00  0.00    -0.349 N 
HETATM   19  C17 UNL     1      15.030  16.240  13.199  1.00  0.00     0.153 C 
HETATM   20  C22 UNL     1      14.071  14.188  14.161  1.00  0.00     0.158 C 
HETATM   21  C18 UNL     1      13.945  16.236  12.133  1.00  0.00     0.252 C 
HETATM   22  N3  UNL     1      13.333  14.951  11.964  1.00  0.00    -0.068 N 
HETATM   23  C19 UNL     1      12.919  14.348  13.200  1.00  0.00     0.203 C 
ATOM     24  H32 UNL     1      12.552  15.006  11.310  1.00  0.00     0.277 HD
ATOM     25  H31 UNL     1      13.946  14.324  11.444  1.00  0.00     0.277 HD
BRANCH  23  26
HETATM   26  C20 UNL     1      11.794  15.171  13.797  1.00  0.00     0.030 C 
HETATM   27  C21 UNL     1      11.699  15.025  15.288  1.00  0.00     0.007 C 
ENDBRANCH  23  26
ENDBRANCH  15  16
ENDBRANCH  14  15
ENDBRANCH  13  14
ENDBRANCH  12  13
ENDBRANCH  10  12
BRANCH   9  28
HETATM   28  C10 UNL     1      16.341  18.676  10.514  1.00  0.00     0.172 C 
BRANCH  28  29
HETATM   29  O4  UNL     1      16.283  19.957  11.159  1.00  0.00    -0.400 OA
ATOM     30  H4  UNL     1      16.308  19.788  12.094  1.00  0.00     0.209 HD
ENDBRANCH  28  29
ENDBRANCH   9  28
BRANCH   8  31
HETATM   31  O3  UNL     1      16.906  19.925   8.065  1.00  0.00    -0.393 OA
ATOM     32  H3  UNL     1      15.967  19.870   8.199  1.00  0.00     0.210 HD
ENDBRANCH   8  31
BRANCH   7  33
HETATM   33  O2  UNL     1      18.876  19.624   6.673  1.00  0.00    -0.393 OA
ATOM     34  H2  UNL     1      18.031  19.596   6.239  1.00  0.00     0.210 HD
ENDBRANCH   7  33
BRANCH   1  35
HETATM   35  C2  UNL     1      22.752  15.377   9.978  1.00  0.00     0.098 C 
HETATM   36  C1  UNL     1      23.853  15.161  10.959  1.00  0.00     0.014 C 
ENDBRANCH   1  35
TORSDOF 11
ENDMDL
MODEL 5
REMARK VINA RESULT: -7.668979160      2.552      5.053
REMARK  11 active torsions:
REMARK  status: ('A' for Active; 'I' for Inactive)
REMARK    1  A    between atoms: C2_2  and  C3_3 
REMARK       I    between atoms: C3_3  and  N1_5 
REMARK    2  A    between atoms: C7_9  and  O2_10 
REMARK    3  A    between atoms: C8_12  and  O3_13 
REMARK    4  A    between atoms: C9_15  and  C10_16 
REMARK    5  A    between atoms: C10_16  and  O4_17 
REMARK    6  A    between atoms: C11_19  and  C12_20 
REMARK    7  A    between atoms: C12_20  and  C13_21 
REMARK    8  A    between atoms: C13_21  and  C14_22 
REMARK    9  A    between atoms: C14_22  and  C15_23 
REMARK   10  A    between atoms: C15_23  and  C16_24 
REMARK       I    between atoms: C16_24  and  N2_26 
REMARK   11  A    between atoms: C19_32  and  C20_33 
ROOT
HETATM    1  C3  UNL     1      20.822  16.460  11.680  1.00  0.00     0.219 C 
HETATM    2  O1  UNL     1      20.076  17.328  12.235  1.00  0.00    -0.273 OA
HETATM    3  N1  UNL     1      21.516  16.667  10.479  1.00  0.00    -0.347 N 
HETATM    4  C4  UNL     1      22.376  15.620   9.895  1.00  0.00     0.127 C 
HETATM    5  C5  UNL     1      23.483  16.416   9.219  1.00  0.00     0.029 C 
HETATM    6  C6  UNL     1      22.657  17.540   8.609  1.00  0.00     0.042 C 
HETATM    7  C7  UNL     1      22.193  17.039   7.270  1.00  0.00     0.153 C 
HETATM    8  C8  UNL     1      21.297  18.071   6.646  1.00  0.00     0.153 C 
HETATM    9  C9  UNL     1      20.758  19.011   7.731  1.00  0.00     0.046 C 
HETATM   10  C11 UNL     1      20.338  18.255   8.943  1.00  0.00     0.017 C 
HETATM   11  C23 UNL     1      21.595  17.779   9.617  1.00  0.00     0.098 C 
ENDROOT
BRANCH  10  12
HETATM   12  C12 UNL     1      19.282  17.292   8.775  1.00  0.00     0.007 C 
BRANCH  12  13
HETATM   13  C13 UNL     1      17.919  17.473   9.374  1.00  0.00     0.001 C 
BRANCH  13  14
HETATM   14  C14 UNL     1      17.594  18.885   9.713  1.00  0.00     0.009 C 
BRANCH  14  15
HETATM   15  C15 UNL     1      16.674  19.051  10.868  1.00  0.00     0.103 C 
BRANCH  15  16
HETATM   16  C16 UNL     1      15.373  18.428  10.787  1.00  0.00     0.219 C 
HETATM   17  O5  UNL     1      14.474  18.764  10.005  1.00  0.00    -0.273 OA
HETATM   18  N2  UNL     1      15.067  17.333  11.669  1.00  0.00    -0.349 N 
HETATM   19  C17 UNL     1      16.011  16.822  12.643  1.00  0.00     0.153 C 
HETATM   20  C22 UNL     1      13.778  16.680  11.618  1.00  0.00     0.158 C 
HETATM   21  C18 UNL     1      15.367  16.841  14.020  1.00  0.00     0.252 C 
HETATM   22  N3  UNL     1      13.987  17.226  13.987  1.00  0.00    -0.068 N 
HETATM   23  C19 UNL     1      13.217  16.511  13.009  1.00  0.00     0.203 C 
ATOM     24  H32 UNL     1      13.565  17.141  14.911  1.00  0.00     0.277 HD
ATOM     25  H31 UNL     1      13.896  18.233  13.852  1.00  0.00     0.277 HD
BRANCH  23  26
HETATM   26  C20 UNL     1      13.140  15.052  13.414  1.00  0.00     0.030 C 
HETATM   27  C21 UNL     1      13.402  14.119  12.268  1.00  0.00     0.007 C 
ENDBRANCH  23  26
ENDBRANCH  15  16
ENDBRANCH  14  15
ENDBRANCH  13  14
ENDBRANCH  12  13
ENDBRANCH  10  12
BRANCH   9  28
HETATM   28  C10 UNL     1      19.885  20.012   7.125  1.00  0.00     0.172 C 
BRANCH  28  29
HETATM   29  O4  UNL     1      19.301  19.393   5.970  1.00  0.00    -0.400 OA
ATOM     30  H4  UNL     1      19.931  19.493   5.265  1.00  0.00     0.209 HD
ENDBRANCH  28  29
ENDBRANCH   9  28
BRANCH   8  31
HETATM   31  O3  UNL     1      22.056  18.850   5.778  1.00  0.00    -0.393 OA
ATOM     32  H3  UNL     1      22.203  18.356   4.980  1.00  0.00     0.210 HD
ENDBRANCH   8  31
BRANCH   7  33
HETATM   33  O2  UNL     1      23.383  16.940   6.486  1.00  0.00    -0.393 OA
ATOM     34  H2  UNL     1      23.077  16.809   5.596  1.00  0.00     0.210 HD
ENDBRANCH   7  33
BRANCH   1  35
HETATM   35  C2  UNL     1      20.931  15.165  12.387  1.00  0.00     0.098 C 
HETATM   36  C1  UNL     1      20.343  15.174  13.756  1.00  0.00     0.014 C 
ENDBRANCH   1  35
TORSDOF 11
ENDMDL
