MODEL 1
REMARK VINA RESULT: -7.508188522      0.000      0.000
REMARK  10 active torsions:
REMARK  status: ('A' for Active; 'I' for Inactive)
REMARK    1  A    between atoms: C2_2  and  N1_4 
REMARK    2  A    between atoms: N1_4  and  C4_6 
REMARK    3  A    between atoms: C4_6  and  C5_7 
REMARK    4  A    between atoms: C4_6  and  C19_33 
REMARK       I    between atoms: C5_7  and  N2_9 
REMARK    5  A    between atoms: N2_9  and  C6_11 
REMARK    6  A    between atoms: C6_11  and  C7_12 
REMARK    7  A    between atoms: C6_11  and  C12_19 
REMARK       I    between atoms: C7_12  and  N3_14 
REMARK    8  A    between atoms: C12_19  and  C14_21 
REMARK       I    between atoms: C14_21  and  N4_23 
REMARK    9  A    between atoms: N4_23  and  C15_25 
REMARK   10  A    between atoms: C18_30  and  O6_31 
ROOT
HETATM    1  C6  UNL     1      18.335  15.511  12.389  1.00  0.00     0.189 C 
ENDROOT
BRANCH   1   2
HETATM    2  N2  UNL     1      19.159  15.743  11.238  1.00  0.00    -0.345 N 
HETATM    3  C5  UNL     1      20.454  16.252  11.141  1.00  0.00     0.241 C 
HETATM    4  O1  UNL     1      21.098  16.598  12.154  1.00  0.00    -0.271 OA
ATOM      5  H2  UNL     1      18.728  15.496  10.346  1.00  0.00     0.163 HD
BRANCH   3   6
HETATM    6  C4  UNL     1      21.153  16.412   9.811  1.00  0.00     0.173 C 
BRANCH   6   7
HETATM    7  N1  UNL     1      22.574  16.492  10.115  1.00  0.00    -0.406 N 
ATOM      8  H1  UNL     1      23.019  17.358  10.420  1.00  0.00     0.154 HD
BRANCH   7   9
HETATM    9  C2  UNL     1      23.296  15.284   9.959  1.00  0.00     0.069 C 
HETATM   10  C1  UNL     1      24.482  15.595   9.033  1.00  0.00     0.031 C 
HETATM   11  C3  UNL     1      23.863  14.727  11.235  1.00  0.00     0.031 C 
ENDBRANCH   7   9
ENDBRANCH   6   7
BRANCH   6  12
HETATM   12  C19 UNL     1      20.773  17.726   9.193  1.00  0.00     0.009 C 
HETATM   13  C20 UNL     1      21.778  18.290   8.233  1.00  0.00     0.012 C 
HETATM   14  C21 UNL     1      19.408  17.598   8.504  1.00  0.00     0.012 C 
ENDBRANCH   6  12
ENDBRANCH   3   6
ENDBRANCH   1   2
BRANCH   1  15
HETATM   15  C7  UNL     1      17.992  14.101  12.570  1.00  0.00     0.243 C 
HETATM   16  O2  UNL     1      16.898  13.668  12.140  1.00  0.00    -0.271 OA
HETATM   17  N3  UNL     1      18.870  13.206  13.217  1.00  0.00    -0.346 N 
HETATM   18  C8  UNL     1      20.192  13.207  13.844  1.00  0.00     0.128 C 
HETATM   19  C10 UNL     1      18.831  11.772  13.564  1.00  0.00     0.084 C 
HETATM   20  C9  UNL     1      20.328  11.767  13.418  1.00  0.00     0.045 C 
HETATM   21  C11 UNL     1      18.375  11.514  14.969  1.00  0.00     0.032 C 
ENDBRANCH   1  15
BRANCH   1  22
HETATM   22  C12 UNL     1      17.055  16.352  12.335  1.00  0.00     0.106 C 
HETATM   23  C13 UNL     1      16.518  16.582  13.746  1.00  0.00     0.022 C 
BRANCH  22  24
HETATM   24  C14 UNL     1      17.252  17.636  11.639  1.00  0.00     0.224 C 
HETATM   25  O3  UNL     1      18.234  18.368  11.900  1.00  0.00    -0.273 OA
HETATM   26  N4  UNL     1      16.353  18.114  10.641  1.00  0.00    -0.351 N 
ATOM     27  H4  UNL     1      15.544  17.540  10.408  1.00  0.00     0.163 HD
BRANCH  26  28
HETATM   28  C15 UNL     1      16.521  19.352   9.948  1.00  0.00     0.149 C 
HETATM   29  C16 UNL     1      15.686  20.482  10.552  1.00  0.00     0.141 C 
HETATM   30  C17 UNL     1      15.461  21.324   9.338  1.00  0.00     0.263 C 
HETATM   31  O4  UNL     1      14.969  22.486   9.337  1.00  0.00    -0.265 OA
HETATM   32  O5  UNL     1      15.876  20.634   8.197  1.00  0.00    -0.288 OA
HETATM   33  C18 UNL     1      15.910  19.262   8.568  1.00  0.00     0.289 C 
BRANCH  33  34
HETATM   34  O6  UNL     1      14.608  18.779   8.681  1.00  0.00    -0.369 OA
ATOM     35  H6  UNL     1      14.187  18.825   7.831  1.00  0.00     0.212 HD
ENDBRANCH  33  34
ENDBRANCH  26  28
ENDBRANCH  22  24
ENDBRANCH   1  22
TORSDOF 10
ENDMDL
MODEL 2
REMARK VINA RESULT: -7.497843715      1.230      2.327
REMARK  10 active torsions:
REMARK  status: ('A' for Active; 'I' for Inactive)
REMARK    1  A    between atoms: C2_2  and  N1_4 
REMARK    2  A    between atoms: N1_4  and  C4_6 
REMARK    3  A    between atoms: C4_6  and  C5_7 
REMARK    4  A    between atoms: C4_6  and  C19_33 
REMARK       I    between atoms: C5_7  and  N2_9 
REMARK    5  A    between atoms: N2_9  and  C6_11 
REMARK    6  A    between atoms: C6_11  and  C7_12 
REMARK    7  A    between atoms: C6_11  and  C12_19 
REMARK       I    between atoms: C7_12  and  N3_14 
REMARK    8  A    between atoms: C12_19  and  C14_21 
REMARK       I    between atoms: C14_21  and  N4_23 
REMARK    9  A    between atoms: N4_23  and  C15_25 
REMARK   10  A    between atoms: C18_30  and  O6_31 
ROOT
HETATM    1  C6  UNL     1      18.735  15.311  11.814  1.00  0.00     0.189 C 
ENDROOT
BRANCH   1   2
HETATM    2  N2  UNL     1      19.925  15.574  11.058  1.00  0.00    -0.345 N 
HETATM    3  C5  UNL     1      20.899  16.561  11.218  1.00  0.00     0.241 C 
HETATM    4  O1  UNL     1      20.827  17.408  12.132  1.00  0.00    -0.271 OA
ATOM      5  H2  UNL     1      20.085  14.937  10.277  1.00  0.00     0.163 HD
BRANCH   3   6
HETATM    6  C4  UNL     1      22.096  16.659  10.301  1.00  0.00     0.173 C 
BRANCH   6   7
HETATM    7  N1  UNL     1      21.557  16.780   8.955  1.00  0.00    -0.406 N 
ATOM      8  H1  UNL     1      20.966  16.061   8.537  1.00  0.00     0.154 HD
BRANCH   7   9
HETATM    9  C2  UNL     1      21.910  17.965   8.265  1.00  0.00     0.069 C 
HETATM   10  C1  UNL     1      22.478  17.533   6.905  1.00  0.00     0.031 C 
HETATM   11  C3  UNL     1      20.759  18.893   7.991  1.00  0.00     0.031 C 
ENDBRANCH   7   9
ENDBRANCH   6   7
BRANCH   6  12
HETATM   12  C19 UNL     1      22.869  15.372  10.338  1.00  0.00     0.009 C 
HETATM   13  C20 UNL     1      24.099  15.346   9.480  1.00  0.00     0.012 C 
HETATM   14  C21 UNL     1      23.238  15.032  11.789  1.00  0.00     0.012 C 
ENDBRANCH   6  12
ENDBRANCH   3   6
ENDBRANCH   1   2
BRANCH   1  15
HETATM   15  C7  UNL     1      18.722  13.977  12.412  1.00  0.00     0.243 C 
HETATM   16  O2  UNL     1      18.541  12.973  11.684  1.00  0.00    -0.271 OA
HETATM   17  N3  UNL     1      18.916  13.786  13.796  1.00  0.00    -0.346 N 
HETATM   18  C8  UNL     1      19.170  14.579  15.001  1.00  0.00     0.128 C 
HETATM   19  C10 UNL     1      18.950  12.617  14.696  1.00  0.00     0.084 C 
HETATM   20  C9  UNL     1      19.916  13.390  15.551  1.00  0.00     0.045 C 
HETATM   21  C11 UNL     1      17.640  12.354  15.376  1.00  0.00     0.032 C 
ENDBRANCH   1  15
BRANCH   1  22
HETATM   22  C12 UNL     1      17.479  15.508  10.961  1.00  0.00     0.106 C 
HETATM   23  C13 UNL     1      16.233  15.486  11.844  1.00  0.00     0.022 C 
BRANCH  22  24
HETATM   24  C14 UNL     1      17.526  16.747  10.163  1.00  0.00     0.224 C 
HETATM   25  O3  UNL     1      18.284  16.848   9.172  1.00  0.00    -0.273 OA
HETATM   26  N4  UNL     1      16.722  17.886  10.464  1.00  0.00    -0.351 N 
ATOM     27  H4  UNL     1      16.095  17.833  11.266  1.00  0.00     0.163 HD
BRANCH  26  28
HETATM   28  C15 UNL     1      16.745  19.097   9.707  1.00  0.00     0.149 C 
HETATM   29  C16 UNL     1      16.126  20.274  10.461  1.00  0.00     0.141 C 
HETATM   30  C17 UNL     1      15.624  21.090   9.314  1.00  0.00     0.263 C 
HETATM   31  O4  UNL     1      15.184  22.270   9.395  1.00  0.00    -0.265 OA
HETATM   32  O5  UNL     1      15.712  20.353   8.131  1.00  0.00    -0.288 OA
HETATM   33  C18 UNL     1      15.798  18.991   8.532  1.00  0.00     0.289 C 
BRANCH  33  34
HETATM   34  O6  UNL     1      14.554  18.563   8.991  1.00  0.00    -0.369 OA
ATOM     35  H6  UNL     1      14.352  17.724   8.595  1.00  0.00     0.212 HD
ENDBRANCH  33  34
ENDBRANCH  26  28
ENDBRANCH  22  24
ENDBRANCH   1  22
TORSDOF 10
ENDMDL
MODEL 3
REMARK VINA RESULT: -7.483009784      1.744      2.402
REMARK  10 active torsions:
REMARK  status: ('A' for Active; 'I' for Inactive)
REMARK    1  A    between atoms: C2_2  and  N1_4 
REMARK    2  A    between atoms: N1_4  and  C4_6 
REMARK    3  A    between atoms: C4_6  and  C5_7 
REMARK    4  A    between atoms: C4_6  and  C19_33 
REMARK       I    between atoms: C5_7  and  N2_9 
REMARK    5  A    between atoms: N2_9  and  C6_11 
REMARK    6  A    between atoms: C6_11  and  C7_12 
REMARK    7  A    between atoms: C6_11  and  C12_19 
REMARK       I    between atoms: C7_12  and  N3_14 
REMARK    8  A    between atoms: C12_19  and  C14_21 
REMARK       I    between atoms: C14_21  and  N4_23 
REMARK    9  A    between atoms: N4_23  and  C15_25 
REMARK   10  A    between atoms: C18_30  and  O6_31 
ROOT
HETATM    1  C6  UNL     1      18.596  16.125  11.921  1.00  0.00     0.189 C 
ENDROOT
BRANCH   1   2
HETATM    2  N2  UNL     1      18.778  16.558  10.565  1.00  0.00    -0.345 N 
HETATM    3  C5  UNL     1      19.805  17.304   9.985  1.00  0.00     0.241 C 
HETATM    4  O1  UNL     1      20.773  17.717  10.657  1.00  0.00    -0.271 OA
ATOM      5  H2  UNL     1      18.037  16.276   9.923  1.00  0.00     0.163 HD
BRANCH   3   6
HETATM    6  C4  UNL     1      19.808  17.650   8.514  1.00  0.00     0.173 C 
BRANCH   6   7
HETATM    7  N1  UNL     1      21.170  18.054   8.203  1.00  0.00    -0.406 N 
ATOM      8  H1  UNL     1      21.549  18.958   8.483  1.00  0.00     0.154 HD
BRANCH   7   9
HETATM    9  C2  UNL     1      21.935  17.103   7.483  1.00  0.00     0.069 C 
HETATM   10  C1  UNL     1      22.518  17.835   6.265  1.00  0.00     0.031 C 
HETATM   11  C3  UNL     1      23.092  16.525   8.250  1.00  0.00     0.031 C 
ENDBRANCH   7   9
ENDBRANCH   6   7
BRANCH   6  12
HETATM   12  C19 UNL     1      18.940  18.852   8.274  1.00  0.00     0.009 C 
HETATM   13  C20 UNL     1      19.471  19.826   7.266  1.00  0.00     0.012 C 
HETATM   14  C21 UNL     1      17.530  18.400   7.871  1.00  0.00     0.012 C 
ENDBRANCH   6  12
ENDBRANCH   3   6
ENDBRANCH   1   2
BRANCH   1  15
HETATM   15  C7  UNL     1      18.950  14.721  12.124  1.00  0.00     0.243 C 
HETATM   16  O2  UNL     1      18.070  13.837  12.011  1.00  0.00    -0.271 OA
HETATM   17  N3  UNL     1      20.268  14.331  12.441  1.00  0.00    -0.346 N 
HETATM   18  C8  UNL     1      21.584  14.937  12.654  1.00  0.00     0.128 C 
HETATM   19  C10 UNL     1      20.942  13.046  12.712  1.00  0.00     0.084 C 
HETATM   20  C9  UNL     1      22.189  13.657  12.135  1.00  0.00     0.045 C 
HETATM   21  C11 UNL     1      21.059  12.736  14.175  1.00  0.00     0.032 C 
ENDBRANCH   1  15
BRANCH   1  22
HETATM   22  C12 UNL     1      17.160  16.370  12.394  1.00  0.00     0.106 C 
HETATM   23  C13 UNL     1      17.164  16.990  13.789  1.00  0.00     0.022 C 
BRANCH  22  24
HETATM   24  C14 UNL     1      16.391  17.209  11.457  1.00  0.00     0.224 C 
HETATM   25  O3  UNL     1      16.009  16.759  10.353  1.00  0.00    -0.273 OA
HETATM   26  N4  UNL     1      16.038  18.560  11.747  1.00  0.00    -0.351 N 
ATOM     27  H4  UNL     1      16.336  18.954  12.639  1.00  0.00     0.163 HD
BRANCH  26  28
HETATM   28  C15 UNL     1      15.291  19.393  10.859  1.00  0.00     0.149 C 
HETATM   29  C16 UNL     1      16.116  20.560  10.315  1.00  0.00     0.141 C 
HETATM   30  C17 UNL     1      15.035  21.568  10.092  1.00  0.00     0.263 C 
HETATM   31  O4  UNL     1      15.172  22.659   9.473  1.00  0.00    -0.265 OA
HETATM   32  O5  UNL     1      13.844  21.125  10.671  1.00  0.00    -0.288 OA
HETATM   33  C18 UNL     1      14.224  20.142  11.626  1.00  0.00     0.289 C 
BRANCH  33  34
HETATM   34  O6  UNL     1      14.810  20.765  12.726  1.00  0.00    -0.369 OA
ATOM     35  H6  UNL     1      15.060  20.102  13.359  1.00  0.00     0.212 HD
ENDBRANCH  33  34
ENDBRANCH  26  28
ENDBRANCH  22  24
ENDBRANCH   1  22
TORSDOF 10
ENDMDL
MODEL 4
REMARK VINA RESULT: -7.444329440      2.086      7.375
REMARK  10 active torsions:
REMARK  status: ('A' for Active; 'I' for Inactive)
REMARK    1  A    between atoms: C2_2  and  N1_4 
REMARK    2  A    between atoms: N1_4  and  C4_6 
REMARK    3  A    between atoms: C4_6  and  C5_7 
REMARK    4  A    between atoms: C4_6  and  C19_33 
REMARK       I    between atoms: C5_7  and  N2_9 
REMARK    5  A    between atoms: N2_9  and  C6_11 
REMARK    6  A    between atoms: C6_11  and  C7_12 
REMARK    7  A    between atoms: C6_11  and  C12_19 
REMARK       I    between atoms: C7_12  and  N3_14 
REMARK    8  A    between atoms: C12_19  and  C14_21 
REMARK       I    between atoms: C14_21  and  N4_23 
REMARK    9  A    between atoms: N4_23  and  C15_25 
REMARK   10  A    between atoms: C18_30  and  O6_31 
ROOT
HETATM    1  C6  UNL     1      18.547  18.477   9.721  1.00  0.00     0.189 C 
ENDROOT
BRANCH   1   2
HETATM    2  N2  UNL     1      18.362  17.429  10.683  1.00  0.00    -0.345 N 
HETATM    3  C5  UNL     1      18.892  17.275  11.965  1.00  0.00     0.241 C 
HETATM    4  O1  UNL     1      19.668  18.120  12.457  1.00  0.00    -0.271 OA
ATOM      5  H2  UNL     1      17.742  16.677  10.383  1.00  0.00     0.163 HD
BRANCH   3   6
HETATM    6  C4  UNL     1      18.558  16.082  12.830  1.00  0.00     0.173 C 
BRANCH   6   7
HETATM    7  N1  UNL     1      19.800  15.707  13.488  1.00  0.00    -0.406 N 
ATOM      8  H1  UNL     1      20.664  15.545  12.972  1.00  0.00     0.154 HD
BRANCH   7   9
HETATM    9  C2  UNL     1      19.725  15.582  14.897  1.00  0.00     0.069 C 
HETATM   10  C1  UNL     1      18.369  16.165  15.321  1.00  0.00     0.031 C 
HETATM   11  C3  UNL     1      19.778  14.166  15.401  1.00  0.00     0.031 C 
ENDBRANCH   7   9
ENDBRANCH   6   7
BRANCH   6  12
HETATM   12  C19 UNL     1      18.166  14.921  11.962  1.00  0.00     0.009 C 
HETATM   13  C20 UNL     1      19.237  13.891  11.759  1.00  0.00     0.012 C 
HETATM   14  C21 UNL     1      16.903  14.256  12.526  1.00  0.00     0.012 C 
ENDBRANCH   6  12
ENDBRANCH   3   6
ENDBRANCH   1   2
BRANCH   1  15
HETATM   15  C7  UNL     1      17.294  18.919   9.110  1.00  0.00     0.243 C 
HETATM   16  O2  UNL     1      17.117  18.767   7.879  1.00  0.00    -0.271 OA
HETATM   17  N3  UNL     1      16.269  19.512   9.876  1.00  0.00    -0.346 N 
HETATM   18  C8  UNL     1      15.991  19.875  11.267  1.00  0.00     0.128 C 
HETATM   19  C10 UNL     1      14.931  20.063   9.584  1.00  0.00     0.084 C 
HETATM   20  C9  UNL     1      14.531  19.642  10.972  1.00  0.00     0.045 C 
HETATM   21  C11 UNL     1      14.931  21.550   9.395  1.00  0.00     0.032 C 
ENDBRANCH   1  15
BRANCH   1  22
HETATM   22  C12 UNL     1      19.536  18.058   8.628  1.00  0.00     0.106 C 
HETATM   23  C13 UNL     1      20.490  19.208   8.313  1.00  0.00     0.022 C 
BRANCH  22  24
HETATM   24  C14 UNL     1      20.290  16.842   8.984  1.00  0.00     0.224 C 
HETATM   25  O3  UNL     1      19.748  15.714   8.948  1.00  0.00    -0.273 OA
HETATM   26  N4  UNL     1      21.660  16.875   9.380  1.00  0.00    -0.351 N 
ATOM     27  H4  UNL     1      22.127  17.781   9.419  1.00  0.00     0.163 HD
BRANCH  26  28
HETATM   28  C15 UNL     1      22.414  15.713   9.726  1.00  0.00     0.149 C 
HETATM   29  C16 UNL     1      22.567  15.539  11.237  1.00  0.00     0.141 C 
HETATM   30  C17 UNL     1      23.874  14.817  11.291  1.00  0.00     0.263 C 
HETATM   31  O4  UNL     1      24.366  14.275  12.319  1.00  0.00    -0.265 OA
HETATM   32  O5  UNL     1      24.476  14.828  10.031  1.00  0.00    -0.288 OA
HETATM   33  C18 UNL     1      23.860  15.894   9.320  1.00  0.00     0.289 C 
BRANCH  33  34
HETATM   34  O6  UNL     1      24.321  17.111   9.818  1.00  0.00    -0.369 OA
ATOM     35  H6  UNL     1      25.164  17.305   9.428  1.00  0.00     0.212 HD
ENDBRANCH  33  34
ENDBRANCH  26  28
ENDBRANCH  22  24
ENDBRANCH   1  22
TORSDOF 10
ENDMDL
MODEL 5
REMARK VINA RESULT: -7.424780924      2.166      6.949
REMARK  10 active torsions:
REMARK  status: ('A' for Active; 'I' for Inactive)
REMARK    1  A    between atoms: C2_2  and  N1_4 
REMARK    2  A    between atoms: N1_4  and  C4_6 
REMARK    3  A    between atoms: C4_6  and  C5_7 
REMARK    4  A    between atoms: C4_6  and  C19_33 
REMARK       I    between atoms: C5_7  and  N2_9 
REMARK    5  A    between atoms: N2_9  and  C6_11 
REMARK    6  A    between atoms: C6_11  and  C7_12 
REMARK    7  A    between atoms: C6_11  and  C12_19 
REMARK       I    between atoms: C7_12  and  N3_14 
REMARK    8  A    between atoms: C12_19  and  C14_21 
REMARK       I    between atoms: C14_21  and  N4_23 
REMARK    9  A    between atoms: N4_23  and  C15_25 
REMARK   10  A    between atoms: C18_30  and  O6_31 
ROOT
HETATM    1  C6  UNL     1      18.479  16.706  10.940  1.00  0.00     0.189 C 
ENDROOT
BRANCH   1   2
HETATM    2  N2  UNL     1      19.880  16.421  11.051  1.00  0.00    -0.345 N 
HETATM    3  C5  UNL     1      20.881  16.413  10.078  1.00  0.00     0.241 C 
HETATM    4  O1  UNL     1      20.633  16.679   8.884  1.00  0.00    -0.271 OA
ATOM      5  H2  UNL     1      20.196  16.186  11.993  1.00  0.00     0.163 HD
BRANCH   3   6
HETATM    6  C4  UNL     1      22.318  16.086  10.413  1.00  0.00     0.173 C 
BRANCH   6   7
HETATM    7  N1  UNL     1      22.858  15.419   9.238  1.00  0.00    -0.406 N 
ATOM      8  H1  UNL     1      22.548  14.492   8.946  1.00  0.00     0.154 HD
BRANCH   7   9
HETATM    9  C2  UNL     1      23.845  16.146   8.528  1.00  0.00     0.069 C 
HETATM   10  C1  UNL     1      24.098  17.438   9.320  1.00  0.00     0.031 C 
HETATM   11  C3  UNL     1      25.166  15.439   8.398  1.00  0.00     0.031 C 
ENDBRANCH   7   9
ENDBRANCH   6   7
BRANCH   6  12
HETATM   12  C19 UNL     1      22.363  15.086  11.532  1.00  0.00     0.009 C 
HETATM   13  C20 UNL     1      21.673  13.785  11.247  1.00  0.00     0.012 C 
HETATM   14  C21 UNL     1      23.821  14.826  11.935  1.00  0.00     0.012 C 
ENDBRANCH   6  12
ENDBRANCH   3   6
ENDBRANCH   1   2
BRANCH   1  15
HETATM   15  C7  UNL     1      18.186  18.139  10.958  1.00  0.00     0.243 C 
HETATM   16  O2  UNL     1      18.915  18.913  11.621  1.00  0.00    -0.271 OA
HETATM   17  N3  UNL     1      17.098  18.679  10.240  1.00  0.00    -0.346 N 
HETATM   18  C8  UNL     1      16.023  18.232   9.353  1.00  0.00     0.128 C 
HETATM   19  C10 UNL     1      16.534  20.031  10.057  1.00  0.00     0.084 C 
HETATM   20  C9  UNL     1      16.091  19.585   8.691  1.00  0.00     0.045 C 
HETATM   21  C11 UNL     1      15.391  20.325  10.982  1.00  0.00     0.032 C 
ENDBRANCH   1  15
BRANCH   1  22
HETATM   22  C12 UNL     1      17.679  16.000  12.040  1.00  0.00     0.106 C 
HETATM   23  C13 UNL     1      16.724  14.981  11.423  1.00  0.00     0.022 C 
BRANCH  22  24
HETATM   24  C14 UNL     1      18.545  15.357  13.044  1.00  0.00     0.224 C 
HETATM   25  O3  UNL     1      19.313  16.036  13.764  1.00  0.00    -0.273 OA
HETATM   26  N4  UNL     1      18.560  13.947  13.256  1.00  0.00    -0.351 N 
ATOM     27  H4  UNL     1      17.946  13.369  12.684  1.00  0.00     0.163 HD
BRANCH  26  28
HETATM   28  C15 UNL     1      19.386  13.298  14.224  1.00  0.00     0.149 C 
HETATM   29  C16 UNL     1      19.901  11.942  13.743  1.00  0.00     0.141 C 
HETATM   30  C17 UNL     1      20.046  11.233  15.051  1.00  0.00     0.263 C 
HETATM   31  O4  UNL     1      20.618  10.121  15.219  1.00  0.00    -0.265 OA
HETATM   32  O5  UNL     1      19.451  11.984  16.067  1.00  0.00    -0.288 OA
HETATM   33  C18 UNL     1      18.554  12.873  15.414  1.00  0.00     0.289 C 
BRANCH  33  34
HETATM   34  O6  UNL     1      17.445  12.163  14.959  1.00  0.00    -0.369 OA
ATOM     35  H6  UNL     1      17.148  11.581  15.648  1.00  0.00     0.212 HD
ENDBRANCH  33  34
ENDBRANCH  26  28
ENDBRANCH  22  24
ENDBRANCH   1  22
TORSDOF 10
ENDMDL
