MODEL 1
REMARK VINA RESULT: -5.877720181      0.000      0.000
REMARK  6 active torsions:
REMARK  status: ('A' for Active; 'I' for Inactive)
REMARK    1  A    between atoms: C3_3  and  N1_4 
REMARK    2  A    between atoms: C3_3  and  C5_8 
REMARK    3  A    between atoms: N1_4  and  C4_6 
REMARK    4  A    between atoms: C5_8  and  O2_9 
REMARK    5  A    between atoms: C5_8  and  C6_11 
REMARK    6  A    between atoms: C8_13  and  N2_14 
ROOT
HETATM    1  C1  UNL     1      -8.889  11.086  35.305  1.00  0.00     0.014 C 
HETATM    2  C2  UNL     1      -9.512  10.801  36.309  1.00  0.00    -0.089 C 
HETATM    3  C3  UNL     1     -10.244  10.456  37.530  1.00  0.00     0.193 C 
ENDROOT
BRANCH   3   4
HETATM    4  N1  UNL     1     -10.958  11.600  38.009  1.00  0.00    -0.351 N 
ATOM      5  H1  UNL     1     -10.625  12.524  37.733  1.00  0.00     0.163 HD
BRANCH   4   6
HETATM    6  C4  UNL     1     -12.105  11.522  38.849  1.00  0.00     0.349 C 
HETATM    7  O1  UNL     1     -12.074  11.718  40.083  1.00  0.00    -0.284 OA
ENDBRANCH   4   6
ENDBRANCH   3   4
BRANCH   3   8
HETATM    8  C5  UNL     1     -11.050   9.220  37.313  1.00  0.00     0.183 C 
BRANCH   8   9
HETATM    9  O2  UNL     1     -10.823   8.648  36.088  1.00  0.00    -0.390 OA
ATOM     10  H2  UNL     1     -11.342   7.865  35.947  1.00  0.00     0.210 HD
ENDBRANCH   8   9
BRANCH   8  11
HETATM   11  C6  UNL     1     -11.001   8.198  38.404  1.00  0.00     0.219 C 
HETATM   12  C7  UNL     1     -12.271   8.056  39.187  1.00  0.00     0.070 C 
HETATM   13  C8  UNL     1     -11.835   7.937  40.622  1.00  0.00     0.211 C 
HETATM   14  C9  UNL     1     -10.602   8.816  40.629  1.00  0.00     0.265 C 
HETATM   15  N3  UNL     1      -9.982   8.658  39.355  1.00  0.00    -0.066 N 
ATOM     16  H32 UNL     1      -9.167   8.045  39.388  1.00  0.00     0.277 HD
ATOM     17  H31 UNL     1      -9.505   9.504  39.042  1.00  0.00     0.277 HD
BRANCH  13  18
HETATM   18  N2  UNL     1     -12.792   8.492  41.549  1.00  0.00    -0.073 N 
ATOM     19  H23 UNL     1     -12.442   9.359  41.957  1.00  0.00     0.274 HD
ATOM     20  H22 UNL     1     -13.607   8.856  41.057  1.00  0.00     0.274 HD
ATOM     21  H21 UNL     1     -13.070   7.834  42.276  1.00  0.00     0.274 HD
ENDBRANCH  13  18
ENDBRANCH   8  11
ENDBRANCH   3   8
TORSDOF 6
ENDMDL
MODEL 2
REMARK VINA RESULT: -5.072069546      3.162      4.595
REMARK  6 active torsions:
REMARK  status: ('A' for Active; 'I' for Inactive)
REMARK    1  A    between atoms: C3_3  and  N1_4 
REMARK    2  A    between atoms: C3_3  and  C5_8 
REMARK    3  A    between atoms: N1_4  and  C4_6 
REMARK    4  A    between atoms: C5_8  and  O2_9 
REMARK    5  A    between atoms: C5_8  and  C6_11 
REMARK    6  A    between atoms: C8_13  and  N2_14 
ROOT
HETATM    1  C1  UNL     1     -11.529   7.200  39.071  1.00  0.00     0.014 C 
HETATM    2  C2  UNL     1     -11.363   8.233  39.689  1.00  0.00    -0.089 C 
HETATM    3  C3  UNL     1     -11.141   9.472  40.438  1.00  0.00     0.193 C 
ENDROOT
BRANCH   3   4
HETATM    4  N1  UNL     1     -11.114  10.585  39.539  1.00  0.00    -0.351 N 
ATOM      5  H1  UNL     1     -10.278  11.169  39.524  1.00  0.00     0.163 HD
BRANCH   4   6
HETATM    6  C4  UNL     1     -12.186  10.925  38.666  1.00  0.00     0.349 C 
HETATM    7  O1  UNL     1     -13.186  11.585  39.023  1.00  0.00    -0.284 OA
ENDBRANCH   4   6
ENDBRANCH   3   4
BRANCH   3   8
HETATM    8  C5  UNL     1     -12.105   9.565  41.572  1.00  0.00     0.183 C 
BRANCH   8   9
HETATM    9  O2  UNL     1     -12.043   8.482  42.410  1.00  0.00    -0.390 OA
ATOM     10  H2  UNL     1     -11.151   8.236  42.626  1.00  0.00     0.210 HD
ENDBRANCH   8   9
BRANCH   8  11
HETATM   11  C6  UNL     1     -12.098  10.846  42.344  1.00  0.00     0.219 C 
HETATM   12  C7  UNL     1     -12.102  10.681  43.833  1.00  0.00     0.070 C 
HETATM   13  C8  UNL     1     -13.070  11.714  44.340  1.00  0.00     0.211 C 
HETATM   14  C9  UNL     1     -14.078  11.752  43.210  1.00  0.00     0.265 C 
HETATM   15  N3  UNL     1     -13.347  11.539  42.005  1.00  0.00    -0.066 N 
ATOM     16  H32 UNL     1     -13.191  12.400  41.482  1.00  0.00     0.277 HD
ATOM     17  H31 UNL     1     -13.891  11.045  41.297  1.00  0.00     0.277 HD
BRANCH  13  18
HETATM   18  N2  UNL     1     -13.754  11.304  45.543  1.00  0.00    -0.073 N 
ATOM     19  H23 UNL     1     -14.708  11.010  45.336  1.00  0.00     0.274 HD
ATOM     20  H22 UNL     1     -13.379  10.422  45.891  1.00  0.00     0.274 HD
ATOM     21  H21 UNL     1     -13.741  12.017  46.271  1.00  0.00     0.274 HD
ENDBRANCH  13  18
ENDBRANCH   8  11
ENDBRANCH   3   8
TORSDOF 6
ENDMDL
MODEL 3
REMARK VINA RESULT: -5.052732108      3.471      5.387
REMARK  6 active torsions:
REMARK  status: ('A' for Active; 'I' for Inactive)
REMARK    1  A    between atoms: C3_3  and  N1_4 
REMARK    2  A    between atoms: C3_3  and  C5_8 
REMARK    3  A    between atoms: N1_4  and  C4_6 
REMARK    4  A    between atoms: C5_8  and  O2_9 
REMARK    5  A    between atoms: C5_8  and  C6_11 
REMARK    6  A    between atoms: C8_13  and  N2_14 
ROOT
HETATM    1  C1  UNL     1     -15.221  11.801  42.195  1.00  0.00     0.014 C 
HETATM    2  C2  UNL     1     -14.043  11.562  42.372  1.00  0.00    -0.089 C 
HETATM    3  C3  UNL     1     -12.617  11.294  42.574  1.00  0.00     0.193 C 
ENDROOT
BRANCH   3   4
HETATM    4  N1  UNL     1     -12.259  11.563  43.934  1.00  0.00    -0.351 N 
ATOM      5  H1  UNL     1     -11.367  12.022  44.114  1.00  0.00     0.163 HD
BRANCH   4   6
HETATM    6  C4  UNL     1     -13.077  11.224  45.049  1.00  0.00     0.349 C 
HETATM    7  O1  UNL     1     -12.712  10.457  45.967  1.00  0.00    -0.284 OA
ENDBRANCH   4   6
ENDBRANCH   3   4
BRANCH   3   8
HETATM    8  C5  UNL     1     -12.272   9.938  42.058  1.00  0.00     0.183 C 
BRANCH   8   9
HETATM    9  O2  UNL     1     -13.362   9.111  41.973  1.00  0.00    -0.390 OA
ATOM     10  H2  UNL     1     -13.493   8.595  42.760  1.00  0.00     0.210 HD
ENDBRANCH   8   9
BRANCH   8  11
HETATM   11  C6  UNL     1     -11.462   9.894  40.802  1.00  0.00     0.219 C 
HETATM   12  C7  UNL     1     -12.060  10.634  39.644  1.00  0.00     0.070 C 
HETATM   13  C8  UNL     1     -11.845   9.739  38.455  1.00  0.00     0.211 C 
HETATM   14  C9  UNL     1     -11.955   8.370  39.093  1.00  0.00     0.265 C 
HETATM   15  N3  UNL     1     -11.399   8.484  40.400  1.00  0.00    -0.066 N 
ATOM     16  H32 UNL     1     -10.458   8.098  40.463  1.00  0.00     0.277 HD
ATOM     17  H31 UNL     1     -11.848   7.863  41.074  1.00  0.00     0.277 HD
BRANCH  13  18
HETATM   18  N2  UNL     1     -12.886   9.860  37.462  1.00  0.00    -0.073 N 
ATOM     19  H23 UNL     1     -12.884   9.058  36.833  1.00  0.00     0.274 HD
ATOM     20  H22 UNL     1     -13.806   9.740  37.884  1.00  0.00     0.274 HD
ATOM     21  H21 UNL     1     -12.837  10.734  36.938  1.00  0.00     0.274 HD
ENDBRANCH  13  18
ENDBRANCH   8  11
ENDBRANCH   3   8
TORSDOF 6
ENDMDL
MODEL 4
REMARK VINA RESULT: -5.045492655      2.711      4.258
REMARK  6 active torsions:
REMARK  status: ('A' for Active; 'I' for Inactive)
REMARK    1  A    between atoms: C3_3  and  N1_4 
REMARK    2  A    between atoms: C3_3  and  C5_8 
REMARK    3  A    between atoms: N1_4  and  C4_6 
REMARK    4  A    between atoms: C5_8  and  O2_9 
REMARK    5  A    between atoms: C5_8  and  C6_11 
REMARK    6  A    between atoms: C8_13  and  N2_14 
ROOT
HETATM    1  C1  UNL     1     -11.942   7.684  39.560  1.00  0.00     0.014 C 
HETATM    2  C2  UNL     1     -11.622   8.853  39.467  1.00  0.00    -0.089 C 
HETATM    3  C3  UNL     1     -11.215  10.256  39.366  1.00  0.00     0.193 C 
ENDROOT
BRANCH   3   4
HETATM    4  N1  UNL     1     -10.914  10.579  38.004  1.00  0.00    -0.351 N 
ATOM      5  H1  UNL     1     -11.096  11.530  37.685  1.00  0.00     0.163 HD
BRANCH   4   6
HETATM    6  C4  UNL     1     -10.377   9.648  37.070  1.00  0.00     0.349 C 
HETATM    7  O1  UNL     1     -11.070   9.033  36.230  1.00  0.00    -0.284 OA
ENDBRANCH   4   6
ENDBRANCH   3   4
BRANCH   3   8
HETATM    8  C5  UNL     1     -12.215  11.130  40.044  1.00  0.00     0.183 C 
BRANCH   8   9
HETATM    9  O2  UNL     1     -13.250  11.489  39.221  1.00  0.00    -0.390 OA
ATOM     10  H2  UNL     1     -13.605  10.753  38.736  1.00  0.00     0.210 HD
ENDBRANCH   8   9
BRANCH   8  11
HETATM   11  C6  UNL     1     -12.719  10.654  41.370  1.00  0.00     0.219 C 
HETATM   12  C7  UNL     1     -13.785  11.513  41.980  1.00  0.00     0.070 C 
HETATM   13  C8  UNL     1     -13.427  11.606  43.437  1.00  0.00     0.211 C 
HETATM   14  C9  UNL     1     -11.915  11.567  43.372  1.00  0.00     0.265 C 
HETATM   15  N3  UNL     1     -11.575  10.706  42.289  1.00  0.00    -0.066 N 
ATOM     16  H32 UNL     1     -11.277   9.781  42.599  1.00  0.00     0.277 HD
ATOM     17  H31 UNL     1     -10.709  10.980  41.824  1.00  0.00     0.277 HD
BRANCH  13  18
HETATM   18  N2  UNL     1     -13.823  12.857  44.036  1.00  0.00    -0.073 N 
ATOM     19  H23 UNL     1     -14.684  12.749  44.572  1.00  0.00     0.274 HD
ATOM     20  H22 UNL     1     -13.188  13.116  44.791  1.00  0.00     0.274 HD
ATOM     21  H21 UNL     1     -13.909  13.614  43.358  1.00  0.00     0.274 HD
ENDBRANCH  13  18
ENDBRANCH   8  11
ENDBRANCH   3   8
TORSDOF 6
ENDMDL
MODEL 5
REMARK VINA RESULT: -4.878121514      2.360      4.762
REMARK  6 active torsions:
REMARK  status: ('A' for Active; 'I' for Inactive)
REMARK    1  A    between atoms: C3_3  and  N1_4 
REMARK    2  A    between atoms: C3_3  and  C5_8 
REMARK    3  A    between atoms: N1_4  and  C4_6 
REMARK    4  A    between atoms: C5_8  and  O2_9 
REMARK    5  A    between atoms: C5_8  and  C6_11 
REMARK    6  A    between atoms: C8_13  and  N2_14 
ROOT
HETATM    1  C1  UNL     1     -11.815   7.896  41.970  1.00  0.00     0.014 C 
HETATM    2  C2  UNL     1     -12.141   9.032  41.689  1.00  0.00    -0.089 C 
HETATM    3  C3  UNL     1     -12.557  10.396  41.356  1.00  0.00     0.193 C 
ENDROOT
BRANCH   3   4
HETATM    4  N1  UNL     1     -12.083  11.307  42.353  1.00  0.00    -0.351 N 
ATOM      5  H1  UNL     1     -11.622  12.162  42.043  1.00  0.00     0.163 HD
BRANCH   4   6
HETATM    6  C4  UNL     1     -12.218  11.087  43.754  1.00  0.00     0.349 C 
HETATM    7  O1  UNL     1     -13.321  10.973  44.333  1.00  0.00    -0.284 OA
ENDBRANCH   4   6
ENDBRANCH   3   4
BRANCH   3   8
HETATM    8  C5  UNL     1     -12.189  10.715  39.946  1.00  0.00     0.183 C 
BRANCH   8   9
HETATM    9  O2  UNL     1     -11.750  12.004  39.791  1.00  0.00    -0.390 OA
ATOM     10  H2  UNL     1     -10.910  12.157  40.206  1.00  0.00     0.210 HD
ENDBRANCH   8   9
BRANCH   8  11
HETATM   11  C6  UNL     1     -11.273   9.747  39.266  1.00  0.00     0.219 C 
HETATM   12  C7  UNL     1     -10.150  10.379  38.502  1.00  0.00     0.070 C 
HETATM   13  C8  UNL     1     -10.061   9.599  37.219  1.00  0.00     0.211 C 
HETATM   14  C9  UNL     1     -11.515   9.241  36.991  1.00  0.00     0.265 C 
HETATM   15  N3  UNL     1     -12.090   9.031  38.278  1.00  0.00    -0.066 N 
ATOM     16  H32 UNL     1     -12.202   8.042  38.502  1.00  0.00     0.277 HD
ATOM     17  H31 UNL     1     -13.075   9.293  38.317  1.00  0.00     0.277 HD
BRANCH  13  18
HETATM   18  N2  UNL     1      -9.612  10.397  36.104  1.00  0.00    -0.073 N 
ATOM     19  H23 UNL     1     -10.088  11.298  36.086  1.00  0.00     0.274 HD
ATOM     20  H22 UNL     1      -8.654  10.717  36.248  1.00  0.00     0.274 HD
ATOM     21  H21 UNL     1      -9.704   9.919  35.208  1.00  0.00     0.274 HD
ENDBRANCH  13  18
ENDBRANCH   8  11
ENDBRANCH   3   8
TORSDOF 6
ENDMDL
