MODEL 1
REMARK VINA RESULT: -4.554720735      0.000      0.000
REMARK  7 active torsions:
REMARK  status: ('A' for Active; 'I' for Inactive)
REMARK    1  A    between atoms: C2_2  and  C3_3 
REMARK    2  A    between atoms: C2_2  and  N2_9 
REMARK    3  A    between atoms: C3_3  and  C4_4 
REMARK    4  A    between atoms: C4_4  and  N1_5 
REMARK    5  A    between atoms: N2_9  and  C5_12 
REMARK    6  A    between atoms: C5_12  and  C6_13 
REMARK    7  A    between atoms: C9_19  and  N4_20 
ROOT
HETATM    1  C5  UNL     1     -11.226  10.254  39.930  1.00  0.00     0.241 C 
ENDROOT
BRANCH   1   2
HETATM    2  N2  UNL     1     -10.735   9.604  41.110  1.00  0.00    -0.071 N 
ATOM      3  H22 UNL     1      -9.991  10.155  41.538  1.00  0.00     0.277 HD
ATOM      4  H21 UNL     1     -10.210   8.765  40.866  1.00  0.00     0.277 HD
BRANCH   2   5
HETATM    5  C2  UNL     1     -11.760   9.297  42.079  1.00  0.00     0.183 C 
HETATM    6  C1  UNL     1     -12.497   8.056  41.597  1.00  0.00     0.040 C 
BRANCH   5   7
HETATM    7  C3  UNL     1     -12.696  10.476  42.181  1.00  0.00     0.059 C 
BRANCH   7   8
HETATM    8  C4  UNL     1     -12.373  11.390  43.320  1.00  0.00     0.231 C 
BRANCH   8   9
HETATM    9  N1  UNL     1     -12.465  12.786  43.035  1.00  0.00    -0.079 N 
ATOM     10  H13 UNL     1     -11.612  13.260  43.331  1.00  0.00     0.274 HD
ATOM     11  H12 UNL     1     -12.417  12.940  42.028  1.00  0.00     0.274 HD
ATOM     12  H11 UNL     1     -13.281  13.261  43.422  1.00  0.00     0.274 HD
ENDBRANCH   8   9
ENDBRANCH   7   8
ENDBRANCH   5   7
ENDBRANCH   2   5
ENDBRANCH   1   2
BRANCH   1  13
HETATM   13  C6  UNL     1     -10.595   9.727  38.668  1.00  0.00     0.069 C 
HETATM   14  C7  UNL     1     -10.218  10.794  37.675  1.00  0.00     0.240 C 
HETATM   15  N3  UNL     1     -10.109  10.098  36.392  1.00  0.00    -0.073 N 
HETATM   16  C8  UNL     1     -10.847   8.856  36.520  1.00  0.00     0.265 C 
ATOM     17  H32 UNL     1     -10.415  10.666  35.601  1.00  0.00     0.277 HD
ATOM     18  H31 UNL     1      -9.144   9.962  36.091  1.00  0.00     0.277 HD
HETATM   19  C9  UNL     1     -11.646   8.990  37.816  1.00  0.00     0.216 C 
BRANCH  19  20
HETATM   20  N4  UNL     1     -12.798   9.783  37.548  1.00  0.00    -0.073 N 
ATOM     21  H43 UNL     1     -12.767  10.164  36.602  1.00  0.00     0.274 HD
ATOM     22  H42 UNL     1     -13.631   9.200  37.465  1.00  0.00     0.274 HD
ATOM     23  H41 UNL     1     -12.939  10.524  38.235  1.00  0.00     0.274 HD
ENDBRANCH  19  20
ENDBRANCH   1  13
TORSDOF 7
ENDMDL
MODEL 2
REMARK VINA RESULT: -4.385055289      1.815      5.261
REMARK  7 active torsions:
REMARK  status: ('A' for Active; 'I' for Inactive)
REMARK    1  A    between atoms: C2_2  and  C3_3 
REMARK    2  A    between atoms: C2_2  and  N2_9 
REMARK    3  A    between atoms: C3_3  and  C4_4 
REMARK    4  A    between atoms: C4_4  and  N1_5 
REMARK    5  A    between atoms: N2_9  and  C5_12 
REMARK    6  A    between atoms: C5_12  and  C6_13 
REMARK    7  A    between atoms: C9_19  and  N4_20 
ROOT
HETATM    1  C5  UNL     1      -9.920   9.506  39.513  1.00  0.00     0.241 C 
ENDROOT
BRANCH   1   2
HETATM    2  N2  UNL     1     -10.304   8.689  38.400  1.00  0.00    -0.071 N 
ATOM      3  H22 UNL     1     -10.988   7.990  38.689  1.00  0.00     0.277 HD
ATOM      4  H21 UNL     1      -9.538   8.077  38.123  1.00  0.00     0.277 HD
BRANCH   2   5
HETATM    5  C2  UNL     1     -10.792   9.437  37.266  1.00  0.00     0.183 C 
HETATM    6  C1  UNL     1     -10.714   8.532  36.044  1.00  0.00     0.040 C 
BRANCH   5   7
HETATM    7  C3  UNL     1      -9.928  10.661  37.088  1.00  0.00     0.059 C 
BRANCH   7   8
HETATM    8  C4  UNL     1      -9.224  10.700  35.769  1.00  0.00     0.231 C 
BRANCH   8   9
HETATM    9  N1  UNL     1      -8.839  11.997  35.314  1.00  0.00    -0.079 N 
ATOM     10  H13 UNL     1      -8.529  11.949  34.343  1.00  0.00     0.274 HD
ATOM     11  H12 UNL     1      -9.663  12.589  35.211  1.00  0.00     0.274 HD
ATOM     12  H11 UNL     1      -8.136  12.472  35.881  1.00  0.00     0.274 HD
ENDBRANCH   8   9
ENDBRANCH   7   8
ENDBRANCH   5   7
ENDBRANCH   2   5
ENDBRANCH   1   2
BRANCH   1  13
HETATM   13  C6  UNL     1     -10.743   9.240  40.746  1.00  0.00     0.069 C 
HETATM   14  C7  UNL     1     -11.916   8.325  40.519  1.00  0.00     0.240 C 
HETATM   15  N3  UNL     1     -12.825   8.587  41.636  1.00  0.00    -0.073 N 
HETATM   16  C8  UNL     1     -12.467   9.884  42.177  1.00  0.00     0.265 C 
ATOM     17  H32 UNL     1     -13.809   8.520  41.376  1.00  0.00     0.277 HD
ATOM     18  H31 UNL     1     -12.824   7.846  42.337  1.00  0.00     0.277 HD
HETATM   19  C9  UNL     1     -11.522  10.506  41.149  1.00  0.00     0.216 C 
BRANCH  19  20
HETATM   20  N4  UNL     1     -12.307  11.036  40.086  1.00  0.00    -0.073 N 
ATOM     21  H43 UNL     1     -13.292  10.796  40.205  1.00  0.00     0.274 HD
ATOM     22  H42 UNL     1     -12.375  12.051  40.153  1.00  0.00     0.274 HD
ATOM     23  H41 UNL     1     -11.971  10.753  39.165  1.00  0.00     0.274 HD
ENDBRANCH  19  20
ENDBRANCH   1  13
TORSDOF 7
ENDMDL
MODEL 3
REMARK VINA RESULT: -4.177296075      1.485      1.737
REMARK  7 active torsions:
REMARK  status: ('A' for Active; 'I' for Inactive)
REMARK    1  A    between atoms: C2_2  and  C3_3 
REMARK    2  A    between atoms: C2_2  and  N2_9 
REMARK    3  A    between atoms: C3_3  and  C4_4 
REMARK    4  A    between atoms: C4_4  and  N1_5 
REMARK    5  A    between atoms: N2_9  and  C5_12 
REMARK    6  A    between atoms: C5_12  and  C6_13 
REMARK    7  A    between atoms: C9_19  and  N4_20 
ROOT
HETATM    1  C5  UNL     1     -12.130  10.984  40.143  1.00  0.00     0.241 C 
ENDROOT
BRANCH   1   2
HETATM    2  N2  UNL     1     -12.111  10.489  41.488  1.00  0.00    -0.071 N 
ATOM      3  H22 UNL     1     -11.214  10.052  41.696  1.00  0.00     0.277 HD
ATOM      4  H21 UNL     1     -12.723   9.679  41.580  1.00  0.00     0.277 HD
BRANCH   2   5
HETATM    5  C2  UNL     1     -12.433  11.484  42.483  1.00  0.00     0.183 C 
HETATM    6  C1  UNL     1     -11.995  10.945  43.837  1.00  0.00     0.040 C 
BRANCH   5   7
HETATM    7  C3  UNL     1     -13.922  11.729  42.455  1.00  0.00     0.059 C 
BRANCH   7   8
HETATM    8  C4  UNL     1     -14.413  12.514  43.629  1.00  0.00     0.231 C 
BRANCH   8   9
HETATM    9  N1  UNL     1     -14.026  13.888  43.657  1.00  0.00    -0.079 N 
ATOM     10  H13 UNL     1     -13.349  14.045  44.404  1.00  0.00     0.274 HD
ATOM     11  H12 UNL     1     -13.451  14.105  42.843  1.00  0.00     0.274 HD
ATOM     12  H11 UNL     1     -14.791  14.559  43.733  1.00  0.00     0.274 HD
ENDBRANCH   8   9
ENDBRANCH   7   8
ENDBRANCH   5   7
ENDBRANCH   2   5
ENDBRANCH   1   2
BRANCH   1  13
HETATM   13  C6  UNL     1     -11.241  10.196  39.217  1.00  0.00     0.069 C 
HETATM   14  C7  UNL     1     -10.657  11.002  38.087  1.00  0.00     0.240 C 
HETATM   15  N3  UNL     1     -10.273  10.017  37.076  1.00  0.00    -0.073 N 
HETATM   16  C8  UNL     1     -11.023   8.808  37.357  1.00  0.00     0.265 C 
ATOM     17  H32 UNL     1     -10.399  10.354  36.121  1.00  0.00     0.277 HD
ATOM     18  H31 UNL     1      -9.266   9.863  37.028  1.00  0.00     0.277 HD
HETATM   19  C9  UNL     1     -12.083   9.215  38.379  1.00  0.00     0.216 C 
BRANCH  19  20
HETATM   20  N4  UNL     1     -13.149   9.854  37.683  1.00  0.00    -0.073 N 
ATOM     21  H43 UNL     1     -13.845  10.217  38.335  1.00  0.00     0.274 HD
ATOM     22  H42 UNL     1     -12.838  10.732  37.267  1.00  0.00     0.274 HD
ATOM     23  H41 UNL     1     -13.584   9.253  36.983  1.00  0.00     0.274 HD
ENDBRANCH  19  20
ENDBRANCH   1  13
TORSDOF 7
ENDMDL
MODEL 4
REMARK VINA RESULT: -4.096118616      1.650      2.147
REMARK  7 active torsions:
REMARK  status: ('A' for Active; 'I' for Inactive)
REMARK    1  A    between atoms: C2_2  and  C3_3 
REMARK    2  A    between atoms: C2_2  and  N2_9 
REMARK    3  A    between atoms: C3_3  and  C4_4 
REMARK    4  A    between atoms: C4_4  and  N1_5 
REMARK    5  A    between atoms: N2_9  and  C5_12 
REMARK    6  A    between atoms: C5_12  and  C6_13 
REMARK    7  A    between atoms: C9_19  and  N4_20 
ROOT
HETATM    1  C5  UNL     1     -11.229   9.639  41.085  1.00  0.00     0.241 C 
ENDROOT
BRANCH   1   2
HETATM    2  N2  UNL     1     -12.350   9.809  41.961  1.00  0.00    -0.071 N 
ATOM      3  H22 UNL     1     -12.386   9.055  42.647  1.00  0.00     0.277 HD
ATOM      4  H21 UNL     1     -13.223   9.632  41.465  1.00  0.00     0.277 HD
BRANCH   2   5
HETATM    5  C2  UNL     1     -12.391  11.094  42.617  1.00  0.00     0.183 C 
HETATM    6  C1  UNL     1     -11.982  10.888  44.068  1.00  0.00     0.040 C 
BRANCH   5   7
HETATM    7  C3  UNL     1     -13.795  11.639  42.523  1.00  0.00     0.059 C 
BRANCH   7   8
HETATM    8  C4  UNL     1     -14.227  12.372  43.753  1.00  0.00     0.231 C 
BRANCH   8   9
HETATM    9  N1  UNL     1     -14.092  13.793  43.703  1.00  0.00    -0.079 N 
ATOM     10  H13 UNL     1     -13.876  14.090  42.751  1.00  0.00     0.274 HD
ATOM     11  H12 UNL     1     -15.004  14.233  43.827  1.00  0.00     0.274 HD
ATOM     12  H11 UNL     1     -13.419  14.194  44.356  1.00  0.00     0.274 HD
ENDBRANCH   8   9
ENDBRANCH   7   8
ENDBRANCH   5   7
ENDBRANCH   2   5
ENDBRANCH   1   2
BRANCH   1  13
HETATM   13  C6  UNL     1     -11.614   9.067  39.745  1.00  0.00     0.069 C 
HETATM   14  C7  UNL     1     -10.449   8.587  38.921  1.00  0.00     0.240 C 
HETATM   15  N3  UNL     1     -10.946   8.552  37.545  1.00  0.00    -0.073 N 
HETATM   16  C8  UNL     1     -12.114   9.411  37.495  1.00  0.00     0.265 C 
ATOM     17  H32 UNL     1     -10.236   8.800  36.856  1.00  0.00     0.277 HD
ATOM     18  H31 UNL     1     -11.129   7.606  37.209  1.00  0.00     0.277 HD
HETATM   19  C9  UNL     1     -12.103  10.189  38.810  1.00  0.00     0.216 C 
BRANCH  19  20
HETATM   20  N4  UNL     1     -11.168  11.256  38.687  1.00  0.00    -0.073 N 
ATOM     21  H43 UNL     1     -11.404  11.860  37.899  1.00  0.00     0.274 HD
ATOM     22  H42 UNL     1     -11.278  11.926  39.448  1.00  0.00     0.274 HD
ATOM     23  H41 UNL     1     -10.202  10.932  38.623  1.00  0.00     0.274 HD
ENDBRANCH  19  20
ENDBRANCH   1  13
TORSDOF 7
ENDMDL
MODEL 5
REMARK VINA RESULT: -4.076929145      1.254      1.650
REMARK  7 active torsions:
REMARK  status: ('A' for Active; 'I' for Inactive)
REMARK    1  A    between atoms: C2_2  and  C3_3 
REMARK    2  A    between atoms: C2_2  and  N2_9 
REMARK    3  A    between atoms: C3_3  and  C4_4 
REMARK    4  A    between atoms: C4_4  and  N1_5 
REMARK    5  A    between atoms: N2_9  and  C5_12 
REMARK    6  A    between atoms: C5_12  and  C6_13 
REMARK    7  A    between atoms: C9_19  and  N4_20 
ROOT
HETATM    1  C5  UNL     1     -11.848   8.561  40.367  1.00  0.00     0.241 C 
ENDROOT
BRANCH   1   2
HETATM    2  N2  UNL     1     -11.400   9.484  41.369  1.00  0.00    -0.071 N 
ATOM      3  H22 UNL     1     -10.672  10.092  40.996  1.00  0.00     0.277 HD
ATOM      4  H21 UNL     1     -10.868   8.999  42.090  1.00  0.00     0.277 HD
BRANCH   2   5
HETATM    5  C2  UNL     1     -12.460  10.265  41.960  1.00  0.00     0.183 C 
HETATM    6  C1  UNL     1     -12.593  11.551  41.157  1.00  0.00     0.040 C 
BRANCH   5   7
HETATM    7  C3  UNL     1     -12.100  10.559  43.395  1.00  0.00     0.059 C 
BRANCH   7   8
HETATM    8  C4  UNL     1     -13.086  11.449  44.082  1.00  0.00     0.231 C 
BRANCH   8   9
HETATM    9  N1  UNL     1     -13.173  11.296  45.499  1.00  0.00    -0.079 N 
ATOM     10  H13 UNL     1     -12.408  10.710  45.834  1.00  0.00     0.274 HD
ATOM     11  H12 UNL     1     -12.941  12.176  45.959  1.00  0.00     0.274 HD
ATOM     12  H11 UNL     1     -14.064  10.943  45.849  1.00  0.00     0.274 HD
ENDBRANCH   8   9
ENDBRANCH   7   8
ENDBRANCH   5   7
ENDBRANCH   2   5
ENDBRANCH   1   2
BRANCH   1  13
HETATM   13  C6  UNL     1     -11.031   8.629  39.103  1.00  0.00     0.069 C 
HETATM   14  C7  UNL     1     -10.236   9.898  38.949  1.00  0.00     0.240 C 
HETATM   15  N3  UNL     1      -9.941   9.991  37.519  1.00  0.00    -0.073 N 
HETATM   16  C8  UNL     1     -10.898   9.144  36.833  1.00  0.00     0.265 C 
ATOM     17  H32 UNL     1      -9.936  10.951  37.172  1.00  0.00     0.277 HD
ATOM     18  H31 UNL     1      -8.972   9.765  37.294  1.00  0.00     0.277 HD
HETATM   19  C9  UNL     1     -11.954   8.793  37.881  1.00  0.00     0.216 C 
BRANCH  19  20
HETATM   20  N4  UNL     1     -12.843   9.899  38.003  1.00  0.00    -0.073 N 
ATOM     21  H43 UNL     1     -12.864  10.448  37.143  1.00  0.00     0.274 HD
ATOM     22  H42 UNL     1     -13.814   9.586  38.024  1.00  0.00     0.274 HD
ATOM     23  H41 UNL     1     -12.634  10.490  38.808  1.00  0.00     0.274 HD
ENDBRANCH  19  20
ENDBRANCH   1  13
TORSDOF 7
ENDMDL
