MODEL 1
REMARK VINA RESULT: -4.807666778      0.000      0.000
REMARK  7 active torsions:
REMARK  status: ('A' for Active; 'I' for Inactive)
REMARK    1  A    between atoms: N1_1  and  C1_5 
REMARK    2  A    between atoms: C1_5  and  C2_6 
REMARK    3  A    between atoms: C2_6  and  C3_7 
REMARK    4  A    between atoms: C3_7  and  N2_8 
REMARK    5  A    between atoms: N2_8  and  C4_10 
REMARK    6  A    between atoms: C4_10  and  C5_11 
REMARK    7  A    between atoms: C8_15  and  N3_16 
ROOT
HETATM    1  C5  UNL     1     -11.605   9.387  39.564  1.00  0.00     0.029 C 
HETATM    2  C6  UNL     1     -12.452   8.833  38.438  1.00  0.00     0.174 C 
HETATM    3  O1  UNL     1     -12.207   9.429  37.218  1.00  0.00    -0.389 OA
HETATM    4  C7  UNL     1     -10.907   9.026  36.838  1.00  0.00     0.200 C 
HETATM    5  C8  UNL     1      -9.985   9.797  37.780  1.00  0.00     0.207 C 
HETATM    6  C9  UNL     1     -10.169   9.263  39.182  1.00  0.00     0.043 C 
ENDROOT
BRANCH   1   7
HETATM    7  C4  UNL     1     -11.951   8.542  40.788  1.00  0.00     0.120 C 
BRANCH   7   8
HETATM    8  N2  UNL     1     -12.186   9.328  41.943  1.00  0.00    -0.421 N 
ATOM      9  H2  UNL     1     -12.181   8.916  42.875  1.00  0.00     0.153 HD
BRANCH   8  10
HETATM   10  C3  UNL     1     -12.428  10.706  41.751  1.00  0.00     0.115 C 
BRANCH  10  11
HETATM   11  C2  UNL     1     -12.090  11.609  42.908  1.00  0.00     0.046 C 
BRANCH  11  12
HETATM   12  C1  UNL     1     -12.277  10.921  44.240  1.00  0.00     0.231 C 
BRANCH  12  13
HETATM   13  N1  UNL     1     -13.320  11.481  45.043  1.00  0.00    -0.079 N 
ATOM     14  H13 UNL     1     -12.935  12.137  45.723  1.00  0.00     0.274 HD
ATOM     15  H12 UNL     1     -13.892  12.120  44.491  1.00  0.00     0.274 HD
ATOM     16  H11 UNL     1     -13.905  10.787  45.508  1.00  0.00     0.274 HD
ENDBRANCH  12  13
ENDBRANCH  11  12
ENDBRANCH  10  11
ENDBRANCH   8  10
ENDBRANCH   7   8
ENDBRANCH   1   7
BRANCH   5  17
HETATM   17  N3  UNL     1     -10.328  11.184  37.646  1.00  0.00    -0.073 N 
ATOM     18  H33 UNL     1     -10.364  11.499  36.676  1.00  0.00     0.274 HD
ATOM     19  H32 UNL     1     -11.300  11.384  37.882  1.00  0.00     0.274 HD
ATOM     20  H31 UNL     1      -9.660  11.706  38.214  1.00  0.00     0.274 HD
ENDBRANCH   5  17
TORSDOF 7
ENDMDL
MODEL 2
REMARK VINA RESULT: -4.526288564      1.280      1.695
REMARK  7 active torsions:
REMARK  status: ('A' for Active; 'I' for Inactive)
REMARK    1  A    between atoms: N1_1  and  C1_5 
REMARK    2  A    between atoms: C1_5  and  C2_6 
REMARK    3  A    between atoms: C2_6  and  C3_7 
REMARK    4  A    between atoms: C3_7  and  N2_8 
REMARK    5  A    between atoms: N2_8  and  C4_10 
REMARK    6  A    between atoms: C4_10  and  C5_11 
REMARK    7  A    between atoms: C8_15  and  N3_16 
ROOT
HETATM    1  C5  UNL     1     -11.476   8.424  39.538  1.00  0.00     0.029 C 
HETATM    2  C6  UNL     1     -10.311   9.354  39.803  1.00  0.00     0.174 C 
HETATM    3  O1  UNL     1      -9.652   9.753  38.659  1.00  0.00    -0.389 OA
HETATM    4  C7  UNL     1     -10.549  10.591  37.959  1.00  0.00     0.200 C 
HETATM    5  C8  UNL     1     -11.612   9.636  37.420  1.00  0.00     0.207 C 
HETATM    6  C9  UNL     1     -12.408   9.090  38.583  1.00  0.00     0.043 C 
ENDROOT
BRANCH   1   7
HETATM    7  C4  UNL     1     -12.122   8.183  40.900  1.00  0.00     0.120 C 
BRANCH   7   8
HETATM    8  N2  UNL     1     -11.732   9.145  41.865  1.00  0.00    -0.421 N 
ATOM      9  H2  UNL     1     -10.835   9.080  42.345  1.00  0.00     0.153 HD
BRANCH   8  10
HETATM   10  C3  UNL     1     -12.636  10.195  42.135  1.00  0.00     0.115 C 
BRANCH  10  11
HETATM   11  C2  UNL     1     -12.134  11.290  43.041  1.00  0.00     0.046 C 
BRANCH  11  12
HETATM   12  C1  UNL     1     -12.339  10.958  44.501  1.00  0.00     0.231 C 
BRANCH  12  13
HETATM   13  N1  UNL     1     -13.473  11.601  45.090  1.00  0.00    -0.079 N 
ATOM     14  H13 UNL     1     -13.177  12.255  45.814  1.00  0.00     0.274 HD
ATOM     15  H12 UNL     1     -13.896  12.253  44.430  1.00  0.00     0.274 HD
ATOM     16  H11 UNL     1     -14.173  10.955  45.455  1.00  0.00     0.274 HD
ENDBRANCH  12  13
ENDBRANCH  11  12
ENDBRANCH  10  11
ENDBRANCH   8  10
ENDBRANCH   7   8
ENDBRANCH   1   7
BRANCH   5  17
HETATM   17  N3  UNL     1     -10.915   8.624  36.677  1.00  0.00    -0.073 N 
ATOM     18  H33 UNL     1     -11.203   8.571  35.699  1.00  0.00     0.274 HD
ATOM     19  H32 UNL     1      -9.935   8.850  36.510  1.00  0.00     0.274 HD
ATOM     20  H31 UNL     1     -11.047   7.749  37.183  1.00  0.00     0.274 HD
ENDBRANCH   5  17
TORSDOF 7
ENDMDL
MODEL 3
REMARK VINA RESULT: -4.329109797      2.326      5.762
REMARK  7 active torsions:
REMARK  status: ('A' for Active; 'I' for Inactive)
REMARK    1  A    between atoms: N1_1  and  C1_5 
REMARK    2  A    between atoms: C1_5  and  C2_6 
REMARK    3  A    between atoms: C2_6  and  C3_7 
REMARK    4  A    between atoms: C3_7  and  N2_8 
REMARK    5  A    between atoms: N2_8  and  C4_10 
REMARK    6  A    between atoms: C4_10  and  C5_11 
REMARK    7  A    between atoms: C8_15  and  N3_16 
ROOT
HETATM    1  C5  UNL     1     -12.429   9.328  38.917  1.00  0.00     0.029 C 
HETATM    2  C6  UNL     1     -12.222  10.722  39.470  1.00  0.00     0.174 C 
HETATM    3  O1  UNL     1     -12.359  10.798  40.840  1.00  0.00    -0.389 OA
HETATM    4  C7  UNL     1     -11.261  10.096  41.385  1.00  0.00     0.200 C 
HETATM    5  C8  UNL     1     -11.572   8.629  41.097  1.00  0.00     0.207 C 
HETATM    6  C9  UNL     1     -11.487   8.399  39.605  1.00  0.00     0.043 C 
ENDROOT
BRANCH   1   7
HETATM    7  C4  UNL     1     -12.142   9.436  37.422  1.00  0.00     0.120 C 
BRANCH   7   8
HETATM    8  N2  UNL     1     -11.020   8.666  37.026  1.00  0.00    -0.421 N 
ATOM      9  H2  UNL     1     -10.849   7.739  37.416  1.00  0.00     0.153 HD
BRANCH   8  10
HETATM   10  C3  UNL     1     -10.149   9.233  36.071  1.00  0.00     0.115 C 
BRANCH  10  11
HETATM   11  C2  UNL     1      -9.550  10.570  36.427  1.00  0.00     0.046 C 
BRANCH  11  12
HETATM   12  C1  UNL     1      -8.580  11.056  35.375  1.00  0.00     0.231 C 
BRANCH  12  13
HETATM   13  N1  UNL     1      -8.669  12.458  35.106  1.00  0.00    -0.079 N 
ATOM     14  H13 UNL     1      -8.636  12.992  35.975  1.00  0.00     0.274 HD
ATOM     15  H12 UNL     1      -7.812  12.792  34.665  1.00  0.00     0.274 HD
ATOM     16  H11 UNL     1      -9.484  12.724  34.554  1.00  0.00     0.274 HD
ENDBRANCH  12  13
ENDBRANCH  11  12
ENDBRANCH  10  11
ENDBRANCH   8  10
ENDBRANCH   7   8
ENDBRANCH   1   7
BRANCH   5  17
HETATM   17  N3  UNL     1     -12.875   8.372  41.642  1.00  0.00    -0.073 N 
ATOM     18  H33 UNL     1     -13.631   8.769  41.085  1.00  0.00     0.274 HD
ATOM     19  H32 UNL     1     -13.159   7.395  41.565  1.00  0.00     0.274 HD
ATOM     20  H31 UNL     1     -12.861   8.713  42.603  1.00  0.00     0.274 HD
ENDBRANCH   5  17
TORSDOF 7
ENDMDL
MODEL 4
REMARK VINA RESULT: -4.226338577      1.959      5.727
REMARK  7 active torsions:
REMARK  status: ('A' for Active; 'I' for Inactive)
REMARK    1  A    between atoms: N1_1  and  C1_5 
REMARK    2  A    between atoms: C1_5  and  C2_6 
REMARK    3  A    between atoms: C2_6  and  C3_7 
REMARK    4  A    between atoms: C3_7  and  N2_8 
REMARK    5  A    between atoms: N2_8  and  C4_10 
REMARK    6  A    between atoms: C4_10  and  C5_11 
REMARK    7  A    between atoms: C8_15  and  N3_16 
ROOT
HETATM    1  C5  UNL     1     -11.636   9.209  39.571  1.00  0.00     0.029 C 
HETATM    2  C6  UNL     1     -12.063  10.594  39.133  1.00  0.00     0.174 C 
HETATM    3  O1  UNL     1     -12.918  11.214  40.021  1.00  0.00    -0.389 OA
HETATM    4  C7  UNL     1     -12.153  11.491  41.176  1.00  0.00     0.200 C 
HETATM    5  C8  UNL     1     -11.934  10.122  41.819  1.00  0.00     0.207 C 
HETATM    6  C9  UNL     1     -11.025   9.308  40.928  1.00  0.00     0.043 C 
ENDROOT
BRANCH   1   7
HETATM    7  C4  UNL     1     -10.632   8.742  38.520  1.00  0.00     0.120 C 
BRANCH   7   8
HETATM    8  N2  UNL     1     -11.146   8.822  37.202  1.00  0.00    -0.421 N 
ATOM      9  H2  UNL     1     -12.110   8.562  36.993  1.00  0.00     0.153 HD
BRANCH   8  10
HETATM   10  C3  UNL     1     -10.272   9.276  36.192  1.00  0.00     0.115 C 
BRANCH  10  11
HETATM   11  C2  UNL     1      -9.591  10.597  36.444  1.00  0.00     0.046 C 
BRANCH  11  12
HETATM   12  C1  UNL     1      -8.763  11.044  35.262  1.00  0.00     0.231 C 
BRANCH  12  13
HETATM   13  N1  UNL     1      -8.432  12.436  35.277  1.00  0.00    -0.079 N 
ATOM     14  H13 UNL     1      -9.200  12.982  35.667  1.00  0.00     0.274 HD
ATOM     15  H12 UNL     1      -7.713  12.625  35.974  1.00  0.00     0.274 HD
ATOM     16  H11 UNL     1      -8.156  12.806  34.367  1.00  0.00     0.274 HD
ENDBRANCH  12  13
ENDBRANCH  11  12
ENDBRANCH  10  11
ENDBRANCH   8  10
ENDBRANCH   7   8
ENDBRANCH   1   7
BRANCH   5  17
HETATM   17  N3  UNL     1     -13.235   9.540  41.994  1.00  0.00    -0.073 N 
ATOM     18  H33 UNL     1     -13.488   9.405  42.973  1.00  0.00     0.274 HD
ATOM     19  H32 UNL     1     -13.996  10.174  41.752  1.00  0.00     0.274 HD
ATOM     20  H31 UNL     1     -13.243   8.676  41.453  1.00  0.00     0.274 HD
ENDBRANCH   5  17
TORSDOF 7
ENDMDL
MODEL 5
REMARK VINA RESULT: -4.179606220      1.706      2.135
REMARK  7 active torsions:
REMARK  status: ('A' for Active; 'I' for Inactive)
REMARK    1  A    between atoms: N1_1  and  C1_5 
REMARK    2  A    between atoms: C1_5  and  C2_6 
REMARK    3  A    between atoms: C2_6  and  C3_7 
REMARK    4  A    between atoms: C3_7  and  N2_8 
REMARK    5  A    between atoms: N2_8  and  C4_10 
REMARK    6  A    between atoms: C4_10  and  C5_11 
REMARK    7  A    between atoms: C8_15  and  N3_16 
ROOT
HETATM    1  C5  UNL     1     -11.400   9.720  40.583  1.00  0.00     0.029 C 
HETATM    2  C6  UNL     1     -12.141  10.949  40.099  1.00  0.00     0.174 C 
HETATM    3  O1  UNL     1     -11.910  11.246  38.772  1.00  0.00    -0.389 OA
HETATM    4  C7  UNL     1     -12.525  10.215  38.026  1.00  0.00     0.200 C 
HETATM    5  C8  UNL     1     -11.632   8.998  38.259  1.00  0.00     0.207 C 
HETATM    6  C9  UNL     1     -11.761   8.571  39.703  1.00  0.00     0.043 C 
ENDROOT
BRANCH   1   7
HETATM    7  C4  UNL     1     -11.858   9.509  42.024  1.00  0.00     0.120 C 
BRANCH   7   8
HETATM    8  N2  UNL     1     -12.640  10.587  42.510  1.00  0.00    -0.421 N 
ATOM      9  H2  UNL     1     -13.354  11.027  41.931  1.00  0.00     0.153 HD
BRANCH   8  10
HETATM   10  C3  UNL     1     -12.389  11.026  43.828  1.00  0.00     0.115 C 
BRANCH  10  11
HETATM   11  C2  UNL     1     -13.554  11.644  44.557  1.00  0.00     0.046 C 
BRANCH  11  12
HETATM   12  C1  UNL     1     -14.366  12.553  43.664  1.00  0.00     0.231 C 
BRANCH  12  13
HETATM   13  N1  UNL     1     -13.984  13.930  43.735  1.00  0.00    -0.079 N 
ATOM     14  H13 UNL     1     -13.490  14.208  42.887  1.00  0.00     0.274 HD
ATOM     15  H12 UNL     1     -14.803  14.532  43.664  1.00  0.00     0.274 HD
ATOM     16  H11 UNL     1     -13.435  14.166  44.562  1.00  0.00     0.274 HD
ENDBRANCH  12  13
ENDBRANCH  11  12
ENDBRANCH  10  11
ENDBRANCH   8  10
ENDBRANCH   7   8
ENDBRANCH   1   7
BRANCH   5  17
HETATM   17  N3  UNL     1     -10.300   9.392  37.896  1.00  0.00    -0.073 N 
ATOM     18  H33 UNL     1      -9.766   9.778  38.675  1.00  0.00     0.274 HD
ATOM     19  H32 UNL     1      -9.685   8.602  37.699  1.00  0.00     0.274 HD
ATOM     20  H31 UNL     1     -10.391  10.037  37.111  1.00  0.00     0.274 HD
ENDBRANCH   5  17
TORSDOF 7
ENDMDL
