MODEL 1
REMARK VINA RESULT: -4.676894062      0.000      0.000
REMARK  7 active torsions:
REMARK  status: ('A' for Active; 'I' for Inactive)
REMARK    1  A    between atoms: N1_2  and  C2_4 
REMARK    2  A    between atoms: C2_4  and  C3_5 
REMARK    3  A    between atoms: C3_5  and  C4_6 
REMARK    4  A    between atoms: C4_6  and  O1_7 
REMARK    5  A    between atoms: O1_7  and  C5_8 
REMARK    6  A    between atoms: C7_10  and  N2_11 
REMARK    7  A    between atoms: C9_16  and  N3_17 
ROOT
HETATM    1  C5  UNL     1     -11.990  11.078  38.670  1.00  0.00     0.153 C 
HETATM    2  C6  UNL     1     -10.501  11.146  38.419  1.00  0.00     0.067 C 
HETATM    3  C7  UNL     1     -10.092   9.785  37.909  1.00  0.00     0.188 C 
HETATM    4  C8  UNL     1     -11.368   9.366  37.175  1.00  0.00     0.068 C 
HETATM    5  C9  UNL     1     -12.384   9.698  38.222  1.00  0.00     0.214 C 
ENDROOT
BRANCH   1   6
HETATM    6  O1  UNL     1     -12.301  11.277  39.998  1.00  0.00    -0.384 OA
BRANCH   6   7
HETATM    7  C4  UNL     1     -11.874  10.326  40.879  1.00  0.00     0.169 C 
BRANCH   7   8
HETATM    8  C3  UNL     1     -12.565  10.292  42.197  1.00  0.00     0.045 C 
BRANCH   8   9
HETATM    9  C2  UNL     1     -12.053  11.360  43.142  1.00  0.00     0.115 C 
BRANCH   9  10
HETATM   10  N1  UNL     1     -12.579  12.662  42.913  1.00  0.00    -0.425 N 
HETATM   11  C1  UNL     1     -13.931  12.867  43.369  1.00  0.00     0.139 C 
ATOM     12  H1  UNL     1     -12.039  13.397  42.458  1.00  0.00     0.152 HD
ENDBRANCH   9  10
ENDBRANCH   8   9
ENDBRANCH   7   8
ENDBRANCH   6   7
ENDBRANCH   1   6
BRANCH   5  13
HETATM   13  N3  UNL     1     -13.735   9.639  37.743  1.00  0.00    -0.072 N 
ATOM     14  H33 UNL     1     -14.399   9.812  38.498  1.00  0.00     0.274 HD
ATOM     15  H32 UNL     1     -13.949  10.439  37.148  1.00  0.00     0.274 HD
ATOM     16  H31 UNL     1     -13.943   8.762  37.266  1.00  0.00     0.274 HD
ENDBRANCH   5  13
BRANCH   3  17
HETATM   17  N2  UNL     1      -9.755   8.893  38.977  1.00  0.00    -0.075 N 
ATOM     18  H23 UNL     1      -9.228   9.371  39.708  1.00  0.00     0.274 HD
ATOM     19  H22 UNL     1     -10.580   8.634  39.518  1.00  0.00     0.274 HD
ATOM     20  H21 UNL     1      -9.258   8.068  38.642  1.00  0.00     0.274 HD
ENDBRANCH   3  17
TORSDOF 7
ENDMDL
MODEL 2
REMARK VINA RESULT: -4.546027981      1.946      2.518
REMARK  7 active torsions:
REMARK  status: ('A' for Active; 'I' for Inactive)
REMARK    1  A    between atoms: N1_2  and  C2_4 
REMARK    2  A    between atoms: C2_4  and  C3_5 
REMARK    3  A    between atoms: C3_5  and  C4_6 
REMARK    4  A    between atoms: C4_6  and  O1_7 
REMARK    5  A    between atoms: O1_7  and  C5_8 
REMARK    6  A    between atoms: C7_10  and  N2_11 
REMARK    7  A    between atoms: C9_16  and  N3_17 
ROOT
HETATM    1  C5  UNL     1     -12.120  10.195  40.840  1.00  0.00     0.153 C 
HETATM    2  C6  UNL     1     -12.013  10.763  39.442  1.00  0.00     0.067 C 
HETATM    3  C7  UNL     1     -11.407   9.678  38.586  1.00  0.00     0.188 C 
HETATM    4  C8  UNL     1     -11.953   8.430  39.286  1.00  0.00     0.068 C 
HETATM    5  C9  UNL     1     -11.635   8.778  40.707  1.00  0.00     0.214 C 
ENDROOT
BRANCH   1   6
HETATM    6  O1  UNL     1     -11.355  10.899  41.744  1.00  0.00    -0.384 OA
BRANCH   6   7
HETATM    7  C4  UNL     1     -11.973  11.295  42.895  1.00  0.00     0.169 C 
BRANCH   7   8
HETATM    8  C3  UNL     1     -13.405  11.679  42.775  1.00  0.00     0.045 C 
BRANCH   8   9
HETATM    9  C2  UNL     1     -14.026  12.010  44.117  1.00  0.00     0.115 C 
BRANCH   9  10
HETATM   10  N1  UNL     1     -13.303  11.531  45.244  1.00  0.00    -0.425 N 
HETATM   11  C1  UNL     1     -14.106  11.200  46.393  1.00  0.00     0.139 C 
ATOM     12  H1  UNL     1     -12.288  11.428  45.238  1.00  0.00     0.152 HD
ENDBRANCH   9  10
ENDBRANCH   8   9
ENDBRANCH   7   8
ENDBRANCH   6   7
ENDBRANCH   1   6
BRANCH   5  13
HETATM   13  N3  UNL     1     -12.246   7.895  41.659  1.00  0.00    -0.072 N 
ATOM     14  H33 UNL     1     -12.600   8.412  42.464  1.00  0.00     0.274 HD
ATOM     15  H32 UNL     1     -13.126   7.523  41.302  1.00  0.00     0.274 HD
ATOM     16  H31 UNL     1     -11.623   7.143  41.951  1.00  0.00     0.274 HD
ENDBRANCH   5  13
BRANCH   3  17
HETATM   17  N2  UNL     1      -9.976   9.729  38.592  1.00  0.00    -0.075 N 
ATOM     18  H23 UNL     1      -9.637  10.653  38.326  1.00  0.00     0.274 HD
ATOM     19  H22 UNL     1      -9.607   9.690  39.542  1.00  0.00     0.274 HD
ATOM     20  H21 UNL     1      -9.567   9.002  38.006  1.00  0.00     0.274 HD
ENDBRANCH   3  17
TORSDOF 7
ENDMDL
MODEL 3
REMARK VINA RESULT: -4.534732749      1.339      1.464
REMARK  7 active torsions:
REMARK  status: ('A' for Active; 'I' for Inactive)
REMARK    1  A    between atoms: N1_2  and  C2_4 
REMARK    2  A    between atoms: C2_4  and  C3_5 
REMARK    3  A    between atoms: C3_5  and  C4_6 
REMARK    4  A    between atoms: C4_6  and  O1_7 
REMARK    5  A    between atoms: O1_7  and  C5_8 
REMARK    6  A    between atoms: C7_10  and  N2_11 
REMARK    7  A    between atoms: C9_16  and  N3_17 
ROOT
HETATM    1  C5  UNL     1     -10.726  10.232  39.526  1.00  0.00     0.153 C 
HETATM    2  C6  UNL     1      -9.902   9.044  39.083  1.00  0.00     0.067 C 
HETATM    3  C7  UNL     1     -10.827   8.159  38.283  1.00  0.00     0.188 C 
HETATM    4  C8  UNL     1     -11.761   9.207  37.673  1.00  0.00     0.068 C 
HETATM    5  C9  UNL     1     -12.073  10.010  38.896  1.00  0.00     0.214 C 
ENDROOT
BRANCH   1   6
HETATM    6  O1  UNL     1     -10.825  10.310  40.898  1.00  0.00    -0.384 OA
BRANCH   6   7
HETATM    7  C4  UNL     1     -11.829   9.594  41.484  1.00  0.00     0.169 C 
BRANCH   7   8
HETATM    8  C3  UNL     1     -12.667  10.324  42.473  1.00  0.00     0.045 C 
BRANCH   8   9
HETATM    9  C2  UNL     1     -11.933  11.492  43.099  1.00  0.00     0.115 C 
BRANCH   9  10
HETATM   10  N1  UNL     1     -12.604  12.742  42.997  1.00  0.00    -0.425 N 
HETATM   11  C1  UNL     1     -13.982  12.736  43.418  1.00  0.00     0.139 C 
ATOM     12  H1  UNL     1     -12.142  13.583  42.651  1.00  0.00     0.152 HD
ENDBRANCH   9  10
ENDBRANCH   8   9
ENDBRANCH   7   8
ENDBRANCH   6   7
ENDBRANCH   1   6
BRANCH   5  13
HETATM   13  N3  UNL     1     -12.757  11.239  38.611  1.00  0.00    -0.072 N 
ATOM     14  H33 UNL     1     -12.679  11.892  39.392  1.00  0.00     0.274 HD
ATOM     15  H32 UNL     1     -12.264  11.776  37.898  1.00  0.00     0.274 HD
ATOM     16  H31 UNL     1     -13.732  11.094  38.351  1.00  0.00     0.274 HD
ENDBRANCH   5  13
BRANCH   3  17
HETATM   17  N2  UNL     1     -11.521   7.222  39.113  1.00  0.00    -0.075 N 
ATOM     18  H23 UNL     1     -11.111   6.291  39.045  1.00  0.00     0.274 HD
ATOM     19  H22 UNL     1     -11.347   7.402  40.102  1.00  0.00     0.274 HD
ATOM     20  H21 UNL     1     -12.520   7.202  38.911  1.00  0.00     0.274 HD
ENDBRANCH   3  17
TORSDOF 7
ENDMDL
MODEL 4
REMARK VINA RESULT: -4.479813762      1.810      5.005
REMARK  7 active torsions:
REMARK  status: ('A' for Active; 'I' for Inactive)
REMARK    1  A    between atoms: N1_2  and  C2_4 
REMARK    2  A    between atoms: C2_4  and  C3_5 
REMARK    3  A    between atoms: C3_5  and  C4_6 
REMARK    4  A    between atoms: C4_6  and  O1_7 
REMARK    5  A    between atoms: O1_7  and  C5_8 
REMARK    6  A    between atoms: C7_10  and  N2_11 
REMARK    7  A    between atoms: C9_16  and  N3_17 
ROOT
HETATM    1  C5  UNL     1     -11.559   9.884  40.700  1.00  0.00     0.153 C 
HETATM    2  C6  UNL     1     -11.750   9.559  42.164  1.00  0.00     0.067 C 
HETATM    3  C7  UNL     1     -12.497  10.725  42.765  1.00  0.00     0.188 C 
HETATM    4  C8  UNL     1     -13.334  11.172  41.564  1.00  0.00     0.068 C 
HETATM    5  C9  UNL     1     -12.272  11.194  40.509  1.00  0.00     0.214 C 
ENDROOT
BRANCH   1   6
HETATM    6  O1  UNL     1     -10.227   9.989  40.362  1.00  0.00    -0.384 OA
BRANCH   6   7
HETATM    7  C4  UNL     1      -9.755   9.105  39.436  1.00  0.00     0.169 C 
BRANCH   7   8
HETATM    8  C3  UNL     1     -10.763   8.522  38.510  1.00  0.00     0.045 C 
BRANCH   8   9
HETATM    9  C2  UNL     1     -10.763   9.204  37.157  1.00  0.00     0.115 C 
BRANCH   9  10
HETATM   10  N1  UNL     1     -10.090  10.457  37.120  1.00  0.00    -0.425 N 
HETATM   11  C1  UNL     1      -9.318  10.704  35.929  1.00  0.00     0.139 C 
ATOM     12  H1  UNL     1     -10.151  11.132  37.882  1.00  0.00     0.152 HD
ENDBRANCH   9  10
ENDBRANCH   8   9
ENDBRANCH   7   8
ENDBRANCH   6   7
ENDBRANCH   1   6
BRANCH   5  13
HETATM   13  N3  UNL     1     -12.791  11.350  39.181  1.00  0.00    -0.072 N 
ATOM     14  H33 UNL     1     -13.474  10.623  38.966  1.00  0.00     0.274 HD
ATOM     15  H32 UNL     1     -13.396  12.169  39.118  1.00  0.00     0.274 HD
ATOM     16  H31 UNL     1     -12.056  11.383  38.475  1.00  0.00     0.274 HD
ENDBRANCH   5  13
BRANCH   3  17
HETATM   17  N2  UNL     1     -11.608  11.749  43.226  1.00  0.00    -0.075 N 
ATOM     18  H23 UNL     1     -10.769  11.350  43.646  1.00  0.00     0.274 HD
ATOM     19  H22 UNL     1     -11.178  12.245  42.446  1.00  0.00     0.274 HD
ATOM     20  H21 UNL     1     -12.071  12.394  43.866  1.00  0.00     0.274 HD
ENDBRANCH   3  17
TORSDOF 7
ENDMDL
MODEL 5
REMARK VINA RESULT: -4.474567494      1.815      2.416
REMARK  7 active torsions:
REMARK  status: ('A' for Active; 'I' for Inactive)
REMARK    1  A    between atoms: N1_2  and  C2_4 
REMARK    2  A    between atoms: C2_4  and  C3_5 
REMARK    3  A    between atoms: C3_5  and  C4_6 
REMARK    4  A    between atoms: C4_6  and  O1_7 
REMARK    5  A    between atoms: O1_7  and  C5_8 
REMARK    6  A    between atoms: C7_10  and  N2_11 
REMARK    7  A    between atoms: C9_16  and  N3_17 
ROOT
HETATM    1  C5  UNL     1     -12.153  10.211  40.914  1.00  0.00     0.153 C 
HETATM    2  C6  UNL     1     -12.001  10.761  39.513  1.00  0.00     0.067 C 
HETATM    3  C7  UNL     1     -11.330   9.680  38.702  1.00  0.00     0.188 C 
HETATM    4  C8  UNL     1     -11.872   8.429  39.397  1.00  0.00     0.068 C 
HETATM    5  C9  UNL     1     -11.626   8.806  40.825  1.00  0.00     0.214 C 
ENDROOT
BRANCH   1   6
HETATM    6  O1  UNL     1     -11.447  10.949  41.839  1.00  0.00    -0.384 OA
BRANCH   6   7
HETATM    7  C4  UNL     1     -12.177  11.613  42.782  1.00  0.00     0.169 C 
BRANCH   7   8
HETATM    8  C3  UNL     1     -12.322  10.937  44.099  1.00  0.00     0.045 C 
BRANCH   8   9
HETATM    9  C2  UNL     1     -13.471  11.500  44.911  1.00  0.00     0.115 C 
BRANCH   9  10
HETATM   10  N1  UNL     1     -14.057  12.681  44.376  1.00  0.00    -0.425 N 
HETATM   11  C1  UNL     1     -15.139  13.234  45.151  1.00  0.00     0.139 C 
ATOM     12  H1  UNL     1     -13.734  13.105  43.507  1.00  0.00     0.152 HD
ENDBRANCH   9  10
ENDBRANCH   8   9
ENDBRANCH   7   8
ENDBRANCH   6   7
ENDBRANCH   1   6
BRANCH   5  13
HETATM   13  N3  UNL     1     -12.253   7.921  41.763  1.00  0.00    -0.072 N 
ATOM     14  H33 UNL     1     -12.725   8.444  42.501  1.00  0.00     0.274 HD
ATOM     15  H32 UNL     1     -13.062   7.458  41.347  1.00  0.00     0.274 HD
ATOM     16  H31 UNL     1     -11.603   7.240  42.155  1.00  0.00     0.274 HD
ENDBRANCH   5  13
BRANCH   3  17
HETATM   17  N2  UNL     1      -9.902   9.771  38.768  1.00  0.00    -0.075 N 
ATOM     18  H23 UNL     1      -9.604  10.354  39.550  1.00  0.00     0.274 HD
ATOM     19  H22 UNL     1      -9.488   8.886  39.060  1.00  0.00     0.274 HD
ATOM     20  H21 UNL     1      -9.501  10.095  37.889  1.00  0.00     0.274 HD
ENDBRANCH   3  17
TORSDOF 7
ENDMDL
