MODEL 1
REMARK VINA RESULT: -5.094103911      0.000      0.000
REMARK  7 active torsions:
REMARK  status: ('A' for Active; 'I' for Inactive)
REMARK    1  A    between atoms: C2_2  and  C4_4 
REMARK    2  A    between atoms: C4_4  and  N1_5 
REMARK    3  A    between atoms: C4_4  and  C5_9 
REMARK    4  A    between atoms: C5_9  and  O1_10 
REMARK    5  A    between atoms: C5_9  and  C6_12 
REMARK    6  A    between atoms: C6_12  and  N2_13 
REMARK    7  A    between atoms: N2_13  and  C7_14 
ROOT
HETATM    1  C5  UNL     1     -11.642   8.908  39.985  1.00  0.00     0.201 C 
ENDROOT
BRANCH   1   2
HETATM    2  C4  UNL     1     -11.748   9.663  38.696  1.00  0.00     0.221 C 
BRANCH   2   3
HETATM    3  C2  UNL     1     -10.504   9.680  37.865  1.00  0.00     0.011 C 
HETATM    4  C1  UNL     1     -10.112  11.060  37.407  1.00  0.00     0.011 C 
HETATM    5  C3  UNL     1     -10.847   8.893  36.592  1.00  0.00     0.011 C 
ENDBRANCH   2   3
BRANCH   2   6
HETATM    6  N1  UNL     1     -12.243  11.021  38.909  1.00  0.00    -0.072 N 
ATOM      7  H13 UNL     1     -11.483  11.702  38.925  1.00  0.00     0.274 HD
ATOM      8  H12 UNL     1     -12.746  11.372  38.095  1.00  0.00     0.274 HD
ATOM      9  H11 UNL     1     -12.810  11.067  39.756  1.00  0.00     0.274 HD
ENDBRANCH   2   6
ENDBRANCH   1   2
BRANCH   1  10
HETATM   10  O1  UNL     1     -12.801   8.355  40.452  1.00  0.00    -0.387 OA
ATOM     11  H1  UNL     1     -12.861   7.408  40.398  1.00  0.00     0.210 HD
ENDBRANCH   1  10
BRANCH   1  12
HETATM   12  C6  UNL     1     -10.946   9.808  41.011  1.00  0.00     0.193 C 
BRANCH  12  13
HETATM   13  N2  UNL     1     -11.709  10.439  41.876  1.00  0.00    -0.386 NA
BRANCH  13  14
HETATM   14  C7  UNL     1     -12.416  10.997  42.650  1.00  0.00     0.250 C 
HETATM   15  N3  UNL     1     -12.142  11.308  44.062  1.00  0.00    -0.349 N 
HETATM   16  C8  UNL     1     -13.433  11.574  44.630  1.00  0.00     0.143 C 
ATOM     17  H3  UNL     1     -11.237  11.329  44.533  1.00  0.00     0.163 HD
HETATM   18  C9  UNL     1     -14.049  12.403  43.492  1.00  0.00     0.143 C 
HETATM   19  N4  UNL     1     -13.765  11.525  42.386  1.00  0.00    -0.349 N 
ATOM     20  H4  UNL     1     -14.369  11.314  41.591  1.00  0.00     0.163 HD
ENDBRANCH  13  14
ENDBRANCH  12  13
ENDBRANCH   1  12
TORSDOF 7
ENDMDL
MODEL 2
REMARK VINA RESULT: -5.066168119      1.496      2.152
REMARK  7 active torsions:
REMARK  status: ('A' for Active; 'I' for Inactive)
REMARK    1  A    between atoms: C2_2  and  C4_4 
REMARK    2  A    between atoms: C4_4  and  N1_5 
REMARK    3  A    between atoms: C4_4  and  C5_9 
REMARK    4  A    between atoms: C5_9  and  O1_10 
REMARK    5  A    between atoms: C5_9  and  C6_12 
REMARK    6  A    between atoms: C6_12  and  N2_13 
REMARK    7  A    between atoms: N2_13  and  C7_14 
ROOT
HETATM    1  C5  UNL     1     -11.975   9.269  41.380  1.00  0.00     0.201 C 
ENDROOT
BRANCH   1   2
HETATM    2  C4  UNL     1     -11.370   8.956  40.046  1.00  0.00     0.221 C 
BRANCH   2   3
HETATM    3  C2  UNL     1     -11.586   9.993  38.990  1.00  0.00     0.011 C 
HETATM    4  C1  UNL     1     -12.541   9.554  37.910  1.00  0.00     0.011 C 
HETATM    5  C3  UNL     1     -10.224  10.175  38.304  1.00  0.00     0.011 C 
ENDBRANCH   2   3
BRANCH   2   6
HETATM    6  N1  UNL     1     -11.784   7.640  39.566  1.00  0.00    -0.072 N 
ATOM      7  H13 UNL     1     -11.229   6.893  39.984  1.00  0.00     0.274 HD
ATOM      8  H12 UNL     1     -12.698   7.374  39.934  1.00  0.00     0.274 HD
ATOM      9  H11 UNL     1     -11.761   7.605  38.547  1.00  0.00     0.274 HD
ENDBRANCH   2   6
ENDBRANCH   1   2
BRANCH   1  10
HETATM   10  O1  UNL     1     -13.100   8.567  41.707  1.00  0.00    -0.387 OA
ATOM     11  H1  UNL     1     -13.481   8.763  42.555  1.00  0.00     0.210 HD
ENDBRANCH   1  10
BRANCH   1  12
HETATM   12  C6  UNL     1     -12.160  10.787  41.476  1.00  0.00     0.193 C 
BRANCH  12  13
HETATM   13  N2  UNL     1     -12.844  11.247  42.501  1.00  0.00    -0.386 NA
BRANCH  13  14
HETATM   14  C7  UNL     1     -13.450  11.649  43.440  1.00  0.00     0.250 C 
HETATM   15  N3  UNL     1     -14.697  12.432  43.443  1.00  0.00    -0.349 N 
HETATM   16  C8  UNL     1     -14.756  13.007  44.757  1.00  0.00     0.143 C 
ATOM     17  H3  UNL     1     -15.367  12.541  42.683  1.00  0.00     0.163 HD
HETATM   18  C9  UNL     1     -14.294  11.801  45.589  1.00  0.00     0.143 C 
HETATM   19  N4  UNL     1     -13.100  11.460  44.858  1.00  0.00    -0.349 N 
ATOM     20  H4  UNL     1     -12.205  11.153  45.240  1.00  0.00     0.163 HD
ENDBRANCH  13  14
ENDBRANCH  12  13
ENDBRANCH   1  12
TORSDOF 7
ENDMDL
MODEL 3
REMARK VINA RESULT: -5.050194303      1.615      2.221
REMARK  7 active torsions:
REMARK  status: ('A' for Active; 'I' for Inactive)
REMARK    1  A    between atoms: C2_2  and  C4_4 
REMARK    2  A    between atoms: C4_4  and  N1_5 
REMARK    3  A    between atoms: C4_4  and  C5_9 
REMARK    4  A    between atoms: C5_9  and  O1_10 
REMARK    5  A    between atoms: C5_9  and  C6_12 
REMARK    6  A    between atoms: C6_12  and  N2_13 
REMARK    7  A    between atoms: N2_13  and  C7_14 
ROOT
HETATM    1  C5  UNL     1     -12.063   9.695  41.473  1.00  0.00     0.201 C 
ENDROOT
BRANCH   1   2
HETATM    2  C4  UNL     1     -11.479   9.630  40.095  1.00  0.00     0.221 C 
BRANCH   2   3
HETATM    3  C2  UNL     1     -12.121   8.637  39.179  1.00  0.00     0.011 C 
HETATM    4  C1  UNL     1     -11.301   7.388  38.984  1.00  0.00     0.011 C 
HETATM    5  C3  UNL     1     -12.183   9.322  37.806  1.00  0.00     0.011 C 
ENDBRANCH   2   3
BRANCH   2   6
HETATM    6  N1  UNL     1     -10.032   9.431  40.136  1.00  0.00    -0.072 N 
ATOM      7  H13 UNL     1      -9.772   8.484  39.860  1.00  0.00     0.274 HD
ATOM      8  H12 UNL     1      -9.558   9.942  39.392  1.00  0.00     0.274 HD
ATOM      9  H11 UNL     1      -9.663   9.671  41.056  1.00  0.00     0.274 HD
ENDBRANCH   2   6
ENDBRANCH   1   2
BRANCH   1  10
HETATM   10  O1  UNL     1     -13.081   8.821  41.734  1.00  0.00    -0.387 OA
ATOM     11  H1  UNL     1     -13.955   9.124  41.519  1.00  0.00     0.210 HD
ENDBRANCH   1  10
BRANCH   1  12
HETATM   12  C6  UNL     1     -12.428  11.153  41.769  1.00  0.00     0.193 C 
BRANCH  12  13
HETATM   13  N2  UNL     1     -13.016  11.406  42.918  1.00  0.00    -0.386 NA
BRANCH  13  14
HETATM   14  C7  UNL     1     -13.544  11.656  43.952  1.00  0.00     0.250 C 
HETATM   15  N3  UNL     1     -13.082  11.319  45.308  1.00  0.00    -0.349 N 
HETATM   16  C8  UNL     1     -14.250  11.452  46.130  1.00  0.00     0.143 C 
ATOM     17  H3  UNL     1     -12.141  11.051  45.598  1.00  0.00     0.163 HD
HETATM   18  C9  UNL     1     -14.842  12.738  45.533  1.00  0.00     0.143 C 
HETATM   19  N4  UNL     1     -14.814  12.379  44.137  1.00  0.00    -0.349 N 
ATOM     20  H4  UNL     1     -15.521  12.581  43.430  1.00  0.00     0.163 HD
ENDBRANCH  13  14
ENDBRANCH  12  13
ENDBRANCH   1  12
TORSDOF 7
ENDMDL
MODEL 4
REMARK VINA RESULT: -5.026355974      1.210      1.492
REMARK  7 active torsions:
REMARK  status: ('A' for Active; 'I' for Inactive)
REMARK    1  A    between atoms: C2_2  and  C4_4 
REMARK    2  A    between atoms: C4_4  and  N1_5 
REMARK    3  A    between atoms: C4_4  and  C5_9 
REMARK    4  A    between atoms: C5_9  and  O1_10 
REMARK    5  A    between atoms: C5_9  and  C6_12 
REMARK    6  A    between atoms: C6_12  and  N2_13 
REMARK    7  A    between atoms: N2_13  and  C7_14 
ROOT
HETATM    1  C5  UNL     1     -11.966   9.124  41.156  1.00  0.00     0.201 C 
ENDROOT
BRANCH   1   2
HETATM    2  C4  UNL     1     -11.992   9.409  39.685  1.00  0.00     0.221 C 
BRANCH   2   3
HETATM    3  C2  UNL     1     -10.957   8.688  38.880  1.00  0.00     0.011 C 
HETATM    4  C1  UNL     1     -11.032   8.990  37.407  1.00  0.00     0.011 C 
HETATM    5  C3  UNL     1     -11.287   7.195  39.025  1.00  0.00     0.011 C 
ENDBRANCH   2   3
BRANCH   2   6
HETATM    6  N1  UNL     1     -11.945  10.843  39.417  1.00  0.00    -0.072 N 
ATOM      7  H13 UNL     1     -12.704  11.138  38.801  1.00  0.00     0.274 HD
ATOM      8  H12 UNL     1     -12.196  11.391  40.240  1.00  0.00     0.274 HD
ATOM      9  H11 UNL     1     -11.032  11.110  39.047  1.00  0.00     0.274 HD
ENDBRANCH   2   6
ENDBRANCH   1   2
BRANCH   1  10
HETATM   10  O1  UNL     1     -13.106   8.583  41.681  1.00  0.00    -0.387 OA
ATOM     11  H1  UNL     1     -12.986   7.828  42.246  1.00  0.00     0.210 HD
ENDBRANCH   1  10
BRANCH   1  12
HETATM   12  C6  UNL     1     -11.510  10.394  41.881  1.00  0.00     0.193 C 
BRANCH  12  13
HETATM   13  N2  UNL     1     -12.357  10.945  42.723  1.00  0.00    -0.386 NA
BRANCH  13  14
HETATM   14  C7  UNL     1     -13.111  11.461  43.481  1.00  0.00     0.250 C 
HETATM   15  N3  UNL     1     -13.065  11.447  44.952  1.00  0.00    -0.349 N 
HETATM   16  C8  UNL     1     -14.389  11.824  45.358  1.00  0.00     0.143 C 
ATOM     17  H3  UNL     1     -12.270  11.220  45.550  1.00  0.00     0.163 HD
HETATM   18  C9  UNL     1     -14.659  12.948  44.346  1.00  0.00     0.143 C 
HETATM   19  N4  UNL     1     -14.300  12.259  43.133  1.00  0.00    -0.349 N 
ATOM     20  H4  UNL     1     -14.767  12.311  42.228  1.00  0.00     0.163 HD
ENDBRANCH  13  14
ENDBRANCH  12  13
ENDBRANCH   1  12
TORSDOF 7
ENDMDL
MODEL 5
REMARK VINA RESULT: -5.020172302      1.226      1.828
REMARK  7 active torsions:
REMARK  status: ('A' for Active; 'I' for Inactive)
REMARK    1  A    between atoms: C2_2  and  C4_4 
REMARK    2  A    between atoms: C4_4  and  N1_5 
REMARK    3  A    between atoms: C4_4  and  C5_9 
REMARK    4  A    between atoms: C5_9  and  O1_10 
REMARK    5  A    between atoms: C5_9  and  C6_12 
REMARK    6  A    between atoms: C6_12  and  N2_13 
REMARK    7  A    between atoms: N2_13  and  C7_14 
ROOT
HETATM    1  C5  UNL     1     -11.966   9.163  41.163  1.00  0.00     0.201 C 
ENDROOT
BRANCH   1   2
HETATM    2  C4  UNL     1     -11.986   9.421  39.687  1.00  0.00     0.221 C 
BRANCH   2   3
HETATM    3  C2  UNL     1     -10.944   8.689  38.901  1.00  0.00     0.011 C 
HETATM    4  C1  UNL     1     -10.988   8.994  37.426  1.00  0.00     0.011 C 
HETATM    5  C3  UNL     1     -11.295   7.200  39.036  1.00  0.00     0.011 C 
ENDBRANCH   2   3
BRANCH   2   6
HETATM    6  N1  UNL     1     -11.942  10.851  39.393  1.00  0.00    -0.072 N 
ATOM      7  H13 UNL     1     -12.809  11.318  39.659  1.00  0.00     0.274 HD
ATOM      8  H12 UNL     1     -11.305  11.346  40.016  1.00  0.00     0.274 HD
ATOM      9  H11 UNL     1     -11.712  11.009  38.412  1.00  0.00     0.274 HD
ENDBRANCH   2   6
ENDBRANCH   1   2
BRANCH   1  10
HETATM   10  O1  UNL     1     -13.097   8.605  41.688  1.00  0.00    -0.387 OA
ATOM     11  H1  UNL     1     -12.997   7.739  42.066  1.00  0.00     0.210 HD
ENDBRANCH   1  10
BRANCH   1  12
HETATM   12  C6  UNL     1     -11.546  10.456  41.869  1.00  0.00     0.193 C 
BRANCH  12  13
HETATM   13  N2  UNL     1     -12.412  11.000  42.696  1.00  0.00    -0.386 NA
BRANCH  13  14
HETATM   14  C7  UNL     1     -13.177  11.498  43.456  1.00  0.00     0.250 C 
HETATM   15  N3  UNL     1     -14.385  12.277  43.142  1.00  0.00    -0.349 N 
HETATM   16  C8  UNL     1     -14.681  12.987  44.354  1.00  0.00     0.143 C 
ATOM     17  H3  UNL     1     -14.898  12.306  42.261  1.00  0.00     0.163 HD
HETATM   18  C9  UNL     1     -14.409  11.874  45.378  1.00  0.00     0.143 C 
HETATM   19  N4  UNL     1     -13.105  11.458  44.927  1.00  0.00    -0.349 N 
ATOM     20  H4  UNL     1     -12.305  11.193  45.502  1.00  0.00     0.163 HD
ENDBRANCH  13  14
ENDBRANCH  12  13
ENDBRANCH   1  12
TORSDOF 7
ENDMDL
