MODEL 1
REMARK VINA RESULT: -8.020126975      0.000      0.000
REMARK  9 active torsions:
REMARK  status: ('A' for Active; 'I' for Inactive)
REMARK    1  A    between atoms: C1_4  and  O1_5 
REMARK    2  A    between atoms: C1_4  and  N2_7 
REMARK    3  A    between atoms: N2_7  and  C2_9 
REMARK    4  A    between atoms: C2_9  and  O2_10 
REMARK    5  A    between atoms: C2_9  and  C3_12 
REMARK    6  A    between atoms: C3_12  and  N3_13 
REMARK    7  A    between atoms: C3_12  and  C9_29 
REMARK    8  A    between atoms: N3_13  and  C4_15 
REMARK       I    between atoms: C9_29  and  N8_31 
REMARK    9  A    between atoms: N8_31  and  N9_33 
ROOT
HETATM    1  C3  UNL     1     -48.053  71.600 -14.061  1.00  0.00     0.241 C 
ENDROOT
BRANCH   1   2
HETATM    2  C2  UNL     1     -49.035  72.725 -13.789  1.00  0.00     0.253 C 
BRANCH   2   3
HETATM    3  N2  UNL     1     -49.309  72.844 -12.363  1.00  0.00    -0.328 N 
ATOM      4  H2  UNL     1     -49.060  72.076 -11.739  1.00  0.00     0.165 HD
BRANCH   3   5
HETATM    5  C1  UNL     1     -49.916  74.010 -11.827  1.00  0.00     0.212 C 
HETATM    6  N1  UNL     1     -49.694  74.335 -10.605  1.00  0.00    -0.366 N 
ATOM      7  H12 UNL     1     -50.131  75.173 -10.220  1.00  0.00     0.159 HD
ATOM      8  H11 UNL     1     -49.086  73.764 -10.019  1.00  0.00     0.159 HD
BRANCH   5   9
HETATM    9  O1  UNL     1     -50.740  74.785 -12.621  1.00  0.00    -0.333 OA
ATOM     10  H1  UNL     1     -51.300  74.382 -13.274  1.00  0.00     0.220 HD
ENDBRANCH   5   9
ENDBRANCH   3   5
ENDBRANCH   2   3
BRANCH   2  11
HETATM   11  O2  UNL     1     -48.534  73.951 -14.215  1.00  0.00    -0.374 OA
ATOM     12  H2  UNL     1     -48.409  73.892 -15.155  1.00  0.00     0.212 HD
ENDBRANCH   2  11
ENDBRANCH   1   2
BRANCH   1  13
HETATM   13  N3  UNL     1     -46.713  72.045 -13.919  1.00  0.00    -0.208 N 
ATOM     14  H3  UNL     1     -46.434  72.362 -12.991  1.00  0.00     0.178 HD
BRANCH  13  15
HETATM   15  C4  UNL     1     -45.814  72.092 -14.835  1.00  0.00     0.683 A 
HETATM   16  N4  UNL     1     -44.652  72.728 -14.617  1.00  0.00    -0.154 N 
HETATM   17  C5  UNL     1     -43.747  72.744 -15.611  1.00  0.00     0.290 A 
ATOM     18  H4  UNL     1     -44.462  73.184 -13.725  1.00  0.00     0.187 HD
HETATM   19  O3  UNL     1     -42.661  73.341 -15.400  1.00  0.00    -0.265 OA
HETATM   20  C6  UNL     1     -44.003  72.127 -16.820  1.00  0.00     0.147 A 
HETATM   21  N5  UNL     1     -43.303  71.982 -17.972  1.00  0.00    -0.345 N 
HETATM   22  C8  UNL     1     -45.199  71.471 -17.046  1.00  0.00     0.154 A 
HETATM   23  C7  UNL     1     -44.042  71.273 -18.848  1.00  0.00     0.182 A 
ATOM     24  H5  UNL     1     -42.368  72.349 -18.147  1.00  0.00     0.167 HD
HETATM   25  N6  UNL     1     -45.223  70.950 -18.288  1.00  0.00    -0.336 N 
ATOM     26  H6  UNL     1     -45.981  70.419 -18.717  1.00  0.00     0.168 HD
HETATM   27  N7  UNL     1     -46.076  71.479 -16.027  1.00  0.00    -0.174 N 
ATOM     28  H7  UNL     1     -46.973  71.008 -16.149  1.00  0.00     0.186 HD
ENDBRANCH  13  15
ENDBRANCH   1  13
BRANCH   1  29
HETATM   29  C9  UNL     1     -48.365  70.408 -13.237  1.00  0.00     0.263 C 
HETATM   30  O4  UNL     1     -47.817  70.236 -12.102  1.00  0.00    -0.269 OA
HETATM   31  N8  UNL     1     -49.284  69.417 -13.683  1.00  0.00    -0.275 N 
ATOM     32  H8  UNL     1     -49.739  69.527 -14.589  1.00  0.00     0.189 HD
BRANCH  31  33
HETATM   33  N9  UNL     1     -49.574  68.293 -12.897  1.00  0.00    -0.343 N 
ATOM     34  H92 UNL     1     -49.557  68.392 -11.883  1.00  0.00     0.176 HD
ATOM     35  H91 UNL     1     -49.797  67.395 -13.325  1.00  0.00     0.176 HD
ENDBRANCH  31  33
ENDBRANCH   1  29
TORSDOF 9
ENDMDL
MODEL 2
REMARK VINA RESULT: -7.694542818      2.156      6.317
REMARK  9 active torsions:
REMARK  status: ('A' for Active; 'I' for Inactive)
REMARK    1  A    between atoms: C1_4  and  O1_5 
REMARK    2  A    between atoms: C1_4  and  N2_7 
REMARK    3  A    between atoms: N2_7  and  C2_9 
REMARK    4  A    between atoms: C2_9  and  O2_10 
REMARK    5  A    between atoms: C2_9  and  C3_12 
REMARK    6  A    between atoms: C3_12  and  N3_13 
REMARK    7  A    between atoms: C3_12  and  C9_29 
REMARK    8  A    between atoms: N3_13  and  C4_15 
REMARK       I    between atoms: C9_29  and  N8_31 
REMARK    9  A    between atoms: N8_31  and  N9_33 
ROOT
HETATM    1  C3  UNL     1     -48.114  71.874 -13.180  1.00  0.00     0.241 C 
ENDROOT
BRANCH   1   2
HETATM    2  C2  UNL     1     -47.300  71.993 -14.456  1.00  0.00     0.253 C 
BRANCH   2   3
HETATM    3  N2  UNL     1     -46.094  72.780 -14.233  1.00  0.00    -0.328 N 
ATOM      4  H2  UNL     1     -46.049  73.412 -13.434  1.00  0.00     0.165 HD
BRANCH   3   5
HETATM    5  C1  UNL     1     -44.982  72.681 -15.110  1.00  0.00     0.212 C 
HETATM    6  N1  UNL     1     -45.178  72.614 -16.378  1.00  0.00    -0.366 N 
ATOM      7  H12 UNL     1     -44.378  72.543 -17.007  1.00  0.00     0.159 HD
ATOM      8  H11 UNL     1     -46.124  72.632 -16.757  1.00  0.00     0.159 HD
BRANCH   5   9
HETATM    9  O1  UNL     1     -43.699  72.657 -14.596  1.00  0.00    -0.333 OA
ATOM     10  H1  UNL     1     -43.056  72.044 -14.931  1.00  0.00     0.220 HD
ENDBRANCH   5   9
ENDBRANCH   3   5
ENDBRANCH   2   3
BRANCH   2  11
HETATM   11  O2  UNL     1     -46.897  70.745 -14.920  1.00  0.00    -0.374 OA
ATOM     12  H2  UNL     1     -46.849  70.799 -15.867  1.00  0.00     0.212 HD
ENDBRANCH   2  11
ENDBRANCH   1   2
BRANCH   1  13
HETATM   13  N3  UNL     1     -49.295  72.658 -13.252  1.00  0.00    -0.208 N 
ATOM     14  H3  UNL     1     -50.091  72.239 -13.733  1.00  0.00     0.178 HD
BRANCH  13  15
HETATM   15  C4  UNL     1     -49.469  73.839 -12.777  1.00  0.00     0.683 A 
HETATM   16  N4  UNL     1     -49.641  74.025 -11.459  1.00  0.00    -0.154 N 
HETATM   17  C5  UNL     1     -49.819  75.282 -11.018  1.00  0.00     0.290 A 
ATOM     18  H4  UNL     1     -49.637  73.236 -10.812  1.00  0.00     0.187 HD
HETATM   19  O3  UNL     1     -49.979  75.449  -9.783  1.00  0.00    -0.265 OA
HETATM   20  C6  UNL     1     -49.824  76.351 -11.893  1.00  0.00     0.147 A 
HETATM   21  N5  UNL     1     -49.976  77.690 -11.745  1.00  0.00    -0.345 N 
HETATM   22  C8  UNL     1     -49.647  76.162 -13.251  1.00  0.00     0.154 A 
HETATM   23  C7  UNL     1     -49.893  78.278 -12.955  1.00  0.00     0.182 A 
ATOM     24  H5  UNL     1     -50.128  78.175 -10.861  1.00  0.00     0.167 HD
HETATM   25  N6  UNL     1     -49.690  77.341 -13.901  1.00  0.00    -0.336 N 
ATOM     26  H6  UNL     1     -49.590  77.494 -14.904  1.00  0.00     0.168 HD
HETATM   27  N7  UNL     1     -49.473  74.890 -13.650  1.00  0.00    -0.174 N 
ATOM     28  H7  UNL     1     -49.339  74.701 -14.644  1.00  0.00     0.186 HD
ENDBRANCH  13  15
ENDBRANCH   1  13
BRANCH   1  29
HETATM   29  C9  UNL     1     -48.371  70.455 -12.841  1.00  0.00     0.263 C 
HETATM   30  O4  UNL     1     -47.615  69.829 -12.032  1.00  0.00    -0.269 OA
HETATM   31  N8  UNL     1     -49.466  69.744 -13.406  1.00  0.00    -0.275 N 
ATOM     32  H8  UNL     1     -50.089  70.219 -14.059  1.00  0.00     0.189 HD
BRANCH  31  33
HETATM   33  N9  UNL     1     -49.703  68.401 -13.080  1.00  0.00    -0.343 N 
ATOM     34  H92 UNL     1     -50.412  68.190 -12.379  1.00  0.00     0.176 HD
ATOM     35  H91 UNL     1     -49.181  67.650 -13.531  1.00  0.00     0.176 HD
ENDBRANCH  31  33
ENDBRANCH   1  29
TORSDOF 9
ENDMDL
MODEL 3
REMARK VINA RESULT: -7.663681975      1.896      6.608
REMARK  9 active torsions:
REMARK  status: ('A' for Active; 'I' for Inactive)
REMARK    1  A    between atoms: C1_4  and  O1_5 
REMARK    2  A    between atoms: C1_4  and  N2_7 
REMARK    3  A    between atoms: N2_7  and  C2_9 
REMARK    4  A    between atoms: C2_9  and  O2_10 
REMARK    5  A    between atoms: C2_9  and  C3_12 
REMARK    6  A    between atoms: C3_12  and  N3_13 
REMARK    7  A    between atoms: C3_12  and  C9_29 
REMARK    8  A    between atoms: N3_13  and  C4_15 
REMARK       I    between atoms: C9_29  and  N8_31 
REMARK    9  A    between atoms: N8_31  and  N9_33 
ROOT
HETATM    1  C3  UNL     1     -48.075  71.884 -13.375  1.00  0.00     0.241 C 
ENDROOT
BRANCH   1   2
HETATM    2  C2  UNL     1     -47.132  71.964 -14.562  1.00  0.00     0.253 C 
BRANCH   2   3
HETATM    3  N2  UNL     1     -45.942  72.735 -14.231  1.00  0.00    -0.328 N 
ATOM      4  H2  UNL     1     -45.924  73.285 -13.371  1.00  0.00     0.165 HD
BRANCH   3   5
HETATM    5  C1  UNL     1     -44.806  72.734 -15.083  1.00  0.00     0.212 C 
HETATM    6  N1  UNL     1     -44.969  72.804 -16.355  1.00  0.00    -0.366 N 
ATOM      7  H12 UNL     1     -44.153  72.804 -16.968  1.00  0.00     0.159 HD
ATOM      8  H11 UNL     1     -45.905  72.862 -16.755  1.00  0.00     0.159 HD
BRANCH   5   9
HETATM    9  O1  UNL     1     -43.537  72.656 -14.541  1.00  0.00    -0.333 OA
ATOM     10  H1  UNL     1     -43.258  71.877 -14.075  1.00  0.00     0.220 HD
ENDBRANCH   5   9
ENDBRANCH   3   5
ENDBRANCH   2   3
BRANCH   2  11
HETATM   11  O2  UNL     1     -46.706  70.700 -14.959  1.00  0.00    -0.374 OA
ATOM     12  H2  UNL     1     -46.149  70.361 -14.268  1.00  0.00     0.212 HD
ENDBRANCH   2  11
ENDBRANCH   1   2
BRANCH   1  13
HETATM   13  N3  UNL     1     -49.329  72.478 -13.677  1.00  0.00    -0.208 N 
ATOM     14  H3  UNL     1     -49.962  71.932 -14.261  1.00  0.00     0.178 HD
BRANCH  13  15
HETATM   15  C4  UNL     1     -49.751  73.628 -13.295  1.00  0.00     0.683 A 
HETATM   16  N4  UNL     1     -50.323  74.470 -14.170  1.00  0.00    -0.154 N 
HETATM   17  C5  UNL     1     -50.747  75.662 -13.713  1.00  0.00     0.290 A 
ATOM     18  H4  UNL     1     -50.432  74.214 -15.151  1.00  0.00     0.187 HD
HETATM   19  O3  UNL     1     -51.282  76.445 -14.538  1.00  0.00    -0.265 OA
HETATM   20  C6  UNL     1     -50.599  76.010 -12.385  1.00  0.00     0.147 A 
HETATM   21  N5  UNL     1     -50.920  77.107 -11.656  1.00  0.00    -0.345 N 
HETATM   22  C8  UNL     1     -50.010  75.144 -11.481  1.00  0.00     0.154 A 
HETATM   23  C7  UNL     1     -50.543  76.912 -10.378  1.00  0.00     0.182 A 
ATOM     24  H5  UNL     1     -51.373  77.946 -12.018  1.00  0.00     0.167 HD
HETATM   25  N6  UNL     1     -49.975  75.697 -10.253  1.00  0.00    -0.336 N 
ATOM     26  H6  UNL     1     -49.596  75.280  -9.403  1.00  0.00     0.168 HD
HETATM   27  N7  UNL     1     -49.600  73.965 -11.979  1.00  0.00    -0.174 N 
ATOM     28  H7  UNL     1     -49.159  73.294 -11.350  1.00  0.00     0.186 HD
ENDBRANCH  13  15
ENDBRANCH   1  13
BRANCH   1  29
HETATM   29  C9  UNL     1     -48.189  70.494 -12.877  1.00  0.00     0.263 C 
HETATM   30  O4  UNL     1     -47.387  70.047 -11.997  1.00  0.00    -0.269 OA
HETATM   31  N8  UNL     1     -49.195  69.611 -13.362  1.00  0.00    -0.275 N 
ATOM     32  H8  UNL     1     -49.852  69.940 -14.068  1.00  0.00     0.189 HD
BRANCH  31  33
HETATM   33  N9  UNL     1     -49.296  68.297 -12.884  1.00  0.00    -0.343 N 
ATOM     34  H92 UNL     1     -48.474  67.871 -12.457  1.00  0.00     0.176 HD
ATOM     35  H91 UNL     1     -50.169  67.775 -12.959  1.00  0.00     0.176 HD
ENDBRANCH  31  33
ENDBRANCH   1  29
TORSDOF 9
ENDMDL
MODEL 4
REMARK VINA RESULT: -7.576039780      1.306      2.014
REMARK  9 active torsions:
REMARK  status: ('A' for Active; 'I' for Inactive)
REMARK    1  A    between atoms: C1_4  and  O1_5 
REMARK    2  A    between atoms: C1_4  and  N2_7 
REMARK    3  A    between atoms: N2_7  and  C2_9 
REMARK    4  A    between atoms: C2_9  and  O2_10 
REMARK    5  A    between atoms: C2_9  and  C3_12 
REMARK    6  A    between atoms: C3_12  and  N3_13 
REMARK    7  A    between atoms: C3_12  and  C9_29 
REMARK    8  A    between atoms: N3_13  and  C4_15 
REMARK       I    between atoms: C9_29  and  N8_31 
REMARK    9  A    between atoms: N8_31  and  N9_33 
ROOT
HETATM    1  C3  UNL     1     -48.014  71.656 -13.858  1.00  0.00     0.241 C 
ENDROOT
BRANCH   1   2
HETATM    2  C2  UNL     1     -48.969  72.745 -13.403  1.00  0.00     0.253 C 
BRANCH   2   3
HETATM    3  N2  UNL     1     -49.821  73.182 -14.501  1.00  0.00    -0.328 N 
ATOM      4  H2  UNL     1     -50.811  73.361 -14.327  1.00  0.00     0.165 HD
BRANCH   3   5
HETATM    5  C1  UNL     1     -49.298  73.362 -15.809  1.00  0.00     0.212 C 
HETATM    6  N1  UNL     1     -49.890  72.814 -16.809  1.00  0.00    -0.366 N 
ATOM      7  H12 UNL     1     -49.514  72.943 -17.748  1.00  0.00     0.159 HD
ATOM      8  H11 UNL     1     -50.731  72.254 -16.669  1.00  0.00     0.159 HD
BRANCH   5   9
HETATM    9  O1  UNL     1     -48.159  74.121 -15.998  1.00  0.00    -0.333 OA
ATOM     10  H1  UNL     1     -47.608  74.356 -15.261  1.00  0.00     0.220 HD
ENDBRANCH   5   9
ENDBRANCH   3   5
ENDBRANCH   2   3
BRANCH   2  11
HETATM   11  O2  UNL     1     -49.806  72.295 -12.387  1.00  0.00    -0.374 OA
ATOM     12  H2  UNL     1     -49.266  71.818 -11.768  1.00  0.00     0.212 HD
ENDBRANCH   2  11
ENDBRANCH   1   2
BRANCH   1  13
HETATM   13  N3  UNL     1     -46.666  72.094 -13.780  1.00  0.00    -0.208 N 
ATOM     14  H3  UNL     1     -46.343  72.413 -12.867  1.00  0.00     0.178 HD
BRANCH  13  15
HETATM   15  C4  UNL     1     -45.810  72.131 -14.736  1.00  0.00     0.683 A 
HETATM   16  N4  UNL     1     -44.608  72.701 -14.554  1.00  0.00    -0.154 N 
HETATM   17  C5  UNL     1     -43.751  72.711 -15.590  1.00  0.00     0.290 A 
ATOM     18  H4  UNL     1     -44.354  73.114 -13.656  1.00  0.00     0.187 HD
HETATM   19  O3  UNL     1     -42.628  73.246 -15.411  1.00  0.00    -0.265 OA
HETATM   20  C6  UNL     1     -44.095  72.153 -16.805  1.00  0.00     0.147 A 
HETATM   21  N5  UNL     1     -43.459  72.018 -17.994  1.00  0.00    -0.345 N 
HETATM   22  C8  UNL     1     -45.332  71.565 -16.996  1.00  0.00     0.154 A 
HETATM   23  C7  UNL     1     -44.272  71.380 -18.858  1.00  0.00     0.182 A 
ATOM     24  H5  UNL     1     -42.516  72.346 -18.202  1.00  0.00     0.167 HD
HETATM   25  N6  UNL     1     -45.441  71.093 -18.253  1.00  0.00    -0.336 N 
ATOM     26  H6  UNL     1     -46.244  70.616 -18.663  1.00  0.00     0.168 HD
HETATM   27  N7  UNL     1     -46.159  71.577 -15.935  1.00  0.00    -0.174 N 
ATOM     28  H7  UNL     1     -47.083  71.156 -16.030  1.00  0.00     0.186 HD
ENDBRANCH  13  15
ENDBRANCH   1  13
BRANCH   1  29
HETATM   29  C9  UNL     1     -48.263  70.390 -13.130  1.00  0.00     0.263 C 
HETATM   30  O4  UNL     1     -47.638  70.121 -12.055  1.00  0.00    -0.269 OA
HETATM   31  N8  UNL     1     -49.203  69.433 -13.604  1.00  0.00    -0.275 N 
ATOM     32  H8  UNL     1     -49.719  69.621 -14.464  1.00  0.00     0.189 HD
BRANCH  31  33
HETATM   33  N9  UNL     1     -49.433  68.238 -12.909  1.00  0.00    -0.343 N 
ATOM     34  H92 UNL     1     -48.634  67.752 -12.501  1.00  0.00     0.176 HD
ATOM     35  H91 UNL     1     -50.374  67.859 -12.810  1.00  0.00     0.176 HD
ENDBRANCH  31  33
ENDBRANCH   1  29
TORSDOF 9
ENDMDL
MODEL 5
REMARK VINA RESULT: -7.521179237      1.765      3.172
REMARK  9 active torsions:
REMARK  status: ('A' for Active; 'I' for Inactive)
REMARK    1  A    between atoms: C1_4  and  O1_5 
REMARK    2  A    between atoms: C1_4  and  N2_7 
REMARK    3  A    between atoms: N2_7  and  C2_9 
REMARK    4  A    between atoms: C2_9  and  O2_10 
REMARK    5  A    between atoms: C2_9  and  C3_12 
REMARK    6  A    between atoms: C3_12  and  N3_13 
REMARK    7  A    between atoms: C3_12  and  C9_29 
REMARK    8  A    between atoms: N3_13  and  C4_15 
REMARK       I    between atoms: C9_29  and  N8_31 
REMARK    9  A    between atoms: N8_31  and  N9_33 
ROOT
HETATM    1  C3  UNL     1     -47.818  72.139 -13.660  1.00  0.00     0.241 C 
ENDROOT
BRANCH   1   2
HETATM    2  C2  UNL     1     -48.386  71.466 -12.424  1.00  0.00     0.253 C 
BRANCH   2   3
HETATM    3  N2  UNL     1     -49.428  70.514 -12.782  1.00  0.00    -0.328 N 
ATOM      4  H2  UNL     1     -50.405  70.810 -12.765  1.00  0.00     0.165 HD
BRANCH   3   5
HETATM    5  C1  UNL     1     -49.109  69.181 -13.153  1.00  0.00     0.212 C 
HETATM    6  N1  UNL     1     -49.549  68.204 -12.446  1.00  0.00    -0.366 N 
ATOM      7  H12 UNL     1     -49.319  67.246 -12.713  1.00  0.00     0.159 HD
ATOM      8  H11 UNL     1     -50.125  68.378 -11.623  1.00  0.00     0.159 HD
BRANCH   5   9
HETATM    9  O1  UNL     1     -48.329  68.945 -14.269  1.00  0.00    -0.333 OA
ATOM     10  H1  UNL     1     -47.472  69.346 -14.353  1.00  0.00     0.220 HD
ENDBRANCH   5   9
ENDBRANCH   3   5
ENDBRANCH   2   3
BRANCH   2  11
HETATM   11  O2  UNL     1     -47.405  70.761 -11.733  1.00  0.00    -0.374 OA
ATOM     12  H2  UNL     1     -46.853  71.401 -11.298  1.00  0.00     0.212 HD
ENDBRANCH   2  11
ENDBRANCH   1   2
BRANCH   1  13
HETATM   13  N3  UNL     1     -46.760  71.375 -14.218  1.00  0.00    -0.208 N 
ATOM     14  H3  UNL     1     -46.662  70.418 -13.879  1.00  0.00     0.178 HD
BRANCH  13  15
HETATM   15  C4  UNL     1     -45.914  71.758 -15.105  1.00  0.00     0.683 A 
HETATM   16  N4  UNL     1     -44.841  72.485 -14.754  1.00  0.00    -0.154 N 
HETATM   17  C5  UNL     1     -43.989  72.857 -15.725  1.00  0.00     0.290 A 
ATOM     18  H4  UNL     1     -44.679  72.746 -13.782  1.00  0.00     0.187 HD
HETATM   19  O3  UNL     1     -42.986  73.538 -15.389  1.00  0.00    -0.265 OA
HETATM   20  C6  UNL     1     -44.208  72.504 -17.042  1.00  0.00     0.147 A 
HETATM   21  N5  UNL     1     -43.543  72.729 -18.201  1.00  0.00    -0.345 N 
HETATM   22  C8  UNL     1     -45.312  71.755 -17.405  1.00  0.00     0.154 A 
HETATM   23  C7  UNL     1     -44.214  72.143 -19.213  1.00  0.00     0.182 A 
ATOM     24  H5  UNL     1     -42.675  73.256 -18.294  1.00  0.00     0.167 HD
HETATM   25  N6  UNL     1     -45.316  71.535 -18.734  1.00  0.00    -0.336 N 
ATOM     26  H6  UNL     1     -46.011  71.015 -19.269  1.00  0.00     0.168 HD
HETATM   27  N7  UNL     1     -46.139  71.404 -16.405  1.00  0.00    -0.174 N 
ATOM     28  H7  UNL     1     -46.968  70.851 -16.626  1.00  0.00     0.186 HD
ENDBRANCH  13  15
ENDBRANCH   1  13
BRANCH   1  29
HETATM   29  C9  UNL     1     -48.888  72.459 -14.633  1.00  0.00     0.263 C 
HETATM   30  O4  UNL     1     -49.120  71.695 -15.624  1.00  0.00    -0.269 OA
HETATM   31  N8  UNL     1     -49.692  73.625 -14.497  1.00  0.00    -0.275 N 
ATOM     32  H8  UNL     1     -49.530  74.257 -13.713  1.00  0.00     0.189 HD
BRANCH  31  33
HETATM   33  N9  UNL     1     -50.703  73.919 -15.422  1.00  0.00    -0.343 N 
ATOM     34  H92 UNL     1     -51.020  73.179 -16.048  1.00  0.00     0.176 HD
ATOM     35  H91 UNL     1     -51.116  74.850 -15.473  1.00  0.00     0.176 HD
ENDBRANCH  31  33
ENDBRANCH   1  29
TORSDOF 9
ENDMDL
