MODEL 1
REMARK VINA RESULT: -7.651225240      0.000      0.000
REMARK  5 active torsions:
REMARK  status: ('A' for Active; 'I' for Inactive)
REMARK    1  A    between atoms: N1_1  and  N2_4 
REMARK       I    between atoms: N2_4  and  C1_6 
REMARK    2  A    between atoms: C1_6  and  C2_8 
REMARK    3  A    between atoms: C2_8  and  N3_9 
REMARK       I    between atoms: N3_9  and  C3_11 
REMARK    4  A    between atoms: C3_11  and  C4_13 
REMARK    5  A    between atoms: C4_13  and  N4_14 
ROOT
HETATM    1  N4  UNL     1     -47.516  71.182 -14.797  1.00  0.00    -0.273 N 
HETATM    2  C5  UNL     1     -46.543  72.083 -15.022  1.00  0.00     0.160 A 
HETATM    3  C6  UNL     1     -46.549  72.403 -16.366  1.00  0.00     0.151 A 
HETATM    4  N5  UNL     1     -47.537  71.684 -16.941  1.00  0.00    -0.300 N 
ATOM      5  H5  UNL     1     -47.796  71.698 -17.927  1.00  0.00     0.171 HD
HETATM    6  C7  UNL     1     -48.116  70.948 -15.979  1.00  0.00     0.329 A 
HETATM    7  O3  UNL     1     -49.091  70.158 -16.210  1.00  0.00    -0.246 OA
HETATM    8  C8  UNL     1     -45.668  73.336 -17.067  1.00  0.00     0.280 C 
HETATM    9  O4  UNL     1     -46.103  73.754 -18.170  1.00  0.00    -0.265 OA
HETATM   10  N6  UNL     1     -44.388  73.819 -16.644  1.00  0.00    -0.272 N 
ATOM     11  H6  UNL     1     -43.827  74.294 -17.350  1.00  0.00     0.173 HD
HETATM   12  C9  UNL     1     -43.811  73.710 -15.347  1.00  0.00     0.341 C 
HETATM   13  O5  UNL     1     -42.582  73.973 -15.294  1.00  0.00    -0.245 OA
HETATM   14  N7  UNL     1     -44.476  73.344 -14.149  1.00  0.00    -0.250 N 
ATOM     15  H7  UNL     1     -44.039  73.655 -13.281  1.00  0.00     0.192 HD
HETATM   16  N8  UNL     1     -45.657  72.608 -14.015  1.00  0.00    -0.279 N 
ATOM     17  H8  UNL     1     -45.935  72.411 -13.053  1.00  0.00     0.189 HD
ENDROOT
BRANCH   1  18
HETATM   18  C4  UNL     1     -47.823  70.608 -13.525  1.00  0.00     0.238 C 
BRANCH  18  19
HETATM   19  C3  UNL     1     -48.899  71.304 -12.802  1.00  0.00     0.236 C 
HETATM   20  N3  UNL     1     -48.842  72.678 -12.459  1.00  0.00    -0.351 N 
ATOM     21  H3  UNL     1     -48.019  73.219 -12.723  1.00  0.00     0.163 HD
HETATM   22  O2  UNL     1     -49.916  70.648 -12.471  1.00  0.00    -0.272 OA
BRANCH  20  23
HETATM   23  C2  UNL     1     -49.907  73.331 -11.752  1.00  0.00     0.227 C 
BRANCH  23  24
HETATM   24  C1  UNL     1     -50.081  74.741 -12.170  1.00  0.00     0.253 C 
HETATM   25  N2  UNL     1     -49.461  75.769 -11.408  1.00  0.00    -0.275 N 
ATOM     26  H2  UNL     1     -48.908  75.515 -10.590  1.00  0.00     0.189 HD
HETATM   27  O1  UNL     1     -50.759  75.071 -13.175  1.00  0.00    -0.270 OA
BRANCH  25  28
HETATM   28  N1  UNL     1     -49.589  77.120 -11.750  1.00  0.00    -0.343 N 
ATOM     29  H12 UNL     1     -50.521  77.476 -11.959  1.00  0.00     0.176 HD
ATOM     30  H11 UNL     1     -48.781  77.742 -11.794  1.00  0.00     0.176 HD
ENDBRANCH  25  28
ENDBRANCH  23  24
ENDBRANCH  20  23
ENDBRANCH  18  19
ENDBRANCH   1  18
TORSDOF 5
ENDMDL
MODEL 2
REMARK VINA RESULT: -7.586796354      1.507      1.664
REMARK  5 active torsions:
REMARK  status: ('A' for Active; 'I' for Inactive)
REMARK    1  A    between atoms: N1_1  and  N2_4 
REMARK       I    between atoms: N2_4  and  C1_6 
REMARK    2  A    between atoms: C1_6  and  C2_8 
REMARK    3  A    between atoms: C2_8  and  N3_9 
REMARK       I    between atoms: N3_9  and  C3_11 
REMARK    4  A    between atoms: C3_11  and  C4_13 
REMARK    5  A    between atoms: C4_13  and  N4_14 
ROOT
HETATM    1  N4  UNL     1     -47.755  71.454 -14.168  1.00  0.00    -0.273 N 
HETATM    2  C5  UNL     1     -46.646  71.968 -14.730  1.00  0.00     0.160 A 
HETATM    3  C6  UNL     1     -46.416  71.307 -15.921  1.00  0.00     0.151 A 
HETATM    4  N5  UNL     1     -47.400  70.394 -16.065  1.00  0.00    -0.300 N 
ATOM      5  H5  UNL     1     -47.511  69.746 -16.844  1.00  0.00     0.171 HD
HETATM    6  C7  UNL     1     -48.205  70.493 -14.995  1.00  0.00     0.329 A 
HETATM    7  O3  UNL     1     -49.235  69.756 -14.839  1.00  0.00    -0.246 OA
HETATM    8  C8  UNL     1     -45.326  71.529 -16.870  1.00  0.00     0.280 C 
HETATM    9  O4  UNL     1     -45.538  71.104 -18.034  1.00  0.00    -0.265 OA
HETATM   10  N6  UNL     1     -44.066  72.164 -16.625  1.00  0.00    -0.272 N 
ATOM     11  H6  UNL     1     -43.350  72.042 -17.341  1.00  0.00     0.173 HD
HETATM   12  C9  UNL     1     -43.701  72.947 -15.494  1.00  0.00     0.341 C 
HETATM   13  O5  UNL     1     -42.468  73.172 -15.385  1.00  0.00    -0.245 OA
HETATM   14  N7  UNL     1     -44.574  73.479 -14.511  1.00  0.00    -0.250 N 
ATOM     15  H7  UNL     1     -44.228  74.288 -13.996  1.00  0.00     0.192 HD
HETATM   16  N8  UNL     1     -45.851  73.028 -14.164  1.00  0.00    -0.279 N 
ATOM     17  H8  UNL     1     -46.288  73.526 -13.388  1.00  0.00     0.189 HD
ENDROOT
BRANCH   1  18
HETATM   18  C4  UNL     1     -48.316  71.879 -12.924  1.00  0.00     0.238 C 
BRANCH  18  19
HETATM   19  C3  UNL     1     -49.272  72.991 -13.051  1.00  0.00     0.236 C 
HETATM   20  N3  UNL     1     -49.562  73.890 -11.996  1.00  0.00    -0.351 N 
ATOM     21  H3  UNL     1     -49.089  73.769 -11.100  1.00  0.00     0.163 HD
HETATM   22  O2  UNL     1     -49.859  73.148 -14.148  1.00  0.00    -0.272 OA
BRANCH  20  23
HETATM   23  C2  UNL     1     -50.500  74.966 -12.147  1.00  0.00     0.227 C 
BRANCH  23  24
HETATM   24  C1  UNL     1     -49.983  76.247 -11.613  1.00  0.00     0.253 C 
HETATM   25  N2  UNL     1     -50.722  76.923 -10.605  1.00  0.00    -0.275 N 
ATOM     26  H2  UNL     1     -51.593  76.512 -10.269  1.00  0.00     0.189 HD
HETATM   27  O1  UNL     1     -48.911  76.765 -12.015  1.00  0.00    -0.270 OA
BRANCH  25  28
HETATM   28  N1  UNL     1     -50.288  78.136 -10.060  1.00  0.00    -0.343 N 
ATOM     29  H12 UNL     1     -49.989  78.145  -9.085  1.00  0.00     0.176 HD
ATOM     30  H11 UNL     1     -50.265  78.995 -10.610  1.00  0.00     0.176 HD
ENDBRANCH  25  28
ENDBRANCH  23  24
ENDBRANCH  20  23
ENDBRANCH  18  19
ENDBRANCH   1  18
TORSDOF 5
ENDMDL
MODEL 3
REMARK VINA RESULT: -7.122293553      2.651      4.407
REMARK  5 active torsions:
REMARK  status: ('A' for Active; 'I' for Inactive)
REMARK    1  A    between atoms: N1_1  and  N2_4 
REMARK       I    between atoms: N2_4  and  C1_6 
REMARK    2  A    between atoms: C1_6  and  C2_8 
REMARK    3  A    between atoms: C2_8  and  N3_9 
REMARK       I    between atoms: N3_9  and  C3_11 
REMARK    4  A    between atoms: C3_11  and  C4_13 
REMARK    5  A    between atoms: C4_13  and  N4_14 
ROOT
HETATM    1  N4  UNL     1     -49.400  74.320 -15.325  1.00  0.00    -0.273 N 
HETATM    2  C5  UNL     1     -48.721  73.444 -14.563  1.00  0.00     0.160 A 
HETATM    3  C6  UNL     1     -47.749  72.850 -15.344  1.00  0.00     0.151 A 
HETATM    4  N5  UNL     1     -47.855  73.381 -16.581  1.00  0.00    -0.300 N 
ATOM      5  H5  UNL     1     -47.276  73.148 -17.388  1.00  0.00     0.171 HD
HETATM    6  C7  UNL     1     -48.860  74.271 -16.556  1.00  0.00     0.329 A 
HETATM    7  O3  UNL     1     -49.208  74.945 -17.583  1.00  0.00    -0.246 OA
HETATM    8  C8  UNL     1     -46.775  71.836 -14.942  1.00  0.00     0.280 C 
HETATM    9  O4  UNL     1     -45.766  71.741 -15.688  1.00  0.00    -0.265 OA
HETATM   10  N6  UNL     1     -46.841  70.955 -13.815  1.00  0.00    -0.272 N 
ATOM     11  H6  UNL     1     -46.183  70.176 -13.810  1.00  0.00     0.173 HD
HETATM   12  C9  UNL     1     -47.721  71.046 -12.701  1.00  0.00     0.341 C 
HETATM   13  O5  UNL     1     -47.766  70.016 -11.980  1.00  0.00    -0.245 OA
HETATM   14  N7  UNL     1     -48.527  72.157 -12.342  1.00  0.00    -0.250 N 
ATOM     15  H7  UNL     1     -48.807  72.209 -11.363  1.00  0.00     0.192 HD
HETATM   16  N8  UNL     1     -48.983  73.188 -13.169  1.00  0.00    -0.279 N 
ATOM     17  H8  UNL     1     -49.597  73.864 -12.716  1.00  0.00     0.189 HD
ENDROOT
BRANCH   1  18
HETATM   18  C4  UNL     1     -50.485  75.132 -14.871  1.00  0.00     0.238 C 
BRANCH  18  19
HETATM   19  C3  UNL     1     -50.070  76.442 -14.346  1.00  0.00     0.236 C 
HETATM   20  N3  UNL     1     -50.232  76.822 -12.991  1.00  0.00    -0.351 N 
ATOM     21  H3  UNL     1     -50.656  76.162 -12.340  1.00  0.00     0.163 HD
HETATM   22  O2  UNL     1     -49.547  77.262 -15.138  1.00  0.00    -0.272 OA
BRANCH  20  23
HETATM   23  C2  UNL     1     -49.818  78.108 -12.506  1.00  0.00     0.227 C 
BRANCH  23  24
HETATM   24  C1  UNL     1     -50.096  78.284 -11.062  1.00  0.00     0.253 C 
HETATM   25  N2  UNL     1     -50.580  77.178 -10.312  1.00  0.00    -0.275 N 
ATOM     26  H2  UNL     1     -50.726  76.285 -10.783  1.00  0.00     0.189 HD
HETATM   27  O1  UNL     1     -49.920  79.377 -10.466  1.00  0.00    -0.270 OA
BRANCH  25  28
HETATM   28  N1  UNL     1     -50.861  77.280  -8.945  1.00  0.00    -0.343 N 
ATOM     29  H12 UNL     1     -51.534  77.985  -8.644  1.00  0.00     0.176 HD
ATOM     30  H11 UNL     1     -50.414  76.673  -8.257  1.00  0.00     0.176 HD
ENDBRANCH  25  28
ENDBRANCH  23  24
ENDBRANCH  20  23
ENDBRANCH  18  19
ENDBRANCH   1  18
TORSDOF 5
ENDMDL
MODEL 4
REMARK VINA RESULT: -7.110960592      1.899      5.923
REMARK  5 active torsions:
REMARK  status: ('A' for Active; 'I' for Inactive)
REMARK    1  A    between atoms: N1_1  and  N2_4 
REMARK       I    between atoms: N2_4  and  C1_6 
REMARK    2  A    between atoms: C1_6  and  C2_8 
REMARK    3  A    between atoms: C2_8  and  N3_9 
REMARK       I    between atoms: N3_9  and  C3_11 
REMARK    4  A    between atoms: C3_11  and  C4_13 
REMARK    5  A    between atoms: C4_13  and  N4_14 
ROOT
HETATM    1  N4  UNL     1     -49.204  72.514 -14.161  1.00  0.00    -0.273 N 
HETATM    2  C5  UNL     1     -49.439  73.835 -14.064  1.00  0.00     0.160 A 
HETATM    3  C6  UNL     1     -49.602  74.150 -12.729  1.00  0.00     0.151 A 
HETATM    4  N5  UNL     1     -49.462  73.003 -12.030  1.00  0.00    -0.300 N 
ATOM      5  H5  UNL     1     -49.527  72.903 -11.017  1.00  0.00     0.171 HD
HETATM    6  C7  UNL     1     -49.221  72.018 -12.911  1.00  0.00     0.329 A 
HETATM    7  O3  UNL     1     -49.042  70.806 -12.554  1.00  0.00    -0.246 OA
HETATM    8  C8  UNL     1     -49.876  75.463 -12.147  1.00  0.00     0.280 C 
HETATM    9  O4  UNL     1     -49.595  75.575 -10.926  1.00  0.00    -0.265 OA
HETATM   10  N6  UNL     1     -50.418  76.616 -12.801  1.00  0.00    -0.272 N 
ATOM     11  H6  UNL     1     -50.737  77.373 -12.196  1.00  0.00     0.173 HD
HETATM   12  C9  UNL     1     -50.564  76.823 -14.202  1.00  0.00     0.341 C 
HETATM   13  O5  UNL     1     -51.302  77.791 -14.517  1.00  0.00    -0.245 OA
HETATM   14  N7  UNL     1     -49.969  76.062 -15.240  1.00  0.00    -0.250 N 
ATOM     15  H7  UNL     1     -49.868  76.532 -16.140  1.00  0.00     0.192 HD
HETATM   16  N8  UNL     1     -49.504  74.745 -15.179  1.00  0.00    -0.279 N 
ATOM     17  H8  UNL     1     -49.158  74.369 -16.061  1.00  0.00     0.189 HD
ENDROOT
BRANCH   1  18
HETATM   18  C4  UNL     1     -48.983  71.809 -15.384  1.00  0.00     0.238 C 
BRANCH  18  19
HETATM   19  C3  UNL     1     -47.578  71.433 -15.609  1.00  0.00     0.236 C 
HETATM   20  N3  UNL     1     -46.597  72.340 -16.080  1.00  0.00    -0.351 N 
ATOM     21  H3  UNL     1     -46.869  73.304 -16.276  1.00  0.00     0.163 HD
HETATM   22  O2  UNL     1     -47.233  70.251 -15.373  1.00  0.00    -0.272 OA
BRANCH  20  23
HETATM   23  C2  UNL     1     -45.234  71.946 -16.292  1.00  0.00     0.227 C 
BRANCH  23  24
HETATM   24  C1  UNL     1     -44.292  72.666 -15.403  1.00  0.00     0.253 C 
HETATM   25  N2  UNL     1     -44.803  73.359 -14.272  1.00  0.00    -0.275 N 
ATOM     26  H2  UNL     1     -45.808  73.346 -14.095  1.00  0.00     0.189 HD
HETATM   27  O1  UNL     1     -43.052  72.690 -15.607  1.00  0.00    -0.270 OA
BRANCH  25  28
HETATM   28  N1  UNL     1     -43.967  74.057 -13.395  1.00  0.00    -0.343 N 
ATOM     29  H12 UNL     1     -42.959  73.940 -13.496  1.00  0.00     0.176 HD
ATOM     30  H11 UNL     1     -44.340  74.670 -12.670  1.00  0.00     0.176 HD
ENDBRANCH  25  28
ENDBRANCH  23  24
ENDBRANCH  20  23
ENDBRANCH  18  19
ENDBRANCH   1  18
TORSDOF 5
ENDMDL
MODEL 5
REMARK VINA RESULT: -7.098038203      1.511      1.753
REMARK  5 active torsions:
REMARK  status: ('A' for Active; 'I' for Inactive)
REMARK    1  A    between atoms: N1_1  and  N2_4 
REMARK       I    between atoms: N2_4  and  C1_6 
REMARK    2  A    between atoms: C1_6  and  C2_8 
REMARK    3  A    between atoms: C2_8  and  N3_9 
REMARK       I    between atoms: N3_9  and  C3_11 
REMARK    4  A    between atoms: C3_11  and  C4_13 
REMARK    5  A    between atoms: C4_13  and  N4_14 
ROOT
HETATM    1  N4  UNL     1     -47.967  71.643 -15.226  1.00  0.00    -0.273 N 
HETATM    2  C5  UNL     1     -46.794  72.266 -15.438  1.00  0.00     0.160 A 
HETATM    3  C6  UNL     1     -46.445  72.100 -16.764  1.00  0.00     0.151 A 
HETATM    4  N5  UNL     1     -47.423  71.371 -17.342  1.00  0.00    -0.300 N 
ATOM      5  H5  UNL     1     -47.460  71.078 -18.319  1.00  0.00     0.171 HD
HETATM    6  C7  UNL     1     -48.340  71.100 -16.399  1.00  0.00     0.329 A 
HETATM    7  O3  UNL     1     -49.394  70.421 -16.639  1.00  0.00    -0.246 OA
HETATM    8  C8  UNL     1     -45.254  72.602 -17.445  1.00  0.00     0.280 C 
HETATM    9  O4  UNL     1     -45.343  72.669 -18.698  1.00  0.00    -0.265 OA
HETATM   10  N6  UNL     1     -44.017  73.020 -16.855  1.00  0.00    -0.272 N 
ATOM     11  H6  UNL     1     -43.229  73.139 -17.492  1.00  0.00     0.173 HD
HETATM   12  C9  UNL     1     -43.765  73.287 -15.481  1.00  0.00     0.341 C 
HETATM   13  O5  UNL     1     -42.548  73.380 -15.177  1.00  0.00    -0.245 OA
HETATM   14  N7  UNL     1     -44.732  73.453 -14.456  1.00  0.00    -0.250 N 
ATOM     15  H7  UNL     1     -44.430  73.982 -13.637  1.00  0.00     0.192 HD
HETATM   16  N8  UNL     1     -46.047  72.980 -14.433  1.00  0.00    -0.279 N 
ATOM     17  H8  UNL     1     -46.558  73.168 -13.571  1.00  0.00     0.189 HD
ENDROOT
BRANCH   1  18
HETATM   18  C4  UNL     1     -48.654  71.592 -13.974  1.00  0.00     0.238 C 
BRANCH  18  19
HETATM   19  C3  UNL     1     -49.343  72.844 -13.622  1.00  0.00     0.236 C 
HETATM   20  N3  UNL     1     -49.280  73.429 -12.333  1.00  0.00    -0.351 N 
ATOM     21  H3  UNL     1     -48.731  72.967 -11.608  1.00  0.00     0.163 HD
HETATM   22  O2  UNL     1     -50.020  73.420 -14.506  1.00  0.00    -0.272 OA
BRANCH  20  23
HETATM   23  C2  UNL     1     -49.963  74.651 -12.017  1.00  0.00     0.227 C 
BRANCH  23  24
HETATM   24  C1  UNL     1     -49.921  74.964 -10.570  1.00  0.00     0.253 C 
HETATM   25  N2  UNL     1     -49.693  73.912  -9.642  1.00  0.00    -0.275 N 
ATOM     26  H2  UNL     1     -49.563  72.962  -9.991  1.00  0.00     0.189 HD
HETATM   27  O1  UNL     1     -50.078  76.129 -10.124  1.00  0.00    -0.270 OA
BRANCH  25  28
HETATM   28  N1  UNL     1     -49.642  74.143  -8.263  1.00  0.00    -0.343 N 
ATOM     29  H12 UNL     1     -49.312  75.052  -7.940  1.00  0.00     0.176 HD
ATOM     30  H11 UNL     1     -49.924  73.432  -7.588  1.00  0.00     0.176 HD
ENDBRANCH  25  28
ENDBRANCH  23  24
ENDBRANCH  20  23
ENDBRANCH  18  19
ENDBRANCH   1  18
TORSDOF 5
ENDMDL
