MODEL 1
REMARK VINA RESULT: -7.580948063      0.000      0.000
REMARK  8 active torsions:
REMARK  status: ('A' for Active; 'I' for Inactive)
REMARK    1  A    between atoms: C1_2  and  C2_3 
REMARK    2  A    between atoms: C1_2  and  C3_8 
REMARK    3  A    between atoms: C2_3  and  O2_4 
REMARK    4  A    between atoms: C2_3  and  O3_6 
REMARK    5  A    between atoms: C3_8  and  N1_9 
REMARK    6  A    between atoms: C3_8  and  C6_20 
REMARK    7  A    between atoms: N1_9  and  C4_11 
REMARK    8  A    between atoms: N7_29  and  O7_30 
ROOT
HETATM    1  C3  UNL     1     -47.076  71.808 -14.338  1.00  0.00     0.244 C 
ENDROOT
BRANCH   1   2
HETATM    2  C1  UNL     1     -47.687  70.472 -14.421  1.00  0.00     0.211 C 
HETATM    3  O1  UNL     1     -48.354  70.193 -15.400  1.00  0.00    -0.290 OA
BRANCH   2   4
HETATM    4  C2  UNL     1     -47.537  69.446 -13.379  1.00  0.00     0.328 C 
BRANCH   4   5
HETATM    5  O2  UNL     1     -48.599  68.577 -13.244  1.00  0.00    -0.365 OA
ATOM      6  H2  UNL     1     -48.442  67.690 -13.545  1.00  0.00     0.213 HD
ENDBRANCH   4   5
BRANCH   4   7
HETATM    7  O3  UNL     1     -47.327  70.042 -12.125  1.00  0.00    -0.365 OA
ATOM      8  H3  UNL     1     -47.772  69.551 -11.443  1.00  0.00     0.213 HD
ENDBRANCH   4   7
ENDBRANCH   2   4
ENDBRANCH   1   2
BRANCH   1   9
HETATM    9  N1  UNL     1     -47.975  72.895 -14.555  1.00  0.00    -0.206 N 
ATOM     10  H1  UNL     1     -48.041  73.275 -15.499  1.00  0.00     0.179 HD
BRANCH   9  11
HETATM   11  C4  UNL     1     -48.709  73.429 -13.640  1.00  0.00     0.697 A 
HETATM   12  N2  UNL     1     -49.049  72.813 -12.492  1.00  0.00    -0.128 N 
HETATM   13  N3  UNL     1     -49.808  73.614 -11.757  1.00  0.00    -0.237 N 
ATOM     14  H2  UNL     1     -48.766  71.870 -12.227  1.00  0.00     0.205 HD
HETATM   15  C5  UNL     1     -49.978  74.778 -12.419  1.00  0.00     0.353 A 
ATOM     16  H3  UNL     1     -50.198  73.388 -10.842  1.00  0.00     0.192 HD
HETATM   17  O4  UNL     1     -50.642  75.769 -12.020  1.00  0.00    -0.245 OA
HETATM   18  N4  UNL     1     -49.289  74.641 -13.582  1.00  0.00    -0.139 N 
ATOM     19  H4  UNL     1     -49.221  75.355 -14.307  1.00  0.00     0.189 HD
ENDBRANCH   9  11
ENDBRANCH   1   9
BRANCH   1  20
HETATM   20  C6  UNL     1     -45.988  71.954 -15.358  1.00  0.00     0.150 A 
HETATM   21  N5  UNL     1     -45.989  71.217 -16.483  1.00  0.00    -0.294 N 
HETATM   22  C7  UNL     1     -44.985  71.384 -17.371  1.00  0.00     0.329 A 
ATOM     23  H5  UNL     1     -46.734  70.545 -16.663  1.00  0.00     0.172 HD
HETATM   24  O5  UNL     1     -44.981  70.691 -18.434  1.00  0.00    -0.246 OA
HETATM   25  N6  UNL     1     -43.977  72.264 -17.175  1.00  0.00    -0.258 N 
HETATM   26  C8  UNL     1     -44.012  72.982 -16.038  1.00  0.00     0.356 A 
ATOM     27  H6  UNL     1     -43.227  72.377 -17.857  1.00  0.00     0.175 HD
HETATM   28  O6  UNL     1     -43.099  73.821 -15.797  1.00  0.00    -0.244 OA
HETATM   29  N7  UNL     1     -45.006  72.840 -15.122  1.00  0.00    -0.157 N 
BRANCH  29  30
HETATM   30  O7  UNL     1     -45.036  73.577 -13.962  1.00  0.00    -0.277 OA
ATOM     31  H7  UNL     1     -44.230  73.964 -13.640  1.00  0.00     0.245 HD
ENDBRANCH  29  30
ENDBRANCH   1  20
TORSDOF 8
ENDMDL
MODEL 2
REMARK VINA RESULT: -7.372619216      1.515      5.663
REMARK  8 active torsions:
REMARK  status: ('A' for Active; 'I' for Inactive)
REMARK    1  A    between atoms: C1_2  and  C2_3 
REMARK    2  A    between atoms: C1_2  and  C3_8 
REMARK    3  A    between atoms: C2_3  and  O2_4 
REMARK    4  A    between atoms: C2_3  and  O3_6 
REMARK    5  A    between atoms: C3_8  and  N1_9 
REMARK    6  A    between atoms: C3_8  and  C6_20 
REMARK    7  A    between atoms: N1_9  and  C4_11 
REMARK    8  A    between atoms: N7_29  and  O7_30 
ROOT
HETATM    1  C3  UNL     1     -47.972  71.556 -13.788  1.00  0.00     0.244 C 
ENDROOT
BRANCH   1   2
HETATM    2  C1  UNL     1     -48.219  70.435 -12.867  1.00  0.00     0.211 C 
HETATM    3  O1  UNL     1     -47.523  70.329 -11.874  1.00  0.00    -0.290 OA
BRANCH   2   4
HETATM    4  C2  UNL     1     -49.269  69.428 -13.080  1.00  0.00     0.328 C 
BRANCH   4   5
HETATM    5  O2  UNL     1     -48.972  68.158 -12.633  1.00  0.00    -0.365 OA
ATOM      6  H2  UNL     1     -48.455  67.626 -13.227  1.00  0.00     0.213 HD
ENDBRANCH   4   5
BRANCH   4   7
HETATM    7  O3  UNL     1     -49.584  69.323 -14.444  1.00  0.00    -0.365 OA
ATOM      8  H3  UNL     1     -49.257  68.506 -14.801  1.00  0.00     0.213 HD
ENDBRANCH   4   7
ENDBRANCH   2   4
ENDBRANCH   1   2
BRANCH   1   9
HETATM    9  N1  UNL     1     -46.628  72.038 -13.801  1.00  0.00    -0.206 N 
ATOM     10  H1  UNL     1     -46.237  72.375 -12.922  1.00  0.00     0.179 HD
BRANCH   9  11
HETATM   11  C4  UNL     1     -45.876  72.075 -14.847  1.00  0.00     0.697 A 
HETATM   12  N2  UNL     1     -46.277  71.703 -16.078  1.00  0.00    -0.128 N 
HETATM   13  N3  UNL     1     -45.283  71.854 -16.942  1.00  0.00    -0.237 N 
ATOM     14  H2  UNL     1     -47.207  71.356 -16.310  1.00  0.00     0.205 HD
HETATM   15  C5  UNL     1     -44.206  72.332 -16.284  1.00  0.00     0.353 A 
ATOM     16  H3  UNL     1     -45.325  71.644 -17.939  1.00  0.00     0.192 HD
HETATM   17  O4  UNL     1     -43.084  72.596 -16.789  1.00  0.00    -0.245 OA
HETATM   18  N4  UNL     1     -44.596  72.462 -14.989  1.00  0.00    -0.139 N 
ATOM     19  H4  UNL     1     -44.003  72.803 -14.233  1.00  0.00     0.189 HD
ENDBRANCH   9  11
ENDBRANCH   1   9
BRANCH   1  20
HETATM   20  C6  UNL     1     -48.834  72.728 -13.436  1.00  0.00     0.150 A 
HETATM   21  N5  UNL     1     -49.099  73.034 -12.153  1.00  0.00    -0.294 N 
HETATM   22  C7  UNL     1     -49.884  74.100 -11.886  1.00  0.00     0.329 A 
ATOM     23  H5  UNL     1     -48.714  72.471 -11.395  1.00  0.00     0.172 HD
HETATM   24  O5  UNL     1     -50.137  74.391 -10.677  1.00  0.00    -0.246 OA
HETATM   25  N6  UNL     1     -50.416  74.875 -12.858  1.00  0.00    -0.258 N 
HETATM   26  C8  UNL     1     -50.127  74.538 -14.128  1.00  0.00     0.356 A 
ATOM     27  H6  UNL     1     -51.006  75.678 -12.639  1.00  0.00     0.175 HD
HETATM   28  O6  UNL     1     -50.593  75.223 -15.081  1.00  0.00    -0.244 OA
HETATM   29  N7  UNL     1     -49.341  73.472 -14.433  1.00  0.00    -0.157 N 
BRANCH  29  30
HETATM   30  O7  UNL     1     -49.051  73.132 -15.733  1.00  0.00    -0.277 OA
ATOM     31  H7  UNL     1     -48.327  73.563 -16.172  1.00  0.00     0.245 HD
ENDBRANCH  29  30
ENDBRANCH   1  20
TORSDOF 8
ENDMDL
MODEL 3
REMARK VINA RESULT: -7.370047460      1.851      2.544
REMARK  8 active torsions:
REMARK  status: ('A' for Active; 'I' for Inactive)
REMARK    1  A    between atoms: C1_2  and  C2_3 
REMARK    2  A    between atoms: C1_2  and  C3_8 
REMARK    3  A    between atoms: C2_3  and  O2_4 
REMARK    4  A    between atoms: C2_3  and  O3_6 
REMARK    5  A    between atoms: C3_8  and  N1_9 
REMARK    6  A    between atoms: C3_8  and  C6_20 
REMARK    7  A    between atoms: N1_9  and  C4_11 
REMARK    8  A    between atoms: N7_29  and  O7_30 
ROOT
HETATM    1  C3  UNL     1     -48.151  71.831 -13.191  1.00  0.00     0.244 C 
ENDROOT
BRANCH   1   2
HETATM    2  C1  UNL     1     -48.020  70.422 -12.783  1.00  0.00     0.211 C 
HETATM    3  O1  UNL     1     -47.387  70.160 -11.777  1.00  0.00    -0.290 OA
BRANCH   2   4
HETATM    4  C2  UNL     1     -48.615  69.304 -13.530  1.00  0.00     0.328 C 
BRANCH   4   5
HETATM    5  O2  UNL     1     -49.104  68.270 -12.760  1.00  0.00    -0.365 OA
ATOM      6  H2  UNL     1     -49.615  67.620 -13.227  1.00  0.00     0.213 HD
ENDBRANCH   4   5
BRANCH   4   7
HETATM    7  O3  UNL     1     -47.680  68.750 -14.420  1.00  0.00    -0.365 OA
ATOM      8  H3  UNL     1     -48.102  68.134 -15.007  1.00  0.00     0.213 HD
ENDBRANCH   4   7
ENDBRANCH   2   4
ENDBRANCH   1   2
BRANCH   1   9
HETATM    9  N1  UNL     1     -49.402  72.437 -12.867  1.00  0.00    -0.206 N 
ATOM     10  H1  UNL     1     -50.248  71.889 -13.019  1.00  0.00     0.179 HD
BRANCH   9  11
HETATM   11  C4  UNL     1     -49.534  73.628 -12.394  1.00  0.00     0.697 A 
HETATM   12  N2  UNL     1     -49.362  74.750 -13.118  1.00  0.00    -0.128 N 
HETATM   13  N3  UNL     1     -49.566  75.816 -12.357  1.00  0.00    -0.237 N 
ATOM     14  H2  UNL     1     -49.111  74.776 -14.106  1.00  0.00     0.205 HD
HETATM   15  C5  UNL     1     -49.878  75.404 -11.110  1.00  0.00     0.353 A 
ATOM     16  H3  UNL     1     -49.499  76.787 -12.663  1.00  0.00     0.192 HD
HETATM   17  O4  UNL     1     -50.136  76.145 -10.126  1.00  0.00    -0.245 OA
HETATM   18  N4  UNL     1     -49.853  74.046 -11.157  1.00  0.00    -0.139 N 
ATOM     19  H4  UNL     1     -50.047  73.432 -10.365  1.00  0.00     0.189 HD
ENDBRANCH   9  11
ENDBRANCH   1   9
BRANCH   1  20
HETATM   20  C6  UNL     1     -47.991  71.966 -14.674  1.00  0.00     0.150 A 
HETATM   21  N5  UNL     1     -48.913  71.473 -15.519  1.00  0.00    -0.294 N 
HETATM   22  C7  UNL     1     -48.723  71.619 -16.848  1.00  0.00     0.329 A 
ATOM     23  H5  UNL     1     -49.742  70.997 -15.163  1.00  0.00     0.172 HD
HETATM   24  O5  UNL     1     -49.590  71.155 -17.650  1.00  0.00    -0.246 OA
HETATM   25  N6  UNL     1     -47.641  72.243 -17.366  1.00  0.00    -0.258 N 
HETATM   26  C8  UNL     1     -46.741  72.724 -16.488  1.00  0.00     0.356 A 
ATOM     27  H6  UNL     1     -47.513  72.346 -18.372  1.00  0.00     0.175 HD
HETATM   28  O6  UNL     1     -45.709  73.318 -16.908  1.00  0.00    -0.244 OA
HETATM   29  N7  UNL     1     -46.900  72.594 -15.144  1.00  0.00    -0.157 N 
BRANCH  29  30
HETATM   30  O7  UNL     1     -45.977  73.087 -14.252  1.00  0.00    -0.277 OA
ATOM     31  H7  UNL     1     -45.381  73.770 -14.536  1.00  0.00     0.245 HD
ENDBRANCH  29  30
ENDBRANCH   1  20
TORSDOF 8
ENDMDL
MODEL 4
REMARK VINA RESULT: -7.309221728      0.819      1.072
REMARK  8 active torsions:
REMARK  status: ('A' for Active; 'I' for Inactive)
REMARK    1  A    between atoms: C1_2  and  C2_3 
REMARK    2  A    between atoms: C1_2  and  C3_8 
REMARK    3  A    between atoms: C2_3  and  O2_4 
REMARK    4  A    between atoms: C2_3  and  O3_6 
REMARK    5  A    between atoms: C3_8  and  N1_9 
REMARK    6  A    between atoms: C3_8  and  C6_20 
REMARK    7  A    between atoms: N1_9  and  C4_11 
REMARK    8  A    between atoms: N7_29  and  O7_30 
ROOT
HETATM    1  C3  UNL     1     -47.215  71.997 -14.509  1.00  0.00     0.244 C 
ENDROOT
BRANCH   1   2
HETATM    2  C1  UNL     1     -47.598  70.622 -14.150  1.00  0.00     0.211 C 
HETATM    3  O1  UNL     1     -48.038  69.891 -15.018  1.00  0.00    -0.290 OA
BRANCH   2   4
HETATM    4  C2  UNL     1     -47.479  70.078 -12.789  1.00  0.00     0.328 C 
BRANCH   4   5
HETATM    5  O2  UNL     1     -48.523  69.277 -12.377  1.00  0.00    -0.365 OA
ATOM      6  H2  UNL     1     -48.275  68.505 -11.882  1.00  0.00     0.213 HD
ENDBRANCH   4   5
BRANCH   4   7
HETATM    7  O3  UNL     1     -47.357  71.115 -11.850  1.00  0.00    -0.365 OA
ATOM      8  H3  UNL     1     -46.550  71.026 -11.357  1.00  0.00     0.213 HD
ENDBRANCH   4   7
ENDBRANCH   2   4
ENDBRANCH   1   2
BRANCH   1   9
HETATM    9  N1  UNL     1     -48.222  72.742 -15.195  1.00  0.00    -0.206 N 
ATOM     10  H1  UNL     1     -48.295  72.624 -16.205  1.00  0.00     0.179 HD
BRANCH   9  11
HETATM   11  C4  UNL     1     -49.045  73.553 -14.624  1.00  0.00     0.697 A 
HETATM   12  N2  UNL     1     -50.277  73.830 -15.090  1.00  0.00    -0.128 N 
HETATM   13  N3  UNL     1     -50.880  74.697 -14.289  1.00  0.00    -0.237 N 
ATOM     14  H2  UNL     1     -50.686  73.431 -15.935  1.00  0.00     0.205 HD
HETATM   15  C5  UNL     1     -50.043  75.005 -13.276  1.00  0.00     0.353 A 
ATOM     16  H3  UNL     1     -51.821  75.070 -14.417  1.00  0.00     0.192 HD
HETATM   17  O4  UNL     1     -50.284  75.798 -12.329  1.00  0.00    -0.245 OA
HETATM   18  N4  UNL     1     -48.913  74.285 -13.504  1.00  0.00    -0.139 N 
ATOM     19  H4  UNL     1     -48.084  74.299 -12.909  1.00  0.00     0.189 HD
ENDBRANCH   9  11
ENDBRANCH   1   9
BRANCH   1  20
HETATM   20  C6  UNL     1     -46.015  71.992 -15.405  1.00  0.00     0.150 A 
HETATM   21  N5  UNL     1     -45.995  71.265 -16.536  1.00  0.00    -0.294 N 
HETATM   22  C7  UNL     1     -44.889  71.292 -17.309  1.00  0.00     0.329 A 
ATOM     23  H5  UNL     1     -46.803  70.702 -16.805  1.00  0.00     0.172 HD
HETATM   24  O5  UNL     1     -44.866  70.606 -18.377  1.00  0.00    -0.246 OA
HETATM   25  N6  UNL     1     -43.796  72.023 -16.993  1.00  0.00    -0.258 N 
HETATM   26  C8  UNL     1     -43.854  72.738 -15.855  1.00  0.00     0.356 A 
ATOM     27  H6  UNL     1     -42.969  72.033 -17.589  1.00  0.00     0.175 HD
HETATM   28  O6  UNL     1     -42.866  73.442 -15.504  1.00  0.00    -0.244 OA
HETATM   29  N7  UNL     1     -44.951  72.734 -15.052  1.00  0.00    -0.157 N 
BRANCH  29  30
HETATM   30  O7  UNL     1     -45.004  73.466 -13.890  1.00  0.00    -0.277 OA
ATOM     31  H7  UNL     1     -44.590  73.120 -13.107  1.00  0.00     0.245 HD
ENDBRANCH  29  30
ENDBRANCH   1  20
TORSDOF 8
ENDMDL
MODEL 5
REMARK VINA RESULT: -7.260812215      1.137      1.137
REMARK  8 active torsions:
REMARK  status: ('A' for Active; 'I' for Inactive)
REMARK    1  A    between atoms: C1_2  and  C2_3 
REMARK    2  A    between atoms: C1_2  and  C3_8 
REMARK    3  A    between atoms: C2_3  and  O2_4 
REMARK    4  A    between atoms: C2_3  and  O3_6 
REMARK    5  A    between atoms: C3_8  and  N1_9 
REMARK    6  A    between atoms: C3_8  and  C6_20 
REMARK    7  A    between atoms: N1_9  and  C4_11 
REMARK    8  A    between atoms: N7_29  and  O7_30 
ROOT
HETATM    1  C3  UNL     1     -47.362  72.030 -14.228  1.00  0.00     0.244 C 
ENDROOT
BRANCH   1   2
HETATM    2  C1  UNL     1     -47.337  70.579 -13.985  1.00  0.00     0.211 C 
HETATM    3  O1  UNL     1     -47.200  69.829 -14.933  1.00  0.00    -0.290 OA
BRANCH   2   4
HETATM    4  C2  UNL     1     -47.470  69.978 -12.649  1.00  0.00     0.328 C 
BRANCH   4   5
HETATM    5  O2  UNL     1     -48.654  69.313 -12.413  1.00  0.00    -0.365 OA
ATOM      6  H2  UNL     1     -49.075  69.509 -11.584  1.00  0.00     0.213 HD
ENDBRANCH   4   5
BRANCH   4   7
HETATM    7  O3  UNL     1     -47.340  70.957 -11.651  1.00  0.00    -0.365 OA
ATOM      8  H3  UNL     1     -48.056  70.900 -11.030  1.00  0.00     0.213 HD
ENDBRANCH   4   7
ENDBRANCH   2   4
ENDBRANCH   1   2
BRANCH   1   9
HETATM    9  N1  UNL     1     -48.665  72.612 -14.261  1.00  0.00    -0.206 N 
ATOM     10  H1  UNL     1     -49.260  72.397 -15.061  1.00  0.00     0.179 HD
BRANCH   9  11
HETATM   11  C4  UNL     1     -49.141  73.388 -13.350  1.00  0.00     0.697 A 
HETATM   12  N2  UNL     1     -49.422  72.994 -12.093  1.00  0.00    -0.128 N 
HETATM   13  N3  UNL     1     -49.897  74.015 -11.394  1.00  0.00    -0.237 N 
ATOM     14  H2  UNL     1     -49.288  72.049 -11.733  1.00  0.00     0.205 HD
HETATM   15  C5  UNL     1     -49.936  75.104 -12.190  1.00  0.00     0.353 A 
ATOM     16  H3  UNL     1     -50.185  73.983 -10.416  1.00  0.00     0.192 HD
HETATM   17  O4  UNL     1     -50.331  76.252 -11.859  1.00  0.00    -0.245 OA
HETATM   18  N4  UNL     1     -49.463  74.693 -13.396  1.00  0.00    -0.139 N 
ATOM     19  H4  UNL     1     -49.367  75.289 -14.218  1.00  0.00     0.189 HD
ENDBRANCH   9  11
ENDBRANCH   1   9
BRANCH   1  20
HETATM   20  C6  UNL     1     -46.724  72.355 -15.543  1.00  0.00     0.150 A 
HETATM   21  N5  UNL     1     -47.301  71.993 -16.702  1.00  0.00    -0.294 N 
HETATM   22  C7  UNL     1     -46.685  72.307 -17.862  1.00  0.00     0.329 A 
ATOM     23  H5  UNL     1     -48.188  71.489 -16.706  1.00  0.00     0.172 HD
HETATM   24  O5  UNL     1     -47.226  71.967 -18.959  1.00  0.00    -0.246 OA
HETATM   25  N6  UNL     1     -45.510  72.974 -17.907  1.00  0.00    -0.258 N 
HETATM   26  C8  UNL     1     -44.964  73.320 -16.726  1.00  0.00     0.356 A 
ATOM     27  H6  UNL     1     -45.059  73.204 -18.792  1.00  0.00     0.175 HD
HETATM   28  O6  UNL     1     -43.867  73.945 -16.700  1.00  0.00    -0.244 OA
HETATM   29  N7  UNL     1     -45.556  73.019 -15.540  1.00  0.00    -0.157 N 
BRANCH  29  30
HETATM   30  O7  UNL     1     -44.993  73.375 -14.337  1.00  0.00    -0.277 OA
ATOM     31  H7  UNL     1     -44.054  73.511 -14.289  1.00  0.00     0.245 HD
ENDBRANCH  29  30
ENDBRANCH   1  20
TORSDOF 8
ENDMDL
