MODEL 1
REMARK VINA RESULT: -6.282099251      0.000      0.000
REMARK  10 active torsions:
REMARK  status: ('A' for Active; 'I' for Inactive)
REMARK    1  A    between atoms: C3_5  and  C4_6 
REMARK    2  A    between atoms: C4_6  and  N2_7 
REMARK    3  A    between atoms: C6_14  and  N5_15 
REMARK    4  A    between atoms: C7_18  and  N6_19 
REMARK    5  A    between atoms: N6_19  and  C8_21 
REMARK    6  A    between atoms: C8_21  and  C9_22 
REMARK    7  A    between atoms: C8_21  and  C10_27 
REMARK    8  A    between atoms: C9_22  and  N7_23 
REMARK    9  A    between atoms: C10_27  and  O2_28 
REMARK   10  A    between atoms: N8_30  and  N9_31 
ROOT
HETATM    1  C1  UNL     1     -49.276  71.248 -19.202  1.00  0.00     0.049 C 
HETATM    2  C2  UNL     1     -48.278  71.604 -18.417  1.00  0.00     0.094 A 
HETATM    3  N1  UNL     1     -47.836  70.804 -17.446  1.00  0.00    -0.348 N 
ATOM      4  H1  UNL     1     -48.296  69.902 -17.326  1.00  0.00     0.166 HD
HETATM    5  C3  UNL     1     -46.809  71.113 -16.602  1.00  0.00     0.097 A 
HETATM    6  C7  UNL     1     -46.207  72.370 -16.809  1.00  0.00     0.155 A 
HETATM    7  N8  UNL     1     -46.633  73.196 -17.777  1.00  0.00    -0.206 N 
HETATM    8  C11 UNL     1     -47.660  72.807 -18.570  1.00  0.00     0.293 A 
HETATM    9  O3  UNL     1     -48.038  73.611 -19.477  1.00  0.00    -0.264 OA
ENDROOT
BRANCH   5  10
HETATM   10  C4  UNL     1     -46.478  70.251 -15.689  1.00  0.00     0.168 C 
BRANCH  10  11
HETATM   11  N2  UNL     1     -47.118  69.786 -14.538  1.00  0.00    -0.092 N 
HETATM   12  N3  UNL     1     -47.922  68.742 -14.441  1.00  0.00    -0.230 N 
HETATM   13  C5  UNL     1     -48.278  68.582 -13.132  1.00  0.00     0.354 A 
ATOM     14  H3  UNL     1     -48.227  68.152 -15.216  1.00  0.00     0.193 HD
HETATM   15  O1  UNL     1     -49.034  67.690 -12.666  1.00  0.00    -0.245 OA
HETATM   16  N4  UNL     1     -47.676  69.557 -12.415  1.00  0.00    -0.139 N 
HETATM   17  C6  UNL     1     -46.961  70.291 -13.308  1.00  0.00     0.701 A 
ATOM     18  H4  UNL     1     -47.744  69.710 -11.409  1.00  0.00     0.189 HD
BRANCH  17  19
HETATM   19  N5  UNL     1     -46.256  71.301 -12.963  1.00  0.00    -0.233 N 
ATOM     20  H52 UNL     1     -45.399  71.565 -13.450  1.00  0.00     0.174 HD
ATOM     21  H51 UNL     1     -46.436  71.955 -12.202  1.00  0.00     0.174 HD
ENDBRANCH  17  19
ENDBRANCH  10  11
ENDBRANCH   5  10
BRANCH   6  22
HETATM   22  N6  UNL     1     -45.250  72.640 -16.030  1.00  0.00    -0.365 N 
ATOM     23  H6  UNL     1     -45.542  72.772 -15.063  1.00  0.00     0.161 HD
BRANCH  22  24
HETATM   24  C8  UNL     1     -43.866  72.794 -16.220  1.00  0.00     0.132 C 
BRANCH  24  25
HETATM   25  C9  UNL     1     -43.162  71.593 -16.841  1.00  0.00     0.256 C 
BRANCH  25  26
HETATM   26  N7  UNL     1     -42.954  71.689 -18.245  1.00  0.00    -0.077 N 
ATOM     27  H73 UNL     1     -43.019  70.768 -18.676  1.00  0.00     0.274 HD
ATOM     28  H72 UNL     1     -43.749  72.148 -18.690  1.00  0.00     0.274 HD
ATOM     29  H71 UNL     1     -42.083  72.146 -18.515  1.00  0.00     0.274 HD
ENDBRANCH  25  26
ENDBRANCH  24  25
BRANCH  24  30
HETATM   30  C10 UNL     1     -43.205  73.051 -14.833  1.00  0.00     0.190 C 
BRANCH  30  31
HETATM   31  O2  UNL     1     -44.240  73.331 -13.909  1.00  0.00    -0.399 OA
ATOM     32  H2  UNL     1     -43.833  73.567 -13.083  1.00  0.00     0.209 HD
ENDBRANCH  30  31
ENDBRANCH  24  30
ENDBRANCH  22  24
ENDBRANCH   6  22
BRANCH   7  33
HETATM   33  N9  UNL     1     -46.081  74.475 -18.030  1.00  0.00    -0.334 N 
ATOM     34  H92 UNL     1     -45.409  74.543 -18.794  1.00  0.00     0.177 HD
ATOM     35  H91 UNL     1     -46.321  75.316 -17.504  1.00  0.00     0.177 HD
ENDBRANCH   7  33
TORSDOF 10
ENDMDL
MODEL 2
REMARK VINA RESULT: -6.208437701      4.379      6.118
REMARK  10 active torsions:
REMARK  status: ('A' for Active; 'I' for Inactive)
REMARK    1  A    between atoms: C3_5  and  C4_6 
REMARK    2  A    between atoms: C4_6  and  N2_7 
REMARK    3  A    between atoms: C6_14  and  N5_15 
REMARK    4  A    between atoms: C7_18  and  N6_19 
REMARK    5  A    between atoms: N6_19  and  C8_21 
REMARK    6  A    between atoms: C8_21  and  C9_22 
REMARK    7  A    between atoms: C8_21  and  C10_27 
REMARK    8  A    between atoms: C9_22  and  N7_23 
REMARK    9  A    between atoms: C10_27  and  O2_28 
REMARK   10  A    between atoms: N8_30  and  N9_31 
ROOT
HETATM    1  C1  UNL     1     -49.823  74.143  -9.297  1.00  0.00     0.049 C 
HETATM    2  C2  UNL     1     -49.674  74.313 -10.596  1.00  0.00     0.094 A 
HETATM    3  N1  UNL     1     -49.420  73.286 -11.408  1.00  0.00    -0.348 N 
ATOM      4  H1  UNL     1     -49.343  72.358 -10.992  1.00  0.00     0.166 HD
HETATM    5  C3  UNL     1     -49.255  73.395 -12.759  1.00  0.00     0.097 A 
HETATM    6  C7  UNL     1     -49.370  74.698 -13.284  1.00  0.00     0.155 A 
HETATM    7  N8  UNL     1     -49.624  75.750 -12.489  1.00  0.00    -0.206 N 
HETATM    8  C11 UNL     1     -49.773  75.549 -11.158  1.00  0.00     0.293 A 
HETATM    9  O3  UNL     1     -50.013  76.564 -10.434  1.00  0.00    -0.264 OA
ENDROOT
BRANCH   5  10
HETATM   10  C4  UNL     1     -49.002  72.319 -13.440  1.00  0.00     0.168 C 
BRANCH  10  11
HETATM   11  N2  UNL     1     -48.627  71.024 -13.075  1.00  0.00    -0.092 N 
HETATM   12  N3  UNL     1     -49.392  69.946 -13.065  1.00  0.00    -0.230 N 
HETATM   13  C5  UNL     1     -48.627  68.869 -12.718  1.00  0.00     0.354 A 
ATOM     14  H3  UNL     1     -50.389  69.923 -13.282  1.00  0.00     0.193 HD
HETATM   15  O1  UNL     1     -49.020  67.678 -12.608  1.00  0.00    -0.245 OA
HETATM   16  N4  UNL     1     -47.365  69.305 -12.509  1.00  0.00    -0.139 N 
HETATM   17  C6  UNL     1     -47.388  70.644 -12.736  1.00  0.00     0.701 A 
ATOM     18  H4  UNL     1     -46.559  68.742 -12.235  1.00  0.00     0.189 HD
BRANCH  17  19
HETATM   19  N5  UNL     1     -46.348  71.379 -12.633  1.00  0.00    -0.233 N 
ATOM     20  H52 UNL     1     -46.390  72.356 -12.342  1.00  0.00     0.174 HD
ATOM     21  H51 UNL     1     -45.378  71.116 -12.810  1.00  0.00     0.174 HD
ENDBRANCH  17  19
ENDBRANCH  10  11
ENDBRANCH   5  10
BRANCH   6  22
HETATM   22  N6  UNL     1     -49.229  74.784 -14.535  1.00  0.00    -0.365 N 
ATOM     23  H6  UNL     1     -48.293  74.535 -14.854  1.00  0.00     0.161 HD
BRANCH  22  24
HETATM   24  C8  UNL     1     -50.093  75.153 -15.581  1.00  0.00     0.132 C 
BRANCH  24  25
HETATM   25  C9  UNL     1     -50.697  73.989 -16.359  1.00  0.00     0.256 C 
BRANCH  25  26
HETATM   26  N7  UNL     1     -52.008  73.620 -15.948  1.00  0.00    -0.077 N 
ATOM     27  H73 UNL     1     -51.969  72.826 -15.310  1.00  0.00     0.274 HD
ATOM     28  H72 UNL     1     -52.397  74.328 -15.325  1.00  0.00     0.274 HD
ATOM     29  H71 UNL     1     -52.654  73.427 -16.714  1.00  0.00     0.274 HD
ENDBRANCH  25  26
ENDBRANCH  24  25
BRANCH  24  30
HETATM   30  C10 UNL     1     -49.293  76.022 -16.597  1.00  0.00     0.190 C 
BRANCH  30  31
HETATM   31  O2  UNL     1     -48.524  76.951 -15.856  1.00  0.00    -0.399 OA
ATOM     32  H2  UNL     1     -48.609  77.798 -16.279  1.00  0.00     0.209 HD
ENDBRANCH  30  31
ENDBRANCH  24  30
ENDBRANCH  22  24
ENDBRANCH   6  22
BRANCH   7  33
HETATM   33  N9  UNL     1     -49.739  77.083 -12.950  1.00  0.00    -0.334 N 
ATOM     34  H92 UNL     1     -50.424  77.675 -12.477  1.00  0.00     0.177 HD
ATOM     35  H91 UNL     1     -49.181  77.477 -13.707  1.00  0.00     0.177 HD
ENDBRANCH   7  33
TORSDOF 10
ENDMDL
MODEL 3
REMARK VINA RESULT: -6.153258307      3.193      4.356
REMARK  10 active torsions:
REMARK  status: ('A' for Active; 'I' for Inactive)
REMARK    1  A    between atoms: C3_5  and  C4_6 
REMARK    2  A    between atoms: C4_6  and  N2_7 
REMARK    3  A    between atoms: C6_14  and  N5_15 
REMARK    4  A    between atoms: C7_18  and  N6_19 
REMARK    5  A    between atoms: N6_19  and  C8_21 
REMARK    6  A    between atoms: C8_21  and  C9_22 
REMARK    7  A    between atoms: C8_21  and  C10_27 
REMARK    8  A    between atoms: C9_22  and  N7_23 
REMARK    9  A    between atoms: C10_27  and  O2_28 
REMARK   10  A    between atoms: N8_30  and  N9_31 
ROOT
HETATM    1  C1  UNL     1     -49.108  71.104 -19.715  1.00  0.00     0.049 C 
HETATM    2  C2  UNL     1     -49.367  71.593 -18.519  1.00  0.00     0.094 A 
HETATM    3  N1  UNL     1     -48.598  71.307 -17.467  1.00  0.00    -0.348 N 
ATOM      4  H1  UNL     1     -47.798  70.693 -17.616  1.00  0.00     0.166 HD
HETATM    5  C3  UNL     1     -48.812  71.781 -16.205  1.00  0.00     0.097 A 
HETATM    6  C7  UNL     1     -49.930  72.625 -16.052  1.00  0.00     0.155 A 
HETATM    7  N8  UNL     1     -50.722  72.928 -17.092  1.00  0.00    -0.206 N 
HETATM    8  C11 UNL     1     -50.435  72.413 -18.312  1.00  0.00     0.293 A 
HETATM    9  O3  UNL     1     -51.203  72.720 -19.275  1.00  0.00    -0.264 OA
ENDROOT
BRANCH   5  10
HETATM   10  C4  UNL     1     -47.995  71.420 -15.262  1.00  0.00     0.168 C 
BRANCH  10  11
HETATM   11  N2  UNL     1     -48.081  70.482 -14.232  1.00  0.00    -0.092 N 
HETATM   12  N3  UNL     1     -48.829  69.392 -14.207  1.00  0.00    -0.230 N 
HETATM   13  C5  UNL     1     -48.567  68.708 -13.054  1.00  0.00     0.354 A 
ATOM     14  H3  UNL     1     -49.492  69.109 -14.929  1.00  0.00     0.193 HD
HETATM   15  O1  UNL     1     -49.095  67.623 -12.692  1.00  0.00    -0.245 OA
HETATM   16  N4  UNL     1     -47.638  69.401 -12.359  1.00  0.00    -0.139 N 
HETATM   17  C6  UNL     1     -47.350  70.497 -13.109  1.00  0.00     0.701 A 
ATOM     18  H4  UNL     1     -47.234  69.152 -11.457  1.00  0.00     0.189 HD
BRANCH  17  19
HETATM   19  N5  UNL     1     -46.495  71.375 -12.747  1.00  0.00    -0.233 N 
ATOM     20  H52 UNL     1     -46.599  71.927 -11.895  1.00  0.00     0.174 HD
ATOM     21  H51 UNL     1     -45.631  71.637 -13.223  1.00  0.00     0.174 HD
ENDBRANCH  17  19
ENDBRANCH  10  11
ENDBRANCH   5  10
BRANCH   6  22
HETATM   22  N6  UNL     1     -50.110  73.067 -14.883  1.00  0.00    -0.365 N 
ATOM     23  H6  UNL     1     -50.731  72.485 -14.322  1.00  0.00     0.161 HD
BRANCH  22  24
HETATM   24  C8  UNL     1     -49.633  74.196 -14.195  1.00  0.00     0.132 C 
BRANCH  24  25
HETATM   25  C9  UNL     1     -49.326  73.968 -12.719  1.00  0.00     0.256 C 
BRANCH  25  26
HETATM   26  N7  UNL     1     -50.007  72.864 -12.136  1.00  0.00    -0.077 N 
ATOM     27  H73 UNL     1     -49.884  72.866 -11.123  1.00  0.00     0.274 HD
ATOM     28  H72 UNL     1     -51.016  73.000 -12.191  1.00  0.00     0.274 HD
ATOM     29  H71 UNL     1     -49.750  71.955 -12.521  1.00  0.00     0.274 HD
ENDBRANCH  25  26
ENDBRANCH  24  25
BRANCH  24  30
HETATM   30  C10 UNL     1     -50.713  75.315 -14.275  1.00  0.00     0.190 C 
BRANCH  30  31
HETATM   31  O2  UNL     1     -51.956  74.739 -13.916  1.00  0.00    -0.399 OA
ATOM     32  H2  UNL     1     -51.943  74.587 -12.979  1.00  0.00     0.209 HD
ENDBRANCH  30  31
ENDBRANCH  24  30
ENDBRANCH  22  24
ENDBRANCH   6  22
BRANCH   7  33
HETATM   33  N9  UNL     1     -51.866  73.758 -17.005  1.00  0.00    -0.334 N 
ATOM     34  H92 UNL     1     -52.402  73.711 -16.138  1.00  0.00     0.177 HD
ATOM     35  H91 UNL     1     -52.171  74.392 -17.743  1.00  0.00     0.177 HD
ENDBRANCH   7  33
TORSDOF 10
ENDMDL
MODEL 4
REMARK VINA RESULT: -6.092830938      3.442      5.495
REMARK  10 active torsions:
REMARK  status: ('A' for Active; 'I' for Inactive)
REMARK    1  A    between atoms: C3_5  and  C4_6 
REMARK    2  A    between atoms: C4_6  and  N2_7 
REMARK    3  A    between atoms: C6_14  and  N5_15 
REMARK    4  A    between atoms: C7_18  and  N6_19 
REMARK    5  A    between atoms: N6_19  and  C8_21 
REMARK    6  A    between atoms: C8_21  and  C9_22 
REMARK    7  A    between atoms: C8_21  and  C10_27 
REMARK    8  A    between atoms: C9_22  and  N7_23 
REMARK    9  A    between atoms: C10_27  and  O2_28 
REMARK   10  A    between atoms: N8_30  and  N9_31 
ROOT
HETATM    1  C1  UNL     1     -46.209  73.784 -17.863  1.00  0.00     0.049 C 
HETATM    2  C2  UNL     1     -46.875  73.068 -16.979  1.00  0.00     0.094 A 
HETATM    3  N1  UNL     1     -47.809  73.616 -16.200  1.00  0.00    -0.348 N 
ATOM      4  H1  UNL     1     -47.993  74.613 -16.308  1.00  0.00     0.166 HD
HETATM    5  C3  UNL     1     -48.533  72.930 -15.268  1.00  0.00     0.097 A 
HETATM    6  C7  UNL     1     -48.240  71.557 -15.157  1.00  0.00     0.155 A 
HETATM    7  N8  UNL     1     -47.304  70.979 -15.928  1.00  0.00    -0.206 N 
HETATM    8  C11 UNL     1     -46.633  71.737 -16.829  1.00  0.00     0.293 A 
HETATM    9  O3  UNL     1     -45.756  71.160 -17.542  1.00  0.00    -0.264 OA
ENDROOT
BRANCH   5  10
HETATM   10  C4  UNL     1     -49.408  73.582 -14.563  1.00  0.00     0.168 C 
BRANCH  10  11
HETATM   11  N2  UNL     1     -49.300  74.493 -13.510  1.00  0.00    -0.092 N 
HETATM   12  N3  UNL     1     -48.903  75.751 -13.583  1.00  0.00    -0.230 N 
HETATM   13  C5  UNL     1     -49.011  76.317 -12.344  1.00  0.00     0.354 A 
ATOM     14  H3  UNL     1     -48.572  76.222 -14.425  1.00  0.00     0.193 HD
HETATM   15  O1  UNL     1     -48.721  77.503 -12.037  1.00  0.00    -0.245 OA
HETATM   16  N4  UNL     1     -49.483  75.377 -11.496  1.00  0.00    -0.139 N 
HETATM   17  C6  UNL     1     -49.655  74.253 -12.241  1.00  0.00     0.701 A 
ATOM     18  H4  UNL     1     -49.671  75.488 -10.500  1.00  0.00     0.189 HD
BRANCH  17  19
HETATM   19  N5  UNL     1     -50.101  73.161 -11.749  1.00  0.00    -0.233 N 
ATOM     20  H52 UNL     1     -50.931  72.692 -12.112  1.00  0.00     0.174 HD
ATOM     21  H51 UNL     1     -49.716  72.625 -10.971  1.00  0.00     0.174 HD
ENDBRANCH  17  19
ENDBRANCH  10  11
ENDBRANCH   5  10
BRANCH   6  22
HETATM   22  N6  UNL     1     -48.925  70.931 -14.301  1.00  0.00    -0.365 N 
ATOM     23  H6  UNL     1     -49.824  70.610 -14.660  1.00  0.00     0.161 HD
BRANCH  22  24
HETATM   24  C8  UNL     1     -48.707  70.585 -12.957  1.00  0.00     0.132 C 
BRANCH  24  25
HETATM   25  C9  UNL     1     -47.280  70.792 -12.461  1.00  0.00     0.256 C 
BRANCH  25  26
HETATM   26  N7  UNL     1     -46.594  69.596 -12.114  1.00  0.00    -0.077 N 
ATOM     27  H73 UNL     1     -45.589  69.763 -12.071  1.00  0.00     0.274 HD
ATOM     28  H72 UNL     1     -46.774  69.354 -11.139  1.00  0.00     0.274 HD
ATOM     29  H71 UNL     1     -46.795  68.800 -12.720  1.00  0.00     0.274 HD
ENDBRANCH  25  26
ENDBRANCH  24  25
BRANCH  24  30
HETATM   30  C10 UNL     1     -49.044  69.075 -12.776  1.00  0.00     0.190 C 
BRANCH  30  31
HETATM   31  O2  UNL     1     -48.617  68.396 -13.943  1.00  0.00    -0.399 OA
ATOM     32  H2  UNL     1     -48.384  67.510 -13.692  1.00  0.00     0.209 HD
ENDBRANCH  30  31
ENDBRANCH  24  30
ENDBRANCH  22  24
ENDBRANCH   6  22
BRANCH   7  33
HETATM   33  N9  UNL     1     -46.954  69.610 -15.859  1.00  0.00    -0.334 N 
ATOM     34  H92 UNL     1     -46.801  69.220 -14.928  1.00  0.00     0.177 HD
ATOM     35  H91 UNL     1     -46.855  69.003 -16.673  1.00  0.00     0.177 HD
ENDBRANCH   7  33
TORSDOF 10
ENDMDL
MODEL 5
REMARK VINA RESULT: -6.090320875      2.951      5.678
REMARK  10 active torsions:
REMARK  status: ('A' for Active; 'I' for Inactive)
REMARK    1  A    between atoms: C3_5  and  C4_6 
REMARK    2  A    between atoms: C4_6  and  N2_7 
REMARK    3  A    between atoms: C6_14  and  N5_15 
REMARK    4  A    between atoms: C7_18  and  N6_19 
REMARK    5  A    between atoms: N6_19  and  C8_21 
REMARK    6  A    between atoms: C8_21  and  C9_22 
REMARK    7  A    between atoms: C8_21  and  C10_27 
REMARK    8  A    between atoms: C9_22  and  N7_23 
REMARK    9  A    between atoms: C10_27  and  O2_28 
REMARK   10  A    between atoms: N8_30  and  N9_31 
ROOT
HETATM    1  C1  UNL     1     -49.545  75.890 -15.337  1.00  0.00     0.049 C 
HETATM    2  C2  UNL     1     -49.155  74.718 -14.878  1.00  0.00     0.094 A 
HETATM    3  N1  UNL     1     -48.247  73.984 -15.522  1.00  0.00    -0.348 N 
ATOM      4  H1  UNL     1     -47.860  74.358 -16.388  1.00  0.00     0.166 HD
HETATM    5  C3  UNL     1     -47.802  72.764 -15.099  1.00  0.00     0.097 A 
HETATM    6  C7  UNL     1     -48.368  72.291 -13.899  1.00  0.00     0.155 A 
HETATM    7  N8  UNL     1     -49.285  73.008 -13.230  1.00  0.00    -0.206 N 
HETATM    8  C11 UNL     1     -49.669  74.210 -13.723  1.00  0.00     0.293 A 
HETATM    9  O3  UNL     1     -50.537  74.864 -13.067  1.00  0.00    -0.264 OA
ENDROOT
BRANCH   5  10
HETATM   10  C4  UNL     1     -46.920  72.143 -15.823  1.00  0.00     0.168 C 
BRANCH  10  11
HETATM   11  N2  UNL     1     -45.547  72.317 -16.013  1.00  0.00    -0.092 N 
HETATM   12  N3  UNL     1     -44.571  71.799 -15.289  1.00  0.00    -0.230 N 
HETATM   13  C5  UNL     1     -43.375  72.151 -15.849  1.00  0.00     0.354 A 
ATOM     14  H3  UNL     1     -44.690  71.231 -14.450  1.00  0.00     0.193 HD
HETATM   15  O1  UNL     1     -42.231  71.836 -15.429  1.00  0.00    -0.245 OA
HETATM   16  N4  UNL     1     -43.633  72.904 -16.941  1.00  0.00    -0.139 N 
HETATM   17  C6  UNL     1     -44.987  72.994 -17.024  1.00  0.00     0.701 A 
ATOM     18  H4  UNL     1     -42.951  73.321 -17.574  1.00  0.00     0.189 HD
BRANCH  17  19
HETATM   19  N5  UNL     1     -45.580  73.637 -17.956  1.00  0.00    -0.233 N 
ATOM     20  H52 UNL     1     -46.110  73.173 -18.693  1.00  0.00     0.174 HD
ATOM     21  H51 UNL     1     -45.615  74.648 -18.091  1.00  0.00     0.174 HD
ENDBRANCH  17  19
ENDBRANCH  10  11
ENDBRANCH   5  10
BRANCH   6  22
HETATM   22  N6  UNL     1     -47.939  71.169 -13.511  1.00  0.00    -0.365 N 
ATOM     23  H6  UNL     1     -47.233  71.237 -12.778  1.00  0.00     0.161 HD
BRANCH  22  24
HETATM   24  C8  UNL     1     -48.231  69.845 -13.880  1.00  0.00     0.132 C 
BRANCH  24  25
HETATM   25  C9  UNL     1     -49.146  69.094 -12.919  1.00  0.00     0.256 C 
BRANCH  25  26
HETATM   26  N7  UNL     1     -48.981  67.682 -12.925  1.00  0.00    -0.077 N 
ATOM     27  H73 UNL     1     -48.381  67.398 -13.699  1.00  0.00     0.274 HD
ATOM     28  H72 UNL     1     -48.402  67.390 -12.137  1.00  0.00     0.274 HD
ATOM     29  H71 UNL     1     -49.852  67.152 -12.940  1.00  0.00     0.274 HD
ENDBRANCH  25  26
ENDBRANCH  24  25
BRANCH  24  30
HETATM   30  C10 UNL     1     -46.894  69.049 -13.959  1.00  0.00     0.190 C 
BRANCH  30  31
HETATM   31  O2  UNL     1     -45.909  69.793 -13.264  1.00  0.00    -0.399 OA
ATOM     32  H2  UNL     1     -45.382  70.248 -13.911  1.00  0.00     0.209 HD
ENDBRANCH  30  31
ENDBRANCH  24  30
ENDBRANCH  22  24
ENDBRANCH   6  22
BRANCH   7  33
HETATM   33  N9  UNL     1     -49.900  72.586 -12.027  1.00  0.00    -0.334 N 
ATOM     34  H92 UNL     1     -49.285  72.420 -11.230  1.00  0.00     0.177 HD
ATOM     35  H91 UNL     1     -50.905  72.450 -11.916  1.00  0.00     0.177 HD
ENDBRANCH   7  33
TORSDOF 10
ENDMDL
