MODEL 1
REMARK VINA RESULT: -6.651934478      0.000      0.000
REMARK  8 active torsions:
REMARK  status: ('A' for Active; 'I' for Inactive)
REMARK    1  A    between atoms: N1_1  and  C1_5 
REMARK    2  A    between atoms: C1_5  and  C2_6 
REMARK    3  A    between atoms: C2_6  and  N2_7 
REMARK    4  A    between atoms: C6_21  and  N5_22 
REMARK       I    between atoms: N5_22  and  C7_24 
REMARK    5  A    between atoms: C7_24  and  C8_26 
REMARK    6  A    between atoms: C8_26  and  N6_27 
REMARK    7  A    between atoms: C8_26  and  C9_31 
REMARK       I    between atoms: C9_31  and  N7_33 
REMARK    8  A    between atoms: N7_33  and  N8_35 
ROOT
HETATM    1  C2  UNL     1     -47.732  70.159 -13.806  1.00  0.00     0.255 C 
HETATM    2  C3  UNL     1     -47.721  70.848 -12.508  1.00  0.00     0.266 C 
HETATM    3  O1  UNL     1     -46.905  70.417 -11.671  1.00  0.00    -0.270 OA
HETATM    4  N3  UNL     1     -48.511  71.933 -12.074  1.00  0.00    -0.277 N 
ATOM      5  H3  UNL     1     -48.459  72.168 -11.083  1.00  0.00     0.173 HD
HETATM    6  C4  UNL     1     -49.374  72.737 -12.876  1.00  0.00     0.329 C 
HETATM    7  O2  UNL     1     -50.105  73.585 -12.299  1.00  0.00    -0.247 OA
HETATM    8  N4  UNL     1     -49.507  72.688 -14.304  1.00  0.00    -0.277 N 
ATOM      9  H4  UNL     1     -50.302  73.177 -14.714  1.00  0.00     0.173 HD
HETATM   10  C5  UNL     1     -48.623  72.014 -15.201  1.00  0.00     0.251 C 
HETATM   11  O3  UNL     1     -48.870  72.267 -16.408  1.00  0.00    -0.271 OA
HETATM   12  C6  UNL     1     -47.500  71.094 -14.982  1.00  0.00     0.224 C 
ENDROOT
BRANCH  12  13
HETATM   13  N5  UNL     1     -46.240  71.775 -14.897  1.00  0.00    -0.343 N 
HETATM   14  C7  UNL     1     -45.163  71.506 -15.806  1.00  0.00     0.258 C 
HETATM   15  O4  UNL     1     -45.327  70.646 -16.706  1.00  0.00    -0.271 OA
ATOM     16  H5  UNL     1     -46.106  72.474 -14.167  1.00  0.00     0.163 HD
BRANCH  14  17
HETATM   17  C8  UNL     1     -43.867  72.187 -15.741  1.00  0.00     0.367 C 
BRANCH  17  18
HETATM   18  N6  UNL     1     -43.621  72.796 -14.448  1.00  0.00    -0.058 N 
ATOM     19  H63 UNL     1     -44.127  73.676 -14.356  1.00  0.00     0.275 HD
ATOM     20  H62 UNL     1     -44.073  72.267 -13.702  1.00  0.00     0.275 HD
ATOM     21  H61 UNL     1     -42.626  72.923 -14.257  1.00  0.00     0.275 HD
ENDBRANCH  17  18
BRANCH  17  22
HETATM   22  C9  UNL     1     -43.723  73.225 -16.817  1.00  0.00     0.275 C 
HETATM   23  O5  UNL     1     -43.666  74.447 -16.458  1.00  0.00    -0.269 OA
HETATM   24  N7  UNL     1     -43.649  72.902 -18.179  1.00  0.00    -0.274 N 
ATOM     25  H7  UNL     1     -43.691  71.929 -18.482  1.00  0.00     0.189 HD
BRANCH  24  26
HETATM   26  N8  UNL     1     -43.515  73.938 -19.127  1.00  0.00    -0.343 N 
ATOM     27  H82 UNL     1     -44.349  74.420 -19.462  1.00  0.00     0.176 HD
ATOM     28  H81 UNL     1     -42.586  74.189 -19.464  1.00  0.00     0.176 HD
ENDBRANCH  24  26
ENDBRANCH  17  22
ENDBRANCH  14  17
ENDBRANCH  12  13
BRANCH   1  29
HETATM   29  C1  UNL     1     -46.746  69.020 -13.843  1.00  0.00     0.281 C 
BRANCH  29  30
HETATM   30  N1  UNL     1     -46.750  68.253 -15.010  1.00  0.00    -0.076 N 
ATOM     31  H13 UNL     1     -47.659  68.319 -15.467  1.00  0.00     0.274 HD
ATOM     32  H12 UNL     1     -46.159  68.691 -15.716  1.00  0.00     0.274 HD
ATOM     33  H11 UNL     1     -46.488  67.274 -14.896  1.00  0.00     0.274 HD
ENDBRANCH  29  30
ENDBRANCH   1  29
BRANCH   1  34
HETATM   34  N2  UNL     1     -49.057  69.566 -14.031  1.00  0.00    -0.057 N 
ATOM     35  H23 UNL     1     -49.032  68.729 -14.615  1.00  0.00     0.276 HD
ATOM     36  H22 UNL     1     -49.451  69.126 -13.198  1.00  0.00     0.276 HD
ATOM     37  H21 UNL     1     -49.643  70.309 -14.412  1.00  0.00     0.276 HD
ENDBRANCH   1  34
TORSDOF 8
ENDMDL
MODEL 2
REMARK VINA RESULT: -6.416344241      3.383      6.102
REMARK  8 active torsions:
REMARK  status: ('A' for Active; 'I' for Inactive)
REMARK    1  A    between atoms: N1_1  and  C1_5 
REMARK    2  A    between atoms: C1_5  and  C2_6 
REMARK    3  A    between atoms: C2_6  and  N2_7 
REMARK    4  A    between atoms: C6_21  and  N5_22 
REMARK       I    between atoms: N5_22  and  C7_24 
REMARK    5  A    between atoms: C7_24  and  C8_26 
REMARK    6  A    between atoms: C8_26  and  N6_27 
REMARK    7  A    between atoms: C8_26  and  C9_31 
REMARK       I    between atoms: C9_31  and  N7_33 
REMARK    8  A    between atoms: N7_33  and  N8_35 
ROOT
HETATM    1  C2  UNL     1     -50.181  75.538 -12.523  1.00  0.00     0.255 C 
HETATM    2  C3  UNL     1     -49.208  76.553 -12.950  1.00  0.00     0.266 C 
HETATM    3  O1  UNL     1     -48.328  76.848 -12.117  1.00  0.00    -0.270 OA
HETATM    4  N3  UNL     1     -49.129  77.246 -14.176  1.00  0.00    -0.277 N 
ATOM      5  H3  UNL     1     -48.471  78.024 -14.220  1.00  0.00     0.173 HD
HETATM    6  C4  UNL     1     -49.874  76.972 -15.362  1.00  0.00     0.329 C 
HETATM    7  O2  UNL     1     -49.772  77.773 -16.328  1.00  0.00    -0.247 OA
HETATM    8  N4  UNL     1     -50.749  75.857 -15.584  1.00  0.00    -0.277 N 
ATOM      9  H4  UNL     1     -51.363  75.902 -16.397  1.00  0.00     0.173 HD
HETATM   10  C5  UNL     1     -50.836  74.689 -14.766  1.00  0.00     0.251 C 
HETATM   11  O3  UNL     1     -51.556  73.793 -15.274  1.00  0.00    -0.271 OA
HETATM   12  C6  UNL     1     -50.253  74.346 -13.463  1.00  0.00     0.224 C 
ENDROOT
BRANCH  12  13
HETATM   13  N5  UNL     1     -48.992  73.671 -13.586  1.00  0.00    -0.343 N 
HETATM   14  C7  UNL     1     -48.795  72.329 -13.116  1.00  0.00     0.258 C 
HETATM   15  O4  UNL     1     -49.756  71.725 -12.580  1.00  0.00    -0.271 OA
ATOM     16  H5  UNL     1     -48.211  74.160 -14.022  1.00  0.00     0.163 HD
BRANCH  14  17
HETATM   17  C8  UNL     1     -47.519  71.617 -13.228  1.00  0.00     0.367 C 
BRANCH  17  18
HETATM   18  N6  UNL     1     -46.919  71.751 -14.542  1.00  0.00    -0.058 N 
ATOM     19  H63 UNL     1     -47.465  72.380 -15.131  1.00  0.00     0.275 HD
ATOM     20  H62 UNL     1     -46.050  72.283 -14.495  1.00  0.00     0.275 HD
ATOM     21  H61 UNL     1     -46.775  70.852 -15.001  1.00  0.00     0.275 HD
ENDBRANCH  17  18
BRANCH  17  22
HETATM   22  C9  UNL     1     -47.657  70.161 -12.889  1.00  0.00     0.275 C 
HETATM   23  O5  UNL     1     -46.869  69.680 -12.009  1.00  0.00    -0.269 OA
HETATM   24  N7  UNL     1     -48.606  69.326 -13.494  1.00  0.00    -0.274 N 
ATOM     25  H7  UNL     1     -49.245  69.697 -14.198  1.00  0.00     0.189 HD
BRANCH  24  26
HETATM   26  N8  UNL     1     -48.670  67.968 -13.119  1.00  0.00    -0.343 N 
ATOM     27  H82 UNL     1     -49.386  67.664 -12.460  1.00  0.00     0.176 HD
ATOM     28  H81 UNL     1     -47.998  67.309 -13.514  1.00  0.00     0.176 HD
ENDBRANCH  24  26
ENDBRANCH  17  22
ENDBRANCH  14  17
ENDBRANCH  12  13
BRANCH   1  29
HETATM   29  C1  UNL     1     -49.923  75.076 -11.112  1.00  0.00     0.281 C 
BRANCH  29  30
HETATM   30  N1  UNL     1     -50.113  76.036 -10.116  1.00  0.00    -0.076 N 
ATOM     31  H13 UNL     1     -50.065  76.971 -10.520  1.00  0.00     0.274 HD
ATOM     32  H12 UNL     1     -51.083  76.023  -9.801  1.00  0.00     0.274 HD
ATOM     33  H11 UNL     1     -49.486  75.970  -9.314  1.00  0.00     0.274 HD
ENDBRANCH  29  30
ENDBRANCH   1  29
BRANCH   1  34
HETATM   34  N2  UNL     1     -51.528  76.124 -12.527  1.00  0.00    -0.057 N 
ATOM     35  H23 UNL     1     -52.211  75.570 -12.010  1.00  0.00     0.276 HD
ATOM     36  H22 UNL     1     -51.602  76.972 -11.964  1.00  0.00     0.276 HD
ATOM     37  H21 UNL     1     -51.777  76.265 -13.506  1.00  0.00     0.276 HD
ENDBRANCH   1  34
TORSDOF 8
ENDMDL
MODEL 3
REMARK VINA RESULT: -6.159826097      3.524      5.884
REMARK  8 active torsions:
REMARK  status: ('A' for Active; 'I' for Inactive)
REMARK    1  A    between atoms: N1_1  and  C1_5 
REMARK    2  A    between atoms: C1_5  and  C2_6 
REMARK    3  A    between atoms: C2_6  and  N2_7 
REMARK    4  A    between atoms: C6_21  and  N5_22 
REMARK       I    between atoms: N5_22  and  C7_24 
REMARK    5  A    between atoms: C7_24  and  C8_26 
REMARK    6  A    between atoms: C8_26  and  N6_27 
REMARK    7  A    between atoms: C8_26  and  C9_31 
REMARK       I    between atoms: C9_31  and  N7_33 
REMARK    8  A    between atoms: N7_33  and  N8_35 
ROOT
HETATM    1  C2  UNL     1     -50.124  75.813 -12.653  1.00  0.00     0.255 C 
HETATM    2  C3  UNL     1     -49.368  77.020 -13.016  1.00  0.00     0.266 C 
HETATM    3  O1  UNL     1     -48.465  77.356 -12.225  1.00  0.00    -0.270 OA
HETATM    4  N3  UNL     1     -49.522  77.857 -14.141  1.00  0.00    -0.277 N 
ATOM      5  H3  UNL     1     -49.001  78.734 -14.133  1.00  0.00     0.173 HD
HETATM    6  C4  UNL     1     -50.332  77.607 -15.289  1.00  0.00     0.329 C 
HETATM    7  O2  UNL     1     -50.454  78.523 -16.144  1.00  0.00    -0.247 OA
HETATM    8  N4  UNL     1     -51.041  76.396 -15.587  1.00  0.00    -0.277 N 
ATOM      9  H4  UNL     1     -51.734  76.435 -16.335  1.00  0.00     0.173 HD
HETATM   10  C5  UNL     1     -50.863  75.141 -14.929  1.00  0.00     0.251 C 
HETATM   11  O3  UNL     1     -51.484  74.204 -15.493  1.00  0.00    -0.271 OA
HETATM   12  C6  UNL     1     -50.105  74.746 -13.735  1.00  0.00     0.224 C 
ENDROOT
BRANCH  12  13
HETATM   13  N5  UNL     1     -48.774  74.310 -14.049  1.00  0.00    -0.343 N 
HETATM   14  C7  UNL     1     -48.448  72.925 -14.237  1.00  0.00     0.258 C 
HETATM   15  O4  UNL     1     -49.356  72.067 -14.124  1.00  0.00    -0.271 OA
ATOM     16  H5  UNL     1     -48.036  75.008 -14.142  1.00  0.00     0.163 HD
BRANCH  14  17
HETATM   17  C8  UNL     1     -47.098  72.454 -14.557  1.00  0.00     0.367 C 
BRANCH  17  18
HETATM   18  N6  UNL     1     -46.890  72.283 -15.982  1.00  0.00    -0.058 N 
ATOM     19  H63 UNL     1     -47.289  71.403 -16.308  1.00  0.00     0.275 HD
ATOM     20  H62 UNL     1     -47.466  72.933 -16.517  1.00  0.00     0.275 HD
ATOM     21  H61 UNL     1     -45.908  72.360 -16.247  1.00  0.00     0.275 HD
ENDBRANCH  17  18
BRANCH  17  22
HETATM   22  C9  UNL     1     -46.768  71.172 -13.848  1.00  0.00     0.275 C 
HETATM   23  O5  UNL     1     -46.362  70.191 -14.554  1.00  0.00    -0.269 OA
HETATM   24  N7  UNL     1     -46.887  71.019 -12.459  1.00  0.00    -0.274 N 
ATOM     25  H7  UNL     1     -47.208  71.796 -11.881  1.00  0.00     0.189 HD
BRANCH  24  26
HETATM   26  N8  UNL     1     -46.557  69.782 -11.870  1.00  0.00    -0.343 N 
ATOM     27  H82 UNL     1     -45.581  69.572 -11.658  1.00  0.00     0.176 HD
ATOM     28  H81 UNL     1     -47.300  69.113 -11.664  1.00  0.00     0.176 HD
ENDBRANCH  24  26
ENDBRANCH  17  22
ENDBRANCH  14  17
ENDBRANCH  12  13
BRANCH   1  29
HETATM   29  C1  UNL     1     -49.656  75.235 -11.342  1.00  0.00     0.281 C 
BRANCH  29  30
HETATM   30  N1  UNL     1     -49.998  75.964 -10.202  1.00  0.00    -0.076 N 
ATOM     31  H13 UNL     1     -50.473  76.826 -10.469  1.00  0.00     0.274 HD
ATOM     32  H12 UNL     1     -50.749  75.492  -9.699  1.00  0.00     0.274 HD
ATOM     33  H11 UNL     1     -49.230  76.174  -9.564  1.00  0.00     0.274 HD
ENDBRANCH  29  30
ENDBRANCH   1  29
BRANCH   1  34
HETATM   34  N2  UNL     1     -51.539  76.162 -12.469  1.00  0.00    -0.057 N 
ATOM     35  H23 UNL     1     -52.176  75.546 -12.974  1.00  0.00     0.276 HD
ATOM     36  H22 UNL     1     -51.886  75.963 -11.531  1.00  0.00     0.276 HD
ATOM     37  H21 UNL     1     -51.629  77.143 -12.734  1.00  0.00     0.276 HD
ENDBRANCH   1  34
TORSDOF 8
ENDMDL
MODEL 4
REMARK VINA RESULT: -5.981587560      2.590      4.382
REMARK  8 active torsions:
REMARK  status: ('A' for Active; 'I' for Inactive)
REMARK    1  A    between atoms: N1_1  and  C1_5 
REMARK    2  A    between atoms: C1_5  and  C2_6 
REMARK    3  A    between atoms: C2_6  and  N2_7 
REMARK    4  A    between atoms: C6_21  and  N5_22 
REMARK       I    between atoms: N5_22  and  C7_24 
REMARK    5  A    between atoms: C7_24  and  C8_26 
REMARK    6  A    between atoms: C8_26  and  N6_27 
REMARK    7  A    between atoms: C8_26  and  C9_31 
REMARK       I    between atoms: C9_31  and  N7_33 
REMARK    8  A    between atoms: N7_33  and  N8_35 
ROOT
HETATM    1  C2  UNL     1     -47.201  71.141 -13.702  1.00  0.00     0.255 C 
HETATM    2  C3  UNL     1     -48.612  71.215 -13.301  1.00  0.00     0.266 C 
HETATM    3  O1  UNL     1     -49.131  72.348 -13.345  1.00  0.00    -0.270 OA
HETATM    4  N3  UNL     1     -49.467  70.180 -12.868  1.00  0.00    -0.277 N 
ATOM      5  H3  UNL     1     -50.370  70.462 -12.488  1.00  0.00     0.173 HD
HETATM    6  C4  UNL     1     -49.201  68.778 -12.908  1.00  0.00     0.329 C 
HETATM    7  O2  UNL     1     -50.025  68.000 -12.361  1.00  0.00    -0.247 OA
HETATM    8  N4  UNL     1     -48.070  68.140 -13.518  1.00  0.00    -0.277 N 
ATOM      9  H4  UNL     1     -47.914  67.158 -13.293  1.00  0.00     0.173 HD
HETATM   10  C5  UNL     1     -47.145  68.759 -14.413  1.00  0.00     0.251 C 
HETATM   11  O3  UNL     1     -46.349  67.937 -14.934  1.00  0.00    -0.271 OA
HETATM   12  C6  UNL     1     -46.951  70.153 -14.830  1.00  0.00     0.224 C 
ENDROOT
BRANCH  12  13
HETATM   13  N5  UNL     1     -47.691  70.480 -16.015  1.00  0.00    -0.343 N 
HETATM   14  C7  UNL     1     -47.063  71.040 -17.178  1.00  0.00     0.258 C 
HETATM   15  O4  UNL     1     -45.826  71.251 -17.159  1.00  0.00    -0.271 OA
ATOM     16  H5  UNL     1     -48.696  70.308 -16.032  1.00  0.00     0.163 HD
BRANCH  14  17
HETATM   17  C8  UNL     1     -47.795  71.383 -18.400  1.00  0.00     0.367 C 
BRANCH  17  18
HETATM   18  N6  UNL     1     -47.045  72.269 -19.270  1.00  0.00    -0.058 N 
ATOM     19  H63 UNL     1     -46.618  73.028 -18.740  1.00  0.00     0.275 HD
ATOM     20  H62 UNL     1     -46.200  71.814 -19.616  1.00  0.00     0.275 HD
ATOM     21  H61 UNL     1     -47.608  72.632 -20.040  1.00  0.00     0.275 HD
ENDBRANCH  17  18
BRANCH  17  22
HETATM   22  C9  UNL     1     -49.133  71.994 -18.100  1.00  0.00     0.275 C 
HETATM   23  O5  UNL     1     -49.262  72.631 -17.003  1.00  0.00    -0.269 OA
HETATM   24  N7  UNL     1     -50.228  71.893 -18.971  1.00  0.00    -0.274 N 
ATOM     25  H7  UNL     1     -50.139  71.388 -19.853  1.00  0.00     0.189 HD
BRANCH  24  26
HETATM   26  N8  UNL     1     -51.452  72.494 -18.614  1.00  0.00    -0.343 N 
ATOM     27  H82 UNL     1     -51.447  73.413 -18.171  1.00  0.00     0.176 HD
ATOM     28  H81 UNL     1     -52.325  72.002 -18.805  1.00  0.00     0.176 HD
ENDBRANCH  24  26
ENDBRANCH  17  22
ENDBRANCH  14  17
ENDBRANCH  12  13
BRANCH   1  29
HETATM   29  C1  UNL     1     -46.649  72.496 -14.063  1.00  0.00     0.281 C 
BRANCH  29  30
HETATM   30  N1  UNL     1     -45.268  72.556 -14.257  1.00  0.00    -0.076 N 
ATOM     31  H13 UNL     1     -45.044  73.278 -14.941  1.00  0.00     0.274 HD
ATOM     32  H12 UNL     1     -44.817  72.944 -13.428  1.00  0.00     0.274 HD
ATOM     33  H11 UNL     1     -44.820  71.677 -14.518  1.00  0.00     0.274 HD
ENDBRANCH  29  30
ENDBRANCH   1  29
BRANCH   1  34
HETATM   34  N2  UNL     1     -46.399  70.656 -12.571  1.00  0.00    -0.057 N 
ATOM     35  H23 UNL     1     -45.499  71.129 -12.481  1.00  0.00     0.276 HD
ATOM     36  H22 UNL     1     -46.775  70.928 -11.662  1.00  0.00     0.276 HD
ATOM     37  H21 UNL     1     -46.316  69.646 -12.689  1.00  0.00     0.276 HD
ENDBRANCH   1  34
TORSDOF 8
ENDMDL
MODEL 5
REMARK VINA RESULT: -5.949594682      2.384      4.898
REMARK  8 active torsions:
REMARK  status: ('A' for Active; 'I' for Inactive)
REMARK    1  A    between atoms: N1_1  and  C1_5 
REMARK    2  A    between atoms: C1_5  and  C2_6 
REMARK    3  A    between atoms: C2_6  and  N2_7 
REMARK    4  A    between atoms: C6_21  and  N5_22 
REMARK       I    between atoms: N5_22  and  C7_24 
REMARK    5  A    between atoms: C7_24  and  C8_26 
REMARK    6  A    between atoms: C8_26  and  N6_27 
REMARK    7  A    between atoms: C8_26  and  C9_31 
REMARK       I    between atoms: C9_31  and  N7_33 
REMARK    8  A    between atoms: N7_33  and  N8_35 
ROOT
HETATM    1  C2  UNL     1     -46.699  70.796 -14.083  1.00  0.00     0.255 C 
HETATM    2  C3  UNL     1     -47.168  70.360 -12.760  1.00  0.00     0.266 C 
HETATM    3  O1  UNL     1     -46.666  70.950 -11.783  1.00  0.00    -0.270 OA
HETATM    4  N3  UNL     1     -48.109  69.360 -12.438  1.00  0.00    -0.277 N 
ATOM      5  H3  UNL     1     -48.183  69.102 -11.454  1.00  0.00     0.173 HD
HETATM    6  C4  UNL     1     -48.969  68.671 -13.345  1.00  0.00     0.329 C 
HETATM    7  O2  UNL     1     -49.658  67.715 -12.903  1.00  0.00    -0.247 OA
HETATM    8  N4  UNL     1     -49.142  68.954 -14.740  1.00  0.00    -0.277 N 
ATOM      9  H4  UNL     1     -49.633  68.256 -15.299  1.00  0.00     0.173 HD
HETATM   10  C5  UNL     1     -48.688  70.127 -15.417  1.00  0.00     0.251 C 
HETATM   11  O3  UNL     1     -49.116  70.204 -16.597  1.00  0.00    -0.271 OA
HETATM   12  C6  UNL     1     -47.827  71.241 -15.000  1.00  0.00     0.224 C 
ENDROOT
BRANCH  12  13
HETATM   13  N5  UNL     1     -48.574  72.338 -14.454  1.00  0.00    -0.343 N 
HETATM   14  C7  UNL     1     -48.541  73.650 -15.036  1.00  0.00     0.258 C 
HETATM   15  O4  UNL     1     -47.838  73.845 -16.056  1.00  0.00    -0.271 OA
ATOM     16  H5  UNL     1     -49.147  72.181 -13.625  1.00  0.00     0.163 HD
BRANCH  14  17
HETATM   17  C8  UNL     1     -49.294  74.787 -14.498  1.00  0.00     0.367 C 
BRANCH  17  18
HETATM   18  N6  UNL     1     -48.891  75.134 -13.149  1.00  0.00    -0.058 N 
ATOM     19  H63 UNL     1     -49.637  74.938 -12.482  1.00  0.00     0.275 HD
ATOM     20  H62 UNL     1     -48.184  74.487 -12.799  1.00  0.00     0.275 HD
ATOM     21  H61 UNL     1     -48.575  76.101 -13.070  1.00  0.00     0.275 HD
ENDBRANCH  17  18
BRANCH  17  22
HETATM   22  C9  UNL     1     -50.775  74.545 -14.530  1.00  0.00     0.275 C 
HETATM   23  O5  UNL     1     -51.451  74.863 -13.496  1.00  0.00    -0.269 OA
HETATM   24  N7  UNL     1     -51.432  73.993 -15.639  1.00  0.00    -0.274 N 
ATOM     25  H7  UNL     1     -50.906  73.736 -16.474  1.00  0.00     0.189 HD
BRANCH  24  26
HETATM   26  N8  UNL     1     -52.827  73.798 -15.588  1.00  0.00    -0.343 N 
ATOM     27  H82 UNL     1     -53.253  73.454 -14.727  1.00  0.00     0.176 HD
ATOM     28  H81 UNL     1     -53.391  74.004 -16.413  1.00  0.00     0.176 HD
ENDBRANCH  24  26
ENDBRANCH  17  22
ENDBRANCH  14  17
ENDBRANCH  12  13
BRANCH   1  29
HETATM   29  C1  UNL     1     -45.655  71.877 -13.978  1.00  0.00     0.281 C 
BRANCH  29  30
HETATM   30  N1  UNL     1     -45.128  72.330 -15.189  1.00  0.00    -0.076 N 
ATOM     31  H13 UNL     1     -45.773  72.990 -15.624  1.00  0.00     0.274 HD
ATOM     32  H12 UNL     1     -44.332  72.943 -15.014  1.00  0.00     0.274 HD
ATOM     33  H11 UNL     1     -44.870  71.605 -15.857  1.00  0.00     0.274 HD
ENDBRANCH  29  30
ENDBRANCH   1  29
BRANCH   1  34
HETATM   34  N2  UNL     1     -46.058  69.666 -14.768  1.00  0.00    -0.057 N 
ATOM     35  H23 UNL     1     -46.307  68.759 -14.374  1.00  0.00     0.276 HD
ATOM     36  H22 UNL     1     -46.424  69.501 -15.706  1.00  0.00     0.276 HD
ATOM     37  H21 UNL     1     -45.055  69.854 -14.753  1.00  0.00     0.276 HD
ENDBRANCH   1  34
TORSDOF 8
ENDMDL
