MODEL 1
REMARK VINA RESULT: -5.313326513      0.000      0.000
REMARK  6 active torsions:
REMARK  status: ('A' for Active; 'I' for Inactive)
REMARK    1  A    between atoms: N1_2  and  C3_4 
REMARK    2  A    between atoms: C4_5  and  O1_6 
REMARK    3  A    between atoms: C5_8  and  C6_9 
REMARK    4  A    between atoms: C6_9  and  O2_10 
REMARK    5  A    between atoms: N2_12  and  O3_14 
REMARK    6  A    between atoms: C8_18  and  O5_19 
ROOT
HETATM    1  C3  UNL     1       2.459   1.144  14.231  1.00  0.00     0.262 C 
HETATM    2  C4  UNL     1       2.575  -0.379  14.120  1.00  0.00     0.189 C 
HETATM    3  C5  UNL     1       1.583  -0.978  13.191  1.00  0.00     0.229 C 
HETATM    4  O4  UNL     1       1.250  -0.303  12.054  1.00  0.00    -0.367 OA
HETATM    5  C7  UNL     1       1.574   0.995  12.064  1.00  0.00     0.160 A 
HETATM    6  C8  UNL     1       0.864   2.186  12.371  1.00  0.00     0.156 A 
HETATM    7  C9  UNL     1       1.200   1.441  13.526  1.00  0.00     0.084 A 
ENDROOT
BRANCH   3   8
HETATM    8  C6  UNL     1       2.042  -2.337  12.809  1.00  0.00     0.167 C 
HETATM    9  N2  UNL     1       2.732  -3.036  13.649  1.00  0.00    -0.249 N 
ATOM     10  H2  UNL     1       2.939  -2.618  14.557  1.00  0.00     0.196 HD
BRANCH   8  11
HETATM   11  O2  UNL     1       1.765  -2.903  11.575  1.00  0.00    -0.346 OA
ATOM     12  H2  UNL     1       0.892  -3.179  11.321  1.00  0.00     0.219 HD
ENDBRANCH   8  11
BRANCH   9  13
HETATM   13  O3  UNL     1       3.201  -4.283  13.409  1.00  0.00    -0.288 OA
ATOM     14  H3  UNL     1       3.769  -4.767  13.996  1.00  0.00     0.244 HD
ENDBRANCH   9  13
ENDBRANCH   3   8
BRANCH   2  15
HETATM   15  O1  UNL     1       2.256  -0.884  15.405  1.00  0.00    -0.390 OA
ATOM     16  H1  UNL     1       1.783  -0.188  15.845  1.00  0.00     0.210 HD
ENDBRANCH   2  15
BRANCH   1  17
HETATM   17  N1  UNL     1       2.475   1.623  15.568  1.00  0.00     0.087 N 
HETATM   18  C1  UNL     1       3.615   2.505  15.830  1.00  0.00     0.310 C 
HETATM   19  C2  UNL     1       1.274   2.410  15.777  1.00  0.00     0.310 C 
ENDBRANCH   1  17
BRANCH   6  20
HETATM   20  O5  UNL     1       1.475   3.429  12.151  1.00  0.00    -0.392 OA
ATOM     21  H5  UNL     1       1.125   4.203  12.576  1.00  0.00     0.210 HD
ENDBRANCH   6  20
TORSDOF 6
ENDMDL
MODEL 2
REMARK VINA RESULT: -5.264567227      0.781      1.024
REMARK  6 active torsions:
REMARK  status: ('A' for Active; 'I' for Inactive)
REMARK    1  A    between atoms: N1_2  and  C3_4 
REMARK    2  A    between atoms: C4_5  and  O1_6 
REMARK    3  A    between atoms: C5_8  and  C6_9 
REMARK    4  A    between atoms: C6_9  and  O2_10 
REMARK    5  A    between atoms: N2_12  and  O3_14 
REMARK    6  A    between atoms: C8_18  and  O5_19 
ROOT
HETATM    1  C3  UNL     1       2.568   1.411  14.323  1.00  0.00     0.262 C 
HETATM    2  C4  UNL     1       2.761  -0.104  14.425  1.00  0.00     0.189 C 
HETATM    3  C5  UNL     1       1.761  -0.878  13.647  1.00  0.00     0.229 C 
HETATM    4  O4  UNL     1       1.339  -0.392  12.445  1.00  0.00    -0.367 OA
HETATM    5  C7  UNL     1       1.593   0.906  12.251  1.00  0.00     0.160 A 
HETATM    6  C8  UNL     1       0.834   2.095  12.421  1.00  0.00     0.156 A 
HETATM    7  C9  UNL     1       1.263   1.543  13.651  1.00  0.00     0.084 A 
ENDROOT
BRANCH   3   8
HETATM    8  C6  UNL     1       2.274  -2.256  13.440  1.00  0.00     0.167 C 
HETATM    9  N2  UNL     1       2.069  -2.849  12.310  1.00  0.00    -0.249 N 
ATOM     10  H2  UNL     1       1.554  -2.339  11.593  1.00  0.00     0.196 HD
BRANCH   8  11
HETATM   11  O2  UNL     1       2.973  -2.950  14.415  1.00  0.00    -0.346 OA
ATOM     12  H2  UNL     1       3.390  -3.788  14.251  1.00  0.00     0.219 HD
ENDBRANCH   8  11
BRANCH   9  13
HETATM   13  O3  UNL     1       2.491  -4.100  12.012  1.00  0.00    -0.288 OA
ATOM     14  H3  UNL     1       2.215  -4.885  12.470  1.00  0.00     0.244 HD
ENDBRANCH   9  13
ENDBRANCH   3   8
BRANCH   2  15
HETATM   15  O1  UNL     1       2.530  -0.430  15.785  1.00  0.00    -0.390 OA
ATOM     16  H1  UNL     1       3.169   0.067  16.282  1.00  0.00     0.210 HD
ENDBRANCH   2  15
BRANCH   1  17
HETATM   17  N1  UNL     1       2.620   2.080  15.575  1.00  0.00     0.087 N 
HETATM   18  C1  UNL     1       3.685   3.086  15.625  1.00  0.00     0.310 C 
HETATM   19  C2  UNL     1       1.364   2.784  15.759  1.00  0.00     0.310 C 
ENDBRANCH   1  17
BRANCH   6  20
HETATM   20  O5  UNL     1       1.367   3.320  11.993  1.00  0.00    -0.392 OA
ATOM     21  H5  UNL     1       0.989   3.754  11.238  1.00  0.00     0.210 HD
ENDBRANCH   6  20
TORSDOF 6
ENDMDL
MODEL 3
REMARK VINA RESULT: -4.821451549      2.561      4.037
REMARK  6 active torsions:
REMARK  status: ('A' for Active; 'I' for Inactive)
REMARK    1  A    between atoms: N1_2  and  C3_4 
REMARK    2  A    between atoms: C4_5  and  O1_6 
REMARK    3  A    between atoms: C5_8  and  C6_9 
REMARK    4  A    between atoms: C6_9  and  O2_10 
REMARK    5  A    between atoms: N2_12  and  O3_14 
REMARK    6  A    between atoms: C8_18  and  O5_19 
ROOT
HETATM    1  C3  UNL     1       2.099   1.983  13.429  1.00  0.00     0.262 C 
HETATM    2  C4  UNL     1       1.777   1.947  11.933  1.00  0.00     0.189 C 
HETATM    3  C5  UNL     1       1.366   0.604  11.453  1.00  0.00     0.229 C 
HETATM    4  O4  UNL     1       0.605  -0.185  12.264  1.00  0.00    -0.367 OA
HETATM    5  C7  UNL     1       0.605   0.180  13.551  1.00  0.00     0.160 A 
HETATM    6  C8  UNL     1       1.342  -0.235  14.693  1.00  0.00     0.156 A 
HETATM    7  C9  UNL     1       2.110   0.560  13.809  1.00  0.00     0.084 A 
ENDROOT
BRANCH   3   8
HETATM    8  C6  UNL     1       0.663   0.752  10.153  1.00  0.00     0.167 C 
HETATM    9  N2  UNL     1       0.750   1.867   9.506  1.00  0.00    -0.249 N 
ATOM     10  H2  UNL     1       1.306   2.615   9.921  1.00  0.00     0.196 HD
BRANCH   8  11
HETATM   11  O2  UNL     1      -0.094  -0.263   9.590  1.00  0.00    -0.346 OA
ATOM     12  H2  UNL     1      -1.022  -0.368   9.764  1.00  0.00     0.219 HD
ENDBRANCH   8  11
BRANCH   9  13
HETATM   13  O3  UNL     1       0.153   2.113   8.317  1.00  0.00    -0.288 OA
ATOM     14  H3  UNL     1      -0.146   2.968   8.030  1.00  0.00     0.244 HD
ENDBRANCH   9  13
ENDBRANCH   3   8
BRANCH   2  15
HETATM   15  O1  UNL     1       2.995   2.239  11.270  1.00  0.00    -0.390 OA
ATOM     16  H1  UNL     1       3.004   1.693  10.494  1.00  0.00     0.210 HD
ENDBRANCH   2  15
BRANCH   1  17
HETATM   17  N1  UNL     1       3.315   2.651  13.737  1.00  0.00     0.087 N 
HETATM   18  C1  UNL     1       3.118   3.766  14.668  1.00  0.00     0.310 C 
HETATM   19  C2  UNL     1       4.194   1.701  14.393  1.00  0.00     0.310 C 
ENDBRANCH   1  17
BRANCH   6  20
HETATM   20  O5  UNL     1       1.000   0.272  15.955  1.00  0.00    -0.392 OA
ATOM     21  H5  UNL     1       0.959  -0.317  16.699  1.00  0.00     0.210 HD
ENDBRANCH   6  20
TORSDOF 6
ENDMDL
MODEL 4
REMARK VINA RESULT: -4.767854152      1.469      1.799
REMARK  6 active torsions:
REMARK  status: ('A' for Active; 'I' for Inactive)
REMARK    1  A    between atoms: N1_2  and  C3_4 
REMARK    2  A    between atoms: C4_5  and  O1_6 
REMARK    3  A    between atoms: C5_8  and  C6_9 
REMARK    4  A    between atoms: C6_9  and  O2_10 
REMARK    5  A    between atoms: N2_12  and  O3_14 
REMARK    6  A    between atoms: C8_18  and  O5_19 
ROOT
HETATM    1  C3  UNL     1       2.691   1.755  14.513  1.00  0.00     0.262 C 
HETATM    2  C4  UNL     1       3.068   0.283  14.324  1.00  0.00     0.189 C 
HETATM    3  C5  UNL     1       1.908  -0.638  14.427  1.00  0.00     0.229 C 
HETATM    4  O4  UNL     1       0.703  -0.243  13.926  1.00  0.00    -0.367 OA
HETATM    5  C7  UNL     1       0.593   1.073  13.716  1.00  0.00     0.160 A 
HETATM    6  C8  UNL     1       0.058   2.150  14.471  1.00  0.00     0.156 A 
HETATM    7  C9  UNL     1       1.295   1.691  14.982  1.00  0.00     0.084 A 
ENDROOT
BRANCH   3   8
HETATM    8  C6  UNL     1       2.270  -1.937  13.805  1.00  0.00     0.167 C 
HETATM    9  N2  UNL     1       1.867  -2.203  12.606  1.00  0.00    -0.249 N 
ATOM     10  H2  UNL     1       1.307  -1.499  12.126  1.00  0.00     0.196 HD
BRANCH   8  11
HETATM   11  O2  UNL     1       3.029  -2.895  14.457  1.00  0.00    -0.346 OA
ATOM     12  H2  UNL     1       3.538  -3.551  13.995  1.00  0.00     0.219 HD
ENDBRANCH   8  11
BRANCH   9  13
HETATM   13  O3  UNL     1       2.136  -3.352  11.943  1.00  0.00    -0.288 OA
ATOM     14  H3  UNL     1       2.239  -3.419  11.001  1.00  0.00     0.244 HD
ENDBRANCH   9  13
ENDBRANCH   3   8
BRANCH   2  15
HETATM   15  O1  UNL     1       3.917  -0.039  15.411  1.00  0.00    -0.390 OA
ATOM     16  H1  UNL     1       4.773  -0.198  15.032  1.00  0.00     0.210 HD
ENDBRANCH   2  15
BRANCH   1  17
HETATM   17  N1  UNL     1       3.547   2.454  15.406  1.00  0.00     0.087 N 
HETATM   18  C1  UNL     1       4.339   3.483  14.727  1.00  0.00     0.310 C 
HETATM   19  C2  UNL     1       2.716   3.135  16.382  1.00  0.00     0.310 C 
ENDBRANCH   1  17
BRANCH   6  20
HETATM   20  O5  UNL     1      -0.018   3.426  13.894  1.00  0.00    -0.392 OA
ATOM     21  H5  UNL     1      -0.052   4.191  14.455  1.00  0.00     0.210 HD
ENDBRANCH   6  20
TORSDOF 6
ENDMDL
MODEL 5
REMARK VINA RESULT: -4.760254839      1.766      2.104
REMARK  6 active torsions:
REMARK  status: ('A' for Active; 'I' for Inactive)
REMARK    1  A    between atoms: N1_2  and  C3_4 
REMARK    2  A    between atoms: C4_5  and  O1_6 
REMARK    3  A    between atoms: C5_8  and  C6_9 
REMARK    4  A    between atoms: C6_9  and  O2_10 
REMARK    5  A    between atoms: N2_12  and  O3_14 
REMARK    6  A    between atoms: C8_18  and  O5_19 
ROOT
HETATM    1  C3  UNL     1       1.984   1.319  12.573  1.00  0.00     0.262 C 
HETATM    2  C4  UNL     1       2.376   0.139  13.466  1.00  0.00     0.189 C 
HETATM    3  C5  UNL     1       1.581  -1.087  13.204  1.00  0.00     0.229 C 
HETATM    4  O4  UNL     1       1.220  -1.380  11.923  1.00  0.00    -0.367 OA
HETATM    5  C7  UNL     1       1.307  -0.351  11.072  1.00  0.00     0.160 A 
HETATM    6  C8  UNL     1       0.375   0.600  10.577  1.00  0.00     0.156 A 
HETATM    7  C9  UNL     1       0.749   0.853  11.918  1.00  0.00     0.084 A 
ENDROOT
BRANCH   3   8
HETATM    8  C6  UNL     1       2.301  -2.257  13.766  1.00  0.00     0.167 C 
HETATM    9  N2  UNL     1       2.584  -3.259  13.000  1.00  0.00    -0.249 N 
ATOM     10  H2  UNL     1       2.296  -3.205  12.023  1.00  0.00     0.196 HD
BRANCH   8  11
HETATM   11  O2  UNL     1       2.691  -2.331  15.094  1.00  0.00    -0.346 OA
ATOM     12  H2  UNL     1       3.597  -2.260  15.369  1.00  0.00     0.219 HD
ENDBRANCH   8  11
BRANCH   9  13
HETATM   13  O3  UNL     1       3.236  -4.374  13.403  1.00  0.00    -0.288 OA
ATOM     14  H3  UNL     1       2.827  -5.222  13.526  1.00  0.00     0.244 HD
ENDBRANCH   9  13
ENDBRANCH   3   8
BRANCH   2  15
HETATM   15  O1  UNL     1       2.056   0.534  14.789  1.00  0.00    -0.390 OA
ATOM     16  H1  UNL     1       1.625  -0.215  15.185  1.00  0.00     0.210 HD
ENDBRANCH   2  15
BRANCH   1  17
HETATM   17  N1  UNL     1       1.813   2.540  13.281  1.00  0.00     0.087 N 
HETATM   18  C1  UNL     1       2.934   3.461  13.080  1.00  0.00     0.310 C 
HETATM   19  C2  UNL     1       0.627   3.195  12.762  1.00  0.00     0.310 C 
ENDBRANCH   1  17
BRANCH   6  20
HETATM   20  O5  UNL     1       0.771   1.493   9.571  1.00  0.00    -0.392 OA
ATOM     21  H5  UNL     1       0.152   2.138   9.250  1.00  0.00     0.210 HD
ENDBRANCH   6  20
TORSDOF 6
ENDMDL
