MODEL 1
REMARK VINA RESULT: -8.079224498      0.000      0.000
REMARK  8 active torsions:
REMARK  status: ('A' for Active; 'I' for Inactive)
REMARK    1  A    between atoms: C2_3  and  C3_4 
REMARK    2  A    between atoms: N2_5  and  O1_7 
REMARK    3  A    between atoms: N3_11  and  C6_12 
REMARK    4  A    between atoms: N5_15  and  C7_16 
REMARK    5  A    between atoms: C7_16  and  C8_17 
REMARK    6  A    between atoms: C10_20  and  N6_21 
REMARK    7  A    between atoms: C12_27  and  N8_28 
REMARK    8  A    between atoms: N9_31  and  N10_32 
ROOT
HETATM    1  C6  UNL     1      17.677  17.582  33.442  1.00  0.00     0.740 A 
HETATM    2  N4  UNL     1      17.196  18.646  32.786  1.00  0.00    -0.126 N 
ATOM      3  H4  UNL     1      17.598  18.905  31.885  1.00  0.00     0.206 HD
HETATM    4  N5  UNL     1      16.202  19.371  33.291  1.00  0.00    -0.280 N 
HETATM    5  C11 UNL     1      15.640  19.069  34.476  1.00  0.00     0.161 A 
HETATM    6  C12 UNL     1      16.116  17.971  35.182  1.00  0.00     0.155 A 
HETATM    7  N9  UNL     1      17.116  17.277  34.627  1.00  0.00    -0.072 N 
ENDROOT
BRANCH   1   8
HETATM    8  N3  UNL     1      18.744  16.781  32.925  1.00  0.00    -0.092 N 
HETATM    9  N1  UNL     1      20.040  16.935  33.127  1.00  0.00    -0.275 N 
HETATM   10  C1  UNL     1      20.625  17.984  33.938  1.00  0.00     0.179 C 
HETATM   11  C2  UNL     1      20.766  15.998  32.487  1.00  0.00     0.070 A 
HETATM   12  C4  UNL     1      19.865  15.190  31.831  1.00  0.00     0.052 A 
HETATM   13  C5  UNL     1      18.621  15.700  32.122  1.00  0.00     0.138 A 
BRANCH  11  14
HETATM   14  C3  UNL     1      22.219  15.854  32.479  1.00  0.00     0.144 C 
HETATM   15  N2  UNL     1      22.862  15.311  33.455  1.00  0.00    -0.278 N 
ATOM     16  H2  UNL     1      22.337  14.970  34.261  1.00  0.00     0.193 HD
BRANCH  15  17
HETATM   17  O1  UNL     1      24.218  15.175  33.449  1.00  0.00    -0.290 OA
ATOM     18  H1  UNL     1      24.804  15.918  33.360  1.00  0.00     0.244 HD
ENDBRANCH  15  17
ENDBRANCH  11  14
ENDBRANCH   1   8
BRANCH   7  19
HETATM   19  N10 UNL     1      17.635  16.156  35.301  1.00  0.00    -0.322 N 
ATOM     20 2H10 UNL     1      17.518  15.228  34.893  1.00  0.00     0.178 HD
ATOM     21 1H10 UNL     1      18.115  16.334  36.183  1.00  0.00     0.178 HD
ENDBRANCH   7  19
BRANCH   4  22
HETATM   22  C7  UNL     1      15.697  20.516  32.569  1.00  0.00     0.206 C 
BRANCH  22  23
HETATM   23  C8  UNL     1      14.217  20.338  32.264  1.00  0.00     0.037 A 
HETATM   24  C9  UNL     1      13.832  19.383  31.362  1.00  0.00     0.080 A 
HETATM   25  S1  UNL     1      12.134  19.565  31.357  1.00  0.00    -0.064 SA
HETATM   26  C10 UNL     1      12.017  20.833  32.492  1.00  0.00     0.142 A 
HETATM   27  N7  UNL     1      13.287  21.059  32.823  1.00  0.00    -0.338 N 
ATOM     28  H7  UNL     1      13.527  21.783  33.500  1.00  0.00     0.168 HD
BRANCH  26  29
HETATM   29  N6  UNL     1      10.941  21.445  32.939  1.00  0.00    -0.380 N 
ATOM     30  H62 UNL     1       9.986  21.373  32.588  1.00  0.00     0.158 HD
ATOM     31  H61 UNL     1      10.853  22.102  33.714  1.00  0.00     0.158 HD
ENDBRANCH  26  29
ENDBRANCH  22  23
ENDBRANCH   4  22
BRANCH   6  32
HETATM   32  N8  UNL     1      15.589  17.655  36.333  1.00  0.00    -0.382 N 
ATOM     33  H82 UNL     1      14.621  17.869  36.575  1.00  0.00     0.157 HD
ATOM     34  H81 UNL     1      16.149  17.174  37.036  1.00  0.00     0.157 HD
ENDBRANCH   6  32
TORSDOF 8
ENDMDL
MODEL 2
REMARK VINA RESULT: -7.724145609      1.870      2.149
REMARK  8 active torsions:
REMARK  status: ('A' for Active; 'I' for Inactive)
REMARK    1  A    between atoms: C2_3  and  C3_4 
REMARK    2  A    between atoms: N2_5  and  O1_7 
REMARK    3  A    between atoms: N3_11  and  C6_12 
REMARK    4  A    between atoms: N5_15  and  C7_16 
REMARK    5  A    between atoms: C7_16  and  C8_17 
REMARK    6  A    between atoms: C10_20  and  N6_21 
REMARK    7  A    between atoms: C12_27  and  N8_28 
REMARK    8  A    between atoms: N9_31  and  N10_32 
ROOT
HETATM    1  C6  UNL     1      18.215  18.788  33.864  1.00  0.00     0.740 A 
HETATM    2  N4  UNL     1      17.592  19.693  33.097  1.00  0.00    -0.126 N 
ATOM      3  H4  UNL     1      18.115  20.178  32.367  1.00  0.00     0.206 HD
HETATM    4  N5  UNL     1      16.304  19.970  33.272  1.00  0.00    -0.280 N 
HETATM    5  C11 UNL     1      15.572  19.357  34.222  1.00  0.00     0.161 A 
HETATM    6  C12 UNL     1      16.189  18.412  35.034  1.00  0.00     0.155 A 
HETATM    7  N9  UNL     1      17.486  18.173  34.814  1.00  0.00    -0.072 N 
ENDROOT
BRANCH   1   8
HETATM    8  N3  UNL     1      19.599  18.467  33.700  1.00  0.00    -0.092 N 
HETATM    9  N1  UNL     1      20.630  18.990  34.338  1.00  0.00    -0.275 N 
HETATM   10  C1  UNL     1      20.530  20.018  35.353  1.00  0.00     0.179 C 
HETATM   11  C2  UNL     1      21.798  18.454  33.935  1.00  0.00     0.070 A 
HETATM   12  C4  UNL     1      21.486  17.522  32.971  1.00  0.00     0.052 A 
HETATM   13  C5  UNL     1      20.117  17.554  32.848  1.00  0.00     0.138 A 
BRANCH  11  14
HETATM   14  C3  UNL     1      23.138  18.783  34.415  1.00  0.00     0.144 C 
HETATM   15  N2  UNL     1      23.713  19.902  34.135  1.00  0.00    -0.278 N 
ATOM     16  H2  UNL     1      23.215  20.581  33.558  1.00  0.00     0.193 HD
BRANCH  15  17
HETATM   17  O1  UNL     1      24.963  20.212  34.582  1.00  0.00    -0.290 OA
ATOM     18  H1  UNL     1      25.130  20.953  35.152  1.00  0.00     0.244 HD
ENDBRANCH  15  17
ENDBRANCH  11  14
ENDBRANCH   1   8
BRANCH   7  19
HETATM   19  N10 UNL     1      18.158  17.225  35.609  1.00  0.00    -0.322 N 
ATOM     20 2H10 UNL     1      19.076  17.452  35.990  1.00  0.00     0.178 HD
ATOM     21 1H10 UNL     1      17.678  16.339  35.766  1.00  0.00     0.178 HD
ENDBRANCH   7  19
BRANCH   4  22
HETATM   22  C7  UNL     1      15.649  20.950  32.435  1.00  0.00     0.206 C 
BRANCH  22  23
HETATM   23  C8  UNL     1      14.189  20.578  32.228  1.00  0.00     0.037 A 
HETATM   24  C9  UNL     1      13.881  19.509  31.429  1.00  0.00     0.080 A 
HETATM   25  S1  UNL     1      12.175  19.494  31.502  1.00  0.00    -0.064 SA
HETATM   26  C10 UNL     1      11.958  20.834  32.534  1.00  0.00     0.142 A 
HETATM   27  N7  UNL     1      13.205  21.233  32.776  1.00  0.00    -0.338 N 
ATOM     28  H7  UNL     1      13.388  22.036  33.377  1.00  0.00     0.168 HD
BRANCH  26  29
HETATM   29  N6  UNL     1      10.838  21.356  32.988  1.00  0.00    -0.380 N 
ATOM     30  H62 UNL     1      10.371  21.166  33.875  1.00  0.00     0.158 HD
ATOM     31  H61 UNL     1      10.226  22.042  32.547  1.00  0.00     0.158 HD
ENDBRANCH  26  29
ENDBRANCH  22  23
ENDBRANCH   4  22
BRANCH   6  32
HETATM   32  N8  UNL     1      15.504  17.802  35.961  1.00  0.00    -0.382 N 
ATOM     33  H82 UNL     1      15.938  17.224  36.681  1.00  0.00     0.157 HD
ATOM     34  H81 UNL     1      14.488  17.893  35.988  1.00  0.00     0.157 HD
ENDBRANCH   6  32
TORSDOF 8
ENDMDL
MODEL 3
REMARK VINA RESULT: -7.408967153      1.002      1.721
REMARK  8 active torsions:
REMARK  status: ('A' for Active; 'I' for Inactive)
REMARK    1  A    between atoms: C2_3  and  C3_4 
REMARK    2  A    between atoms: N2_5  and  O1_7 
REMARK    3  A    between atoms: N3_11  and  C6_12 
REMARK    4  A    between atoms: N5_15  and  C7_16 
REMARK    5  A    between atoms: C7_16  and  C8_17 
REMARK    6  A    between atoms: C10_20  and  N6_21 
REMARK    7  A    between atoms: C12_27  and  N8_28 
REMARK    8  A    between atoms: N9_31  and  N10_32 
ROOT
HETATM    1  C6  UNL     1      18.439  18.475  34.387  1.00  0.00     0.740 A 
HETATM    2  N4  UNL     1      17.940  19.395  33.551  1.00  0.00    -0.126 N 
ATOM      3  H4  UNL     1      18.555  19.842  32.871  1.00  0.00     0.206 HD
HETATM    4  N5  UNL     1      16.655  19.735  33.593  1.00  0.00    -0.280 N 
HETATM    5  C11 UNL     1      15.804  19.173  34.474  1.00  0.00     0.161 A 
HETATM    6  C12 UNL     1      16.291  18.215  35.355  1.00  0.00     0.155 A 
HETATM    7  N9  UNL     1      17.591  17.911  35.268  1.00  0.00    -0.072 N 
ENDROOT
BRANCH   1   8
HETATM    8  N3  UNL     1      19.815  18.086  34.366  1.00  0.00    -0.092 N 
HETATM    9  N1  UNL     1      20.361  17.085  33.700  1.00  0.00    -0.275 N 
HETATM   10  C1  UNL     1      19.630  16.174  32.844  1.00  0.00     0.179 C 
HETATM   11  C2  UNL     1      21.689  17.005  33.908  1.00  0.00     0.070 A 
HETATM   12  C4  UNL     1      22.010  18.031  34.769  1.00  0.00     0.052 A 
HETATM   13  C5  UNL     1      20.829  18.682  35.034  1.00  0.00     0.138 A 
BRANCH  11  14
HETATM   14  C3  UNL     1      22.619  16.031  33.342  1.00  0.00     0.144 C 
HETATM   15  N2  UNL     1      23.864  16.302  33.146  1.00  0.00    -0.278 N 
ATOM     16  H2  UNL     1      24.211  17.228  33.393  1.00  0.00     0.193 HD
BRANCH  15  17
HETATM   17  O1  UNL     1      24.733  15.394  32.618  1.00  0.00    -0.290 OA
ATOM     18  H1  UNL     1      25.363  15.624  31.945  1.00  0.00     0.244 HD
ENDBRANCH  15  17
ENDBRANCH  11  14
ENDBRANCH   1   8
BRANCH   7  19
HETATM   19  N10 UNL     1      18.134  16.947  36.138  1.00  0.00    -0.322 N 
ATOM     20 2H10 UNL     1      18.050  15.958  35.904  1.00  0.00     0.178 HD
ATOM     21 1H10 UNL     1      18.596  17.297  36.977  1.00  0.00     0.178 HD
ENDBRANCH   7  19
BRANCH   4  22
HETATM   22  C7  UNL     1      16.134  20.730  32.684  1.00  0.00     0.206 C 
BRANCH  22  23
HETATM   23  C8  UNL     1      14.678  20.437  32.357  1.00  0.00     0.037 A 
HETATM   24  C9  UNL     1      14.379  19.402  31.512  1.00  0.00     0.080 A 
HETATM   25  S1  UNL     1      12.674  19.473  31.456  1.00  0.00    -0.064 SA
HETATM   26  C10 UNL     1      12.446  20.803  32.499  1.00  0.00     0.142 A 
HETATM   27  N7  UNL     1      13.689  21.132  32.844  1.00  0.00    -0.338 N 
ATOM     28  H7  UNL     1      13.864  21.913  33.476  1.00  0.00     0.168 HD
BRANCH  26  29
HETATM   29  N6  UNL     1      11.321  21.373  32.878  1.00  0.00    -0.380 N 
ATOM     30  H62 UNL     1      10.416  20.931  33.040  1.00  0.00     0.158 HD
ATOM     31  H61 UNL     1      11.138  22.355  33.082  1.00  0.00     0.158 HD
ENDBRANCH  26  29
ENDBRANCH  22  23
ENDBRANCH   4  22
BRANCH   6  32
HETATM   32  N8  UNL     1      15.489  17.654  36.218  1.00  0.00    -0.382 N 
ATOM     33  H82 UNL     1      14.803  18.180  36.758  1.00  0.00     0.157 HD
ATOM     34  H81 UNL     1      15.532  16.647  36.374  1.00  0.00     0.157 HD
ENDBRANCH   6  32
TORSDOF 8
ENDMDL
MODEL 4
REMARK VINA RESULT: -7.206501808      4.367      7.893
REMARK  8 active torsions:
REMARK  status: ('A' for Active; 'I' for Inactive)
REMARK    1  A    between atoms: C2_3  and  C3_4 
REMARK    2  A    between atoms: N2_5  and  O1_7 
REMARK    3  A    between atoms: N3_11  and  C6_12 
REMARK    4  A    between atoms: N5_15  and  C7_16 
REMARK    5  A    between atoms: C7_16  and  C8_17 
REMARK    6  A    between atoms: C10_20  and  N6_21 
REMARK    7  A    between atoms: C12_27  and  N8_28 
REMARK    8  A    between atoms: N9_31  and  N10_32 
ROOT
HETATM    1  C6  UNL     1      18.501  18.094  33.710  1.00  0.00     0.740 A 
HETATM    2  N4  UNL     1      19.517  18.779  34.251  1.00  0.00    -0.126 N 
ATOM      3  H4  UNL     1      19.516  19.798  34.205  1.00  0.00     0.206 HD
HETATM    4  N5  UNL     1      20.526  18.152  34.848  1.00  0.00    -0.280 N 
HETATM    5  C11 UNL     1      20.571  16.809  34.933  1.00  0.00     0.161 A 
HETATM    6  C12 UNL     1      19.532  16.069  34.381  1.00  0.00     0.155 A 
HETATM    7  N9  UNL     1      18.543  16.751  33.794  1.00  0.00    -0.072 N 
ENDROOT
BRANCH   1   8
HETATM    8  N3  UNL     1      17.400  18.739  33.062  1.00  0.00    -0.092 N 
HETATM    9  N1  UNL     1      16.227  19.050  33.582  1.00  0.00    -0.275 N 
HETATM   10  C1  UNL     1      15.840  18.780  34.952  1.00  0.00     0.179 C 
HETATM   11  C2  UNL     1      15.422  19.653  32.687  1.00  0.00     0.070 A 
HETATM   12  C4  UNL     1      16.136  19.731  31.512  1.00  0.00     0.052 A 
HETATM   13  C5  UNL     1      17.357  19.156  31.777  1.00  0.00     0.138 A 
BRANCH  11  14
HETATM   14  C3  UNL     1      14.060  20.134  32.902  1.00  0.00     0.144 C 
HETATM   15  N2  UNL     1      13.782  21.388  33.009  1.00  0.00    -0.278 N 
ATOM     16  H2  UNL     1      14.540  22.068  32.943  1.00  0.00     0.193 HD
BRANCH  15  17
HETATM   17  O1  UNL     1      12.512  21.840  33.209  1.00  0.00    -0.290 OA
ATOM     18  H1  UNL     1      12.184  22.634  32.804  1.00  0.00     0.244 HD
ENDBRANCH  15  17
ENDBRANCH  11  14
ENDBRANCH   1   8
BRANCH   7  19
HETATM   19  N10 UNL     1      17.467  16.049  33.219  1.00  0.00    -0.322 N 
ATOM     20 2H10 UNL     1      17.241  16.197  32.236  1.00  0.00     0.178 HD
ATOM     21 1H10 UNL     1      16.957  15.413  33.832  1.00  0.00     0.178 HD
ENDBRANCH   7  19
BRANCH   4  22
HETATM   22  C7  UNL     1      21.613  18.908  35.427  1.00  0.00     0.206 C 
BRANCH  22  23
HETATM   23  C8  UNL     1      22.746  19.058  34.423  1.00  0.00     0.037 A 
HETATM   24  C9  UNL     1      22.660  18.412  33.219  1.00  0.00     0.080 A 
HETATM   25  S1  UNL     1      24.122  18.871  32.466  1.00  0.00    -0.064 SA
HETATM   26  C10 UNL     1      24.749  19.848  33.716  1.00  0.00     0.142 A 
HETATM   27  N7  UNL     1      23.807  19.777  34.654  1.00  0.00    -0.338 N 
ATOM     28  H7  UNL     1      23.915  20.275  35.538  1.00  0.00     0.168 HD
BRANCH  26  29
HETATM   29  N6  UNL     1      25.884  20.514  33.754  1.00  0.00    -0.380 N 
ATOM     30  H62 UNL     1      26.400  20.830  34.575  1.00  0.00     0.158 HD
ATOM     31  H61 UNL     1      26.461  20.841  32.979  1.00  0.00     0.158 HD
ENDBRANCH  26  29
ENDBRANCH  22  23
ENDBRANCH   4  22
BRANCH   6  32
HETATM   32  N8  UNL     1      19.550  14.766  34.451  1.00  0.00    -0.382 N 
ATOM     33  H82 UNL     1      19.128  14.247  35.220  1.00  0.00     0.157 HD
ATOM     34  H81 UNL     1      20.000  14.222  33.714  1.00  0.00     0.157 HD
ENDBRANCH   6  32
TORSDOF 8
ENDMDL
MODEL 5
REMARK VINA RESULT: -7.178466444      1.516      1.908
REMARK  8 active torsions:
REMARK  status: ('A' for Active; 'I' for Inactive)
REMARK    1  A    between atoms: C2_3  and  C3_4 
REMARK    2  A    between atoms: N2_5  and  O1_7 
REMARK    3  A    between atoms: N3_11  and  C6_12 
REMARK    4  A    between atoms: N5_15  and  C7_16 
REMARK    5  A    between atoms: C7_16  and  C8_17 
REMARK    6  A    between atoms: C10_20  and  N6_21 
REMARK    7  A    between atoms: C12_27  and  N8_28 
REMARK    8  A    between atoms: N9_31  and  N10_32 
ROOT
HETATM    1  C6  UNL     1      18.333  17.936  34.406  1.00  0.00     0.740 A 
HETATM    2  N4  UNL     1      17.938  18.825  33.485  1.00  0.00    -0.126 N 
ATOM      3  H4  UNL     1      18.508  18.974  32.652  1.00  0.00     0.206 HD
HETATM    4  N5  UNL     1      16.813  19.518  33.640  1.00  0.00    -0.280 N 
HETATM    5  C11 UNL     1      16.028  19.357  34.722  1.00  0.00     0.161 A 
HETATM    6  C12 UNL     1      16.410  18.441  35.695  1.00  0.00     0.155 A 
HETATM    7  N9  UNL     1      17.550  17.772  35.488  1.00  0.00    -0.072 N 
ENDROOT
BRANCH   1   8
HETATM    8  N3  UNL     1      19.536  17.175  34.268  1.00  0.00    -0.092 N 
HETATM    9  N1  UNL     1      19.659  15.925  33.859  1.00  0.00    -0.275 N 
HETATM   10  C1  UNL     1      18.552  15.080  33.462  1.00  0.00     0.179 C 
HETATM   11  C2  UNL     1      20.944  15.521  33.849  1.00  0.00     0.070 A 
HETATM   12  C4  UNL     1      21.691  16.591  34.285  1.00  0.00     0.052 A 
HETATM   13  C5  UNL     1      20.791  17.600  34.537  1.00  0.00     0.138 A 
BRANCH  11  14
HETATM   14  C3  UNL     1      21.458  14.211  33.459  1.00  0.00     0.144 C 
HETATM   15  N2  UNL     1      20.963  13.112  33.916  1.00  0.00    -0.278 N 
ATOM     16  H2  UNL     1      20.184  13.160  34.573  1.00  0.00     0.193 HD
BRANCH  15  17
HETATM   17  O1  UNL     1      21.442  11.889  33.552  1.00  0.00    -0.290 OA
ATOM     18  H1  UNL     1      20.891  11.115  33.523  1.00  0.00     0.244 HD
ENDBRANCH  15  17
ENDBRANCH  11  14
ENDBRANCH   1   8
BRANCH   7  19
HETATM   19  N10 UNL     1      17.982  16.833  36.444  1.00  0.00    -0.322 N 
ATOM     20 2H10 UNL     1      18.049  15.849  36.184  1.00  0.00     0.178 HD
ATOM     21 1H10 UNL     1      18.213  17.196  37.368  1.00  0.00     0.178 HD
ENDBRANCH   7  19
BRANCH   4  22
HETATM   22  C7  UNL     1      16.402  20.473  32.636  1.00  0.00     0.206 C 
BRANCH  22  23
HETATM   23  C8  UNL     1      14.926  20.301  32.315  1.00  0.00     0.037 A 
HETATM   24  C9  UNL     1      14.544  19.321  31.438  1.00  0.00     0.080 A 
HETATM   25  S1  UNL     1      12.849  19.519  31.402  1.00  0.00    -0.064 SA
HETATM   26  C10 UNL     1      12.728  20.825  32.492  1.00  0.00     0.142 A 
HETATM   27  N7  UNL     1      13.995  21.049  32.835  1.00  0.00    -0.338 N 
ATOM     28  H7  UNL     1      14.232  21.792  33.492  1.00  0.00     0.168 HD
BRANCH  26  29
HETATM   29  N6  UNL     1      11.652  21.463  32.903  1.00  0.00    -0.380 N 
ATOM     30  H62 UNL     1      11.027  22.056  32.357  1.00  0.00     0.158 HD
ATOM     31  H61 UNL     1      11.239  21.488  33.835  1.00  0.00     0.158 HD
ENDBRANCH  26  29
ENDBRANCH  22  23
ENDBRANCH   4  22
BRANCH   6  32
HETATM   32  N8  UNL     1      15.667  18.265  36.753  1.00  0.00    -0.382 N 
ATOM     33  H82 UNL     1      14.758  18.710  36.871  1.00  0.00     0.157 HD
ATOM     34  H81 UNL     1      15.990  17.659  37.508  1.00  0.00     0.157 HD
ENDBRANCH   6  32
TORSDOF 8
ENDMDL
