MODEL 1
REMARK VINA RESULT: -8.979245031      0.000      0.000
REMARK  7 active torsions:
REMARK  status: ('A' for Active; 'I' for Inactive)
REMARK    1  A    between atoms: N1_3  and  O1_4 
REMARK    2  A    between atoms: N1_3  and  C3_6 
REMARK    3  A    between atoms: C3_6  and  C6_16 
REMARK       I    between atoms: N2_7  and  C4_9 
REMARK       I    between atoms: C4_9  and  N3_11 
REMARK       I    between atoms: N3_11  and  C5_13 
REMARK    4  A    between atoms: C6_16  and  O5_17 
REMARK    5  A    between atoms: C6_16  and  C7_19 
REMARK    6  A    between atoms: C7_19  and  C8_21 
REMARK    7  A    between atoms: C10_26  and  C11_27 
ROOT
HETATM    1  C6  UNL     1      17.149  20.219  33.993  1.00  0.00     0.259 C 
ENDROOT
BRANCH   1   2
HETATM    2  C3  UNL     1      18.338  19.574  33.388  1.00  0.00     0.149 C 
HETATM    3  N2  UNL     1      18.231  18.670  32.496  1.00  0.00    -0.293 N 
HETATM    4  C4  UNL     1      19.278  17.987  31.845  1.00  0.00     0.330 C 
ATOM      5  H2  UNL     1      17.282  18.414  32.222  1.00  0.00     0.172 HD
HETATM    6  O2  UNL     1      19.697  18.416  30.718  1.00  0.00    -0.246 OA
HETATM    7  N3  UNL     1      19.881  16.825  32.415  1.00  0.00    -0.253 N 
HETATM    8  C5  UNL     1      20.927  16.162  31.740  1.00  0.00     0.291 C 
ATOM      9  H3  UNL     1      19.555  16.473  33.315  1.00  0.00     0.176 HD
HETATM   10  O3  UNL     1      21.334  16.591  30.631  1.00  0.00    -0.629 OA
HETATM   11  O4  UNL     1      21.508  15.035  32.299  1.00  0.00    -0.629 OA
BRANCH   2  12
HETATM   12  N1  UNL     1      19.622  19.987  33.821  1.00  0.00    -0.225 N 
HETATM   13  C2  UNL     1      20.179  19.448  34.880  1.00  0.00     0.093 C 
HETATM   14  C1  UNL     1      21.508  19.884  35.322  1.00  0.00     0.057 C 
BRANCH  12  15
HETATM   15  O1  UNL     1      20.297  20.954  33.142  1.00  0.00    -0.282 OA
ATOM     16  H1  UNL     1      19.909  21.320  32.357  1.00  0.00     0.245 HD
ENDBRANCH  12  15
ENDBRANCH   2  12
ENDBRANCH   1   2
BRANCH   1  17
HETATM   17  O5  UNL     1      17.166  21.541  33.540  1.00  0.00    -0.380 OA
ATOM     18  H5  UNL     1      16.645  22.032  34.165  1.00  0.00     0.211 HD
ENDBRANCH   1  17
BRANCH   1  19
HETATM   19  C7  UNL     1      15.868  19.609  33.660  1.00  0.00     0.195 C 
HETATM   20  O6  UNL     1      15.425  18.705  34.365  1.00  0.00    -0.292 OA
BRANCH  19  21
HETATM   21  C8  UNL     1      15.066  20.018  32.512  1.00  0.00     0.286 C 
HETATM   22  C9  UNL     1      15.047  19.014  31.388  1.00  0.00     0.276 C 
HETATM   23  N4  UNL     1      13.747  19.147  30.757  1.00  0.00    -0.034 N 
HETATM   24  C10 UNL     1      13.053  20.169  31.514  1.00  0.00     0.482 C 
ATOM     25  H42 UNL     1      13.794  19.339  29.757  1.00  0.00     0.280 HD
ATOM     26  H41 UNL     1      13.233  18.269  30.687  1.00  0.00     0.280 HD
HETATM   27  N5  UNL     1      13.632  20.093  32.837  1.00  0.00    -0.023 N 
ATOM     28  H52 UNL     1      13.276  19.341  33.428  1.00  0.00     0.281 HD
ATOM     29  H51 UNL     1      13.366  20.842  33.476  1.00  0.00     0.281 HD
BRANCH  24  30
HETATM   30  C11 UNL     1      11.613  19.899  31.487  1.00  0.00     0.233 C 
HETATM   31  O7  UNL     1      11.167  18.759  31.681  1.00  0.00    -0.645 OA
HETATM   32  O8  UNL     1      10.759  20.983  31.229  1.00  0.00    -0.645 OA
ENDBRANCH  24  30
ENDBRANCH  19  21
ENDBRANCH   1  19
TORSDOF 7
ENDMDL
MODEL 2
REMARK VINA RESULT: -8.955180298      2.159      3.069
REMARK  7 active torsions:
REMARK  status: ('A' for Active; 'I' for Inactive)
REMARK    1  A    between atoms: N1_3  and  O1_4 
REMARK    2  A    between atoms: N1_3  and  C3_6 
REMARK    3  A    between atoms: C3_6  and  C6_16 
REMARK       I    between atoms: N2_7  and  C4_9 
REMARK       I    between atoms: C4_9  and  N3_11 
REMARK       I    between atoms: N3_11  and  C5_13 
REMARK    4  A    between atoms: C6_16  and  O5_17 
REMARK    5  A    between atoms: C6_16  and  C7_19 
REMARK    6  A    between atoms: C7_19  and  C8_21 
REMARK    7  A    between atoms: C10_26  and  C11_27 
ROOT
HETATM    1  C6  UNL     1      16.834  19.256  34.039  1.00  0.00     0.259 C 
ENDROOT
BRANCH   1   2
HETATM    2  C3  UNL     1      18.235  19.081  34.488  1.00  0.00     0.149 C 
HETATM    3  N2  UNL     1      19.151  19.907  34.168  1.00  0.00    -0.293 N 
HETATM    4  C4  UNL     1      20.512  19.853  34.532  1.00  0.00     0.330 C 
ATOM      5  H2  UNL     1      18.868  20.694  33.585  1.00  0.00     0.172 HD
HETATM    6  O2  UNL     1      20.909  20.503  35.558  1.00  0.00    -0.246 OA
HETATM    7  N3  UNL     1      21.458  19.090  33.782  1.00  0.00    -0.253 N 
HETATM    8  C5  UNL     1      22.813  19.056  34.171  1.00  0.00     0.291 C 
ATOM      9  H3  UNL     1      21.152  18.567  32.961  1.00  0.00     0.176 HD
HETATM   10  O3  UNL     1      23.196  19.697  35.182  1.00  0.00    -0.629 OA
HETATM   11  O4  UNL     1      23.725  18.314  33.439  1.00  0.00    -0.629 OA
BRANCH   2  12
HETATM   12  N1  UNL     1      18.547  17.961  35.297  1.00  0.00    -0.225 N 
HETATM   13  C2  UNL     1      18.883  16.814  34.757  1.00  0.00     0.093 C 
HETATM   14  C1  UNL     1      19.203  15.660  35.603  1.00  0.00     0.057 C 
BRANCH  12  15
HETATM   15  O1  UNL     1      18.502  18.061  36.654  1.00  0.00    -0.282 OA
ATOM     16  H1  UNL     1      17.775  18.521  37.056  1.00  0.00     0.245 HD
ENDBRANCH  12  15
ENDBRANCH   2  12
ENDBRANCH   1   2
BRANCH   1  17
HETATM   17  O5  UNL     1      16.064  19.277  35.204  1.00  0.00    -0.380 OA
ATOM     18  H5  UNL     1      16.404  18.577  35.748  1.00  0.00     0.211 HD
ENDBRANCH   1  17
BRANCH   1  19
HETATM   19  C7  UNL     1      16.571  20.462  33.263  1.00  0.00     0.195 C 
HETATM   20  O6  UNL     1      17.228  21.478  33.480  1.00  0.00    -0.292 OA
BRANCH  19  21
HETATM   21  C8  UNL     1      15.552  20.533  32.222  1.00  0.00     0.286 C 
HETATM   22  C9  UNL     1      15.377  19.253  31.446  1.00  0.00     0.276 C 
HETATM   23  N4  UNL     1      13.978  19.207  31.063  1.00  0.00    -0.034 N 
HETATM   24  C10 UNL     1      13.384  20.403  31.625  1.00  0.00     0.482 C 
ATOM     25  H42 UNL     1      13.830  19.109  30.059  1.00  0.00     0.280 HD
ATOM     26  H41 UNL     1      13.506  18.346  31.339  1.00  0.00     0.280 HD
HETATM   27  N5  UNL     1      14.200  20.701  32.781  1.00  0.00    -0.023 N 
ATOM     28  H52 UNL     1      13.998  20.147  33.614  1.00  0.00     0.281 HD
ATOM     29  H51 UNL     1      14.018  21.601  33.226  1.00  0.00     0.281 HD
BRANCH  24  30
HETATM   30  C11 UNL     1      11.980  20.140  31.950  1.00  0.00     0.233 C 
HETATM   31  O7  UNL     1      11.235  21.038  32.368  1.00  0.00    -0.645 OA
HETATM   32  O8  UNL     1      11.512  18.828  31.769  1.00  0.00    -0.645 OA
ENDBRANCH  24  30
ENDBRANCH  19  21
ENDBRANCH   1  19
TORSDOF 7
ENDMDL
MODEL 3
REMARK VINA RESULT: -8.943532902      1.663      2.265
REMARK  7 active torsions:
REMARK  status: ('A' for Active; 'I' for Inactive)
REMARK    1  A    between atoms: N1_3  and  O1_4 
REMARK    2  A    between atoms: N1_3  and  C3_6 
REMARK    3  A    between atoms: C3_6  and  C6_16 
REMARK       I    between atoms: N2_7  and  C4_9 
REMARK       I    between atoms: C4_9  and  N3_11 
REMARK       I    between atoms: N3_11  and  C5_13 
REMARK    4  A    between atoms: C6_16  and  O5_17 
REMARK    5  A    between atoms: C6_16  and  C7_19 
REMARK    6  A    between atoms: C7_19  and  C8_21 
REMARK    7  A    between atoms: C10_26  and  C11_27 
ROOT
HETATM    1  C6  UNL     1      15.978  19.180  33.492  1.00  0.00     0.259 C 
ENDROOT
BRANCH   1   2
HETATM    2  C3  UNL     1      17.322  18.608  33.247  1.00  0.00     0.149 C 
HETATM    3  N2  UNL     1      18.011  18.926  32.223  1.00  0.00    -0.293 N 
HETATM    4  C4  UNL     1      19.296  18.457  31.880  1.00  0.00     0.330 C 
ATOM      5  H2  UNL     1      17.586  19.593  31.580  1.00  0.00     0.172 HD
HETATM    6  O2  UNL     1      20.320  19.139  32.221  1.00  0.00    -0.246 OA
HETATM    7  N3  UNL     1      19.480  17.237  31.160  1.00  0.00    -0.253 N 
HETATM    8  C5  UNL     1      20.777  16.793  30.832  1.00  0.00     0.291 C 
ATOM      9  H3  UNL     1      18.669  16.683  30.883  1.00  0.00     0.176 HD
HETATM   10  O3  UNL     1      21.781  17.470  31.172  1.00  0.00    -0.629 OA
HETATM   11  O4  UNL     1      20.949  15.609  30.134  1.00  0.00    -0.629 OA
BRANCH   2  12
HETATM   12  N1  UNL     1      17.844  17.687  34.188  1.00  0.00    -0.225 N 
HETATM   13  C2  UNL     1      17.590  16.403  34.084  1.00  0.00     0.093 C 
HETATM   14  C1  UNL     1      18.133  15.458  35.065  1.00  0.00     0.057 C 
BRANCH  12  15
HETATM   15  O1  UNL     1      18.619  18.122  35.219  1.00  0.00    -0.282 OA
ATOM     16  H1  UNL     1      18.728  19.057  35.348  1.00  0.00     0.245 HD
ENDBRANCH  12  15
ENDBRANCH   2  12
ENDBRANCH   1   2
BRANCH   1  17
HETATM   17  O5  UNL     1      15.943  19.491  34.854  1.00  0.00    -0.380 OA
ATOM     18  H5  UNL     1      16.494  20.259  34.955  1.00  0.00     0.211 HD
ENDBRANCH   1  17
BRANCH   1  19
HETATM   19  C7  UNL     1      15.653  20.369  32.715  1.00  0.00     0.195 C 
HETATM   20  O6  UNL     1      16.335  21.383  32.844  1.00  0.00    -0.292 OA
BRANCH  19  21
HETATM   21  C8  UNL     1      14.538  20.426  31.775  1.00  0.00     0.286 C 
HETATM   22  C9  UNL     1      14.371  19.178  30.947  1.00  0.00     0.276 C 
HETATM   23  N4  UNL     1      12.947  19.060  30.688  1.00  0.00    -0.034 N 
HETATM   24  C10 UNL     1      12.337  20.186  31.367  1.00  0.00     0.482 C 
ATOM     25  H42 UNL     1      12.713  19.004  29.697  1.00  0.00     0.280 HD
ATOM     26  H41 UNL     1      12.555  18.158  30.957  1.00  0.00     0.280 HD
HETATM   27  N5  UNL     1      13.237  20.477  32.461  1.00  0.00    -0.023 N 
ATOM     28  H52 UNL     1      13.147  19.870  33.276  1.00  0.00     0.281 HD
ATOM     29  H51 UNL     1      13.043  21.340  32.970  1.00  0.00     0.281 HD
BRANCH  24  30
HETATM   30  C11 UNL     1      10.987  19.816  31.800  1.00  0.00     0.233 C 
HETATM   31  O7  UNL     1      10.301  20.578  32.496  1.00  0.00    -0.645 OA
HETATM   32  O8  UNL     1      10.502  18.561  31.396  1.00  0.00    -0.645 OA
ENDBRANCH  24  30
ENDBRANCH  19  21
ENDBRANCH   1  19
TORSDOF 7
ENDMDL
MODEL 4
REMARK VINA RESULT: -8.853511210      1.437      1.851
REMARK  7 active torsions:
REMARK  status: ('A' for Active; 'I' for Inactive)
REMARK    1  A    between atoms: N1_3  and  O1_4 
REMARK    2  A    between atoms: N1_3  and  C3_6 
REMARK    3  A    between atoms: C3_6  and  C6_16 
REMARK       I    between atoms: N2_7  and  C4_9 
REMARK       I    between atoms: C4_9  and  N3_11 
REMARK       I    between atoms: N3_11  and  C5_13 
REMARK    4  A    between atoms: C6_16  and  O5_17 
REMARK    5  A    between atoms: C6_16  and  C7_19 
REMARK    6  A    between atoms: C7_19  and  C8_21 
REMARK    7  A    between atoms: C10_26  and  C11_27 
ROOT
HETATM    1  C6  UNL     1      16.808  19.100  34.084  1.00  0.00     0.259 C 
ENDROOT
BRANCH   1   2
HETATM    2  C3  UNL     1      18.152  18.481  34.008  1.00  0.00     0.149 C 
HETATM    3  N2  UNL     1      18.466  17.668  33.078  1.00  0.00    -0.293 N 
HETATM    4  C4  UNL     1      19.704  17.019  32.895  1.00  0.00     0.330 C 
ATOM      5  H2  UNL     1      17.740  17.464  32.391  1.00  0.00     0.172 HD
HETATM    6  O2  UNL     1      20.571  17.540  32.116  1.00  0.00    -0.246 OA
HETATM    7  N3  UNL     1      20.012  15.793  33.559  1.00  0.00    -0.253 N 
HETATM    8  C5  UNL     1      21.259  15.167  33.356  1.00  0.00     0.291 C 
ATOM      9  H3  UNL     1      19.327  15.368  34.184  1.00  0.00     0.176 HD
HETATM   10  O3  UNL     1      22.108  15.687  32.588  1.00  0.00    -0.629 OA
HETATM   11  O4  UNL     1      21.551  13.978  34.003  1.00  0.00    -0.629 OA
BRANCH   2  12
HETATM   12  N1  UNL     1      19.105  18.816  35.002  1.00  0.00    -0.225 N 
HETATM   13  C2  UNL     1      20.022  19.727  34.773  1.00  0.00     0.093 C 
HETATM   14  C1  UNL     1      21.005  20.066  35.807  1.00  0.00     0.057 C 
BRANCH  12  15
HETATM   15  O1  UNL     1      19.082  18.194  36.212  1.00  0.00    -0.282 OA
ATOM     16  H1  UNL     1      18.309  18.278  36.757  1.00  0.00     0.245 HD
ENDBRANCH  12  15
ENDBRANCH   2  12
ENDBRANCH   1   2
BRANCH   1  17
HETATM   17  O5  UNL     1      16.601  19.387  35.436  1.00  0.00    -0.380 OA
ATOM     18  H5  UNL     1      15.984  18.733  35.745  1.00  0.00     0.211 HD
ENDBRANCH   1  17
BRANCH   1  19
HETATM   19  C7  UNL     1      16.633  20.315  33.299  1.00  0.00     0.195 C 
HETATM   20  O6  UNL     1      17.360  21.283  33.508  1.00  0.00    -0.292 OA
BRANCH  19  21
HETATM   21  C8  UNL     1      15.620  20.450  32.257  1.00  0.00     0.286 C 
HETATM   22  C9  UNL     1      15.420  19.206  31.430  1.00  0.00     0.276 C 
HETATM   23  N4  UNL     1      14.022  19.208  31.040  1.00  0.00    -0.034 N 
HETATM   24  C10 UNL     1      13.454  20.395  31.646  1.00  0.00     0.482 C 
ATOM     25  H42 UNL     1      13.878  19.153  30.032  1.00  0.00     0.280 HD
ATOM     26  H41 UNL     1      13.529  18.348  31.280  1.00  0.00     0.280 HD
HETATM   27  N5  UNL     1      14.270  20.628  32.816  1.00  0.00    -0.023 N 
ATOM     28  H52 UNL     1      14.051  20.047  33.626  1.00  0.00     0.281 HD
ATOM     29  H51 UNL     1      14.107  21.514  33.295  1.00  0.00     0.281 HD
BRANCH  24  30
HETATM   30  C11 UNL     1      12.042  20.153  31.953  1.00  0.00     0.233 C 
HETATM   31  O7  UNL     1      11.296  21.070  32.325  1.00  0.00    -0.645 OA
HETATM   32  O8  UNL     1      11.568  18.839  31.811  1.00  0.00    -0.645 OA
ENDBRANCH  24  30
ENDBRANCH  19  21
ENDBRANCH   1  19
TORSDOF 7
ENDMDL
MODEL 5
REMARK VINA RESULT: -8.805818827      1.783      3.115
REMARK  7 active torsions:
REMARK  status: ('A' for Active; 'I' for Inactive)
REMARK    1  A    between atoms: N1_3  and  O1_4 
REMARK    2  A    between atoms: N1_3  and  C3_6 
REMARK    3  A    between atoms: C3_6  and  C6_16 
REMARK       I    between atoms: N2_7  and  C4_9 
REMARK       I    between atoms: C4_9  and  N3_11 
REMARK       I    between atoms: N3_11  and  C5_13 
REMARK    4  A    between atoms: C6_16  and  O5_17 
REMARK    5  A    between atoms: C6_16  and  C7_19 
REMARK    6  A    between atoms: C7_19  and  C8_21 
REMARK    7  A    between atoms: C10_26  and  C11_27 
ROOT
HETATM    1  C6  UNL     1      16.979  19.232  33.907  1.00  0.00     0.259 C 
ENDROOT
BRANCH   1   2
HETATM    2  C3  UNL     1      18.406  18.836  33.858  1.00  0.00     0.149 C 
HETATM    3  N2  UNL     1      19.277  19.364  34.624  1.00  0.00    -0.293 N 
HETATM    4  C4  UNL     1      20.656  19.073  34.675  1.00  0.00     0.330 C 
ATOM      5  H2  UNL     1      18.939  20.076  35.271  1.00  0.00     0.172 HD
HETATM    6  O2  UNL     1      21.082  18.222  35.526  1.00  0.00    -0.246 OA
HETATM    7  N3  UNL     1      21.588  19.709  33.799  1.00  0.00    -0.253 N 
HETATM    8  C5  UNL     1      22.961  19.398  33.875  1.00  0.00     0.291 C 
ATOM      9  H3  UNL     1      21.259  20.390  33.115  1.00  0.00     0.176 HD
HETATM   10  O3  UNL     1      23.373  18.557  34.715  1.00  0.00    -0.629 OA
HETATM   11  O4  UNL     1      23.860  20.017  33.022  1.00  0.00    -0.629 OA
BRANCH   2  12
HETATM   12  N1  UNL     1      18.797  17.838  32.931  1.00  0.00    -0.225 N 
HETATM   13  C2  UNL     1      18.505  16.576  33.140  1.00  0.00     0.093 C 
HETATM   14  C1  UNL     1      18.915  15.550  32.176  1.00  0.00     0.057 C 
BRANCH  12  15
HETATM   15  O1  UNL     1      19.484  18.177  31.806  1.00  0.00    -0.282 OA
ATOM     16  H1  UNL     1      20.116  18.883  31.850  1.00  0.00     0.245 HD
ENDBRANCH  12  15
ENDBRANCH   2  12
ENDBRANCH   1   2
BRANCH   1  17
HETATM   17  O5  UNL     1      16.679  19.390  35.262  1.00  0.00    -0.380 OA
ATOM     18  H5  UNL     1      15.744  19.236  35.337  1.00  0.00     0.211 HD
ENDBRANCH   1  17
BRANCH   1  19
HETATM   19  C7  UNL     1      16.644  20.455  33.190  1.00  0.00     0.195 C 
HETATM   20  O6  UNL     1      17.251  21.493  33.444  1.00  0.00    -0.292 OA
BRANCH  19  21
HETATM   21  C8  UNL     1      15.606  20.519  32.167  1.00  0.00     0.286 C 
HETATM   22  C9  UNL     1      15.396  19.225  31.423  1.00  0.00     0.276 C 
HETATM   23  N4  UNL     1      13.989  19.194  31.068  1.00  0.00    -0.034 N 
HETATM   24  C10 UNL     1      13.426  20.412  31.614  1.00  0.00     0.482 C 
ATOM     25  H42 UNL     1      13.821  19.076  30.069  1.00  0.00     0.280 HD
ATOM     26  H41 UNL     1      13.509  18.347  31.372  1.00  0.00     0.280 HD
HETATM   27  N5  UNL     1      14.268  20.722  32.748  1.00  0.00    -0.023 N 
ATOM     28  H52 UNL     1      14.074  20.190  33.597  1.00  0.00     0.281 HD
ATOM     29  H51 UNL     1      14.109  21.634  33.176  1.00  0.00     0.281 HD
BRANCH  24  30
HETATM   30  C11 UNL     1      12.024  20.179  31.971  1.00  0.00     0.233 C 
HETATM   31  O7  UNL     1      11.306  21.095  32.397  1.00  0.00    -0.645 OA
HETATM   32  O8  UNL     1      11.527  18.875  31.811  1.00  0.00    -0.645 OA
ENDBRANCH  24  30
ENDBRANCH  19  21
ENDBRANCH   1  19
TORSDOF 7
ENDMDL
