MODEL 1
REMARK VINA RESULT: -9.025577910      0.000      0.000
REMARK  5 active torsions:
REMARK  status: ('A' for Active; 'I' for Inactive)
REMARK    1  A    between atoms: C1_2  and  C2_4 
REMARK       I    between atoms: C2_4  and  N2_6 
REMARK    2  A    between atoms: N2_6  and  C3_8 
REMARK    3  A    between atoms: N4_11  and  N5_12 
REMARK       I    between atoms: N5_12  and  C5_14 
REMARK    4  A    between atoms: C5_14  and  C6_16 
REMARK    5  A    between atoms: N6_24  and  N7_25 
ROOT
HETATM    1  C3  UNL     1      18.571  19.670  34.325  1.00  0.00     0.149 A 
HETATM    2  C4  UNL     1      17.373  19.978  33.646  1.00  0.00     0.175 A 
HETATM    3  N3  UNL     1      17.531  20.930  32.607  1.00  0.00    -0.078 NA
HETATM    4  N4  UNL     1      16.205  19.409  33.945  1.00  0.00    -0.184 N 
HETATM    5  C12 UNL     1      16.272  18.488  34.979  1.00  0.00     0.371 A 
HETATM    6  O4  UNL     1      15.184  17.905  35.314  1.00  0.00    -0.242 OA
HETATM    7  N6  UNL     1      17.372  18.165  35.643  1.00  0.00    -0.171 N 
HETATM    8  C13 UNL     1      18.522  18.754  35.320  1.00  0.00     0.300 A 
HETATM    9  O5  UNL     1      19.567  18.456  35.943  1.00  0.00    -0.263 OA
ENDROOT
BRANCH   4  10
HETATM   10  N5  UNL     1      14.972  19.648  33.376  1.00  0.00    -0.254 N 
HETATM   11  C5  UNL     1      14.415  19.667  32.120  1.00  0.00     0.270 C 
HETATM   12  O3  UNL     1      14.976  19.439  31.045  1.00  0.00    -0.266 OA
ATOM     13  H5  UNL     1      14.279  19.876  34.089  1.00  0.00     0.191 HD
BRANCH  11  14
HETATM   14  C6  UNL     1      12.951  19.992  31.947  1.00  0.00     0.033 A 
HETATM   15  C7  UNL     1      12.353  20.961  32.711  1.00  0.00     0.017 A 
HETATM   16  C8  UNL     1      10.986  21.241  32.545  1.00  0.00     0.001 A 
HETATM   17  C9  UNL     1      10.242  20.542  31.613  1.00  0.00     0.000 A 
HETATM   18  C10 UNL     1      10.844  19.568  30.846  1.00  0.00     0.001 A 
HETATM   19  C11 UNL     1      12.187  19.316  31.032  1.00  0.00     0.017 A 
ENDBRANCH  11  14
ENDBRANCH   4  10
BRANCH   1  20
HETATM   20  N2  UNL     1      19.750  20.331  33.927  1.00  0.00    -0.312 N 
HETATM   21  C2  UNL     1      20.648  19.837  32.962  1.00  0.00     0.311 C 
HETATM   22  O2  UNL     1      20.415  18.749  32.403  1.00  0.00    -0.262 OA
ATOM     23  H2  UNL     1      19.967  21.225  34.367  1.00  0.00     0.169 HD
BRANCH  21  24
HETATM   24  C1  UNL     1      21.833  20.588  32.621  1.00  0.00     0.322 C 
HETATM   25  N1  UNL     1      23.124  20.054  32.889  1.00  0.00    -0.053 NA
HETATM   26  O1  UNL     1      21.803  21.728  32.081  1.00  0.00    -0.266 OA
ENDBRANCH  21  24
ENDBRANCH   1  20
BRANCH   7  27
HETATM   27  N7  UNL     1      17.333  17.201  36.694  1.00  0.00    -0.331 N 
ATOM     28  H72 UNL     1      16.437  16.890  37.070  1.00  0.00     0.177 HD
ATOM     29  H71 UNL     1      18.195  16.813  37.080  1.00  0.00     0.177 HD
ENDBRANCH   7  27
TORSDOF 5
ENDMDL
MODEL 2
REMARK VINA RESULT: -8.809345079      2.116      7.735
REMARK  5 active torsions:
REMARK  status: ('A' for Active; 'I' for Inactive)
REMARK    1  A    between atoms: C1_2  and  C2_4 
REMARK       I    between atoms: C2_4  and  N2_6 
REMARK    2  A    between atoms: N2_6  and  C3_8 
REMARK    3  A    between atoms: N4_11  and  N5_12 
REMARK       I    between atoms: N5_12  and  C5_14 
REMARK    4  A    between atoms: C5_14  and  C6_16 
REMARK    5  A    between atoms: N6_24  and  N7_25 
ROOT
HETATM    1  C3  UNL     1      17.235  19.552  34.096  1.00  0.00     0.149 A 
HETATM    2  C4  UNL     1      18.544  19.653  33.581  1.00  0.00     0.175 A 
HETATM    3  N3  UNL     1      18.690  20.638  32.572  1.00  0.00    -0.078 NA
HETATM    4  N4  UNL     1      19.555  18.902  34.020  1.00  0.00    -0.184 N 
HETATM    5  C12 UNL     1      19.205  18.016  35.027  1.00  0.00     0.371 A 
HETATM    6  O4  UNL     1      20.129  17.265  35.494  1.00  0.00    -0.242 OA
HETATM    7  N6  UNL     1      17.991  17.886  35.542  1.00  0.00    -0.171 N 
HETATM    8  C13 UNL     1      17.004  18.652  35.079  1.00  0.00     0.300 A 
HETATM    9  O5  UNL     1      15.853  18.537  35.559  1.00  0.00    -0.263 OA
ENDROOT
BRANCH   4  10
HETATM   10  N5  UNL     1      20.860  18.890  33.578  1.00  0.00    -0.254 N 
HETATM   11  C5  UNL     1      21.541  18.625  32.414  1.00  0.00     0.270 C 
HETATM   12  O3  UNL     1      21.067  18.283  31.328  1.00  0.00    -0.266 OA
ATOM     13  H5  UNL     1      21.502  19.152  34.327  1.00  0.00     0.191 HD
BRANCH  11  14
HETATM   14  C6  UNL     1      23.045  18.746  32.373  1.00  0.00     0.033 A 
HETATM   15  C7  UNL     1      23.661  19.936  32.661  1.00  0.00     0.017 A 
HETATM   16  C8  UNL     1      25.061  20.033  32.605  1.00  0.00     0.001 A 
HETATM   17  C9  UNL     1      25.820  18.931  32.260  1.00  0.00     0.000 A 
HETATM   18  C10 UNL     1      25.200  17.735  31.971  1.00  0.00     0.001 A 
HETATM   19  C11 UNL     1      23.824  17.671  32.034  1.00  0.00     0.017 A 
ENDBRANCH  11  14
ENDBRANCH   4  10
BRANCH   1  20
HETATM   20  N2  UNL     1      16.242  20.395  33.558  1.00  0.00    -0.312 N 
HETATM   21  C2  UNL     1      15.373  20.028  32.514  1.00  0.00     0.311 C 
HETATM   22  O2  UNL     1      15.458  18.893  32.009  1.00  0.00    -0.262 OA
ATOM     23  H2  UNL     1      16.146  21.331  33.952  1.00  0.00     0.169 HD
BRANCH  21  24
HETATM   24  C1  UNL     1      14.384  20.963  32.029  1.00  0.00     0.322 C 
HETATM   25  N1  UNL     1      13.378  20.536  31.119  1.00  0.00    -0.053 NA
HETATM   26  O1  UNL     1      14.350  22.178  32.367  1.00  0.00    -0.266 OA
ENDBRANCH  21  24
ENDBRANCH   1  20
BRANCH   7  27
HETATM   27  N7  UNL     1      17.735  16.941  36.580  1.00  0.00    -0.331 N 
ATOM     28  H72 UNL     1      17.597  17.261  37.539  1.00  0.00     0.177 HD
ATOM     29  H71 UNL     1      17.689  15.942  36.378  1.00  0.00     0.177 HD
ENDBRANCH   7  27
TORSDOF 5
ENDMDL
MODEL 3
REMARK VINA RESULT: -8.558635809      1.059      1.059
REMARK  5 active torsions:
REMARK  status: ('A' for Active; 'I' for Inactive)
REMARK    1  A    between atoms: C1_2  and  C2_4 
REMARK       I    between atoms: C2_4  and  N2_6 
REMARK    2  A    between atoms: N2_6  and  C3_8 
REMARK    3  A    between atoms: N4_11  and  N5_12 
REMARK       I    between atoms: N5_12  and  C5_14 
REMARK    4  A    between atoms: C5_14  and  C6_16 
REMARK    5  A    between atoms: N6_24  and  N7_25 
ROOT
HETATM    1  C3  UNL     1      18.758  18.603  33.701  1.00  0.00     0.149 A 
HETATM    2  C4  UNL     1      17.557  19.040  33.103  1.00  0.00     0.175 A 
HETATM    3  N3  UNL     1      17.745  19.737  31.883  1.00  0.00    -0.078 NA
HETATM    4  N4  UNL     1      16.357  18.800  33.631  1.00  0.00    -0.184 N 
HETATM    5  C12 UNL     1      16.392  18.083  34.817  1.00  0.00     0.371 A 
HETATM    6  O4  UNL     1      15.273  17.819  35.375  1.00  0.00    -0.242 OA
HETATM    7  N6  UNL     1      17.494  17.651  35.414  1.00  0.00    -0.171 N 
HETATM    8  C13 UNL     1      18.677  17.909  34.861  1.00  0.00     0.300 A 
HETATM    9  O5  UNL     1      19.723  17.506  35.418  1.00  0.00    -0.263 OA
ENDROOT
BRANCH   4  10
HETATM   10  N5  UNL     1      15.125  19.198  33.157  1.00  0.00    -0.254 N 
HETATM   11  C5  UNL     1      14.558  20.325  32.612  1.00  0.00     0.270 C 
HETATM   12  O3  UNL     1      15.103  21.407  32.385  1.00  0.00    -0.266 OA
ATOM     13  H5  UNL     1      14.442  18.444  33.234  1.00  0.00     0.191 HD
BRANCH  11  14
HETATM   14  C6  UNL     1      13.101  20.321  32.212  1.00  0.00     0.033 A 
HETATM   15  C7  UNL     1      12.209  21.175  32.807  1.00  0.00     0.017 A 
HETATM   16  C8  UNL     1      10.855  21.148  32.432  1.00  0.00     0.001 A 
HETATM   17  C9  UNL     1      10.421  20.262  31.464  1.00  0.00     0.000 A 
HETATM   18  C10 UNL     1      11.318  19.404  30.867  1.00  0.00     0.001 A 
HETATM   19  C11 UNL     1      12.641  19.455  31.256  1.00  0.00     0.017 A 
ENDBRANCH  11  14
ENDBRANCH   4  10
BRANCH   1  20
HETATM   20  N2  UNL     1      19.973  18.911  33.058  1.00  0.00    -0.312 N 
HETATM   21  C2  UNL     1      20.834  19.954  33.449  1.00  0.00     0.311 C 
HETATM   22  O2  UNL     1      20.534  20.669  34.424  1.00  0.00    -0.262 OA
ATOM     23  H2  UNL     1      20.246  18.342  32.257  1.00  0.00     0.169 HD
BRANCH  21  24
HETATM   24  C1  UNL     1      22.060  20.194  32.726  1.00  0.00     0.322 C 
HETATM   25  N1  UNL     1      23.078  19.200  32.689  1.00  0.00    -0.053 NA
HETATM   26  O1  UNL     1      22.303  21.263  32.102  1.00  0.00    -0.266 OA
ENDBRANCH  21  24
ENDBRANCH   1  20
BRANCH   7  27
HETATM   27  N7  UNL     1      17.421  16.918  36.637  1.00  0.00    -0.331 N 
ATOM     28  H72 UNL     1      16.548  16.466  36.910  1.00  0.00     0.177 HD
ATOM     29  H71 UNL     1      18.235  16.838  37.247  1.00  0.00     0.177 HD
ENDBRANCH   7  27
TORSDOF 5
ENDMDL
MODEL 4
REMARK VINA RESULT: -8.362463808      2.529      8.000
REMARK  5 active torsions:
REMARK  status: ('A' for Active; 'I' for Inactive)
REMARK    1  A    between atoms: C1_2  and  C2_4 
REMARK       I    between atoms: C2_4  and  N2_6 
REMARK    2  A    between atoms: N2_6  and  C3_8 
REMARK    3  A    between atoms: N4_11  and  N5_12 
REMARK       I    between atoms: N5_12  and  C5_14 
REMARK    4  A    between atoms: C5_14  and  C6_16 
REMARK    5  A    between atoms: N6_24  and  N7_25 
ROOT
HETATM    1  C3  UNL     1      17.481  18.098  33.315  1.00  0.00     0.149 A 
HETATM    2  C4  UNL     1      18.792  18.360  32.864  1.00  0.00     0.175 A 
HETATM    3  N3  UNL     1      18.848  18.956  31.579  1.00  0.00    -0.078 NA
HETATM    4  N4  UNL     1      19.876  18.088  33.592  1.00  0.00    -0.184 N 
HETATM    5  C12 UNL     1      19.601  17.527  34.829  1.00  0.00     0.371 A 
HETATM    6  O4  UNL     1      20.598  17.243  35.578  1.00  0.00    -0.242 OA
HETATM    7  N6  UNL     1      18.388  17.265  35.296  1.00  0.00    -0.171 N 
HETATM    8  C13 UNL     1      17.327  17.548  34.542  1.00  0.00     0.300 A 
HETATM    9  O5  UNL     1      16.178  17.303  34.974  1.00  0.00    -0.263 OA
ENDROOT
BRANCH   4  10
HETATM   10  N5  UNL     1      21.198  18.271  33.249  1.00  0.00    -0.254 N 
HETATM   11  C5  UNL     1      22.025  17.989  32.187  1.00  0.00     0.270 C 
HETATM   12  O3  UNL     1      21.729  17.419  31.135  1.00  0.00    -0.266 OA
ATOM     13  H5  UNL     1      21.706  18.751  33.992  1.00  0.00     0.191 HD
BRANCH  11  14
HETATM   14  C6  UNL     1      23.479  18.393  32.233  1.00  0.00     0.033 A 
HETATM   15  C7  UNL     1      23.839  19.681  32.536  1.00  0.00     0.017 A 
HETATM   16  C8  UNL     1      25.197  20.042  32.561  1.00  0.00     0.001 A 
HETATM   17  C9  UNL     1      26.170  19.102  32.281  1.00  0.00     0.000 A 
HETATM   18  C10 UNL     1      25.807  17.808  31.978  1.00  0.00     0.001 A 
HETATM   19  C11 UNL     1      24.467  17.484  31.961  1.00  0.00     0.017 A 
ENDBRANCH  11  14
ENDBRANCH   4  10
BRANCH   1  20
HETATM   20  N2  UNL     1      16.407  18.425  32.465  1.00  0.00    -0.312 N 
HETATM   21  C2  UNL     1      15.734  19.661  32.478  1.00  0.00     0.311 C 
HETATM   22  O2  UNL     1      16.085  20.546  33.281  1.00  0.00    -0.262 OA
ATOM     23  H2  UNL     1      16.097  17.720  31.795  1.00  0.00     0.169 HD
BRANCH  21  24
HETATM   24  C1  UNL     1      14.641  19.904  31.566  1.00  0.00     0.322 C 
HETATM   25  N1  UNL     1      14.042  18.824  30.860  1.00  0.00    -0.053 NA
HETATM   26  O1  UNL     1      14.164  21.049  31.341  1.00  0.00    -0.266 OA
ENDBRANCH  21  24
ENDBRANCH   1  20
BRANCH   7  27
HETATM   27  N7  UNL     1      18.213  16.686  36.588  1.00  0.00    -0.331 N 
ATOM     28  H72 UNL     1      18.814  16.972  37.362  1.00  0.00     0.177 HD
ATOM     29  H71 UNL     1      17.491  15.984  36.753  1.00  0.00     0.177 HD
ENDBRANCH   7  27
TORSDOF 5
ENDMDL
MODEL 5
REMARK VINA RESULT: -8.258167281      2.433      3.765
REMARK  5 active torsions:
REMARK  status: ('A' for Active; 'I' for Inactive)
REMARK    1  A    between atoms: C1_2  and  C2_4 
REMARK       I    between atoms: C2_4  and  N2_6 
REMARK    2  A    between atoms: N2_6  and  C3_8 
REMARK    3  A    between atoms: N4_11  and  N5_12 
REMARK       I    between atoms: N5_12  and  C5_14 
REMARK    4  A    between atoms: C5_14  and  C6_16 
REMARK    5  A    between atoms: N6_24  and  N7_25 
ROOT
HETATM    1  C3  UNL     1      18.795  17.712  34.332  1.00  0.00     0.149 A 
HETATM    2  C4  UNL     1      17.443  17.950  34.008  1.00  0.00     0.175 A 
HETATM    3  N3  UNL     1      16.577  16.874  34.328  1.00  0.00    -0.078 NA
HETATM    4  N4  UNL     1      17.019  19.093  33.468  1.00  0.00    -0.184 N 
HETATM    5  C12 UNL     1      18.022  20.026  33.256  1.00  0.00     0.371 A 
HETATM    6  O4  UNL     1      17.682  21.145  32.741  1.00  0.00    -0.242 OA
HETATM    7  N6  UNL     1      19.304  19.847  33.545  1.00  0.00    -0.171 N 
HETATM    8  C13 UNL     1      19.694  18.692  34.082  1.00  0.00     0.300 A 
HETATM    9  O5  UNL     1      20.902  18.514  34.358  1.00  0.00    -0.263 OA
ENDROOT
BRANCH   4  10
HETATM   10  N5  UNL     1      15.738  19.429  33.085  1.00  0.00    -0.254 N 
HETATM   11  C5  UNL     1      15.026  19.566  31.917  1.00  0.00     0.270 C 
HETATM   12  O3  UNL     1      15.431  19.394  30.765  1.00  0.00    -0.266 OA
ATOM     13  H5  UNL     1      15.155  19.634  33.896  1.00  0.00     0.191 HD
BRANCH  11  14
HETATM   14  C6  UNL     1      13.571  19.968  31.961  1.00  0.00     0.033 A 
HETATM   15  C7  UNL     1      13.160  21.027  32.728  1.00  0.00     0.017 A 
HETATM   16  C8  UNL     1      11.800  21.378  32.767  1.00  0.00     0.001 A 
HETATM   17  C9  UNL     1      10.876  20.659  32.034  1.00  0.00     0.000 A 
HETATM   18  C10 UNL     1      11.291  19.595  31.263  1.00  0.00     0.001 A 
HETATM   19  C11 UNL     1      12.632  19.274  31.245  1.00  0.00     0.017 A 
ENDBRANCH  11  14
ENDBRANCH   4  10
BRANCH   1  20
HETATM   20  N2  UNL     1      19.134  16.467  34.899  1.00  0.00    -0.312 N 
HETATM   21  C2  UNL     1      19.622  15.369  34.166  1.00  0.00     0.311 C 
HETATM   22  O2  UNL     1      19.777  15.470  32.934  1.00  0.00    -0.262 OA
ATOM     23  H2  UNL     1      19.018  16.354  35.907  1.00  0.00     0.169 HD
BRANCH  21  24
HETATM   24  C1  UNL     1      19.942  14.132  34.837  1.00  0.00     0.322 C 
HETATM   25  N1  UNL     1      21.075  13.370  34.436  1.00  0.00    -0.053 NA
HETATM   26  O1  UNL     1      19.262  13.660  35.789  1.00  0.00    -0.266 OA
ENDBRANCH  21  24
ENDBRANCH   1  20
BRANCH   7  27
HETATM   27  N7  UNL     1      20.260  20.874  33.286  1.00  0.00    -0.331 N 
ATOM     28  H72 UNL     1      19.988  21.705  32.761  1.00  0.00     0.177 HD
ATOM     29  H71 UNL     1      21.220  20.790  33.621  1.00  0.00     0.177 HD
ENDBRANCH   7  27
TORSDOF 5
ENDMDL
