MODEL 1
REMARK VINA RESULT: -8.462829624      0.000      0.000
REMARK  8 active torsions:
REMARK  status: ('A' for Active; 'I' for Inactive)
REMARK    1  A    between atoms: N1_1  and  C1_4 
REMARK    2  A    between atoms: C4_7  and  S1_8 
REMARK    3  A    between atoms: S1_8  and  N2_11 
REMARK    4  A    between atoms: C5_12  and  N3_13 
REMARK    5  A    between atoms: C6_17  and  C7_18 
REMARK    6  A    between atoms: C7_18  and  N4_19 
REMARK    7  A    between atoms: N4_19  and  N5_21 
REMARK       I    between atoms: N5_21  and  C8_23 
REMARK    8  A    between atoms: N7_26  and  O4_27 
ROOT
HETATM    1  N2  UNL     1      19.638  17.702  32.871  1.00  0.00    -0.126 N 
HETATM    2  C5  UNL     1      19.818  16.572  32.188  1.00  0.00     0.180 A 
HETATM    3  S2  UNL     1      20.016  15.420  33.433  1.00  0.00    -0.029 SA
HETATM    4  C6  UNL     1      19.851  16.487  34.754  1.00  0.00     0.143 A 
HETATM    5  N7  UNL     1      19.655  17.663  34.148  1.00  0.00    -0.136 N 
ENDROOT
BRANCH   1   6
HETATM    6  S1  UNL     1      19.390  19.201  31.982  1.00  0.00     0.287 S 
HETATM    7  O1  UNL     1      19.781  19.070  30.555  1.00  0.00    -0.198 OA
HETATM    8  O2  UNL     1      20.293  20.275  32.572  1.00  0.00    -0.198 OA
BRANCH   6   9
HETATM    9  C4  UNL     1      17.749  19.742  32.185  1.00  0.00     0.097 A 
HETATM   10  C3  UNL     1      16.655  19.087  31.663  1.00  0.00     0.030 A 
HETATM   11  C2  UNL     1      15.372  19.572  31.849  1.00  0.00     0.049 A 
HETATM   12  C1  UNL     1      15.187  20.732  32.572  1.00  0.00     0.098 A 
HETATM   13  N8  UNL     1      16.252  21.373  33.083  1.00  0.00    -0.351 N 
HETATM   14  C9  UNL     1      17.496  20.913  32.909  1.00  0.00     0.115 A 
ATOM     15  H8  UNL     1      16.109  22.231  33.616  1.00  0.00     0.166 HD
BRANCH  12  16
HETATM   16  N1  UNL     1      13.975  21.185  32.743  1.00  0.00    -0.385 N 
ATOM     17  H12 UNL     1      13.184  20.794  32.230  1.00  0.00     0.157 HD
ATOM     18  H11 UNL     1      13.820  21.944  33.406  1.00  0.00     0.157 HD
ENDBRANCH  12  16
ENDBRANCH   6   9
ENDBRANCH   1   6
BRANCH   2  19
HETATM   19  N3  UNL     1      19.841  16.351  30.903  1.00  0.00    -0.377 N 
ATOM     20  H32 UNL     1      19.554  16.994  30.164  1.00  0.00     0.158 HD
ATOM     21  H31 UNL     1      20.139  15.531  30.375  1.00  0.00     0.158 HD
ENDBRANCH   2  19
BRANCH   5  22
HETATM   22  O4  UNL     1      19.477  18.792  34.987  1.00  0.00    -0.266 OA
ATOM     23  H4  UNL     1      19.627  18.793  35.924  1.00  0.00     0.247 HD
ENDBRANCH   5  22
BRANCH   4  24
HETATM   24  C7  UNL     1      19.911  16.188  36.207  1.00  0.00     0.148 C 
BRANCH  24  25
HETATM   25  N4  UNL     1      18.800  16.181  36.820  1.00  0.00    -0.305 N 
ATOM     26  H4  UNL     1      18.670  15.453  37.522  1.00  0.00     0.186 HD
BRANCH  25  27
HETATM   27  N5  UNL     1      17.757  17.051  36.638  1.00  0.00    -0.254 N 
HETATM   28  C8  UNL     1      16.601  16.689  35.908  1.00  0.00     0.347 C 
HETATM   29  N6  UNL     1      15.521  17.589  35.720  1.00  0.00    -0.038 NA
HETATM   30  O3  UNL     1      16.492  15.539  35.395  1.00  0.00    -0.249 OA
ATOM     31  H5  UNL     1      17.815  17.985  37.041  1.00  0.00     0.191 HD
ENDBRANCH  25  27
ENDBRANCH  24  25
ENDBRANCH   4  24
TORSDOF 8
ENDMDL
MODEL 2
REMARK VINA RESULT: -8.381861965      1.518      1.781
REMARK  8 active torsions:
REMARK  status: ('A' for Active; 'I' for Inactive)
REMARK    1  A    between atoms: N1_1  and  C1_4 
REMARK    2  A    between atoms: C4_7  and  S1_8 
REMARK    3  A    between atoms: S1_8  and  N2_11 
REMARK    4  A    between atoms: C5_12  and  N3_13 
REMARK    5  A    between atoms: C6_17  and  C7_18 
REMARK    6  A    between atoms: C7_18  and  N4_19 
REMARK    7  A    between atoms: N4_19  and  N5_21 
REMARK       I    between atoms: N5_21  and  C8_23 
REMARK    8  A    between atoms: N7_26  and  O4_27 
ROOT
HETATM    1  N2  UNL     1      20.008  18.736  33.410  1.00  0.00    -0.126 N 
HETATM    2  C5  UNL     1      20.834  19.568  34.042  1.00  0.00     0.180 A 
HETATM    3  S2  UNL     1      21.242  18.682  35.445  1.00  0.00    -0.029 SA
HETATM    4  C6  UNL     1      20.310  17.293  35.111  1.00  0.00     0.143 A 
HETATM    5  N7  UNL     1      19.744  17.603  33.940  1.00  0.00    -0.136 N 
ENDROOT
BRANCH   1   6
HETATM    6  S1  UNL     1      19.311  19.238  31.874  1.00  0.00     0.287 S 
HETATM    7  O1  UNL     1      19.441  18.184  30.835  1.00  0.00    -0.198 OA
HETATM    8  O2  UNL     1      20.085  20.442  31.354  1.00  0.00    -0.198 OA
BRANCH   6   9
HETATM    9  C4  UNL     1      17.666  19.751  32.112  1.00  0.00     0.097 A 
HETATM   10  C3  UNL     1      16.574  19.100  31.580  1.00  0.00     0.030 A 
HETATM   11  C2  UNL     1      15.287  19.563  31.797  1.00  0.00     0.049 A 
HETATM   12  C1  UNL     1      15.096  20.695  32.560  1.00  0.00     0.098 A 
HETATM   13  N8  UNL     1      16.159  21.332  33.081  1.00  0.00    -0.351 N 
HETATM   14  C9  UNL     1      17.406  20.894  32.878  1.00  0.00     0.115 A 
ATOM     15  H8  UNL     1      16.011  22.170  33.645  1.00  0.00     0.166 HD
BRANCH  12  16
HETATM   16  N1  UNL     1      13.880  21.126  32.759  1.00  0.00    -0.385 N 
ATOM     17  H12 UNL     1      13.654  22.120  32.712  1.00  0.00     0.157 HD
ATOM     18  H11 UNL     1      13.144  20.451  32.964  1.00  0.00     0.157 HD
ENDBRANCH  12  16
ENDBRANCH   6   9
ENDBRANCH   1   6
BRANCH   2  19
HETATM   19  N3  UNL     1      21.256  20.758  33.716  1.00  0.00    -0.377 N 
ATOM     20  H32 UNL     1      21.719  21.028  32.848  1.00  0.00     0.158 HD
ATOM     21  H31 UNL     1      21.217  21.640  34.226  1.00  0.00     0.158 HD
ENDBRANCH   2  19
BRANCH   5  22
HETATM   22  O4  UNL     1      18.882  16.634  33.368  1.00  0.00    -0.266 OA
ATOM     23  H4  UNL     1      17.970  16.787  33.154  1.00  0.00     0.247 HD
ENDBRANCH   5  22
BRANCH   4  24
HETATM   24  C7  UNL     1      20.162  16.054  35.915  1.00  0.00     0.148 C 
BRANCH  24  25
HETATM   25  N4  UNL     1      18.984  15.772  36.292  1.00  0.00    -0.305 N 
ATOM     26  H4  UNL     1      18.784  14.787  36.469  1.00  0.00     0.186 HD
BRANCH  25  27
HETATM   27  N5  UNL     1      17.951  16.651  36.487  1.00  0.00    -0.254 N 
HETATM   28  C8  UNL     1      16.696  16.482  35.858  1.00  0.00     0.347 C 
HETATM   29  N6  UNL     1      15.628  17.392  36.060  1.00  0.00    -0.038 NA
HETATM   30  O3  UNL     1      16.483  15.502  35.089  1.00  0.00    -0.249 OA
ATOM     31  H5  UNL     1      18.092  17.451  37.103  1.00  0.00     0.191 HD
ENDBRANCH  25  27
ENDBRANCH  24  25
ENDBRANCH   4  24
TORSDOF 8
ENDMDL
MODEL 3
REMARK VINA RESULT: -8.261985170      3.214      5.397
REMARK  8 active torsions:
REMARK  status: ('A' for Active; 'I' for Inactive)
REMARK    1  A    between atoms: N1_1  and  C1_4 
REMARK    2  A    between atoms: C4_7  and  S1_8 
REMARK    3  A    between atoms: S1_8  and  N2_11 
REMARK    4  A    between atoms: C5_12  and  N3_13 
REMARK    5  A    between atoms: C6_17  and  C7_18 
REMARK    6  A    between atoms: C7_18  and  N4_19 
REMARK    7  A    between atoms: N4_19  and  N5_21 
REMARK       I    between atoms: N5_21  and  C8_23 
REMARK    8  A    between atoms: N7_26  and  O4_27 
ROOT
HETATM    1  N2  UNL     1      18.818  17.780  32.399  1.00  0.00    -0.126 N 
HETATM    2  C5  UNL     1      18.814  16.560  32.934  1.00  0.00     0.180 A 
HETATM    3  S2  UNL     1      17.461  16.620  33.974  1.00  0.00    -0.029 SA
HETATM    4  C6  UNL     1      16.994  18.227  33.642  1.00  0.00     0.143 A 
HETATM    5  N7  UNL     1      17.914  18.612  32.750  1.00  0.00    -0.136 N 
ENDROOT
BRANCH   1   6
HETATM    6  S1  UNL     1      20.073  18.193  31.236  1.00  0.00     0.287 S 
HETATM    7  O1  UNL     1      19.591  19.167  30.223  1.00  0.00    -0.198 OA
HETATM    8  O2  UNL     1      20.459  16.938  30.466  1.00  0.00    -0.198 OA
BRANCH   6   9
HETATM    9  C4  UNL     1      21.496  18.739  32.074  1.00  0.00     0.097 A 
HETATM   10  C3  UNL     1      22.611  17.956  32.284  1.00  0.00     0.030 A 
HETATM   11  C2  UNL     1      23.711  18.443  32.969  1.00  0.00     0.049 A 
HETATM   12  C1  UNL     1      23.690  19.736  33.447  1.00  0.00     0.098 A 
HETATM   13  N8  UNL     1      22.605  20.503  33.244  1.00  0.00    -0.351 N 
HETATM   14  C9  UNL     1      21.537  20.042  32.584  1.00  0.00     0.115 A 
ATOM     15  H8  UNL     1      22.595  21.458  33.602  1.00  0.00     0.166 HD
BRANCH  12  16
HETATM   16  N1  UNL     1      24.731  20.189  34.093  1.00  0.00    -0.385 N 
ATOM     17  H12 UNL     1      25.630  20.318  33.629  1.00  0.00     0.157 HD
ATOM     18  H11 UNL     1      24.637  20.418  35.083  1.00  0.00     0.157 HD
ENDBRANCH  12  16
ENDBRANCH   6   9
ENDBRANCH   1   6
BRANCH   2  19
HETATM   19  N3  UNL     1      19.613  15.546  32.742  1.00  0.00    -0.377 N 
ATOM     20  H32 UNL     1      20.596  15.480  33.010  1.00  0.00     0.158 HD
ATOM     21  H31 UNL     1      19.444  14.639  32.308  1.00  0.00     0.158 HD
ENDBRANCH   2  19
BRANCH   5  22
HETATM   22  O4  UNL     1      17.810  19.937  32.256  1.00  0.00    -0.266 OA
ATOM     23  H4  UNL     1      18.135  20.222  31.410  1.00  0.00     0.247 HD
ENDBRANCH   5  22
BRANCH   4  24
HETATM   24  C7  UNL     1      15.857  19.001  34.199  1.00  0.00     0.148 C 
BRANCH  24  25
HETATM   25  N4  UNL     1      15.339  19.864  33.426  1.00  0.00    -0.305 N 
ATOM     26  H4  UNL     1      15.530  20.843  33.640  1.00  0.00     0.186 HD
BRANCH  25  27
HETATM   27  N5  UNL     1      14.549  19.618  32.334  1.00  0.00    -0.254 N 
HETATM   28  C8  UNL     1      13.462  20.455  31.994  1.00  0.00     0.347 C 
HETATM   29  N6  UNL     1      12.644  20.201  30.863  1.00  0.00    -0.038 NA
HETATM   30  O3  UNL     1      13.181  21.470  32.693  1.00  0.00    -0.249 OA
ATOM     31  H5  UNL     1      14.751  18.807  31.749  1.00  0.00     0.191 HD
ENDBRANCH  25  27
ENDBRANCH  24  25
ENDBRANCH   4  24
TORSDOF 8
ENDMDL
MODEL 4
REMARK VINA RESULT: -8.205877304      2.690      3.408
REMARK  8 active torsions:
REMARK  status: ('A' for Active; 'I' for Inactive)
REMARK    1  A    between atoms: N1_1  and  C1_4 
REMARK    2  A    between atoms: C4_7  and  S1_8 
REMARK    3  A    between atoms: S1_8  and  N2_11 
REMARK    4  A    between atoms: C5_12  and  N3_13 
REMARK    5  A    between atoms: C6_17  and  C7_18 
REMARK    6  A    between atoms: C7_18  and  N4_19 
REMARK    7  A    between atoms: N4_19  and  N5_21 
REMARK       I    between atoms: N5_21  and  C8_23 
REMARK    8  A    between atoms: N7_26  and  O4_27 
ROOT
HETATM    1  N2  UNL     1      20.360  16.252  33.046  1.00  0.00    -0.126 N 
HETATM    2  C5  UNL     1      19.475  15.365  32.594  1.00  0.00     0.180 A 
HETATM    3  S2  UNL     1      18.659  14.902  34.022  1.00  0.00    -0.029 SA
HETATM    4  C6  UNL     1      19.526  15.894  35.106  1.00  0.00     0.143 A 
HETATM    5  N7  UNL     1      20.388  16.517  34.296  1.00  0.00    -0.136 N 
ENDROOT
BRANCH   1   6
HETATM    6  S1  UNL     1      21.456  17.016  31.900  1.00  0.00     0.287 S 
HETATM    7  O1  UNL     1      21.246  16.519  30.516  1.00  0.00    -0.198 OA
HETATM    8  O2  UNL     1      22.886  16.648  32.269  1.00  0.00    -0.198 OA
BRANCH   6   9
HETATM    9  C4  UNL     1      21.324  18.747  32.023  1.00  0.00     0.097 A 
HETATM   10  C3  UNL     1      20.196  19.457  31.675  1.00  0.00     0.030 A 
HETATM   11  C2  UNL     1      20.154  20.837  31.785  1.00  0.00     0.049 A 
HETATM   12  C1  UNL     1      21.262  21.510  32.254  1.00  0.00     0.098 A 
HETATM   13  N8  UNL     1      22.364  20.820  32.595  1.00  0.00    -0.351 N 
HETATM   14  C9  UNL     1      22.415  19.488  32.492  1.00  0.00     0.115 A 
ATOM     15  H8  UNL     1      23.181  21.325  32.940  1.00  0.00     0.166 HD
BRANCH  12  16
HETATM   16  N1  UNL     1      21.216  22.811  32.354  1.00  0.00    -0.385 N 
ATOM     17  H12 UNL     1      22.044  23.385  32.198  1.00  0.00     0.157 HD
ATOM     18  H11 UNL     1      20.330  23.257  32.592  1.00  0.00     0.157 HD
ENDBRANCH  12  16
ENDBRANCH   6   9
ENDBRANCH   1   6
BRANCH   2  19
HETATM   19  N3  UNL     1      19.248  14.932  31.385  1.00  0.00    -0.377 N 
ATOM     20  H32 UNL     1      19.530  15.375  30.510  1.00  0.00     0.158 HD
ATOM     21  H31 UNL     1      18.765  14.095  31.059  1.00  0.00     0.158 HD
ENDBRANCH   2  19
BRANCH   5  22
HETATM   22  O4  UNL     1      21.281  17.438  34.899  1.00  0.00    -0.266 OA
ATOM     23  H4  UNL     1      22.116  17.202  35.286  1.00  0.00     0.247 HD
ENDBRANCH   5  22
BRANCH   4  24
HETATM   24  C7  UNL     1      19.365  16.031  36.576  1.00  0.00     0.148 C 
BRANCH  24  25
HETATM   25  N4  UNL     1      18.630  16.988  36.968  1.00  0.00    -0.305 N 
ATOM     26  H4  UNL     1      18.741  17.280  37.939  1.00  0.00     0.186 HD
BRANCH  25  27
HETATM   27  N5  UNL     1      17.704  17.671  36.224  1.00  0.00    -0.254 N 
HETATM   28  C8  UNL     1      16.383  17.196  36.058  1.00  0.00     0.347 C 
HETATM   29  N6  UNL     1      15.424  17.904  35.288  1.00  0.00    -0.038 NA
HETATM   30  O3  UNL     1      16.009  16.116  36.597  1.00  0.00    -0.249 OA
ATOM     31  H5  UNL     1      17.976  18.547  35.778  1.00  0.00     0.191 HD
ENDBRANCH  25  27
ENDBRANCH  24  25
ENDBRANCH   4  24
TORSDOF 8
ENDMDL
MODEL 5
REMARK VINA RESULT: -8.076606059      2.928      5.157
REMARK  8 active torsions:
REMARK  status: ('A' for Active; 'I' for Inactive)
REMARK    1  A    between atoms: N1_1  and  C1_4 
REMARK    2  A    between atoms: C4_7  and  S1_8 
REMARK    3  A    between atoms: S1_8  and  N2_11 
REMARK    4  A    between atoms: C5_12  and  N3_13 
REMARK    5  A    between atoms: C6_17  and  C7_18 
REMARK    6  A    between atoms: C7_18  and  N4_19 
REMARK    7  A    between atoms: N4_19  and  N5_21 
REMARK       I    between atoms: N5_21  and  C8_23 
REMARK    8  A    between atoms: N7_26  and  O4_27 
ROOT
HETATM    1  N2  UNL     1      19.143  17.476  32.576  1.00  0.00    -0.126 N 
HETATM    2  C5  UNL     1      18.978  16.160  32.693  1.00  0.00     0.180 A 
HETATM    3  S2  UNL     1      17.768  16.049  33.893  1.00  0.00    -0.029 SA
HETATM    4  C6  UNL     1      17.562  17.721  34.159  1.00  0.00     0.143 A 
HETATM    5  N7  UNL     1      18.441  18.256  33.305  1.00  0.00    -0.136 N 
ENDROOT
BRANCH   1   6
HETATM    6  S1  UNL     1      20.329  18.083  31.424  1.00  0.00     0.287 S 
HETATM    7  O1  UNL     1      19.770  19.164  30.572  1.00  0.00    -0.198 OA
HETATM    8  O2  UNL     1      20.714  16.955  30.478  1.00  0.00    -0.198 OA
BRANCH   6   9
HETATM    9  C4  UNL     1      21.774  18.565  32.265  1.00  0.00     0.097 A 
HETATM   10  C3  UNL     1      22.758  17.686  32.663  1.00  0.00     0.030 A 
HETATM   11  C2  UNL     1      23.882  18.128  33.340  1.00  0.00     0.049 A 
HETATM   12  C1  UNL     1      24.019  19.472  33.617  1.00  0.00     0.098 A 
HETATM   13  N8  UNL     1      23.061  20.331  33.229  1.00  0.00    -0.351 N 
HETATM   14  C9  UNL     1      21.971  19.915  32.575  1.00  0.00     0.115 A 
ATOM     15  H8  UNL     1      23.168  21.324  33.437  1.00  0.00     0.166 HD
BRANCH  12  16
HETATM   16  N1  UNL     1      25.082  19.881  34.255  1.00  0.00    -0.385 N 
ATOM     17  H12 UNL     1      25.994  19.450  34.101  1.00  0.00     0.157 HD
ATOM     18  H11 UNL     1      24.993  20.649  34.921  1.00  0.00     0.157 HD
ENDBRANCH  12  16
ENDBRANCH   6   9
ENDBRANCH   1   6
BRANCH   2  19
HETATM   19  N3  UNL     1      19.561  15.172  32.072  1.00  0.00    -0.377 N 
ATOM     20  H32 UNL     1      19.287  14.760  31.180  1.00  0.00     0.158 HD
ATOM     21  H31 UNL     1      20.380  14.619  32.325  1.00  0.00     0.158 HD
ENDBRANCH   2  19
BRANCH   5  22
HETATM   22  O4  UNL     1      18.524  19.671  33.275  1.00  0.00    -0.266 OA
ATOM     23  H4  UNL     1      19.334  20.163  33.341  1.00  0.00     0.247 HD
ENDBRANCH   5  22
BRANCH   4  24
HETATM   24  C7  UNL     1      16.642  18.409  35.100  1.00  0.00     0.148 C 
BRANCH  24  25
HETATM   25  N4  UNL     1      16.041  19.430  34.644  1.00  0.00    -0.305 N 
ATOM     26  H4  UNL     1      16.198  20.310  35.136  1.00  0.00     0.186 HD
BRANCH  25  27
HETATM   27  N5  UNL     1      15.204  19.474  33.560  1.00  0.00    -0.254 N 
HETATM   28  C8  UNL     1      15.327  20.467  32.561  1.00  0.00     0.347 C 
HETATM   29  N6  UNL     1      14.460  20.512  31.438  1.00  0.00    -0.038 NA
HETATM   30  O3  UNL     1      16.224  21.355  32.635  1.00  0.00    -0.249 OA
ATOM     31  H5  UNL     1      14.471  18.771  33.472  1.00  0.00     0.191 HD
ENDBRANCH  25  27
ENDBRANCH  24  25
ENDBRANCH   4  24
TORSDOF 8
ENDMDL
