MODEL 1
REMARK VINA RESULT: -7.143771753      0.000      0.000
REMARK  3 active torsions:
REMARK  status: ('A' for Active; 'I' for Inactive)
REMARK    1  A    between atoms: O1_1  and  C1_3 
REMARK    2  A    between atoms: C1_3  and  N1_4 
REMARK    3  A    between atoms: C1_3  and  N2_9 
ROOT
HETATM    1  N2  UNL     1      45.783  -1.503  15.309  1.00  0.00    -0.347 N 
HETATM    2  C6  UNL     1      44.646  -0.900  14.612  1.00  0.00     0.128 C 
HETATM    3  C7  UNL     1      44.871  -0.502  13.209  1.00  0.00     0.039 C 
HETATM    4  C8  UNL     1      44.638  -1.523  12.168  1.00  0.00     0.115 C 
HETATM    5  N3  UNL     1      44.269  -2.820  12.695  1.00  0.00    -0.421 N 
ATOM      6  H3  UNL     1      43.339  -3.214  12.552  1.00  0.00     0.153 HD
HETATM    7  C9  UNL     1      45.269  -3.509  13.420  1.00  0.00     0.115 C 
HETATM    8  C10 UNL     1      46.609  -2.892  13.507  1.00  0.00     0.039 C 
HETATM    9  C11 UNL     1      46.907  -2.306  14.922  1.00  0.00     0.128 C 
ENDROOT
BRANCH   1  10
HETATM   10  C1  UNL     1      45.679  -1.201  16.673  1.00  0.00     0.217 C 
BRANCH  10  11
HETATM   11  O1  UNL     1      46.176  -2.088  17.519  1.00  0.00    -0.333 OA
ATOM     12  H1  UNL     1      46.141  -2.973  17.173  1.00  0.00     0.220 HD
ENDBRANCH  10  11
BRANCH  10  13
HETATM   13  N1  UNL     1      45.128  -0.102  17.327  1.00  0.00    -0.348 N 
HETATM   14  C2  UNL     1      43.826   0.460  17.309  1.00  0.00     0.126 C 
HETATM   15  C3  UNL     1      43.685   1.354  18.554  1.00  0.00     0.021 C 
HETATM   16  C4  UNL     1      45.112   1.901  18.626  1.00  0.00     0.021 C 
HETATM   17  C5  UNL     1      45.961   0.738  18.240  1.00  0.00     0.126 C 
ENDBRANCH  10  13
ENDBRANCH   1  10
TORSDOF 3
ENDMDL
MODEL 2
REMARK VINA RESULT: -6.862823459      1.744      2.341
REMARK  3 active torsions:
REMARK  status: ('A' for Active; 'I' for Inactive)
REMARK    1  A    between atoms: O1_1  and  C1_3 
REMARK    2  A    between atoms: C1_3  and  N1_4 
REMARK    3  A    between atoms: C1_3  and  N2_9 
ROOT
HETATM    1  N2  UNL     1      45.749  -1.935  13.975  1.00  0.00    -0.347 N 
HETATM    2  C6  UNL     1      44.436  -2.194  13.382  1.00  0.00     0.128 C 
HETATM    3  C7  UNL     1      44.419  -3.004  12.149  1.00  0.00     0.039 C 
HETATM    4  C8  UNL     1      44.355  -4.471  12.300  1.00  0.00     0.115 C 
HETATM    5  N3  UNL     1      44.378  -4.917  13.676  1.00  0.00    -0.421 N 
ATOM      6  H3  UNL     1      43.570  -5.361  14.112  1.00  0.00     0.153 HD
HETATM    7  C9  UNL     1      45.584  -4.703  14.384  1.00  0.00     0.115 C 
HETATM    8  C10 UNL     1      46.726  -4.124  13.646  1.00  0.00     0.039 C 
HETATM    9  C11 UNL     1      46.998  -2.638  14.034  1.00  0.00     0.128 C 
ENDROOT
BRANCH   1  10
HETATM   10  C1  UNL     1      45.700  -0.703  14.641  1.00  0.00     0.217 C 
BRANCH  10  11
HETATM   11  O1  UNL     1      45.766   0.383  13.888  1.00  0.00    -0.333 OA
ATOM     12  H1  UNL     1      46.352   0.273  13.149  1.00  0.00     0.220 HD
ENDBRANCH  10  11
BRANCH  10  13
HETATM   13  N1  UNL     1      45.593  -0.399  15.994  1.00  0.00    -0.348 N 
HETATM   14  C2  UNL     1      46.536  -0.429  17.053  1.00  0.00     0.126 C 
HETATM   15  C3  UNL     1      45.983   0.438  18.198  1.00  0.00     0.021 C 
HETATM   16  C4  UNL     1      44.495   0.118  18.050  1.00  0.00     0.021 C 
HETATM   17  C5  UNL     1      44.289   0.043  16.576  1.00  0.00     0.126 C 
ENDBRANCH  10  13
ENDBRANCH   1  10
TORSDOF 3
ENDMDL
MODEL 3
REMARK VINA RESULT: -6.828816966      1.588      5.475
REMARK  3 active torsions:
REMARK  status: ('A' for Active; 'I' for Inactive)
REMARK    1  A    between atoms: O1_1  and  C1_3 
REMARK    2  A    between atoms: C1_3  and  N1_4 
REMARK    3  A    between atoms: C1_3  and  N2_9 
ROOT
HETATM    1  N2  UNL     1      45.410  -0.720  16.241  1.00  0.00    -0.347 N 
HETATM    2  C6  UNL     1      44.376   0.314  16.296  1.00  0.00     0.128 C 
HETATM    3  C7  UNL     1      43.512   0.318  17.492  1.00  0.00     0.039 C 
HETATM    4  C8  UNL     1      43.979   1.085  18.665  1.00  0.00     0.115 C 
HETATM    5  N3  UNL     1      45.281   1.691  18.484  1.00  0.00    -0.421 N 
ATOM      6  H3  UNL     1      45.401   2.703  18.430  1.00  0.00     0.153 HD
HETATM    7  C9  UNL     1      46.377   0.803  18.387  1.00  0.00     0.115 C 
HETATM    8  C10 UNL     1      46.114  -0.642  18.556  1.00  0.00     0.039 C 
HETATM    9  C11 UNL     1      46.198  -1.426  17.210  1.00  0.00     0.128 C 
ENDROOT
BRANCH   1  10
HETATM   10  C1  UNL     1      45.652  -1.036  14.898  1.00  0.00     0.217 C 
BRANCH  10  11
HETATM   11  O1  UNL     1      45.876  -0.021  14.080  1.00  0.00    -0.333 OA
ATOM     12  H1  UNL     1      45.106   0.209  13.574  1.00  0.00     0.220 HD
ENDBRANCH  10  11
BRANCH  10  13
HETATM   13  N1  UNL     1      45.700  -2.262  14.242  1.00  0.00    -0.348 N 
HETATM   14  C2  UNL     1      46.654  -3.312  14.257  1.00  0.00     0.126 C 
HETATM   15  C3  UNL     1      45.965  -4.579  13.720  1.00  0.00     0.021 C 
HETATM   16  C4  UNL     1      45.061  -3.937  12.665  1.00  0.00     0.021 C 
HETATM   17  C5  UNL     1      44.610  -2.669  13.304  1.00  0.00     0.126 C 
ENDBRANCH  10  13
ENDBRANCH   1  10
TORSDOF 3
ENDMDL
MODEL 4
REMARK VINA RESULT: -6.797454919      0.948      1.937
REMARK  3 active torsions:
REMARK  status: ('A' for Active; 'I' for Inactive)
REMARK    1  A    between atoms: O1_1  and  C1_3 
REMARK    2  A    between atoms: C1_3  and  N1_4 
REMARK    3  A    between atoms: C1_3  and  N2_9 
ROOT
HETATM    1  N2  UNL     1      45.663  -1.430  15.394  1.00  0.00    -0.347 N 
HETATM    2  C6  UNL     1      46.694  -2.417  15.069  1.00  0.00     0.128 C 
HETATM    3  C7  UNL     1      46.266  -3.574  14.260  1.00  0.00     0.039 C 
HETATM    4  C8  UNL     1      46.307  -3.428  12.791  1.00  0.00     0.115 C 
HETATM    5  N3  UNL     1      46.718  -2.113  12.347  1.00  0.00    -0.421 N 
ATOM      6  H3  UNL     1      47.603  -1.960  11.864  1.00  0.00     0.153 HD
HETATM    7  C9  UNL     1      45.824  -1.052  12.621  1.00  0.00     0.115 C 
HETATM    8  C10 UNL     1      44.530  -1.383  13.255  1.00  0.00     0.039 C 
HETATM    9  C11 UNL     1      44.472  -0.952  14.753  1.00  0.00     0.128 C 
ENDROOT
BRANCH   1  10
HETATM   10  C1  UNL     1      45.986  -0.837  16.622  1.00  0.00     0.217 C 
BRANCH  10  11
HETATM   11  O1  UNL     1      47.102  -1.244  17.202  1.00  0.00    -0.333 OA
ATOM     12  H1  UNL     1      47.652  -1.746  16.613  1.00  0.00     0.220 HD
ENDBRANCH  10  11
BRANCH  10  13
HETATM   13  N1  UNL     1      45.325   0.132  17.371  1.00  0.00    -0.348 N 
HETATM   14  C2  UNL     1      43.964   0.528  17.425  1.00  0.00     0.126 C 
HETATM   15  C3  UNL     1      43.752   1.301  18.738  1.00  0.00     0.021 C 
HETATM   16  C4  UNL     1      45.104   2.013  18.823  1.00  0.00     0.021 C 
HETATM   17  C5  UNL     1      46.076   0.998  18.330  1.00  0.00     0.126 C 
ENDBRANCH  10  13
ENDBRANCH   1  10
TORSDOF 3
ENDMDL
MODEL 5
REMARK VINA RESULT: -6.707519796      1.497      1.861
REMARK  3 active torsions:
REMARK  status: ('A' for Active; 'I' for Inactive)
REMARK    1  A    between atoms: O1_1  and  C1_3 
REMARK    2  A    between atoms: C1_3  and  N1_4 
REMARK    3  A    between atoms: C1_3  and  N2_9 
ROOT
HETATM    1  N2  UNL     1      45.573  -1.328  15.251  1.00  0.00    -0.347 N 
HETATM    2  C6  UNL     1      44.512  -0.865  14.355  1.00  0.00     0.128 C 
HETATM    3  C7  UNL     1      44.886  -0.661  12.942  1.00  0.00     0.039 C 
HETATM    4  C8  UNL     1      44.789  -1.824  12.038  1.00  0.00     0.115 C 
HETATM    5  N3  UNL     1      44.384  -3.045  12.702  1.00  0.00    -0.421 N 
ATOM      6  H3  UNL     1      43.483  -3.486  12.516  1.00  0.00     0.153 HD
HETATM    7  C9  UNL     1      45.307  -3.594  13.622  1.00  0.00     0.115 C 
HETATM    8  C10 UNL     1      46.618  -2.928  13.767  1.00  0.00     0.039 C 
HETATM    9  C11 UNL     1      46.745  -2.141  15.108  1.00  0.00     0.128 C 
ENDROOT
BRANCH   1  10
HETATM   10  C1  UNL     1      45.310  -0.841  16.538  1.00  0.00     0.217 C 
BRANCH  10  11
HETATM   11  O1  UNL     1      44.039  -0.691  16.869  1.00  0.00    -0.333 OA
ATOM     12  H1  UNL     1      43.498  -0.456  16.124  1.00  0.00     0.220 HD
ENDBRANCH  10  11
BRANCH  10  13
HETATM   13  N1  UNL     1      46.170  -0.472  17.569  1.00  0.00    -0.348 N 
HETATM   14  C2  UNL     1      47.128   0.568  17.682  1.00  0.00     0.126 C 
HETATM   15  C3  UNL     1      47.427   0.769  19.178  1.00  0.00     0.021 C 
HETATM   16  C4  UNL     1      47.330  -0.685  19.645  1.00  0.00     0.021 C 
HETATM   17  C5  UNL     1      46.199  -1.242  18.850  1.00  0.00     0.126 C 
ENDBRANCH  10  13
ENDBRANCH   1  10
TORSDOF 3
ENDMDL
