MODEL 1
REMARK VINA RESULT: -7.330066143      0.000      0.000
REMARK  0 active torsions:
REMARK  status: ('A' for Active; 'I' for Inactive)
REMARK       I    between atoms: C3_3  and  N1_5 
ROOT
HETATM    1  C1  UNL     1      42.618   1.203  17.824  1.00  0.00     0.022 C 
HETATM    2  C2  UNL     1      43.671   0.617  17.773  1.00  0.00    -0.016 C 
HETATM    3  C3  UNL     1      44.947  -0.080  17.733  1.00  0.00     0.297 C 
HETATM    4  O1  UNL     1      45.520  -0.371  18.802  1.00  0.00    -0.258 OA
HETATM    5  N1  UNL     1      45.506  -0.410  16.492  1.00  0.00    -0.341 N 
HETATM    6  C4  UNL     1      44.876  -0.091  15.224  1.00  0.00     0.129 C 
HETATM    7  C5  UNL     1      45.859  -0.476  14.139  1.00  0.00     0.051 C 
HETATM    8  C6  UNL     1      46.021  -1.991  14.215  1.00  0.00     0.032 C 
HETATM    9  C7  UNL     1      46.991  -2.483  13.157  1.00  0.00     0.031 C 
HETATM   10  C8  UNL     1      46.266  -3.312  12.114  1.00  0.00     0.007 C 
HETATM   11  C9  UNL     1      45.026  -2.583  11.643  1.00  0.00     0.044 C 
HETATM   12  C10 UNL     1      44.107  -2.437  12.821  1.00  0.00     0.056 C 
HETATM   13  N2  UNL     1      44.714  -2.567  14.084  1.00  0.00    -0.393 N 
ATOM     14  H2  UNL     1      44.253  -3.041  14.860  1.00  0.00     0.159 HD
HETATM   15  C11 UNL     1      46.546  -2.353  15.591  1.00  0.00     0.051 C 
HETATM   16  C12 UNL     1      46.773  -1.103  16.440  1.00  0.00     0.129 C 
ENDROOT
TORSDOF 0
ENDMDL
MODEL 2
REMARK VINA RESULT: -6.389870393      1.444      2.749
REMARK  0 active torsions:
REMARK  status: ('A' for Active; 'I' for Inactive)
REMARK       I    between atoms: C3_3  and  N1_5 
ROOT
HETATM    1  C1  UNL     1      48.791   0.378  18.399  1.00  0.00     0.022 C 
HETATM    2  C2  UNL     1      47.629   0.372  18.076  1.00  0.00    -0.016 C 
HETATM    3  C3  UNL     1      46.221   0.375  17.709  1.00  0.00     0.297 C 
HETATM    4  O1  UNL     1      45.452   1.204  18.236  1.00  0.00    -0.258 OA
HETATM    5  N1  UNL     1      45.759  -0.555  16.771  1.00  0.00    -0.341 N 
HETATM    6  C4  UNL     1      46.616  -1.538  16.134  1.00  0.00     0.129 C 
HETATM    7  C5  UNL     1      45.714  -2.438  15.315  1.00  0.00     0.051 C 
HETATM    8  C6  UNL     1      45.106  -1.566  14.221  1.00  0.00     0.032 C 
HETATM    9  C7  UNL     1      44.182  -2.381  13.334  1.00  0.00     0.031 C 
HETATM   10  C8  UNL     1      44.763  -2.511  11.939  1.00  0.00     0.007 C 
HETATM   11  C9  UNL     1      46.213  -2.937  12.018  1.00  0.00     0.044 C 
HETATM   12  C10 UNL     1      46.971  -1.849  12.721  1.00  0.00     0.056 C 
HETATM   13  N2  UNL     1      46.191  -0.971  13.498  1.00  0.00    -0.393 N 
ATOM     14  H2  UNL     1      46.387   0.030  13.543  1.00  0.00     0.159 HD
HETATM   15  C11 UNL     1      44.321  -0.446  14.875  1.00  0.00     0.051 C 
HETATM   16  C12 UNL     1      44.362  -0.563  16.398  1.00  0.00     0.129 C 
ENDROOT
TORSDOF 0
ENDMDL
MODEL 3
REMARK VINA RESULT: -6.302080446      2.359      5.429
REMARK  0 active torsions:
REMARK  status: ('A' for Active; 'I' for Inactive)
REMARK       I    between atoms: C3_3  and  N1_5 
ROOT
HETATM    1  C1  UNL     1      45.800  -5.420  13.464  1.00  0.00     0.022 C 
HETATM    2  C2  UNL     1      45.412  -4.280  13.411  1.00  0.00    -0.016 C 
HETATM    3  C3  UNL     1      44.938  -2.907  13.322  1.00  0.00     0.297 C 
HETATM    4  O1  UNL     1      44.069  -2.612  12.476  1.00  0.00    -0.258 OA
HETATM    5  N1  UNL     1      45.468  -1.945  14.189  1.00  0.00    -0.341 N 
HETATM    6  C4  UNL     1      46.480  -2.242  15.186  1.00  0.00     0.129 C 
HETATM    7  C5  UNL     1      46.888  -0.919  15.802  1.00  0.00     0.051 C 
HETATM    8  C6  UNL     1      45.659  -0.379  16.526  1.00  0.00     0.032 C 
HETATM    9  C7  UNL     1      45.965   0.953  17.187  1.00  0.00     0.031 C 
HETATM   10  C8  UNL     1      45.933   0.817  18.697  1.00  0.00     0.007 C 
HETATM   11  C9  UNL     1      46.750  -0.382  19.127  1.00  0.00     0.044 C 
HETATM   12  C10 UNL     1      46.100  -1.607  18.552  1.00  0.00     0.056 C 
HETATM   13  N2  UNL     1      45.239  -1.382  17.461  1.00  0.00    -0.393 N 
ATOM     14  H2  UNL     1      44.369  -1.900  17.342  1.00  0.00     0.159 HD
HETATM   15  C11 UNL     1      44.542  -0.197  15.516  1.00  0.00     0.051 C 
HETATM   16  C12 UNL     1      45.006  -0.578  14.110  1.00  0.00     0.129 C 
ENDROOT
TORSDOF 0
ENDMDL
MODEL 4
REMARK VINA RESULT: -6.211705308      3.778      5.975
REMARK  0 active torsions:
REMARK  status: ('A' for Active; 'I' for Inactive)
REMARK       I    between atoms: C3_3  and  N1_5 
ROOT
HETATM    1  C1  UNL     1      43.206  -7.805  10.814  1.00  0.00     0.022 C 
HETATM    2  C2  UNL     1      44.011  -7.409  11.621  1.00  0.00    -0.016 C 
HETATM    3  C3  UNL     1      44.985  -6.956  12.601  1.00  0.00     0.297 C 
HETATM    4  O1  UNL     1      45.890  -7.732  12.971  1.00  0.00    -0.258 OA
HETATM    5  N1  UNL     1      44.886  -5.657  13.111  1.00  0.00    -0.341 N 
HETATM    6  C4  UNL     1      43.851  -4.721  12.712  1.00  0.00     0.129 C 
HETATM    7  C5  UNL     1      44.003  -3.499  13.594  1.00  0.00     0.051 C 
HETATM    8  C6  UNL     1      45.355  -2.879  13.250  1.00  0.00     0.032 C 
HETATM    9  C7  UNL     1      45.604  -1.635  14.083  1.00  0.00     0.031 C 
HETATM   10  C8  UNL     1      45.598  -0.398  13.205  1.00  0.00     0.007 C 
HETATM   11  C9  UNL     1      44.381  -0.406  12.306  1.00  0.00     0.044 C 
HETATM   12  C10 UNL     1      44.489  -1.599  11.401  1.00  0.00     0.056 C 
HETATM   13  N2  UNL     1      45.357  -2.617  11.841  1.00  0.00    -0.393 N 
ATOM     14  H2  UNL     1      45.952  -3.137  11.195  1.00  0.00     0.159 HD
HETATM   15  C11 UNL     1      46.440  -3.901  13.529  1.00  0.00     0.051 C 
HETATM   16  C12 UNL     1      45.848  -5.195  14.086  1.00  0.00     0.129 C 
ENDROOT
TORSDOF 0
ENDMDL
MODEL 5
REMARK VINA RESULT: -6.147912615      3.015      4.334
REMARK  0 active torsions:
REMARK  status: ('A' for Active; 'I' for Inactive)
REMARK       I    between atoms: C3_3  and  N1_5 
ROOT
HETATM    1  C1  UNL     1      43.998   0.306  12.272  1.00  0.00     0.022 C 
HETATM    2  C2  UNL     1      44.704  -0.452  12.890  1.00  0.00    -0.016 C 
HETATM    3  C3  UNL     1      45.570  -1.345  13.644  1.00  0.00     0.297 C 
HETATM    4  O1  UNL     1      46.164  -0.915  14.654  1.00  0.00    -0.258 OA
HETATM    5  N1  UNL     1      45.719  -2.670  13.219  1.00  0.00    -0.341 N 
HETATM    6  C4  UNL     1      45.049  -3.213  12.051  1.00  0.00     0.129 C 
HETATM    7  C5  UNL     1      45.587  -4.614  11.851  1.00  0.00     0.051 C 
HETATM    8  C6  UNL     1      45.146  -5.427  13.065  1.00  0.00     0.032 C 
HETATM    9  C7  UNL     1      45.634  -6.860  12.959  1.00  0.00     0.031 C 
HETATM   10  C8  UNL     1      44.465  -7.808  12.773  1.00  0.00     0.007 C 
HETATM   11  C9  UNL     1      43.552  -7.297  11.680  1.00  0.00     0.044 C 
HETATM   12  C10 UNL     1      42.994  -5.978  12.130  1.00  0.00     0.056 C 
HETATM   13  N2  UNL     1      43.718  -5.329  13.149  1.00  0.00    -0.393 N 
ATOM     14  H2  UNL     1      43.255  -4.820  13.901  1.00  0.00     0.159 HD
HETATM   15  C11 UNL     1      45.724  -4.786  14.312  1.00  0.00     0.051 C 
HETATM   16  C12 UNL     1      46.576  -3.567  13.960  1.00  0.00     0.129 C 
ENDROOT
TORSDOF 0
ENDMDL
