MODEL 1
REMARK VINA RESULT: -5.741875855      0.000      0.000
REMARK  2 active torsions:
REMARK  status: ('A' for Active; 'I' for Inactive)
REMARK    1  A    between atoms: C2_2  and  C4_4 
REMARK    2  A    between atoms: C5_5  and  C6_6 
ROOT
HETATM    1  C6  UNL     1      45.726  -2.676  12.820  1.00  0.00     0.174 C 
HETATM    2  C7  UNL     1      46.332  -2.473  11.448  1.00  0.00     0.064 C 
HETATM    3  N1  UNL     1      44.815  -1.609  13.161  1.00  0.00    -0.339 N 
ATOM      4  H1  UNL     1      44.142  -1.180  12.526  1.00  0.00     0.164 HD
HETATM    5  C8  UNL     1      45.006  -1.256  14.513  1.00  0.00     0.177 C 
HETATM    6  S1  UNL     1      44.060  -0.296  15.465  1.00  0.00    -0.041 SA
HETATM    7  N2  UNL     1      46.207  -1.881  14.977  1.00  0.00    -0.296 N 
HETATM    8  C9  UNL     1      46.741  -1.755  16.326  1.00  0.00     0.162 C 
HETATM    9  C10 UNL     1      46.744  -2.619  13.894  1.00  0.00     0.266 C 
HETATM   10  O1  UNL     1      47.877  -3.139  13.833  1.00  0.00    -0.269 OA
ENDROOT
BRANCH   1  11
HETATM   11  C5  UNL     1      45.055  -3.991  12.897  1.00  0.00    -0.065 C 
HETATM   12  C4  UNL     1      44.523  -5.075  12.953  1.00  0.00    -0.099 C 
BRANCH  12  13
HETATM   13  C2  UNL     1      43.884  -6.403  12.995  1.00  0.00     0.057 C 
HETATM   14  C1  UNL     1      44.882  -7.437  12.616  1.00  0.00     0.023 C 
HETATM   15  C3  UNL     1      42.689  -6.348  12.081  1.00  0.00     0.023 C 
ENDBRANCH  12  13
ENDBRANCH   1  11
TORSDOF 2
ENDMDL
MODEL 2
REMARK VINA RESULT: -5.443959297      1.468      1.658
REMARK  2 active torsions:
REMARK  status: ('A' for Active; 'I' for Inactive)
REMARK    1  A    between atoms: C2_2  and  C4_4 
REMARK    2  A    between atoms: C5_5  and  C6_6 
ROOT
HETATM    1  C6  UNL     1      44.770  -2.494  12.747  1.00  0.00     0.174 C 
HETATM    2  C7  UNL     1      44.069  -1.662  11.695  1.00  0.00     0.064 C 
HETATM    3  N1  UNL     1      44.649  -1.904  14.058  1.00  0.00    -0.339 N 
ATOM      4  H1  UNL     1      43.806  -1.473  14.438  1.00  0.00     0.164 HD
HETATM    5  C8  UNL     1      45.884  -2.018  14.730  1.00  0.00     0.177 C 
HETATM    6  S1  UNL     1      46.212  -1.751  16.325  1.00  0.00    -0.041 SA
HETATM    7  N2  UNL     1      46.877  -2.423  13.782  1.00  0.00    -0.296 N 
HETATM    8  C9  UNL     1      48.282  -2.648  14.096  1.00  0.00     0.162 C 
HETATM    9  C10 UNL     1      46.233  -2.554  12.527  1.00  0.00     0.266 C 
HETATM   10  O1  UNL     1      46.785  -2.696  11.416  1.00  0.00    -0.269 OA
ENDROOT
BRANCH   1  11
HETATM   11  C5  UNL     1      44.251  -3.879  12.739  1.00  0.00    -0.065 C 
HETATM   12  C4  UNL     1      43.843  -5.016  12.744  1.00  0.00    -0.099 C 
BRANCH  12  13
HETATM   13  C2  UNL     1      43.371  -6.413  12.746  1.00  0.00     0.057 C 
HETATM   14  C1  UNL     1      44.462  -7.298  12.259  1.00  0.00     0.023 C 
HETATM   15  C3  UNL     1      42.127  -6.461  11.900  1.00  0.00     0.023 C 
ENDBRANCH  12  13
ENDBRANCH   1  11
TORSDOF 2
ENDMDL
MODEL 3
REMARK VINA RESULT: -5.298096316      3.741      5.333
REMARK  2 active torsions:
REMARK  status: ('A' for Active; 'I' for Inactive)
REMARK    1  A    between atoms: C2_2  and  C4_4 
REMARK    2  A    between atoms: C5_5  and  C6_6 
ROOT
HETATM    1  C6  UNL     1      45.975  -0.620  17.627  1.00  0.00     0.174 C 
HETATM    2  C7  UNL     1      44.611  -0.011  17.389  1.00  0.00     0.064 C 
HETATM    3  N1  UNL     1      46.019  -1.354  18.868  1.00  0.00    -0.339 N 
ATOM      4  H1  UNL     1      45.283  -1.964  19.222  1.00  0.00     0.164 HD
HETATM    5  C8  UNL     1      47.245  -1.091  19.514  1.00  0.00     0.177 C 
HETATM    6  S1  UNL     1      47.908  -1.868  20.812  1.00  0.00    -0.041 SA
HETATM    7  N2  UNL     1      47.879   0.007  18.852  1.00  0.00    -0.296 N 
HETATM    8  C9  UNL     1      49.166   0.575  19.229  1.00  0.00     0.162 C 
HETATM    9  C10 UNL     1      47.025   0.411  17.796  1.00  0.00     0.266 C 
HETATM   10  O1  UNL     1      47.121   1.452  17.114  1.00  0.00    -0.269 OA
ENDROOT
BRANCH   1  11
HETATM   11  C5  UNL     1      46.362  -1.480  16.488  1.00  0.00    -0.065 C 
HETATM   12  C4  UNL     1      46.676  -2.167  15.545  1.00  0.00    -0.099 C 
BRANCH  12  13
HETATM   13  C2  UNL     1      47.043  -2.992  14.379  1.00  0.00     0.057 C 
HETATM   14  C1  UNL     1      46.964  -2.161  13.149  1.00  0.00     0.023 C 
HETATM   15  C3  UNL     1      46.117  -4.179  14.369  1.00  0.00     0.023 C 
ENDBRANCH  12  13
ENDBRANCH   1  11
TORSDOF 2
ENDMDL
MODEL 4
REMARK VINA RESULT: -5.261144070      1.645      1.888
REMARK  2 active torsions:
REMARK  status: ('A' for Active; 'I' for Inactive)
REMARK    1  A    between atoms: C2_2  and  C4_4 
REMARK    2  A    between atoms: C5_5  and  C6_6 
ROOT
HETATM    1  C6  UNL     1      46.706  -2.775  13.740  1.00  0.00     0.174 C 
HETATM    2  C7  UNL     1      48.192  -3.052  13.797  1.00  0.00     0.064 C 
HETATM    3  N1  UNL     1      46.377  -1.860  12.674  1.00  0.00    -0.339 N 
ATOM      4  H1  UNL     1      46.781  -1.872  11.737  1.00  0.00     0.164 HD
HETATM    5  C8  UNL     1      45.408  -0.945  13.136  1.00  0.00     0.177 C 
HETATM    6  S1  UNL     1      44.507   0.124  12.259  1.00  0.00    -0.041 SA
HETATM    7  N2  UNL     1      45.303  -1.078  14.557  1.00  0.00    -0.296 N 
HETATM    8  C9  UNL     1      44.406  -0.300  15.399  1.00  0.00     0.162 C 
HETATM    9  C10 UNL     1      46.219  -2.083  14.955  1.00  0.00     0.266 C 
HETATM   10  O1  UNL     1      46.571  -2.353  16.122  1.00  0.00    -0.269 OA
ENDROOT
BRANCH   1  11
HETATM   11  C5  UNL     1      45.951  -4.040  13.604  1.00  0.00    -0.065 C 
HETATM   12  C4  UNL     1      45.324  -5.065  13.478  1.00  0.00    -0.099 C 
BRANCH  12  13
HETATM   13  C2  UNL     1      44.537  -6.302  13.319  1.00  0.00     0.057 C 
HETATM   14  C1  UNL     1      45.440  -7.404  12.894  1.00  0.00     0.023 C 
HETATM   15  C3  UNL     1      43.439  -6.003  12.334  1.00  0.00     0.023 C 
ENDBRANCH  12  13
ENDBRANCH   1  11
TORSDOF 2
ENDMDL
MODEL 5
REMARK VINA RESULT: -5.068225764      6.370      8.229
REMARK  2 active torsions:
REMARK  status: ('A' for Active; 'I' for Inactive)
REMARK    1  A    between atoms: C2_2  and  C4_4 
REMARK    2  A    between atoms: C5_5  and  C6_6 
ROOT
HETATM    1  C6  UNL     1      48.657   0.410  20.407  1.00  0.00     0.174 C 
HETATM    2  C7  UNL     1      48.523   1.763  21.070  1.00  0.00     0.064 C 
HETATM    3  N1  UNL     1      48.834  -0.642  21.379  1.00  0.00    -0.339 N 
ATOM      4  H1  UNL     1      48.336  -0.719  22.266  1.00  0.00     0.164 HD
HETATM    5  C8  UNL     1      49.808  -1.545  20.906  1.00  0.00     0.177 C 
HETATM    6  S1  UNL     1      50.191  -3.040  21.493  1.00  0.00    -0.041 SA
HETATM    7  N2  UNL     1      50.461  -0.955  19.778  1.00  0.00    -0.296 N 
HETATM    8  C9  UNL     1      51.530  -1.584  19.014  1.00  0.00     0.162 C 
HETATM    9  C10 UNL     1      49.874   0.317  19.569  1.00  0.00     0.266 C 
HETATM   10  O1  UNL     1      50.294   1.219  18.815  1.00  0.00    -0.269 OA
ENDROOT
BRANCH   1  11
HETATM   11  C5  UNL     1      47.487   0.142  19.543  1.00  0.00    -0.065 C 
HETATM   12  C4  UNL     1      46.525  -0.059  18.840  1.00  0.00    -0.099 C 
BRANCH  12  13
HETATM   13  C2  UNL     1      45.335  -0.290  18.000  1.00  0.00     0.057 C 
HETATM   14  C1  UNL     1      45.755  -0.396  16.578  1.00  0.00     0.023 C 
HETATM   15  C3  UNL     1      44.378   0.840  18.269  1.00  0.00     0.023 C 
ENDBRANCH  12  13
ENDBRANCH   1  11
TORSDOF 2
ENDMDL
