MODEL 1
REMARK VINA RESULT: -6.168298565      0.000      0.000
REMARK  7 active torsions:
REMARK  status: ('A' for Active; 'I' for Inactive)
REMARK    1  A    between atoms: C2_2  and  O1_3 
REMARK    2  A    between atoms: C2_2  and  C22_26 
REMARK    3  A    between atoms: O1_3  and  C3_4 
REMARK    4  A    between atoms: C3_4  and  C5_6 
REMARK    5  A    between atoms: C3_4  and  C16_19 
REMARK    6  A    between atoms: C5_6  and  C6_7 
REMARK    7  A    between atoms: C6_7  and  O2_8 
ROOT
HETATM    1  C16 UNL     1      12.778  20.054  38.112  1.00  0.00     0.080 C 
HETATM    2  C17 UNL     1      13.248  21.149  37.264  1.00  0.00     0.072 C 
HETATM    3  N1  UNL     1      13.643  22.031  36.592  1.00  0.00    -0.196 NA
HETATM    4  C18 UNL     1      13.348  18.796  37.517  1.00  0.00     0.028 C 
HETATM    5  C19 UNL     1      14.731  18.621  38.133  1.00  0.00     0.002 C 
HETATM    6  C20 UNL     1      14.855  19.603  39.253  1.00  0.00     0.002 C 
HETATM    7  C21 UNL     1      13.442  20.158  39.437  1.00  0.00     0.028 C 
ENDROOT
BRANCH   1   8
HETATM    8  C3  UNL     1      11.272  20.078  38.103  1.00  0.00     0.082 C 
HETATM    9  C4  UNL     1      10.810  19.247  39.294  1.00  0.00     0.048 C 
BRANCH   8  10
HETATM   10  O1  UNL     1      10.651  21.247  37.978  1.00  0.00    -0.363 OA
BRANCH  10  11
HETATM   11  C2  UNL     1      10.167  21.982  38.956  1.00  0.00     0.219 C 
HETATM   12  C1  UNL     1       8.697  22.443  38.723  1.00  0.00     0.051 C 
BRANCH  11  13
HETATM   13  C22 UNL     1      10.897  23.256  39.044  1.00  0.00     0.202 C 
HETATM   14  O3  UNL     1      10.521  24.289  38.432  1.00  0.00    -0.646 OA
HETATM   15  O4  UNL     1      12.033  23.352  39.813  1.00  0.00    -0.646 OA
ENDBRANCH  11  13
ENDBRANCH  10  11
ENDBRANCH   8  10
BRANCH   8  16
HETATM   16  C5  UNL     1      10.928  19.302  36.833  1.00  0.00     0.077 C 
BRANCH  16  17
HETATM   17  C6  UNL     1       9.767  19.719  36.053  1.00  0.00     0.060 C 
HETATM   18  C7  UNL     1       9.778  21.031  35.378  1.00  0.00     0.038 C 
HETATM   19  C8  UNL     1      10.838  21.199  34.319  1.00  0.00     0.003 C 
HETATM   20  C9  UNL     1      10.250  21.664  32.988  1.00  0.00     0.000 C 
HETATM   21  C10 UNL     1      10.360  20.646  31.909  1.00  0.00     0.000 C 
HETATM   22  C11 UNL     1       9.074  20.318  31.220  1.00  0.00     0.000 C 
HETATM   23  C12 UNL     1       8.018  19.754  32.111  1.00  0.00     0.000 C 
HETATM   24  C13 UNL     1       8.407  18.476  32.794  1.00  0.00     0.000 C 
HETATM   25  C14 UNL     1       8.290  18.612  34.321  1.00  0.00     0.003 C 
HETATM   26  C15 UNL     1       9.627  18.616  34.974  1.00  0.00     0.038 C 
BRANCH  17  27
HETATM   27  O2  UNL     1       8.532  19.594  36.728  1.00  0.00    -0.390 OA
ATOM     28  H2  UNL     1       7.858  19.142  36.235  1.00  0.00     0.210 HD
ENDBRANCH  17  27
ENDBRANCH  16  17
ENDBRANCH   8  16
ENDBRANCH   1   8
TORSDOF 7
ENDMDL
MODEL 2
REMARK VINA RESULT: -5.968385447      0.939      1.115
REMARK  7 active torsions:
REMARK  status: ('A' for Active; 'I' for Inactive)
REMARK    1  A    between atoms: C2_2  and  O1_3 
REMARK    2  A    between atoms: C2_2  and  C22_26 
REMARK    3  A    between atoms: O1_3  and  C3_4 
REMARK    4  A    between atoms: C3_4  and  C5_6 
REMARK    5  A    between atoms: C3_4  and  C16_19 
REMARK    6  A    between atoms: C5_6  and  C6_7 
REMARK    7  A    between atoms: C6_7  and  O2_8 
ROOT
HETATM    1  C16 UNL     1      12.314  18.985  38.098  1.00  0.00     0.080 C 
HETATM    2  C17 UNL     1      13.108  19.565  37.017  1.00  0.00     0.072 C 
HETATM    3  N1  UNL     1      13.765  20.033  36.159  1.00  0.00    -0.196 NA
HETATM    4  C18 UNL     1      12.514  17.497  38.005  1.00  0.00     0.028 C 
HETATM    5  C19 UNL     1      13.765  17.184  38.817  1.00  0.00     0.002 C 
HETATM    6  C20 UNL     1      14.131  18.417  39.579  1.00  0.00     0.002 C 
HETATM    7  C21 UNL     1      12.934  19.351  39.397  1.00  0.00     0.028 C 
ENDROOT
BRANCH   1   8
HETATM    8  C3  UNL     1      10.880  19.399  37.889  1.00  0.00     0.082 C 
HETATM    9  C4  UNL     1      10.060  18.716  38.977  1.00  0.00     0.048 C 
BRANCH   8  10
HETATM   10  O1  UNL     1      10.603  20.688  37.724  1.00  0.00    -0.363 OA
BRANCH  10  11
HETATM   11  C2  UNL     1      10.274  21.543  38.668  1.00  0.00     0.219 C 
HETATM   12  C1  UNL     1       8.798  22.035  38.579  1.00  0.00     0.051 C 
BRANCH  11  13
HETATM   13  C22 UNL     1      11.042  22.789  38.518  1.00  0.00     0.202 C 
HETATM   14  O3  UNL     1      12.299  22.799  38.459  1.00  0.00    -0.646 OA
HETATM   15  O4  UNL     1      10.392  23.997  38.438  1.00  0.00    -0.646 OA
ENDBRANCH  11  13
ENDBRANCH  10  11
ENDBRANCH   8  10
BRANCH   8  16
HETATM   16  C5  UNL     1      10.527  18.739  36.558  1.00  0.00     0.077 C 
BRANCH  16  17
HETATM   17  C6  UNL     1       9.431  19.295  35.771  1.00  0.00     0.060 C 
HETATM   18  C7  UNL     1       9.558  20.653  35.206  1.00  0.00     0.038 C 
HETATM   19  C8  UNL     1      10.672  20.831  34.206  1.00  0.00     0.003 C 
HETATM   20  C9  UNL     1      10.174  21.439  32.897  1.00  0.00     0.000 C 
HETATM   21  C10 UNL     1      10.264  20.506  31.742  1.00  0.00     0.000 C 
HETATM   22  C11 UNL     1       8.991  20.324  30.980  1.00  0.00     0.000 C 
HETATM   23  C12 UNL     1       7.862  19.766  31.781  1.00  0.00     0.000 C 
HETATM   24  C13 UNL     1       8.135  18.414  32.372  1.00  0.00     0.000 C 
HETATM   25  C14 UNL     1       7.961  18.435  33.898  1.00  0.00     0.003 C 
HETATM   26  C15 UNL     1       9.265  18.294  34.600  1.00  0.00     0.038 C 
BRANCH  17  27
HETATM   27  O2  UNL     1       8.162  19.203  36.386  1.00  0.00    -0.390 OA
ATOM     28  H2  UNL     1       7.449  19.010  35.789  1.00  0.00     0.210 HD
ENDBRANCH  17  27
ENDBRANCH  16  17
ENDBRANCH   8  16
ENDBRANCH   1   8
TORSDOF 7
ENDMDL
MODEL 3
REMARK VINA RESULT: -5.914666635      1.359      1.732
REMARK  7 active torsions:
REMARK  status: ('A' for Active; 'I' for Inactive)
REMARK    1  A    between atoms: C2_2  and  O1_3 
REMARK    2  A    between atoms: C2_2  and  C22_26 
REMARK    3  A    between atoms: O1_3  and  C3_4 
REMARK    4  A    between atoms: C3_4  and  C5_6 
REMARK    5  A    between atoms: C3_4  and  C16_19 
REMARK    6  A    between atoms: C5_6  and  C6_7 
REMARK    7  A    between atoms: C6_7  and  O2_8 
ROOT
HETATM    1  C16 UNL     1      12.456  18.968  38.003  1.00  0.00     0.080 C 
HETATM    2  C17 UNL     1      12.541  17.512  37.907  1.00  0.00     0.072 C 
HETATM    3  N1  UNL     1      12.628  16.341  37.823  1.00  0.00    -0.196 NA
HETATM    4  C18 UNL     1      13.029  19.329  39.347  1.00  0.00     0.028 C 
HETATM    5  C19 UNL     1      14.532  19.475  39.143  1.00  0.00     0.002 C 
HETATM    6  C20 UNL     1      14.794  19.461  37.672  1.00  0.00     0.002 C 
HETATM    7  C21 UNL     1      13.408  19.568  37.034  1.00  0.00     0.028 C 
ENDROOT
BRANCH   1   8
HETATM    8  C3  UNL     1      11.007  19.355  37.860  1.00  0.00     0.082 C 
HETATM    9  C4  UNL     1      10.248  18.648  38.976  1.00  0.00     0.048 C 
BRANCH   8  10
HETATM   10  O1  UNL     1      10.698  20.641  37.719  1.00  0.00    -0.363 OA
BRANCH  10  11
HETATM   11  C2  UNL     1      10.376  21.476  38.683  1.00  0.00     0.219 C 
HETATM   12  C1  UNL     1       8.883  21.920  38.652  1.00  0.00     0.051 C 
BRANCH  11  13
HETATM   13  C22 UNL     1      11.097  22.748  38.518  1.00  0.00     0.202 C 
HETATM   14  O3  UNL     1      12.353  22.803  38.454  1.00  0.00    -0.646 OA
HETATM   15  O4  UNL     1      10.403  23.931  38.428  1.00  0.00    -0.646 OA
ENDBRANCH  11  13
ENDBRANCH  10  11
ENDBRANCH   8  10
BRANCH   8  16
HETATM   16  C5  UNL     1      10.609  18.700  36.539  1.00  0.00     0.077 C 
BRANCH  16  17
HETATM   17  C6  UNL     1       9.496  19.268  35.785  1.00  0.00     0.060 C 
HETATM   18  C7  UNL     1       9.616  20.628  35.225  1.00  0.00     0.038 C 
HETATM   19  C8  UNL     1      10.704  20.805  34.197  1.00  0.00     0.003 C 
HETATM   20  C9  UNL     1      10.176  21.425  32.905  1.00  0.00     0.000 C 
HETATM   21  C10 UNL     1      10.230  20.497  31.743  1.00  0.00     0.000 C 
HETATM   22  C11 UNL     1       8.936  20.327  31.013  1.00  0.00     0.000 C 
HETATM   23  C12 UNL     1       7.825  19.771  31.841  1.00  0.00     0.000 C 
HETATM   24  C13 UNL     1       8.106  18.413  32.416  1.00  0.00     0.000 C 
HETATM   25  C14 UNL     1       7.972  18.427  33.946  1.00  0.00     0.003 C 
HETATM   26  C15 UNL     1       9.293  18.274  34.613  1.00  0.00     0.038 C 
BRANCH  17  27
HETATM   27  O2  UNL     1       8.243  19.179  36.432  1.00  0.00    -0.390 OA
ATOM     28  H2  UNL     1       7.505  19.450  35.900  1.00  0.00     0.210 HD
ENDBRANCH  17  27
ENDBRANCH  16  17
ENDBRANCH   8  16
ENDBRANCH   1   8
TORSDOF 7
ENDMDL
MODEL 4
REMARK VINA RESULT: -5.810857163      2.834      6.281
REMARK  7 active torsions:
REMARK  status: ('A' for Active; 'I' for Inactive)
REMARK    1  A    between atoms: C2_2  and  O1_3 
REMARK    2  A    between atoms: C2_2  and  C22_26 
REMARK    3  A    between atoms: O1_3  and  C3_4 
REMARK    4  A    between atoms: C3_4  and  C5_6 
REMARK    5  A    between atoms: C3_4  and  C16_19 
REMARK    6  A    between atoms: C5_6  and  C6_7 
REMARK    7  A    between atoms: C6_7  and  O2_8 
ROOT
HETATM    1  C16 UNL     1      12.824  18.622  39.432  1.00  0.00     0.080 C 
HETATM    2  C17 UNL     1      12.955  17.259  38.919  1.00  0.00     0.072 C 
HETATM    3  N1  UNL     1      13.063  16.155  38.525  1.00  0.00    -0.196 NA
HETATM    4  C18 UNL     1      11.368  18.799  39.768  1.00  0.00     0.028 C 
HETATM    5  C19 UNL     1      11.196  18.293  41.195  1.00  0.00     0.002 C 
HETATM    6  C20 UNL     1      12.559  18.074  41.767  1.00  0.00     0.002 C 
HETATM    7  C21 UNL     1      13.509  18.706  40.747  1.00  0.00     0.028 C 
ENDROOT
BRANCH   1   8
HETATM    8  C3  UNL     1      13.297  19.566  38.358  1.00  0.00     0.082 C 
HETATM    9  C4  UNL     1      14.666  19.072  37.907  1.00  0.00     0.048 C 
BRANCH   8  10
HETATM   10  O1  UNL     1      12.470  19.870  37.362  1.00  0.00    -0.363 OA
BRANCH  10  11
HETATM   11  C2  UNL     1      12.300  19.185  36.253  1.00  0.00     0.219 C 
HETATM   12  C1  UNL     1      12.653  19.984  34.963  1.00  0.00     0.051 C 
BRANCH  11  13
HETATM   13  C22 UNL     1      10.875  18.872  36.061  1.00  0.00     0.202 C 
HETATM   14  O3  UNL     1      10.330  17.871  36.596  1.00  0.00    -0.646 OA
HETATM   15  O4  UNL     1      10.088  19.681  35.276  1.00  0.00    -0.646 OA
ENDBRANCH  11  13
ENDBRANCH  10  11
ENDBRANCH   8  10
BRANCH   8  16
HETATM   16  C5  UNL     1      13.504  20.873  39.121  1.00  0.00     0.077 C 
BRANCH  16  17
HETATM   17  C6  UNL     1      13.061  22.119  38.506  1.00  0.00     0.060 C 
HETATM   18  C7  UNL     1      11.618  22.422  38.434  1.00  0.00     0.038 C 
HETATM   19  C8  UNL     1      10.925  22.565  39.765  1.00  0.00     0.003 C 
HETATM   20  C9  UNL     1      10.155  23.879  39.871  1.00  0.00     0.000 C 
HETATM   21  C10 UNL     1      10.719  24.813  40.883  1.00  0.00     0.000 C 
HETATM   22  C11 UNL     1      11.018  26.186  40.374  1.00  0.00     0.000 C 
HETATM   23  C12 UNL     1      12.021  26.235  39.270  1.00  0.00     0.000 C 
HETATM   24  C13 UNL     1      13.365  25.676  39.634  1.00  0.00     0.000 C 
HETATM   25  C14 UNL     1      13.768  24.544  38.676  1.00  0.00     0.003 C 
HETATM   26  C15 UNL     1      13.748  23.220  39.352  1.00  0.00     0.038 C 
BRANCH  17  27
HETATM   27  O2  UNL     1      13.616  22.373  37.232  1.00  0.00    -0.390 OA
ATOM     28  H2  UNL     1      13.558  23.279  36.950  1.00  0.00     0.210 HD
ENDBRANCH  17  27
ENDBRANCH  16  17
ENDBRANCH   8  16
ENDBRANCH   1   8
TORSDOF 7
ENDMDL
MODEL 5
REMARK VINA RESULT: -5.765305722      2.843      4.587
REMARK  7 active torsions:
REMARK  status: ('A' for Active; 'I' for Inactive)
REMARK    1  A    between atoms: C2_2  and  O1_3 
REMARK    2  A    between atoms: C2_2  and  C22_26 
REMARK    3  A    between atoms: O1_3  and  C3_4 
REMARK    4  A    between atoms: C3_4  and  C5_6 
REMARK    5  A    between atoms: C3_4  and  C16_19 
REMARK    6  A    between atoms: C5_6  and  C6_7 
REMARK    7  A    between atoms: C6_7  and  O2_8 
ROOT
HETATM    1  C16 UNL     1      10.296  17.449  38.682  1.00  0.00     0.080 C 
HETATM    2  C17 UNL     1      10.398  16.934  40.046  1.00  0.00     0.072 C 
HETATM    3  N1  UNL     1      10.462  16.510  41.143  1.00  0.00    -0.196 NA
HETATM    4  C18 UNL     1      10.842  16.368  37.789  1.00  0.00     0.028 C 
HETATM    5  C19 UNL     1       9.673  15.441  37.479  1.00  0.00     0.002 C 
HETATM    6  C20 UNL     1       8.425  16.108  37.960  1.00  0.00     0.002 C 
HETATM    7  C21 UNL     1       8.861  17.532  38.309  1.00  0.00     0.028 C 
ENDROOT
BRANCH   1   8
HETATM    8  C3  UNL     1      11.091  18.726  38.611  1.00  0.00     0.082 C 
HETATM    9  C4  UNL     1      10.882  19.452  39.935  1.00  0.00     0.048 C 
BRANCH   8  10
HETATM   10  O1  UNL     1      12.358  18.671  38.213  1.00  0.00    -0.363 OA
BRANCH  10  11
HETATM   11  C2  UNL     1      13.419  18.926  38.949  1.00  0.00     0.219 C 
HETATM   12  C1  UNL     1      14.718  19.147  38.117  1.00  0.00     0.051 C 
BRANCH  11  13
HETATM   13  C22 UNL     1      13.758  17.757  39.776  1.00  0.00     0.202 C 
HETATM   14  O3  UNL     1      13.854  17.827  41.029  1.00  0.00    -0.646 OA
HETATM   15  O4  UNL     1      13.984  16.535  39.189  1.00  0.00    -0.646 OA
ENDBRANCH  11  13
ENDBRANCH  10  11
ENDBRANCH   8  10
BRANCH   8  16
HETATM   16  C5  UNL     1      10.364  19.519  37.527  1.00  0.00     0.077 C 
BRANCH  16  17
HETATM   17  C6  UNL     1      10.970  19.609  36.202  1.00  0.00     0.060 C 
HETATM   18  C7  UNL     1      10.752  18.522  35.228  1.00  0.00     0.038 C 
HETATM   19  C8  UNL     1       9.318  18.311  34.812  1.00  0.00     0.003 C 
HETATM   20  C9  UNL     1       9.156  18.322  33.293  1.00  0.00     0.000 C 
HETATM   21  C10 UNL     1       8.371  19.483  32.794  1.00  0.00     0.000 C 
HETATM   22  C11 UNL     1       9.044  20.284  31.726  1.00  0.00     0.000 C 
HETATM   23  C12 UNL     1      10.340  20.901  32.136  1.00  0.00     0.000 C 
HETATM   24  C13 UNL     1      10.231  21.848  33.295  1.00  0.00     0.000 C 
HETATM   25  C14 UNL     1      11.157  21.420  34.444  1.00  0.00     0.003 C 
HETATM   26  C15 UNL     1      10.386  20.917  35.611  1.00  0.00     0.038 C 
BRANCH  17  27
HETATM   27  O2  UNL     1      12.351  19.909  36.208  1.00  0.00    -0.390 OA
ATOM     28  H2  UNL     1      12.880  19.341  35.660  1.00  0.00     0.210 HD
ENDBRANCH  17  27
ENDBRANCH  16  17
ENDBRANCH   8  16
ENDBRANCH   1   8
TORSDOF 7
ENDMDL
