MODEL 1
REMARK VINA RESULT: -8.177391130      0.000      0.000
REMARK  7 active torsions:
REMARK  status: ('A' for Active; 'I' for Inactive)
REMARK    1  A    between atoms: C2_2  and  C3_3 
REMARK    2  A    between atoms: C3_3  and  C4_4 
REMARK    3  A    between atoms: C4_4  and  C5_5 
REMARK    4  A    between atoms: C5_5  and  O1_6 
REMARK    5  A    between atoms: O1_6  and  C6_7 
REMARK    6  A    between atoms: C10_11  and  O2_12 
REMARK    7  A    between atoms: C21_24  and  O3_25 
ROOT
HETATM    1  C6  UNL     1      27.096  20.517  32.610  1.00  0.00     0.131 C 
HETATM    2  C7  UNL     1      26.932  21.934  33.119  1.00  0.00     0.038 C 
HETATM    3  C8  UNL     1      26.800  22.925  31.992  1.00  0.00    -0.001 C 
HETATM    4  C9  UNL     1      26.758  24.256  32.703  1.00  0.00     0.037 C 
HETATM    5  C10 UNL     1      26.903  25.469  31.894  1.00  0.00     0.118 C 
HETATM    6  C11 UNL     1      28.081  25.319  30.959  1.00  0.00     0.032 C 
HETATM    7  C12 UNL     1      28.787  24.011  31.181  1.00  0.00     0.012 C 
HETATM    8  C13 UNL     1      27.840  22.816  30.941  1.00  0.00    -0.036 C 
HETATM    9  C14 UNL     1      27.167  23.188  29.612  1.00  0.00     0.016 C 
HETATM   10  C15 UNL     1      28.590  21.551  30.835  1.00  0.00     0.006 C 
HETATM   11  C16 UNL     1      28.585  20.942  29.430  1.00  0.00     0.007 C 
HETATM   12  C17 UNL     1      27.620  19.819  29.268  1.00  0.00     0.015 C 
HETATM   13  C18 UNL     1      28.155  18.620  30.044  1.00  0.00    -0.002 C 
HETATM   14  C19 UNL     1      27.072  17.626  30.320  1.00  0.00     0.021 C 
HETATM   15  C20 UNL     1      29.184  17.943  29.165  1.00  0.00     0.052 C 
HETATM   16  C21 UNL     1      30.209  17.179  29.911  1.00  0.00     0.157 C 
HETATM   17  C22 UNL     1      30.012  17.126  31.405  1.00  0.00     0.092 C 
HETATM   18  N1  UNL     1      29.602  18.391  31.872  1.00  0.00    -0.372 N 
ATOM     19  H1  UNL     1      30.024  18.729  32.737  1.00  0.00     0.164 HD
HETATM   20  C23 UNL     1      28.745  19.153  31.301  1.00  0.00     0.001 C 
HETATM   21  C24 UNL     1      28.378  20.497  31.867  1.00  0.00     0.066 C 
ENDROOT
BRANCH   1  22
HETATM   22  O1  UNL     1      27.262  19.742  33.785  1.00  0.00    -0.385 OA
BRANCH  22  23
HETATM   23  C5  UNL     1      26.202  18.922  34.060  1.00  0.00     0.168 C 
BRANCH  23  24
HETATM   24  C4  UNL     1      26.658  17.505  33.677  1.00  0.00     0.026 C 
BRANCH  24  25
HETATM   25  C3  UNL     1      25.598  16.499  34.071  1.00  0.00     0.002 C 
BRANCH  25  26
HETATM   26  C2  UNL     1      26.344  15.329  34.714  1.00  0.00    -0.004 C 
HETATM   27  C1  UNL     1      27.811  15.359  34.344  1.00  0.00     0.005 C 
ENDBRANCH  25  26
ENDBRANCH  24  25
ENDBRANCH  23  24
ENDBRANCH  22  23
ENDBRANCH   1  22
BRANCH   5  28
HETATM   28  O2  UNL     1      27.115  26.545  32.767  1.00  0.00    -0.396 OA
ATOM     29  H2  UNL     1      28.049  26.715  32.797  1.00  0.00     0.210 HD
ENDBRANCH   5  28
BRANCH  16  30
HETATM   30  O3  UNL     1      31.488  17.736  29.689  1.00  0.00    -0.390 OA
ATOM     31  H3  UNL     1      32.048  17.106  29.251  1.00  0.00     0.210 HD
ENDBRANCH  16  30
TORSDOF 7
ENDMDL
MODEL 2
REMARK VINA RESULT: -7.568007620     15.669     18.219
REMARK  7 active torsions:
REMARK  status: ('A' for Active; 'I' for Inactive)
REMARK    1  A    between atoms: C2_2  and  C3_3 
REMARK    2  A    between atoms: C3_3  and  C4_4 
REMARK    3  A    between atoms: C4_4  and  C5_5 
REMARK    4  A    between atoms: C5_5  and  O1_6 
REMARK    5  A    between atoms: O1_6  and  C6_7 
REMARK    6  A    between atoms: C10_11  and  O2_12 
REMARK    7  A    between atoms: C21_24  and  O3_25 
ROOT
HETATM    1  C6  UNL     1      14.520  27.716  41.660  1.00  0.00     0.131 C 
HETATM    2  C7  UNL     1      15.928  28.272  41.695  1.00  0.00     0.038 C 
HETATM    3  C8  UNL     1      16.723  27.870  40.479  1.00  0.00    -0.001 C 
HETATM    4  C9  UNL     1      18.097  28.426  40.763  1.00  0.00     0.037 C 
HETATM    5  C10 UNL     1      19.203  27.989  39.906  1.00  0.00     0.118 C 
HETATM    6  C11 UNL     1      19.174  26.484  39.770  1.00  0.00     0.032 C 
HETATM    7  C12 UNL     1      18.073  25.884  40.597  1.00  0.00     0.012 C 
HETATM    8  C13 UNL     1      16.692  26.421  40.166  1.00  0.00    -0.036 C 
HETATM    9  C14 UNL     1      16.751  26.298  38.637  1.00  0.00     0.016 C 
HETATM   10  C15 UNL     1      15.600  25.611  40.734  1.00  0.00     0.006 C 
HETATM   11  C16 UNL     1      14.830  24.790  39.697  1.00  0.00     0.007 C 
HETATM   12  C17 UNL     1      13.525  25.392  39.306  1.00  0.00     0.015 C 
HETATM   13  C18 UNL     1      12.565  25.246  40.482  1.00  0.00    -0.002 C 
HETATM   14  C19 UNL     1      11.418  26.198  40.366  1.00  0.00     0.021 C 
HETATM   15  C20 UNL     1      12.003  23.843  40.427  1.00  0.00     0.052 C 
HETATM   16  C21 UNL     1      11.560  23.316  41.738  1.00  0.00     0.157 C 
HETATM   17  C22 UNL     1      11.657  24.287  42.888  1.00  0.00     0.092 C 
HETATM   18  N1  UNL     1      12.864  25.010  42.793  1.00  0.00    -0.372 N 
ATOM     19  H1  UNL     1      13.386  25.163  43.656  1.00  0.00     0.164 HD
HETATM   20  C23 UNL     1      13.360  25.492  41.714  1.00  0.00     0.001 C 
HETATM   21  C24 UNL     1      14.664  26.241  41.707  1.00  0.00     0.066 C 
ENDROOT
BRANCH   1  22
HETATM   22  O1  UNL     1      13.949  28.137  42.886  1.00  0.00    -0.385 OA
BRANCH  22  23
HETATM   23  C5  UNL     1      14.384  29.365  43.305  1.00  0.00     0.168 C 
BRANCH  23  24
HETATM   24  C4  UNL     1      14.038  29.445  44.800  1.00  0.00     0.026 C 
BRANCH  24  25
HETATM   25  C3  UNL     1      12.898  28.500  45.116  1.00  0.00     0.002 C 
BRANCH  25  26
HETATM   26  C2  UNL     1      13.313  27.745  46.380  1.00  0.00    -0.004 C 
HETATM   27  C1  UNL     1      12.991  26.271  46.256  1.00  0.00     0.005 C 
ENDBRANCH  25  26
ENDBRANCH  24  25
ENDBRANCH  23  24
ENDBRANCH  22  23
ENDBRANCH   1  22
BRANCH   5  28
HETATM   28  O2  UNL     1      20.400  28.395  40.510  1.00  0.00    -0.396 OA
ATOM     29  H2  UNL     1      21.113  28.162  39.927  1.00  0.00     0.210 HD
ENDBRANCH   5  28
BRANCH  16  30
HETATM   30  O3  UNL     1      12.329  22.186  42.093  1.00  0.00    -0.390 OA
ATOM     31  H3  UNL     1      12.580  22.236  43.008  1.00  0.00     0.210 HD
ENDBRANCH  16  30
TORSDOF 7
ENDMDL
MODEL 3
REMARK VINA RESULT: -7.527928077     16.006     18.502
REMARK  7 active torsions:
REMARK  status: ('A' for Active; 'I' for Inactive)
REMARK    1  A    between atoms: C2_2  and  C3_3 
REMARK    2  A    between atoms: C3_3  and  C4_4 
REMARK    3  A    between atoms: C4_4  and  C5_5 
REMARK    4  A    between atoms: C5_5  and  O1_6 
REMARK    5  A    between atoms: O1_6  and  C6_7 
REMARK    6  A    between atoms: C10_11  and  O2_12 
REMARK    7  A    between atoms: C21_24  and  O3_25 
ROOT
HETATM    1  C6  UNL     1      11.338  20.136  35.240  1.00  0.00     0.131 C 
HETATM    2  C7  UNL     1      11.145  20.357  33.754  1.00  0.00     0.038 C 
HETATM    3  C8  UNL     1       9.689  20.335  33.366  1.00  0.00    -0.001 C 
HETATM    4  C9  UNL     1       9.729  20.462  31.863  1.00  0.00     0.037 C 
HETATM    5  C10 UNL     1       8.491  20.205  31.121  1.00  0.00     0.118 C 
HETATM    6  C11 UNL     1       7.868  18.916  31.604  1.00  0.00     0.032 C 
HETATM    7  C12 UNL     1       8.727  18.253  32.643  1.00  0.00     0.012 C 
HETATM    8  C13 UNL     1       8.928  19.167  33.870  1.00  0.00    -0.036 C 
HETATM    9  C14 UNL     1       7.501  19.658  34.154  1.00  0.00     0.016 C 
HETATM   10  C15 UNL     1       9.482  18.417  35.013  1.00  0.00     0.006 C 
HETATM   11  C16 UNL     1       8.501  18.242  36.175  1.00  0.00     0.007 C 
HETATM   12  C17 UNL     1       8.737  19.183  37.305  1.00  0.00     0.015 C 
HETATM   13  C18 UNL     1      10.020  18.761  38.012  1.00  0.00    -0.002 C 
HETATM   14  C19 UNL     1      10.575  19.876  38.840  1.00  0.00     0.021 C 
HETATM   15  C20 UNL     1       9.661  17.630  38.950  1.00  0.00     0.052 C 
HETATM   16  C21 UNL     1      10.785  16.715  39.255  1.00  0.00     0.157 C 
HETATM   17  C22 UNL     1      12.113  17.107  38.658  1.00  0.00     0.092 C 
HETATM   18  N1  UNL     1      11.920  17.567  37.339  1.00  0.00    -0.372 N 
ATOM     19  H1  UNL     1      12.591  17.260  36.635  1.00  0.00     0.164 HD
HETATM   20  C23 UNL     1      10.973  18.338  36.951  1.00  0.00     0.001 C 
HETATM   21  C24 UNL     1      10.839  18.768  35.517  1.00  0.00     0.066 C 
ENDROOT
BRANCH   1  22
HETATM   22  O1  UNL     1      12.745  20.130  35.412  1.00  0.00    -0.385 OA
BRANCH  22  23
HETATM   23  C5  UNL     1      13.310  21.376  35.384  1.00  0.00     0.168 C 
BRANCH  23  24
HETATM   24  C4  UNL     1      14.087  21.513  36.702  1.00  0.00     0.026 C 
BRANCH  24  25
HETATM   25  C3  UNL     1      14.488  20.144  37.208  1.00  0.00     0.002 C 
BRANCH  25  26
HETATM   26  C2  UNL     1      14.275  20.173  38.722  1.00  0.00    -0.004 C 
HETATM   27  C1  UNL     1      13.806  21.540  39.172  1.00  0.00     0.005 C 
ENDBRANCH  25  26
ENDBRANCH  24  25
ENDBRANCH  23  24
ENDBRANCH  22  23
ENDBRANCH   1  22
BRANCH   5  28
HETATM   28  O2  UNL     1       8.818  20.103  29.762  1.00  0.00    -0.396 OA
ATOM     29  H2  UNL     1       8.154  19.569  29.343  1.00  0.00     0.210 HD
ENDBRANCH   5  28
BRANCH  16  30
HETATM   30  O3  UNL     1      10.495  15.415  38.785  1.00  0.00    -0.390 OA
ATOM     31  H3  UNL     1      10.740  14.770  39.437  1.00  0.00     0.210 HD
ENDBRANCH  16  30
TORSDOF 7
ENDMDL
MODEL 4
REMARK VINA RESULT: -7.388385309     15.591     18.365
REMARK  7 active torsions:
REMARK  status: ('A' for Active; 'I' for Inactive)
REMARK    1  A    between atoms: C2_2  and  C3_3 
REMARK    2  A    between atoms: C3_3  and  C4_4 
REMARK    3  A    between atoms: C4_4  and  C5_5 
REMARK    4  A    between atoms: C5_5  and  O1_6 
REMARK    5  A    between atoms: O1_6  and  C6_7 
REMARK    6  A    between atoms: C10_11  and  O2_12 
REMARK    7  A    between atoms: C21_24  and  O3_25 
ROOT
HETATM    1  C6  UNL     1      14.593  27.737  41.620  1.00  0.00     0.131 C 
HETATM    2  C7  UNL     1      16.006  28.281  41.660  1.00  0.00     0.038 C 
HETATM    3  C8  UNL     1      16.804  27.864  40.451  1.00  0.00    -0.001 C 
HETATM    4  C9  UNL     1      18.182  28.409  40.740  1.00  0.00     0.037 C 
HETATM    5  C10 UNL     1      19.289  27.955  39.893  1.00  0.00     0.118 C 
HETATM    6  C11 UNL     1      19.247  26.450  39.766  1.00  0.00     0.032 C 
HETATM    7  C12 UNL     1      18.135  25.865  40.591  1.00  0.00     0.012 C 
HETATM    8  C13 UNL     1      16.762  26.413  40.148  1.00  0.00    -0.036 C 
HETATM    9  C14 UNL     1      16.830  26.279  38.620  1.00  0.00     0.016 C 
HETATM   10  C15 UNL     1      15.659  25.616  40.715  1.00  0.00     0.006 C 
HETATM   11  C16 UNL     1      14.888  24.796  39.678  1.00  0.00     0.007 C 
HETATM   12  C17 UNL     1      13.591  25.407  39.275  1.00  0.00     0.015 C 
HETATM   13  C18 UNL     1      12.623  25.278  40.446  1.00  0.00    -0.002 C 
HETATM   14  C19 UNL     1      11.485  26.240  40.317  1.00  0.00     0.021 C 
HETATM   15  C20 UNL     1      12.048  23.880  40.397  1.00  0.00     0.052 C 
HETATM   16  C21 UNL     1      11.592  23.366  41.709  1.00  0.00     0.157 C 
HETATM   17  C22 UNL     1      11.691  24.343  42.852  1.00  0.00     0.092 C 
HETATM   18  N1  UNL     1      12.905  25.055  42.761  1.00  0.00    -0.372 N 
ATOM     19  H1  UNL     1      13.423  25.208  43.626  1.00  0.00     0.164 HD
HETATM   20  C23 UNL     1      13.412  25.525  41.682  1.00  0.00     0.001 C 
HETATM   21  C24 UNL     1      14.723  26.262  41.678  1.00  0.00     0.066 C 
ENDROOT
BRANCH   1  22
HETATM   22  O1  UNL     1      14.019  28.172  42.840  1.00  0.00    -0.385 OA
BRANCH  22  23
HETATM   23  C5  UNL     1      13.529  29.449  42.796  1.00  0.00     0.168 C 
BRANCH  23  24
HETATM   24  C4  UNL     1      12.631  29.511  41.551  1.00  0.00     0.026 C 
BRANCH  24  25
HETATM   25  C3  UNL     1      11.179  29.605  41.969  1.00  0.00     0.002 C 
BRANCH  25  26
HETATM   26  C2  UNL     1      10.485  30.450  40.900  1.00  0.00    -0.004 C 
HETATM   27  C1  UNL     1      10.819  31.916  41.073  1.00  0.00     0.005 C 
ENDBRANCH  25  26
ENDBRANCH  24  25
ENDBRANCH  23  24
ENDBRANCH  22  23
ENDBRANCH   1  22
BRANCH   5  28
HETATM   28  O2  UNL     1      20.486  28.354  40.501  1.00  0.00    -0.396 OA
ATOM     29  H2  UNL     1      20.620  27.808  41.267  1.00  0.00     0.210 HD
ENDBRANCH   5  28
BRANCH  16  30
HETATM   30  O3  UNL     1      12.349  22.232  42.076  1.00  0.00    -0.390 OA
ATOM     31  H3  UNL     1      12.247  21.546  41.427  1.00  0.00     0.210 HD
ENDBRANCH  16  30
TORSDOF 7
ENDMDL
MODEL 5
REMARK VINA RESULT: -7.360944515     15.661     18.400
REMARK  7 active torsions:
REMARK  status: ('A' for Active; 'I' for Inactive)
REMARK    1  A    between atoms: C2_2  and  C3_3 
REMARK    2  A    between atoms: C3_3  and  C4_4 
REMARK    3  A    between atoms: C4_4  and  C5_5 
REMARK    4  A    between atoms: C5_5  and  O1_6 
REMARK    5  A    between atoms: O1_6  and  C6_7 
REMARK    6  A    between atoms: C10_11  and  O2_12 
REMARK    7  A    between atoms: C21_24  and  O3_25 
ROOT
HETATM    1  C6  UNL     1      14.511  27.663  41.689  1.00  0.00     0.131 C 
HETATM    2  C7  UNL     1      15.918  28.220  41.741  1.00  0.00     0.038 C 
HETATM    3  C8  UNL     1      16.713  27.855  40.514  1.00  0.00    -0.001 C 
HETATM    4  C9  UNL     1      18.087  28.405  40.815  1.00  0.00     0.037 C 
HETATM    5  C10 UNL     1      19.193  27.994  39.946  1.00  0.00     0.118 C 
HETATM    6  C11 UNL     1      19.167  26.494  39.765  1.00  0.00     0.032 C 
HETATM    7  C12 UNL     1      18.067  25.868  40.574  1.00  0.00     0.012 C 
HETATM    8  C13 UNL     1      16.685  26.416  40.159  1.00  0.00    -0.036 C 
HETATM    9  C14 UNL     1      16.745  26.338  38.626  1.00  0.00     0.016 C 
HETATM   10  C15 UNL     1      15.593  25.588  40.703  1.00  0.00     0.006 C 
HETATM   11  C16 UNL     1      14.825  24.797  39.641  1.00  0.00     0.007 C 
HETATM   12  C17 UNL     1      13.519  25.408  39.268  1.00  0.00     0.015 C 
HETATM   13  C18 UNL     1      12.560  25.226  40.439  1.00  0.00    -0.002 C 
HETATM   14  C19 UNL     1      11.411  26.179  40.350  1.00  0.00     0.021 C 
HETATM   15  C20 UNL     1      11.999  23.825  40.343  1.00  0.00     0.052 C 
HETATM   16  C21 UNL     1      11.557  23.259  41.638  1.00  0.00     0.157 C 
HETATM   17  C22 UNL     1      11.652  24.196  42.815  1.00  0.00     0.092 C 
HETATM   18  N1  UNL     1      12.858  24.923  42.742  1.00  0.00    -0.372 N 
ATOM     19  H1  UNL     1      13.379  25.051  43.610  1.00  0.00     0.164 HD
HETATM   20  C23 UNL     1      13.354  25.437  41.678  1.00  0.00     0.001 C 
HETATM   21  C24 UNL     1      14.656  26.188  41.694  1.00  0.00     0.066 C 
ENDROOT
BRANCH   1  22
HETATM   22  O1  UNL     1      13.939  28.048  42.928  1.00  0.00    -0.385 OA
BRANCH  22  23
HETATM   23  C5  UNL     1      12.887  28.915  42.805  1.00  0.00     0.168 C 
BRANCH  23  24
HETATM   24  C4  UNL     1      13.290  30.175  43.586  1.00  0.00     0.026 C 
BRANCH  24  25
HETATM   25  C3  UNL     1      14.025  29.784  44.850  1.00  0.00     0.002 C 
BRANCH  25  26
HETATM   26  C2  UNL     1      14.064  31.040  45.722  1.00  0.00    -0.004 C 
HETATM   27  C1  UNL     1      13.813  32.280  44.891  1.00  0.00     0.005 C 
ENDBRANCH  25  26
ENDBRANCH  24  25
ENDBRANCH  23  24
ENDBRANCH  22  23
ENDBRANCH   1  22
BRANCH   5  28
HETATM   28  O2  UNL     1      20.390  28.384  40.561  1.00  0.00    -0.396 OA
ATOM     29  H2  UNL     1      20.936  27.612  40.652  1.00  0.00     0.210 HD
ENDBRANCH   5  28
BRANCH  16  30
HETATM   30  O3  UNL     1      12.328  22.120  41.960  1.00  0.00    -0.390 OA
ATOM     31  H3  UNL     1      11.852  21.563  42.564  1.00  0.00     0.210 HD
ENDBRANCH  16  30
TORSDOF 7
ENDMDL
