MODEL 1
REMARK VINA RESULT: -6.963985938      0.000      0.000
REMARK  7 active torsions:
REMARK  status: ('A' for Active; 'I' for Inactive)
REMARK    1  A    between atoms: C2_2  and  O1_3 
REMARK    2  A    between atoms: O1_3  and  C3_4 
REMARK    3  A    between atoms: C3_4  and  O2_5 
REMARK    4  A    between atoms: C3_4  and  C5_7 
REMARK    5  A    between atoms: C5_7  and  O3_8 
REMARK    6  A    between atoms: C15_19  and  C16_20 
REMARK    7  A    between atoms: C16_20  and  O4_23 
ROOT
HETATM    1  C5  UNL     1     -11.160  -3.675  -8.159  1.00  0.00     0.115 C 
HETATM    2  C6  UNL     1     -12.488  -3.005  -7.905  1.00  0.00     0.044 C 
HETATM    3  C7  UNL     1     -13.331  -3.254  -9.144  1.00  0.00     0.014 C 
HETATM    4  C8  UNL     1     -12.386  -3.846 -10.196  1.00  0.00    -0.026 C 
HETATM    5  C9  UNL     1     -11.652  -2.639 -10.744  1.00  0.00     0.017 C 
HETATM    6  C10 UNL     1     -13.096  -4.659 -11.234  1.00  0.00    -0.032 C 
HETATM    7  C11 UNL     1     -12.548  -4.108 -12.579  1.00  0.00     0.016 C 
HETATM    8  C12 UNL     1     -14.555  -4.214 -11.279  1.00  0.00     0.010 C 
HETATM    9  C13 UNL     1     -15.533  -5.241 -10.823  1.00  0.00     0.001 C 
HETATM   10  C14 UNL     1     -15.334  -6.358 -11.865  1.00  0.00     0.008 C 
HETATM   11  C15 UNL     1     -14.052  -7.017 -11.439  1.00  0.00     0.024 C 
HETATM   12  C19 UNL     1     -12.888  -6.122 -11.246  1.00  0.00     0.001 C 
HETATM   13  C20 UNL     1     -12.096  -6.707 -10.084  1.00  0.00     0.007 C 
HETATM   14  C21 UNL     1     -12.132  -5.829  -8.868  1.00  0.00     0.013 C 
HETATM   15  C22 UNL     1     -11.411  -4.574  -9.310  1.00  0.00    -0.000 C 
HETATM   16  C23 UNL     1     -10.116  -4.928  -9.964  1.00  0.00     0.019 C 
ENDROOT
BRANCH   1  17
HETATM   17  C3  UNL     1     -10.699  -4.298  -6.880  1.00  0.00     0.293 C 
BRANCH  17  18
HETATM   18  O1  UNL     1     -11.503  -3.707  -5.854  1.00  0.00    -0.359 OA
BRANCH  18  19
HETATM   19  C2  UNL     1     -10.924  -3.752  -4.621  1.00  0.00     0.166 C 
HETATM   20  C1  UNL     1     -12.026  -3.551  -3.571  1.00  0.00     0.033 C 
ENDBRANCH  18  19
ENDBRANCH  17  18
BRANCH  17  21
HETATM   21  O2  UNL     1      -9.395  -3.902  -6.519  1.00  0.00    -0.363 OA
HETATM   22  C4  UNL     1      -8.462  -4.910  -6.635  1.00  0.00     0.204 C 
ENDBRANCH  17  21
ENDBRANCH   1  17
BRANCH   1  23
HETATM   23  O3  UNL     1     -10.175  -2.697  -8.454  1.00  0.00    -0.384 OA
ATOM     24  H3  UNL     1     -10.653  -1.998  -8.885  1.00  0.00     0.210 HD
ENDBRANCH   1  23
BRANCH  11  25
HETATM   25  C16 UNL     1     -13.848  -8.178 -12.368  1.00  0.00     0.054 C 
HETATM   26  C17 UNL     1     -13.223  -9.388 -11.755  1.00  0.00     0.045 C 
HETATM   27  C18 UNL     1     -13.058  -7.831 -13.615  1.00  0.00     0.045 C 
BRANCH  25  28
HETATM   28  O4  UNL     1     -15.102  -8.627 -12.866  1.00  0.00    -0.390 OA
ATOM     29  H4  UNL     1     -15.040  -9.541 -13.122  1.00  0.00     0.210 HD
ENDBRANCH  25  28
ENDBRANCH  11  25
TORSDOF 7
ENDMDL
MODEL 2
REMARK VINA RESULT: -6.512899880      1.927      3.847
REMARK  7 active torsions:
REMARK  status: ('A' for Active; 'I' for Inactive)
REMARK    1  A    between atoms: C2_2  and  O1_3 
REMARK    2  A    between atoms: O1_3  and  C3_4 
REMARK    3  A    between atoms: C3_4  and  O2_5 
REMARK    4  A    between atoms: C3_4  and  C5_7 
REMARK    5  A    between atoms: C5_7  and  O3_8 
REMARK    6  A    between atoms: C15_19  and  C16_20 
REMARK    7  A    between atoms: C16_20  and  O4_23 
ROOT
HETATM    1  C5  UNL     1     -13.290  -3.868 -10.328  1.00  0.00     0.115 C 
HETATM    2  C6  UNL     1     -13.269  -5.013  -9.347  1.00  0.00     0.044 C 
HETATM    3  C7  UNL     1     -13.890  -6.198 -10.066  1.00  0.00     0.014 C 
HETATM    4  C8  UNL     1     -14.491  -5.647 -11.364  1.00  0.00    -0.026 C 
HETATM    5  C9  UNL     1     -15.801  -5.026 -10.923  1.00  0.00     0.017 C 
HETATM    6  C10 UNL     1     -14.631  -6.685 -12.434  1.00  0.00    -0.032 C 
HETATM    7  C11 UNL     1     -16.096  -6.521 -12.925  1.00  0.00     0.016 C 
HETATM    8  C12 UNL     1     -14.671  -8.058 -11.770  1.00  0.00     0.010 C 
HETATM    9  C13 UNL     1     -13.498  -8.928 -12.068  1.00  0.00     0.001 C 
HETATM   10  C14 UNL     1     -13.621  -9.121 -13.591  1.00  0.00     0.008 C 
HETATM   11  C15 UNL     1     -13.127  -7.819 -14.156  1.00  0.00     0.024 C 
HETATM   12  C19 UNL     1     -13.761  -6.590 -13.625  1.00  0.00     0.001 C 
HETATM   13  C20 UNL     1     -12.666  -5.534 -13.585  1.00  0.00     0.007 C 
HETATM   14  C21 UNL     1     -12.290  -5.151 -12.184  1.00  0.00     0.013 C 
HETATM   15  C22 UNL     1     -13.548  -4.507 -11.640  1.00  0.00    -0.000 C 
HETATM   16  C23 UNL     1     -14.063  -3.489 -12.604  1.00  0.00     0.019 C 
ENDROOT
BRANCH   1  17
HETATM   17  C3  UNL     1     -12.019  -3.094 -10.172  1.00  0.00     0.293 C 
BRANCH  17  18
HETATM   18  O1  UNL     1     -12.012  -2.639  -8.816  1.00  0.00    -0.359 OA
BRANCH  18  19
HETATM   19  C2  UNL     1     -10.910  -3.036  -8.119  1.00  0.00     0.166 C 
HETATM   20  C1  UNL     1     -11.256  -3.001  -6.622  1.00  0.00     0.033 C 
ENDBRANCH  18  19
ENDBRANCH  17  18
BRANCH  17  21
HETATM   21  O2  UNL     1     -12.021  -1.889 -10.903  1.00  0.00    -0.363 OA
HETATM   22  C4  UNL     1     -10.950  -1.765 -11.763  1.00  0.00     0.204 C 
ENDBRANCH  17  21
ENDBRANCH   1  17
BRANCH   1  23
HETATM   23  O3  UNL     1     -14.312  -2.948  -9.977  1.00  0.00    -0.384 OA
ATOM     24  H3  UNL     1     -14.651  -2.638 -10.808  1.00  0.00     0.210 HD
ENDBRANCH   1  23
BRANCH  11  25
HETATM   25  C16 UNL     1     -13.138  -7.978 -15.649  1.00  0.00     0.054 C 
HETATM   26  C17 UNL     1     -13.173  -9.387 -16.144  1.00  0.00     0.045 C 
HETATM   27  C18 UNL     1     -11.992  -7.271 -16.347  1.00  0.00     0.045 C 
BRANCH  25  28
HETATM   28  O4  UNL     1     -14.303  -7.372 -16.192  1.00  0.00    -0.390 OA
ATOM     29  H4  UNL     1     -14.104  -6.987 -17.039  1.00  0.00     0.210 HD
ENDBRANCH  25  28
ENDBRANCH  11  25
TORSDOF 7
ENDMDL
MODEL 3
REMARK VINA RESULT: -6.329110505      1.805      2.867
REMARK  7 active torsions:
REMARK  status: ('A' for Active; 'I' for Inactive)
REMARK    1  A    between atoms: C2_2  and  O1_3 
REMARK    2  A    between atoms: O1_3  and  C3_4 
REMARK    3  A    between atoms: C3_4  and  O2_5 
REMARK    4  A    between atoms: C3_4  and  C5_7 
REMARK    5  A    between atoms: C5_7  and  O3_8 
REMARK    6  A    between atoms: C15_19  and  C16_20 
REMARK    7  A    between atoms: C16_20  and  O4_23 
ROOT
HETATM    1  C5  UNL     1     -12.116  -3.826  -9.228  1.00  0.00     0.115 C 
HETATM    2  C6  UNL     1     -13.024  -4.813  -8.537  1.00  0.00     0.044 C 
HETATM    3  C7  UNL     1     -14.087  -5.194  -9.554  1.00  0.00     0.014 C 
HETATM    4  C8  UNL     1     -13.921  -4.226 -10.731  1.00  0.00    -0.026 C 
HETATM    5  C9  UNL     1     -14.603  -2.959 -10.258  1.00  0.00     0.017 C 
HETATM    6  C10 UNL     1     -14.459  -4.771 -12.019  1.00  0.00    -0.032 C 
HETATM    7  C11 UNL     1     -15.351  -3.623 -12.567  1.00  0.00     0.016 C 
HETATM    8  C12 UNL     1     -15.490  -5.847 -11.694  1.00  0.00     0.010 C 
HETATM    9  C13 UNL     1     -15.097  -7.227 -12.095  1.00  0.00     0.001 C 
HETATM   10  C14 UNL     1     -14.996  -7.099 -13.627  1.00  0.00     0.008 C 
HETATM   11  C15 UNL     1     -13.689  -6.387 -13.839  1.00  0.00     0.024 C 
HETATM   12  C19 UNL     1     -13.501  -5.124 -13.087  1.00  0.00     0.001 C 
HETATM   13  C20 UNL     1     -12.024  -5.066 -12.725  1.00  0.00     0.007 C 
HETATM   14  C21 UNL     1     -11.791  -5.204 -11.249  1.00  0.00     0.013 C 
HETATM   15  C22 UNL     1     -12.440  -3.967 -10.667  1.00  0.00    -0.000 C 
HETATM   16  C23 UNL     1     -11.986  -2.751 -11.407  1.00  0.00     0.019 C 
ENDROOT
BRANCH   1  17
HETATM   17  C3  UNL     1     -10.710  -4.108  -8.804  1.00  0.00     0.293 C 
BRANCH  17  18
HETATM   18  O1  UNL     1     -10.787  -4.431  -7.412  1.00  0.00    -0.359 OA
BRANCH  18  19
HETATM   19  C2  UNL     1      -9.774  -5.238  -6.987  1.00  0.00     0.166 C 
HETATM   20  C1  UNL     1      -9.903  -6.585  -7.714  1.00  0.00     0.033 C 
ENDBRANCH  18  19
ENDBRANCH  17  18
BRANCH  17  21
HETATM   21  O2  UNL     1      -9.896  -2.957  -8.809  1.00  0.00    -0.363 OA
HETATM   22  C4  UNL     1      -8.863  -3.018  -9.720  1.00  0.00     0.204 C 
ENDBRANCH  17  21
ENDBRANCH   1  17
BRANCH   1  23
HETATM   23  O3  UNL     1     -12.376  -2.515  -8.751  1.00  0.00    -0.384 OA
ATOM     24  H3  UNL     1     -12.446  -2.613  -7.809  1.00  0.00     0.210 HD
ENDBRANCH   1  23
BRANCH  11  25
HETATM   25  C16 UNL     1     -13.489  -6.310 -15.324  1.00  0.00     0.054 C 
HETATM   26  C17 UNL     1     -12.151  -6.760 -15.815  1.00  0.00     0.045 C 
HETATM   27  C18 UNL     1     -13.757  -4.936 -15.906  1.00  0.00     0.045 C 
BRANCH  25  28
HETATM   28  O4  UNL     1     -14.422  -7.155 -15.984  1.00  0.00    -0.390 OA
ATOM     29  H4  UNL     1     -14.923  -6.653 -16.617  1.00  0.00     0.210 HD
ENDBRANCH  25  28
ENDBRANCH  11  25
TORSDOF 7
ENDMDL
MODEL 4
REMARK VINA RESULT: -6.234349452      2.333      4.603
REMARK  7 active torsions:
REMARK  status: ('A' for Active; 'I' for Inactive)
REMARK    1  A    between atoms: C2_2  and  O1_3 
REMARK    2  A    between atoms: O1_3  and  C3_4 
REMARK    3  A    between atoms: C3_4  and  O2_5 
REMARK    4  A    between atoms: C3_4  and  C5_7 
REMARK    5  A    between atoms: C5_7  and  O3_8 
REMARK    6  A    between atoms: C15_19  and  C16_20 
REMARK    7  A    between atoms: C16_20  and  O4_23 
ROOT
HETATM    1  C5  UNL     1     -13.144  -5.434  -9.906  1.00  0.00     0.115 C 
HETATM    2  C6  UNL     1     -11.696  -5.833  -9.768  1.00  0.00     0.044 C 
HETATM    3  C7  UNL     1     -11.423  -6.829 -10.883  1.00  0.00     0.014 C 
HETATM    4  C8  UNL     1     -12.787  -7.180 -11.489  1.00  0.00    -0.026 C 
HETATM    5  C9  UNL     1     -13.367  -8.187 -10.517  1.00  0.00     0.017 C 
HETATM    6  C10 UNL     1     -12.693  -7.670 -12.901  1.00  0.00    -0.032 C 
HETATM    7  C11 UNL     1     -13.537  -8.975 -12.900  1.00  0.00     0.016 C 
HETATM    8  C12 UNL     1     -11.283  -8.204 -13.133  1.00  0.00     0.010 C 
HETATM    9  C13 UNL     1     -10.471  -7.415 -14.102  1.00  0.00     0.001 C 
HETATM   10  C14 UNL     1     -11.275  -7.583 -15.405  1.00  0.00     0.008 C 
HETATM   11  C15 UNL     1     -12.440  -6.651 -15.228  1.00  0.00     0.024 C 
HETATM   12  C19 UNL     1     -13.223  -6.811 -13.980  1.00  0.00     0.001 C 
HETATM   13  C20 UNL     1     -13.669  -5.411 -13.581  1.00  0.00     0.007 C 
HETATM   14  C21 UNL     1     -13.006  -4.938 -12.320  1.00  0.00     0.013 C 
HETATM   15  C22 UNL     1     -13.527  -5.889 -11.264  1.00  0.00    -0.000 C 
HETATM   16  C23 UNL     1     -15.014  -5.997 -11.357  1.00  0.00     0.019 C 
ENDROOT
BRANCH   1  17
HETATM   17  C3  UNL     1     -13.257  -3.973  -9.608  1.00  0.00     0.293 C 
BRANCH  17  18
HETATM   18  O1  UNL     1     -12.143  -3.667  -8.764  1.00  0.00    -0.359 OA
BRANCH  18  19
HETATM   19  C2  UNL     1     -12.494  -3.014  -7.621  1.00  0.00     0.166 C 
HETATM   20  C1  UNL     1     -11.210  -2.697  -6.840  1.00  0.00     0.033 C 
ENDBRANCH  18  19
ENDBRANCH  17  18
BRANCH  17  21
HETATM   21  O2  UNL     1     -14.361  -3.667  -8.786  1.00  0.00    -0.363 OA
HETATM   22  C4  UNL     1     -15.354  -2.967  -9.437  1.00  0.00     0.204 C 
ENDBRANCH  17  21
ENDBRANCH   1  17
BRANCH   1  23
HETATM   23  O3  UNL     1     -13.917  -6.064  -8.897  1.00  0.00    -0.384 OA
ATOM     24  H3  UNL     1     -13.740  -6.991  -9.005  1.00  0.00     0.210 HD
ENDBRANCH   1  23
BRANCH  11  25
HETATM   25  C16 UNL     1     -13.218  -6.703 -16.510  1.00  0.00     0.054 C 
HETATM   26  C17 UNL     1     -12.471  -7.226 -17.694  1.00  0.00     0.045 C 
HETATM   27  C18 UNL     1     -13.835  -5.375 -16.904  1.00  0.00     0.045 C 
BRANCH  25  28
HETATM   28  O4  UNL     1     -14.331  -7.575 -16.367  1.00  0.00    -0.390 OA
ATOM     29  H4  UNL     1     -14.466  -8.064 -17.171  1.00  0.00     0.210 HD
ENDBRANCH  25  28
ENDBRANCH  11  25
TORSDOF 7
ENDMDL
MODEL 5
REMARK VINA RESULT: -6.206218718      2.102      3.751
REMARK  7 active torsions:
REMARK  status: ('A' for Active; 'I' for Inactive)
REMARK    1  A    between atoms: C2_2  and  O1_3 
REMARK    2  A    between atoms: O1_3  and  C3_4 
REMARK    3  A    between atoms: C3_4  and  O2_5 
REMARK    4  A    between atoms: C3_4  and  C5_7 
REMARK    5  A    between atoms: C5_7  and  O3_8 
REMARK    6  A    between atoms: C15_19  and  C16_20 
REMARK    7  A    between atoms: C16_20  and  O4_23 
ROOT
HETATM    1  C5  UNL     1     -13.226  -3.909  -9.529  1.00  0.00     0.115 C 
HETATM    2  C6  UNL     1     -13.402  -5.286  -8.939  1.00  0.00     0.044 C 
HETATM    3  C7  UNL     1     -14.098  -6.117 -10.004  1.00  0.00     0.014 C 
HETATM    4  C8  UNL     1     -14.540  -5.135 -11.094  1.00  0.00    -0.026 C 
HETATM    5  C9  UNL     1     -15.801  -4.512 -10.532  1.00  0.00     0.017 C 
HETATM    6  C10 UNL     1     -14.718  -5.784 -12.432  1.00  0.00    -0.032 C 
HETATM    7  C11 UNL     1     -16.118  -5.297 -12.901  1.00  0.00     0.016 C 
HETATM    8  C12 UNL     1     -14.957  -7.275 -12.217  1.00  0.00     0.010 C 
HETATM    9  C13 UNL     1     -13.869  -8.159 -12.723  1.00  0.00     0.001 C 
HETATM   10  C14 UNL     1     -13.904  -7.875 -14.236  1.00  0.00     0.008 C 
HETATM   11  C15 UNL     1     -13.230  -6.539 -14.364  1.00  0.00     0.024 C 
HETATM   12  C19 UNL     1     -13.761  -5.452 -13.508  1.00  0.00     0.001 C 
HETATM   13  C20 UNL     1     -12.561  -4.602 -13.114  1.00  0.00     0.007 C 
HETATM   14  C21 UNL     1     -12.246  -4.702 -11.650  1.00  0.00     0.013 C 
HETATM   15  C22 UNL     1     -13.459  -4.094 -10.981  1.00  0.00    -0.000 C 
HETATM   16  C23 UNL     1     -13.789  -2.779 -11.609  1.00  0.00     0.019 C 
ENDROOT
BRANCH   1  17
HETATM   17  C3  UNL     1     -11.892  -3.385  -9.103  1.00  0.00     0.293 C 
BRANCH  17  18
HETATM   18  O1  UNL     1     -11.314  -4.417  -8.298  1.00  0.00    -0.359 OA
BRANCH  18  19
HETATM   19  C2  UNL     1     -10.070  -4.791  -8.709  1.00  0.00     0.166 C 
HETATM   20  C1  UNL     1      -9.945  -6.311  -8.526  1.00  0.00     0.033 C 
ENDBRANCH  18  19
ENDBRANCH  17  18
BRANCH  17  21
HETATM   21  O2  UNL     1     -11.992  -2.307  -8.199  1.00  0.00    -0.363 OA
HETATM   22  C4  UNL     1     -11.659  -2.642  -6.905  1.00  0.00     0.204 C 
ENDBRANCH  17  21
ENDBRANCH   1  17
BRANCH   1  23
HETATM   23  O3  UNL     1     -14.162  -3.013  -8.951  1.00  0.00    -0.384 OA
ATOM     24  H3  UNL     1     -14.417  -3.427  -8.135  1.00  0.00     0.210 HD
ENDBRANCH   1  23
BRANCH  11  25
HETATM   25  C16 UNL     1     -13.153  -6.246 -15.834  1.00  0.00     0.054 C 
HETATM   26  C17 UNL     1     -13.925  -5.051 -16.292  1.00  0.00     0.045 C 
HETATM   27  C18 UNL     1     -13.552  -7.416 -16.712  1.00  0.00     0.045 C 
BRANCH  25  28
HETATM   28  O4  UNL     1     -11.808  -5.976 -16.206  1.00  0.00    -0.390 OA
ATOM     29  H4  UNL     1     -11.723  -5.995 -17.152  1.00  0.00     0.210 HD
ENDBRANCH  25  28
ENDBRANCH  11  25
TORSDOF 7
ENDMDL
