MODEL 1
REMARK VINA RESULT: -4.435235814      0.000      0.000
REMARK  4 active torsions:
REMARK  status: ('A' for Active; 'I' for Inactive)
REMARK       I    between atoms: N1_2  and  C3_4 
REMARK    1  A    between atoms: C3_4  and  C4_6 
REMARK       I    between atoms: N2_9  and  C7_10 
REMARK    2  A    between atoms: N4_12  and  C8_14 
REMARK    3  A    between atoms: C8_14  and  N5_16 
REMARK    4  A    between atoms: N5_16  and  C9_18 
ROOT
HETATM    1  C4  UNL     1      91.367  97.440 -45.186  1.00  0.00     0.081 C 
HETATM    2  C5  UNL     1      91.456  97.352 -43.683  1.00  0.00     0.034 C 
HETATM    3  C6  UNL     1      91.473  98.714 -43.024  1.00  0.00     0.126 C 
HETATM    4  N2  UNL     1      92.391  99.613 -43.701  1.00  0.00    -0.355 N 
HETATM    5  C7  UNL     1      92.470 100.952 -43.320  1.00  0.00     0.192 C 
HETATM    6  N3  UNL     1      91.299 101.749 -43.264  1.00  0.00    -0.063 NA
HETATM    7  N4  UNL     1      93.635 101.441 -43.022  1.00  0.00    -0.307 N 
ATOM      8  H4  UNL     1      94.449 100.829 -43.077  1.00  0.00     0.171 HD
HETATM    9  C11 UNL     1      93.179  99.011 -44.759  1.00  0.00     0.126 C 
HETATM   10  C12 UNL     1      92.197  98.515 -45.800  1.00  0.00     0.034 C 
ENDROOT
BRANCH   7  11
HETATM   11  C8  UNL     1      93.827 102.791 -42.623  1.00  0.00     0.176 C 
HETATM   12  S1  UNL     1      94.912 103.771 -43.349  1.00  0.00    -0.041 SA
BRANCH  11  13
HETATM   13  N5  UNL     1      93.046 103.303 -41.553  1.00  0.00    -0.336 N 
ATOM     14  H5  UNL     1      92.307 103.979 -41.744  1.00  0.00     0.164 HD
BRANCH  13  15
HETATM   15  C9  UNL     1      93.297 102.867 -40.177  1.00  0.00     0.164 C 
HETATM   16  C10 UNL     1      92.211 101.944 -39.697  1.00  0.00     0.070 C 
HETATM   17 CL1  UNL     1      94.846 102.014 -40.154  1.00  0.00    -0.083 Cl
HETATM   18 BR1  UNL     1      93.458 104.434 -39.058  1.00  0.00    -0.044 Br
ENDBRANCH  13  15
ENDBRANCH  11  13
ENDBRANCH   7  11
BRANCH   1  19
HETATM   19  C3  UNL     1      89.948  97.656 -45.629  1.00  0.00     0.223 C 
HETATM   20  N1  UNL     1      89.210  96.652 -46.284  1.00  0.00    -0.360 N 
HETATM   21  C1  UNL     1      89.794  95.368 -46.543  1.00  0.00     0.152 C 
HETATM   22  C2  UNL     1      87.857  96.917 -46.697  1.00  0.00     0.152 C 
HETATM   23  O1  UNL     1      89.455  98.800 -45.375  1.00  0.00    -0.273 OA
ENDBRANCH   1  19
TORSDOF 4
ENDMDL
MODEL 2
REMARK VINA RESULT: -4.409687375      2.414      3.006
REMARK  4 active torsions:
REMARK  status: ('A' for Active; 'I' for Inactive)
REMARK       I    between atoms: N1_2  and  C3_4 
REMARK    1  A    between atoms: C3_4  and  C4_6 
REMARK       I    between atoms: N2_9  and  C7_10 
REMARK    2  A    between atoms: N4_12  and  C8_14 
REMARK    3  A    between atoms: C8_14  and  N5_16 
REMARK    4  A    between atoms: N5_16  and  C9_18 
ROOT
HETATM    1  C4  UNL     1      90.989  97.406 -44.856  1.00  0.00     0.081 C 
HETATM    2  C5  UNL     1      92.216  98.180 -45.266  1.00  0.00     0.034 C 
HETATM    3  C6  UNL     1      92.664  99.160 -44.205  1.00  0.00     0.126 C 
HETATM    4  N2  UNL     1      91.540  99.914 -43.677  1.00  0.00    -0.355 N 
HETATM    5  C7  UNL     1      91.721 100.789 -42.608  1.00  0.00     0.192 C 
HETATM    6  N3  UNL     1      92.333 100.338 -41.411  1.00  0.00    -0.063 NA
HETATM    7  N4  UNL     1      91.318 102.016 -42.740  1.00  0.00    -0.307 N 
ATOM      8  H4  UNL     1      90.884 102.295 -43.620  1.00  0.00     0.171 HD
HETATM    9  C11 UNL     1      90.272  99.676 -44.340  1.00  0.00     0.126 C 
HETATM   10  C12 UNL     1      89.952  98.208 -44.148  1.00  0.00     0.034 C 
ENDROOT
BRANCH   7  11
HETATM   11  C8  UNL     1      91.454 102.989 -41.714  1.00  0.00     0.176 C 
HETATM   12  S1  UNL     1      90.190 103.864 -41.166  1.00  0.00    -0.041 SA
BRANCH  11  13
HETATM   13  N5  UNL     1      92.737 103.205 -41.145  1.00  0.00    -0.336 N 
ATOM     14  H5  UNL     1      92.955 102.823 -40.225  1.00  0.00     0.164 HD
BRANCH  13  15
HETATM   15  C9  UNL     1      93.751 103.974 -41.872  1.00  0.00     0.164 C 
HETATM   16  C10 UNL     1      94.791 103.066 -42.469  1.00  0.00     0.070 C 
HETATM   17 CL1  UNL     1      92.932 104.859 -43.166  1.00  0.00    -0.083 Cl
HETATM   18 BR1  UNL     1      94.527 105.263 -40.662  1.00  0.00    -0.044 Br
ENDBRANCH  13  15
ENDBRANCH  11  13
ENDBRANCH   7  11
BRANCH   1  19
HETATM   19  C3  UNL     1      91.354  96.253 -43.965  1.00  0.00     0.223 C 
HETATM   20  N1  UNL     1      91.490  94.941 -44.460  1.00  0.00    -0.360 N 
HETATM   21  C1  UNL     1      91.292  94.663 -45.853  1.00  0.00     0.152 C 
HETATM   22  C2  UNL     1      91.830  93.872 -43.560  1.00  0.00     0.152 C 
HETATM   23  O1  UNL     1      91.532  96.534 -42.738  1.00  0.00    -0.273 OA
ENDBRANCH   1  19
TORSDOF 4
ENDMDL
MODEL 3
REMARK VINA RESULT: -4.403863173      1.914      2.183
REMARK  4 active torsions:
REMARK  status: ('A' for Active; 'I' for Inactive)
REMARK       I    between atoms: N1_2  and  C3_4 
REMARK    1  A    between atoms: C3_4  and  C4_6 
REMARK       I    between atoms: N2_9  and  C7_10 
REMARK    2  A    between atoms: N4_12  and  C8_14 
REMARK    3  A    between atoms: C8_14  and  N5_16 
REMARK    4  A    between atoms: N5_16  and  C9_18 
ROOT
HETATM    1  C4  UNL     1      91.071  97.428 -45.241  1.00  0.00     0.081 C 
HETATM    2  C5  UNL     1      91.371  96.871 -43.873  1.00  0.00     0.034 C 
HETATM    3  C6  UNL     1      91.316  97.928 -42.792  1.00  0.00     0.126 C 
HETATM    4  N2  UNL     1      92.024  99.130 -43.198  1.00  0.00    -0.355 N 
HETATM    5  C7  UNL     1      91.996 100.267 -42.392  1.00  0.00     0.192 C 
HETATM    6  N3  UNL     1      90.757 100.810 -41.965  1.00  0.00    -0.063 NA
HETATM    7  N4  UNL     1      93.125 100.807 -42.046  1.00  0.00    -0.307 N 
ATOM      8  H4  UNL     1      93.990 100.381 -42.377  1.00  0.00     0.171 HD
HETATM    9  C11 UNL     1      92.728  99.036 -44.462  1.00  0.00     0.126 C 
HETATM   10  C12 UNL     1      91.680  98.760 -45.520  1.00  0.00     0.034 C 
ENDROOT
BRANCH   7  11
HETATM   11  C8  UNL     1      93.209 101.965 -41.228  1.00  0.00     0.176 C 
HETATM   12  S1  UNL     1      93.748 101.910 -39.688  1.00  0.00    -0.041 SA
BRANCH  11  13
HETATM   13  N5  UNL     1      92.811 103.215 -41.772  1.00  0.00    -0.336 N 
ATOM     14  H5  UNL     1      91.943 103.650 -41.460  1.00  0.00     0.164 HD
BRANCH  13  15
HETATM   15  C9  UNL     1      93.639 103.884 -42.779  1.00  0.00     0.164 C 
HETATM   16  C10 UNL     1      93.609 105.376 -42.597  1.00  0.00     0.070 C 
HETATM   17 CL1  UNL     1      95.298 103.302 -42.586  1.00  0.00    -0.083 Cl
HETATM   18 BR1  UNL     1      93.018 103.357 -44.530  1.00  0.00    -0.044 Br
ENDBRANCH  13  15
ENDBRANCH  11  13
ENDBRANCH   7  11
BRANCH   1  19
HETATM   19  C3  UNL     1      89.590  97.554 -45.459  1.00  0.00     0.223 C 
HETATM   20  N1  UNL     1      88.870  96.629 -46.240  1.00  0.00    -0.360 N 
HETATM   21  C1  UNL     1      89.535  95.517 -46.851  1.00  0.00     0.152 C 
HETATM   22  C2  UNL     1      87.454  96.804 -46.424  1.00  0.00     0.152 C 
HETATM   23  O1  UNL     1      89.028  98.545 -44.895  1.00  0.00    -0.273 OA
ENDBRANCH   1  19
TORSDOF 4
ENDMDL
MODEL 4
REMARK VINA RESULT: -4.271501077      4.908      5.849
REMARK  4 active torsions:
REMARK  status: ('A' for Active; 'I' for Inactive)
REMARK       I    between atoms: N1_2  and  C3_4 
REMARK    1  A    between atoms: C3_4  and  C4_6 
REMARK       I    between atoms: N2_9  and  C7_10 
REMARK    2  A    between atoms: N4_12  and  C8_14 
REMARK    3  A    between atoms: C8_14  and  N5_16 
REMARK    4  A    between atoms: N5_16  and  C9_18 
ROOT
HETATM    1  C4  UNL     1      91.525  95.781 -45.278  1.00  0.00     0.081 C 
HETATM    2  C5  UNL     1      92.404  97.006 -45.254  1.00  0.00     0.034 C 
HETATM    3  C6  UNL     1      91.793  98.143 -44.466  1.00  0.00     0.126 C 
HETATM    4  N2  UNL     1      90.393  98.327 -44.809  1.00  0.00    -0.355 N 
HETATM    5  C7  UNL     1      89.615  99.249 -44.112  1.00  0.00     0.192 C 
HETATM    6  N3  UNL     1      89.545  99.199 -42.697  1.00  0.00    -0.063 NA
HETATM    7  N4  UNL     1      88.965 100.145 -44.790  1.00  0.00    -0.307 N 
ATOM      8  H4  UNL     1      89.046 100.142 -45.806  1.00  0.00     0.171 HD
HETATM    9  C11 UNL     1      89.910  97.497 -45.895  1.00  0.00     0.126 C 
HETATM   10  C12 UNL     1      90.071  96.060 -45.447  1.00  0.00     0.034 C 
ENDROOT
BRANCH   7  11
HETATM   11  C8  UNL     1      88.144 101.131 -44.179  1.00  0.00     0.176 C 
HETATM   12  S1  UNL     1      88.443 102.729 -44.324  1.00  0.00    -0.041 SA
BRANCH  11  13
HETATM   13  N5  UNL     1      87.023 100.708 -43.416  1.00  0.00    -0.336 N 
ATOM     14  H5  UNL     1      87.047 100.778 -42.399  1.00  0.00     0.164 HD
BRANCH  13  15
HETATM   15  C9  UNL     1      85.833 100.171 -44.081  1.00  0.00     0.164 C 
HETATM   16  C10 UNL     1      84.578 100.615 -43.381  1.00  0.00     0.070 C 
HETATM   17 CL1  UNL     1      85.825 100.775 -45.743  1.00  0.00    -0.083 Cl
HETATM   18 BR1  UNL     1      85.983  98.246 -44.143  1.00  0.00    -0.044 Br
ENDBRANCH  13  15
ENDBRANCH  11  13
ENDBRANCH   7  11
BRANCH   1  19
HETATM   19  C3  UNL     1      91.689  94.977 -44.020  1.00  0.00     0.223 C 
HETATM   20  N1  UNL     1      91.842  93.578 -44.043  1.00  0.00    -0.360 N 
HETATM   21  C1  UNL     1      91.860  92.867 -45.288  1.00  0.00     0.152 C 
HETATM   22  C2  UNL     1      91.984  92.857 -42.806  1.00  0.00     0.152 C 
HETATM   23  O1  UNL     1      91.679  95.639 -42.933  1.00  0.00    -0.273 OA
ENDBRANCH   1  19
TORSDOF 4
ENDMDL
MODEL 5
REMARK VINA RESULT: -4.255238765      4.443      5.206
REMARK  4 active torsions:
REMARK  status: ('A' for Active; 'I' for Inactive)
REMARK       I    between atoms: N1_2  and  C3_4 
REMARK    1  A    between atoms: C3_4  and  C4_6 
REMARK       I    between atoms: N2_9  and  C7_10 
REMARK    2  A    between atoms: N4_12  and  C8_14 
REMARK    3  A    between atoms: C8_14  and  N5_16 
REMARK    4  A    between atoms: N5_16  and  C9_18 
ROOT
HETATM    1  C4  UNL     1      91.262  96.903 -45.237  1.00  0.00     0.081 C 
HETATM    2  C5  UNL     1      92.233  98.052 -45.137  1.00  0.00     0.034 C 
HETATM    3  C6  UNL     1      91.753  99.136 -44.197  1.00  0.00     0.126 C 
HETATM    4  N2  UNL     1      90.356  99.456 -44.433  1.00  0.00    -0.355 N 
HETATM    5  C7  UNL     1      89.689 100.349 -43.597  1.00  0.00     0.192 C 
HETATM    6  N3  UNL     1      89.690 100.148 -42.193  1.00  0.00    -0.063 NA
HETATM    7  N4  UNL     1      89.075 101.358 -44.135  1.00  0.00    -0.307 N 
ATOM      8  H4  UNL     1      89.103 101.461 -45.149  1.00  0.00     0.171 HD
HETATM    9  C11 UNL     1      89.753  98.788 -45.570  1.00  0.00     0.126 C 
HETATM   10  C12 UNL     1      89.826  97.301 -45.286  1.00  0.00     0.034 C 
ENDROOT
BRANCH   7  11
HETATM   11  C8  UNL     1      88.366 102.326 -43.374  1.00  0.00     0.176 C 
HETATM   12  S1  UNL     1      88.773 103.908 -43.375  1.00  0.00    -0.041 SA
BRANCH  11  13
HETATM   13  N5  UNL     1      87.264 101.901 -42.586  1.00  0.00    -0.336 N 
ATOM     14  H5  UNL     1      87.352 101.863 -41.571  1.00  0.00     0.164 HD
BRANCH  13  15
HETATM   15  C9  UNL     1      86.002 101.515 -43.222  1.00  0.00     0.164 C 
HETATM   16  C10 UNL     1      85.757 102.323 -44.467  1.00  0.00     0.070 C 
HETATM   17 CL1  UNL     1      86.113  99.801 -43.646  1.00  0.00    -0.083 Cl
HETATM   18 BR1  UNL     1      84.578 101.724 -41.934  1.00  0.00    -0.044 Br
ENDBRANCH  13  15
ENDBRANCH  11  13
ENDBRANCH   7  11
BRANCH   1  19
HETATM   19  C3  UNL     1      91.429  95.956 -44.083  1.00  0.00     0.223 C 
HETATM   20  N1  UNL     1      91.635  94.577 -44.274  1.00  0.00    -0.360 N 
HETATM   21  C1  UNL     1      91.705  94.026 -45.596  1.00  0.00     0.152 C 
HETATM   22  C2  UNL     1      91.778  93.713 -43.132  1.00  0.00     0.152 C 
HETATM   23  O1  UNL     1      91.372  96.478 -42.924  1.00  0.00    -0.273 OA
ENDBRANCH   1  19
TORSDOF 4
ENDMDL
