MODEL 1
REMARK VINA RESULT: -4.928410507      0.000      0.000
REMARK  3 active torsions:
REMARK  status: ('A' for Active; 'I' for Inactive)
REMARK    1  A    between atoms: C1_4  and  C2_5 
REMARK    2  A    between atoms: C1_4  and  N2_8 
REMARK    3  A    between atoms: C8_15  and  C9_16 
ROOT
HETATM    1  N2  UNL     1      92.093  99.322 -42.855  1.00  0.00    -0.366 N 
HETATM    2  C3  UNL     1      91.724  97.931 -42.695  1.00  0.00     0.152 C 
HETATM    3  C4  UNL     1      90.740  97.657 -43.831  1.00  0.00     0.257 C 
HETATM    4  N3  UNL     1      91.342  97.836 -45.109  1.00  0.00    -0.063 N 
HETATM    5  C5  UNL     1      92.279  96.772 -45.408  1.00  0.00     0.237 C 
HETATM    6  C6  UNL     1      91.675  95.410 -45.410  1.00  0.00     0.029 C 
HETATM    7  C7  UNL     1      90.367  95.278 -46.078  1.00  0.00     0.019 C 
HETATM    8  C8  UNL     1      89.476  96.484 -46.006  1.00  0.00     0.113 C 
HETATM    9  C10 UNL     1      90.296  97.734 -46.117  1.00  0.00     0.253 C 
HETATM   10  C11 UNL     1      91.997  99.094 -45.309  1.00  0.00     0.257 C 
HETATM   11  C12 UNL     1      92.622  99.720 -44.135  1.00  0.00     0.152 C 
ENDROOT
BRANCH   8  12
HETATM   12  C9  UNL     1      88.518  96.477 -47.122  1.00  0.00     0.178 C 
HETATM   13  O1  UNL     1      87.299  96.528 -46.902  1.00  0.00    -0.648 OA
HETATM   14  O2  UNL     1      88.970  96.415 -48.414  1.00  0.00    -0.648 OA
ENDBRANCH   8  12
BRANCH   1  15
HETATM   15  C1  UNL     1      91.927 100.231 -41.784  1.00  0.00     0.098 C 
HETATM   16  N1  UNL     1      92.585 100.026 -40.697  1.00  0.00    -0.387 N 
ATOM     17  H12 UNL     1      92.466 100.682 -39.924  1.00  0.00     0.157 HD
ATOM     18  H11 UNL     1      93.212  99.225 -40.610  1.00  0.00     0.157 HD
BRANCH  15  19
HETATM   19  C2  UNL     1      91.017 101.394 -41.910  1.00  0.00     0.196 C 
HETATM   20 BR1  UNL     1      91.041 102.493 -40.322  1.00  0.00    -0.071 Br
HETATM   21 BR2  UNL     1      89.207 100.820 -42.328  1.00  0.00    -0.071 Br
ENDBRANCH  15  19
ENDBRANCH   1  15
TORSDOF 3
ENDMDL
MODEL 2
REMARK VINA RESULT: -4.866020478      4.739      7.179
REMARK  3 active torsions:
REMARK  status: ('A' for Active; 'I' for Inactive)
REMARK    1  A    between atoms: C1_4  and  C2_5 
REMARK    2  A    between atoms: C1_4  and  N2_8 
REMARK    3  A    between atoms: C8_15  and  C9_16 
ROOT
HETATM    1  N2  UNL     1      91.448  99.389 -44.311  1.00  0.00    -0.366 N 
HETATM    2  C3  UNL     1      90.854  99.341 -42.991  1.00  0.00     0.152 C 
HETATM    3  C4  UNL     1      91.918  99.926 -42.065  1.00  0.00     0.257 C 
HETATM    4  N3  UNL     1      92.221 101.279 -42.392  1.00  0.00    -0.063 N 
HETATM    5  C5  UNL     1      91.138 102.168 -42.023  1.00  0.00     0.237 C 
HETATM    6  C6  UNL     1      90.799 102.146 -40.572  1.00  0.00     0.029 C 
HETATM    7  C7  UNL     1      91.938 102.149 -39.636  1.00  0.00     0.019 C 
HETATM    8  C8  UNL     1      93.177 101.452 -40.118  1.00  0.00     0.113 C 
HETATM    9  C10 UNL     1      93.361 101.692 -41.586  1.00  0.00     0.253 C 
HETATM   10  C11 UNL     1      92.565 101.518 -43.761  1.00  0.00     0.257 C 
HETATM   11  C12 UNL     1      91.921 100.670 -44.774  1.00  0.00     0.152 C 
ENDROOT
BRANCH   8  12
HETATM   12  C9  UNL     1      94.361 101.982 -39.426  1.00  0.00     0.178 C 
HETATM   13  O1  UNL     1      95.410 102.195 -40.052  1.00  0.00    -0.648 OA
HETATM   14  O2  UNL     1      94.312 102.244 -38.082  1.00  0.00    -0.648 OA
ENDBRANCH   8  12
BRANCH   1  15
HETATM   15  C1  UNL     1      91.549  98.213 -45.091  1.00  0.00     0.098 C 
HETATM   16  N1  UNL     1      92.478  98.142 -45.980  1.00  0.00    -0.387 N 
ATOM     17  H12 UNL     1      92.551  97.294 -46.542  1.00  0.00     0.157 HD
ATOM     18  H11 UNL     1      93.127  98.918 -46.118  1.00  0.00     0.157 HD
BRANCH  15  19
HETATM   19  C2  UNL     1      90.606  97.088 -44.890  1.00  0.00     0.196 C 
HETATM   20 BR1  UNL     1      91.433  95.387 -45.285  1.00  0.00    -0.071 Br
HETATM   21 BR2  UNL     1      88.992  97.334 -45.946  1.00  0.00    -0.071 Br
ENDBRANCH  15  19
ENDBRANCH   1  15
TORSDOF 3
ENDMDL
MODEL 3
REMARK VINA RESULT: -4.829415089      2.806      3.498
REMARK  3 active torsions:
REMARK  status: ('A' for Active; 'I' for Inactive)
REMARK    1  A    between atoms: C1_4  and  C2_5 
REMARK    2  A    between atoms: C1_4  and  N2_8 
REMARK    3  A    between atoms: C8_15  and  C9_16 
ROOT
HETATM    1  N2  UNL     1      91.753 100.084 -44.253  1.00  0.00    -0.366 N 
HETATM    2  C3  UNL     1      91.739  99.375 -45.517  1.00  0.00     0.152 C 
HETATM    3  C4  UNL     1      91.972  97.913 -45.144  1.00  0.00     0.257 C 
HETATM    4  N3  UNL     1      90.933  97.404 -44.312  1.00  0.00    -0.063 N 
HETATM    5  C5  UNL     1      89.703  97.218 -45.054  1.00  0.00     0.237 C 
HETATM    6  C6  UNL     1      89.822  96.281 -46.205  1.00  0.00     0.029 C 
HETATM    7  C7  UNL     1      90.582  95.041 -45.962  1.00  0.00     0.019 C 
HETATM    8  C8  UNL     1      91.711  95.154 -44.979  1.00  0.00     0.113 C 
HETATM    9  C10 UNL     1      91.327  96.076 -43.862  1.00  0.00     0.253 C 
HETATM   10  C11 UNL     1      90.651  98.178 -43.141  1.00  0.00     0.257 C 
HETATM   11  C12 UNL     1      90.838  99.633 -43.236  1.00  0.00     0.152 C 
ENDROOT
BRANCH   8  12
HETATM   12  C9  UNL     1      92.008  93.839 -44.391  1.00  0.00     0.178 C 
HETATM   13  O1  UNL     1      92.049  92.827 -45.107  1.00  0.00    -0.648 OA
HETATM   14  O2  UNL     1      92.243  93.725 -43.046  1.00  0.00    -0.648 OA
ENDBRANCH   8  12
BRANCH   1  15
HETATM   15  C1  UNL     1      92.641 101.167 -44.054  1.00  0.00     0.098 C 
HETATM   16  N1  UNL     1      93.577 101.041 -43.179  1.00  0.00    -0.387 N 
ATOM     17  H12 UNL     1      94.218 101.822 -43.036  1.00  0.00     0.157 HD
ATOM     18  H11 UNL     1      93.677 100.179 -42.642  1.00  0.00     0.157 HD
BRANCH  15  19
HETATM   19  C2  UNL     1      92.496 102.418 -44.834  1.00  0.00     0.196 C 
HETATM   20 BR1  UNL     1      93.601 103.834 -44.121  1.00  0.00    -0.071 Br
HETATM   21 BR2  UNL     1      90.635 102.973 -44.924  1.00  0.00    -0.071 Br
ENDBRANCH  15  19
ENDBRANCH   1  15
TORSDOF 3
ENDMDL
MODEL 4
REMARK VINA RESULT: -4.722721941      2.846      3.577
REMARK  3 active torsions:
REMARK  status: ('A' for Active; 'I' for Inactive)
REMARK    1  A    between atoms: C1_4  and  C2_5 
REMARK    2  A    between atoms: C1_4  and  N2_8 
REMARK    3  A    between atoms: C8_15  and  C9_16 
ROOT
HETATM    1  N2  UNL     1      91.611 100.127 -44.198  1.00  0.00    -0.366 N 
HETATM    2  C3  UNL     1      91.609  99.458 -45.483  1.00  0.00     0.152 C 
HETATM    3  C4  UNL     1      91.863  97.988 -45.155  1.00  0.00     0.257 C 
HETATM    4  N3  UNL     1      90.832  97.439 -44.341  1.00  0.00    -0.063 N 
HETATM    5  C5  UNL     1      89.605  97.257 -45.090  1.00  0.00     0.237 C 
HETATM    6  C6  UNL     1      89.740  96.358 -46.270  1.00  0.00     0.029 C 
HETATM    7  C7  UNL     1      90.518  95.123 -46.065  1.00  0.00     0.019 C 
HETATM    8  C8  UNL     1      91.644  95.223 -45.077  1.00  0.00     0.113 C 
HETATM    9  C10 UNL     1      91.245  96.104 -43.932  1.00  0.00     0.253 C 
HETATM   10  C11 UNL     1      90.536  98.172 -43.147  1.00  0.00     0.257 C 
HETATM   11  C12 UNL     1      90.701  99.632 -43.196  1.00  0.00     0.152 C 
ENDROOT
BRANCH   8  12
HETATM   12  C9  UNL     1      91.960  93.895 -44.529  1.00  0.00     0.178 C 
HETATM   13  O1  UNL     1      92.249  93.763 -43.331  1.00  0.00    -0.648 OA
HETATM   14  O2  UNL     1      91.936  92.793 -45.344  1.00  0.00    -0.648 OA
ENDBRANCH   8  12
BRANCH   1  15
HETATM   15  C1  UNL     1      92.482 101.217 -43.963  1.00  0.00     0.098 C 
HETATM   16  N1  UNL     1      93.591 100.996 -43.346  1.00  0.00    -0.387 N 
ATOM     17  H12 UNL     1      94.219 101.782 -43.177  1.00  0.00     0.157 HD
ATOM     18  H11 UNL     1      93.835 100.056 -43.033  1.00  0.00     0.157 HD
BRANCH  15  19
HETATM   19  C2  UNL     1      92.128 102.581 -44.417  1.00  0.00     0.196 C 
HETATM   20 BR1  UNL     1      92.851 102.960 -46.168  1.00  0.00    -0.071 Br
HETATM   21 BR2  UNL     1      92.704 103.918 -43.127  1.00  0.00    -0.071 Br
ENDBRANCH  15  19
ENDBRANCH   1  15
TORSDOF 3
ENDMDL
MODEL 5
REMARK VINA RESULT: -4.688422692      2.561      3.431
REMARK  3 active torsions:
REMARK  status: ('A' for Active; 'I' for Inactive)
REMARK    1  A    between atoms: C1_4  and  C2_5 
REMARK    2  A    between atoms: C1_4  and  N2_8 
REMARK    3  A    between atoms: C8_15  and  C9_16 
ROOT
HETATM    1  N2  UNL     1      91.680 100.164 -43.996  1.00  0.00    -0.366 N 
HETATM    2  C3  UNL     1      91.643  99.554 -45.309  1.00  0.00     0.152 C 
HETATM    3  C4  UNL     1      91.881  98.067 -45.054  1.00  0.00     0.257 C 
HETATM    4  N3  UNL     1      90.858  97.496 -44.245  1.00  0.00    -0.063 N 
HETATM    5  C5  UNL     1      89.614  97.366 -44.976  1.00  0.00     0.237 C 
HETATM    6  C6  UNL     1      89.712  96.520 -46.198  1.00  0.00     0.029 C 
HETATM    7  C7  UNL     1      90.476  95.266 -46.064  1.00  0.00     0.019 C 
HETATM    8  C8  UNL     1      91.622  95.304 -45.095  1.00  0.00     0.113 C 
HETATM    9  C10 UNL     1      91.259  96.138 -43.904  1.00  0.00     0.253 C 
HETATM   10  C11 UNL     1      90.597  98.178 -43.013  1.00  0.00     0.257 C 
HETATM   11  C12 UNL     1      90.783  99.636 -42.999  1.00  0.00     0.152 C 
ENDROOT
BRANCH   8  12
HETATM   12  C9  UNL     1      91.928  93.948 -44.615  1.00  0.00     0.178 C 
HETATM   13  O1  UNL     1      91.897  92.985 -45.395  1.00  0.00    -0.648 OA
HETATM   14  O2  UNL     1      92.252  93.742 -43.299  1.00  0.00    -0.648 OA
ENDBRANCH   8  12
BRANCH   1  15
HETATM   15  C1  UNL     1      92.572 101.229 -43.730  1.00  0.00     0.098 C 
HETATM   16  N1  UNL     1      93.193 101.772 -44.719  1.00  0.00    -0.387 N 
ATOM     17  H12 UNL     1      93.836 102.541 -44.528  1.00  0.00     0.157 HD
ATOM     18  H11 UNL     1      93.045 101.441 -45.673  1.00  0.00     0.157 HD
BRANCH  15  19
HETATM   19  C2  UNL     1      92.787 101.710 -42.345  1.00  0.00     0.196 C 
HETATM   20 BR1  UNL     1      91.433 102.981 -41.814  1.00  0.00    -0.071 Br
HETATM   21 BR2  UNL     1      94.566 102.467 -42.138  1.00  0.00    -0.071 Br
ENDBRANCH  15  19
ENDBRANCH   1  15
TORSDOF 3
ENDMDL
