MODEL 1
REMARK VINA RESULT: -5.373652401      0.000      0.000
REMARK  5 active torsions:
REMARK  status: ('A' for Active; 'I' for Inactive)
REMARK    1  A    between atoms: N1_2  and  C2_3 
REMARK    2  A    between atoms: N2_6  and  C5_7 
REMARK    3  A    between atoms: C5_7  and  C6_8 
REMARK       I    between atoms: N3_11  and  C8_13 
REMARK    4  A    between atoms: C13_20  and  C14_22 
REMARK    5  A    between atoms: C14_22  and  N5_23 
ROOT
HETATM    1  C6  UNL     1      91.587  94.084 -44.743  1.00  0.00    -0.018 C 
HETATM    2  C7  UNL     1      91.481  93.275 -45.640  1.00  0.00    -0.015 C 
HETATM    3 BR1  UNL     1      91.332  91.993 -47.019  1.00  0.00     0.011 Br
ENDROOT
BRANCH   1   4
HETATM    4  C5  UNL     1      91.733  95.029 -43.680  1.00  0.00     0.164 C 
HETATM    5  N3  UNL     1      92.195  94.677 -42.557  1.00  0.00    -0.290 N 
HETATM    6  C8  UNL     1      92.613  93.390 -42.187  1.00  0.00     0.334 C 
ATOM      7  H3  UNL     1      92.272  95.404 -41.846  1.00  0.00     0.172 HD
HETATM    8  N4  UNL     1      93.774  93.211 -41.386  1.00  0.00    -0.040 NA
HETATM    9  O1  UNL     1      91.950  92.388 -42.570  1.00  0.00    -0.251 OA
BRANCH   4  10
HETATM   10  N2  UNL     1      91.352  96.370 -43.906  1.00  0.00    -0.360 N 
HETATM   11  C4  UNL     1      91.352  97.337 -42.805  1.00  0.00     0.127 C 
HETATM   12  C3  UNL     1      90.364  98.430 -43.074  1.00  0.00     0.053 C 
HETATM   13  C2  UNL     1      90.556  99.133 -44.377  1.00  0.00     0.193 C 
HETATM   14  C10 UNL     1      91.465  98.332 -45.250  1.00  0.00     0.053 C 
HETATM   15  C9  UNL     1      90.946  96.885 -45.198  1.00  0.00     0.127 C 
BRANCH  13  16
HETATM   16  N1  UNL     1      90.968 100.521 -44.231  1.00  0.00    -0.066 N 
HETATM   17  C1  UNL     1      90.322 101.321 -45.283  1.00  0.00     0.273 C 
HETATM   18  C11 UNL     1      90.409 100.989 -42.982  1.00  0.00     0.240 C 
HETATM   19  C12 UNL     1      90.800 102.425 -42.677  1.00  0.00     0.073 C 
HETATM   20  C13 UNL     1      92.277 102.608 -42.682  1.00  0.00     0.130 C 
HETATM   21  F1  UNL     1      92.655 102.754 -41.334  1.00  0.00    -0.241 F 
HETATM   22  C15 UNL     1      93.054 101.526 -43.336  1.00  0.00     0.073 C 
HETATM   23  C16 UNL     1      92.371 100.658 -44.303  1.00  0.00     0.240 C 
BRANCH  20  24
HETATM   24  C14 UNL     1      92.633 103.980 -43.280  1.00  0.00     0.273 C 
BRANCH  24  25
HETATM   25  N5  UNL     1      91.497 104.514 -43.993  1.00  0.00    -0.076 N 
ATOM     26  H53 UNL     1      91.437 104.152 -44.945  1.00  0.00     0.274 HD
ATOM     27  H52 UNL     1      90.614 104.145 -43.639  1.00  0.00     0.274 HD
ATOM     28  H51 UNL     1      91.521 105.533 -43.971  1.00  0.00     0.274 HD
ENDBRANCH  24  25
ENDBRANCH  20  24
ENDBRANCH  13  16
ENDBRANCH   4  10
ENDBRANCH   1   4
TORSDOF 5
ENDMDL
MODEL 2
REMARK VINA RESULT: -5.282821364      3.751      4.724
REMARK  5 active torsions:
REMARK  status: ('A' for Active; 'I' for Inactive)
REMARK    1  A    between atoms: N1_2  and  C2_3 
REMARK    2  A    between atoms: N2_6  and  C5_7 
REMARK    3  A    between atoms: C5_7  and  C6_8 
REMARK       I    between atoms: N3_11  and  C8_13 
REMARK    4  A    between atoms: C13_20  and  C14_22 
REMARK    5  A    between atoms: C14_22  and  N5_23 
ROOT
HETATM    1  C6  UNL     1      92.032  93.700 -44.381  1.00  0.00    -0.018 C 
HETATM    2  C7  UNL     1      92.623  93.327 -43.390  1.00  0.00    -0.015 C 
HETATM    3 BR1  UNL     1      93.545  92.778 -41.836  1.00  0.00     0.011 Br
ENDROOT
BRANCH   1   4
HETATM    4  C5  UNL     1      91.348  94.159 -45.549  1.00  0.00     0.164 C 
HETATM    5  N3  UNL     1      91.154  93.389 -46.533  1.00  0.00    -0.290 N 
HETATM    6  C8  UNL     1      91.549  92.048 -46.640  1.00  0.00     0.334 C 
ATOM      7  H3  UNL     1      90.659  93.785 -47.332  1.00  0.00     0.172 HD
HETATM    8  N4  UNL     1      90.690  91.089 -47.243  1.00  0.00    -0.040 NA
HETATM    9  O1  UNL     1      92.675  91.695 -46.196  1.00  0.00    -0.251 OA
BRANCH   4  10
HETATM   10  N2  UNL     1      90.889  95.495 -45.587  1.00  0.00    -0.360 N 
HETATM   11  C4  UNL     1      89.523  95.798 -46.020  1.00  0.00     0.127 C 
HETATM   12  C3  UNL     1      89.452  97.183 -46.586  1.00  0.00     0.053 C 
HETATM   13  C2  UNL     1      89.953  98.252 -45.672  1.00  0.00     0.193 C 
HETATM   14  C10 UNL     1      90.733  97.636 -44.558  1.00  0.00     0.053 C 
HETATM   15  C9  UNL     1      91.700  96.636 -45.213  1.00  0.00     0.127 C 
BRANCH  13  16
HETATM   16  N1  UNL     1      88.909  99.159 -45.216  1.00  0.00    -0.066 N 
HETATM   17  C1  UNL     1      89.303 100.538 -45.543  1.00  0.00     0.273 C 
HETATM   18  C11 UNL     1      87.740  98.882 -46.020  1.00  0.00     0.240 C 
HETATM   19  C12 UNL     1      86.548  99.734 -45.619  1.00  0.00     0.073 C 
HETATM   20  C13 UNL     1      86.227  99.588 -44.173  1.00  0.00     0.130 C 
HETATM   21  F1  UNL     1      85.051  98.817 -44.113  1.00  0.00    -0.241 F 
HETATM   22  C15 UNL     1      87.296  98.989 -43.337  1.00  0.00     0.073 C 
HETATM   23  C16 UNL     1      88.679  99.032 -43.830  1.00  0.00     0.240 C 
BRANCH  20  24
HETATM   24  C14 UNL     1      85.771 100.940 -43.598  1.00  0.00     0.273 C 
BRANCH  24  25
HETATM   25  N5  UNL     1      86.161 101.040 -42.212  1.00  0.00    -0.076 N 
ATOM     26  H53 UNL     1      86.535 100.161 -41.855  1.00  0.00     0.274 HD
ATOM     27  H52 UNL     1      86.994 101.616 -42.089  1.00  0.00     0.274 HD
ATOM     28  H51 UNL     1      85.377 101.378 -41.655  1.00  0.00     0.274 HD
ENDBRANCH  24  25
ENDBRANCH  20  24
ENDBRANCH  13  16
ENDBRANCH   4  10
ENDBRANCH   1   4
TORSDOF 5
ENDMDL
MODEL 3
REMARK VINA RESULT: -5.200978152      2.465      3.343
REMARK  5 active torsions:
REMARK  status: ('A' for Active; 'I' for Inactive)
REMARK    1  A    between atoms: N1_2  and  C2_3 
REMARK    2  A    between atoms: N2_6  and  C5_7 
REMARK    3  A    between atoms: C5_7  and  C6_8 
REMARK       I    between atoms: N3_11  and  C8_13 
REMARK    4  A    between atoms: C13_20  and  C14_22 
REMARK    5  A    between atoms: C14_22  and  N5_23 
ROOT
HETATM    1  C6  UNL     1      91.610  94.003 -44.720  1.00  0.00    -0.018 C 
HETATM    2  C7  UNL     1      91.496  93.199 -45.621  1.00  0.00    -0.015 C 
HETATM    3 BR1  UNL     1      91.328  91.923 -47.003  1.00  0.00     0.011 Br
ENDROOT
BRANCH   1   4
HETATM    4  C5  UNL     1      91.762  94.938 -43.650  1.00  0.00     0.164 C 
HETATM    5  N3  UNL     1      92.279  94.588 -42.551  1.00  0.00    -0.290 N 
HETATM    6  C8  UNL     1      92.757  93.314 -42.215  1.00  0.00     0.334 C 
ATOM      7  H3  UNL     1      92.356  95.308 -41.833  1.00  0.00     0.172 HD
HETATM    8  N4  UNL     1      93.953  93.167 -41.462  1.00  0.00    -0.040 NA
HETATM    9  O1  UNL     1      92.117  92.293 -42.588  1.00  0.00    -0.251 OA
BRANCH   4  10
HETATM   10  N2  UNL     1      91.324  96.268 -43.842  1.00  0.00    -0.360 N 
HETATM   11  C4  UNL     1      90.576  96.635 -45.048  1.00  0.00     0.127 C 
HETATM   12  C3  UNL     1      90.773  98.088 -45.357  1.00  0.00     0.053 C 
HETATM   13  C2  UNL     1      90.431  99.013 -44.236  1.00  0.00     0.193 C 
HETATM   14  C10 UNL     1      90.321  98.239 -42.963  1.00  0.00     0.053 C 
HETATM   15  C9  UNL     1      91.566  97.339 -42.898  1.00  0.00     0.127 C 
BRANCH  13  16
HETATM   16  N1  UNL     1      89.272  99.849 -44.508  1.00  0.00    -0.066 N 
HETATM   17  C1  UNL     1      89.138 100.014 -45.964  1.00  0.00     0.273 C 
HETATM   18  C11 UNL     1      88.111  99.097 -44.089  1.00  0.00     0.240 C 
HETATM   19  C12 UNL     1      86.820  99.876 -44.277  1.00  0.00     0.073 C 
HETATM   20  C13 UNL     1      86.862 101.191 -43.580  1.00  0.00     0.130 C 
HETATM   21  F1  UNL     1      86.026 101.063 -42.456  1.00  0.00    -0.241 F 
HETATM   22  C15 UNL     1      88.213 101.663 -43.185  1.00  0.00     0.073 C 
HETATM   23  C16 UNL     1      89.381 101.109 -43.881  1.00  0.00     0.240 C 
BRANCH  20  24
HETATM   24  C14 UNL     1      86.132 102.252 -44.421  1.00  0.00     0.273 C 
BRANCH  24  25
HETATM   25  N5  UNL     1      85.866 101.734 -45.742  1.00  0.00    -0.076 N 
ATOM     26  H53 UNL     1      86.696 101.315 -46.164  1.00  0.00     0.274 HD
ATOM     27  H52 UNL     1      85.277 100.901 -45.716  1.00  0.00     0.274 HD
ATOM     28  H51 UNL     1      85.467 102.466 -46.328  1.00  0.00     0.274 HD
ENDBRANCH  24  25
ENDBRANCH  20  24
ENDBRANCH  13  16
ENDBRANCH   4  10
ENDBRANCH   1   4
TORSDOF 5
ENDMDL
MODEL 4
REMARK VINA RESULT: -5.174120730      1.187      1.659
REMARK  5 active torsions:
REMARK  status: ('A' for Active; 'I' for Inactive)
REMARK    1  A    between atoms: N1_2  and  C2_3 
REMARK    2  A    between atoms: N2_6  and  C5_7 
REMARK    3  A    between atoms: C5_7  and  C6_8 
REMARK       I    between atoms: N3_11  and  C8_13 
REMARK    4  A    between atoms: C13_20  and  C14_22 
REMARK    5  A    between atoms: C14_22  and  N5_23 
ROOT
HETATM    1  C6  UNL     1      91.589  94.072 -44.727  1.00  0.00    -0.018 C 
HETATM    2  C7  UNL     1      91.491  93.265 -45.627  1.00  0.00    -0.015 C 
HETATM    3 BR1  UNL     1      91.361  91.989 -47.014  1.00  0.00     0.011 Br
ENDROOT
BRANCH   1   4
HETATM    4  C5  UNL     1      91.727  95.018 -43.665  1.00  0.00     0.164 C 
HETATM    5  N3  UNL     1      92.202  94.673 -42.546  1.00  0.00    -0.290 N 
HETATM    6  C8  UNL     1      92.644  93.393 -42.180  1.00  0.00     0.334 C 
ATOM      7  H3  UNL     1      92.272  95.400 -41.835  1.00  0.00     0.172 HD
HETATM    8  N4  UNL     1      93.813  93.233 -41.388  1.00  0.00    -0.040 NA
HETATM    9  O1  UNL     1      91.996  92.381 -42.559  1.00  0.00    -0.251 OA
BRANCH   4  10
HETATM   10  N2  UNL     1      91.322  96.353 -43.887  1.00  0.00    -0.360 N 
HETATM   11  C4  UNL     1      91.304  97.316 -42.782  1.00  0.00     0.127 C 
HETATM   12  C3  UNL     1      90.297  98.392 -43.048  1.00  0.00     0.053 C 
HETATM   13  C2  UNL     1      90.476  99.103 -44.349  1.00  0.00     0.193 C 
HETATM   14  C10 UNL     1      91.398  98.320 -45.225  1.00  0.00     0.053 C 
HETATM   15  C9  UNL     1      90.905  96.864 -45.177  1.00  0.00     0.127 C 
BRANCH  13  16
HETATM   16  N1  UNL     1      90.863 100.498 -44.199  1.00  0.00    -0.066 N 
HETATM   17  C1  UNL     1      90.432 100.969 -42.873  1.00  0.00     0.273 C 
HETATM   18  C11 UNL     1      92.308 100.526 -44.177  1.00  0.00     0.240 C 
HETATM   19  C12 UNL     1      92.856 101.939 -44.068  1.00  0.00     0.073 C 
HETATM   20  C13 UNL     1      92.338 102.817 -45.153  1.00  0.00     0.130 C 
HETATM   21  F1  UNL     1      93.412 103.014 -46.040  1.00  0.00    -0.241 F 
HETATM   22  C15 UNL     1      91.143 102.310 -45.872  1.00  0.00     0.073 C 
HETATM   23  C16 UNL     1      90.301 101.305 -45.211  1.00  0.00     0.240 C 
BRANCH  20  24
HETATM   24  C14 UNL     1      92.091 104.234 -44.607  1.00  0.00     0.273 C 
BRANCH  24  25
HETATM   25  N5  UNL     1      92.104 104.213 -43.163  1.00  0.00    -0.076 N 
ATOM     26  H53 UNL     1      91.247 103.814 -42.779  1.00  0.00     0.274 HD
ATOM     27  H52 UNL     1      92.764 103.527 -42.795  1.00  0.00     0.274 HD
ATOM     28  H51 UNL     1      92.285 105.150 -42.804  1.00  0.00     0.274 HD
ENDBRANCH  24  25
ENDBRANCH  20  24
ENDBRANCH  13  16
ENDBRANCH   4  10
ENDBRANCH   1   4
TORSDOF 5
ENDMDL
MODEL 5
REMARK VINA RESULT: -5.166694981      2.952      4.036
REMARK  5 active torsions:
REMARK  status: ('A' for Active; 'I' for Inactive)
REMARK    1  A    between atoms: N1_2  and  C2_3 
REMARK    2  A    between atoms: N2_6  and  C5_7 
REMARK    3  A    between atoms: C5_7  and  C6_8 
REMARK       I    between atoms: N3_11  and  C8_13 
REMARK    4  A    between atoms: C13_20  and  C14_22 
REMARK    5  A    between atoms: C14_22  and  N5_23 
ROOT
HETATM    1  C6  UNL     1      91.609  93.986 -44.736  1.00  0.00    -0.018 C 
HETATM    2  C7  UNL     1      91.543  93.146 -45.608  1.00  0.00    -0.015 C 
HETATM    3 BR1  UNL     1      91.439  91.816 -46.945  1.00  0.00     0.011 Br
ENDROOT
BRANCH   1   4
HETATM    4  C5  UNL     1      91.698  94.960 -43.694  1.00  0.00     0.164 C 
HETATM    5  N3  UNL     1      92.166  94.656 -42.560  1.00  0.00    -0.290 N 
HETATM    6  C8  UNL     1      92.643  93.401 -42.156  1.00  0.00     0.334 C 
ATOM      7  H3  UNL     1      92.201  95.402 -41.864  1.00  0.00     0.172 HD
HETATM    8  N4  UNL     1      93.804  93.297 -41.343  1.00  0.00    -0.040 NA
HETATM    9  O1  UNL     1      92.034  92.359 -42.522  1.00  0.00    -0.251 OA
BRANCH   4  10
HETATM   10  N2  UNL     1      91.254  96.276 -43.953  1.00  0.00    -0.360 N 
HETATM   11  C4  UNL     1      90.407  96.557 -45.115  1.00  0.00     0.127 C 
HETATM   12  C3  UNL     1      90.585  97.977 -45.557  1.00  0.00     0.053 C 
HETATM   13  C2  UNL     1      90.348  98.993 -44.488  1.00  0.00     0.193 C 
HETATM   14  C10 UNL     1      90.345  98.325 -43.153  1.00  0.00     0.053 C 
HETATM   15  C9  UNL     1      91.585  97.416 -43.123  1.00  0.00     0.127 C 
BRANCH  13  16
HETATM   16  N1  UNL     1      89.175  99.820 -44.726  1.00  0.00    -0.066 N 
HETATM   17  C1  UNL     1      89.563 101.235 -44.618  1.00  0.00     0.273 C 
HETATM   18  C11 UNL     1      88.800  99.619 -46.108  1.00  0.00     0.240 C 
HETATM   19  C12 UNL     1      87.551 100.397 -46.486  1.00  0.00     0.073 C 
HETATM   20  C13 UNL     1      86.408 100.075 -45.589  1.00  0.00     0.130 C 
HETATM   21  F1  UNL     1      85.529  99.282 -46.349  1.00  0.00    -0.241 F 
HETATM   22  C15 UNL     1      86.763  99.401 -44.315  1.00  0.00     0.073 C 
HETATM   23  C16 UNL     1      88.138  99.526 -43.815  1.00  0.00     0.240 C 
BRANCH  20  24
HETATM   24  C14 UNL     1      85.575 101.342 -45.327  1.00  0.00     0.273 C 
BRANCH  24  25
HETATM   25  N5  UNL     1      84.822 101.190 -44.105  1.00  0.00    -0.076 N 
ATOM     26  H53 UNL     1      85.004 100.294 -43.652  1.00  0.00     0.274 HD
ATOM     27  H52 UNL     1      85.165 101.802 -43.364  1.00  0.00     0.274 HD
ATOM     28  H51 UNL     1      83.829 101.332 -44.290  1.00  0.00     0.274 HD
ENDBRANCH  24  25
ENDBRANCH  20  24
ENDBRANCH  13  16
ENDBRANCH   4  10
ENDBRANCH   1   4
TORSDOF 5
ENDMDL
