MODEL 1
REMARK VINA RESULT: -5.155356991      0.000      0.000
REMARK  5 active torsions:
REMARK  status: ('A' for Active; 'I' for Inactive)
REMARK       I    between atoms: N3_4  and  C2_6 
REMARK       I    between atoms: N5_8  and  C3_10 
REMARK    1  A    between atoms: C3_10  and  C4_12 
REMARK    2  A    between atoms: C4_12  and  C5_14 
REMARK    3  A    between atoms: C5_14  and  C6_15 
REMARK    4  A    between atoms: C6_15  and  C7_17 
REMARK    5  A    between atoms: C7_17  and  C8_18 
ROOT
HETATM    1  N1  UNL     1      92.652 100.738 -40.399  1.00  0.00    -0.066 NA
HETATM    2  C1  UNL     1      92.374 100.394 -41.739  1.00  0.00     0.203 C 
HETATM    3  N2  UNL     1      92.633 101.350 -42.763  1.00  0.00    -0.066 NA
HETATM    4  N3  UNL     1      91.890  99.210 -41.976  1.00  0.00    -0.307 N 
ATOM      5  H3  UNL     1      91.726  98.564 -41.203  1.00  0.00     0.170 HD
HETATM    6  C2  UNL     1      91.590  98.812 -43.312  1.00  0.00     0.197 C 
HETATM    7  N4  UNL     1      90.423  99.239 -43.983  1.00  0.00    -0.063 NA
HETATM    8  N5  UNL     1      92.427  98.035 -43.911  1.00  0.00    -0.296 N 
ATOM      9  H5  UNL     1      93.274  97.715 -43.442  1.00  0.00     0.171 HD
HETATM   10  C3  UNL     1      92.141  97.647 -45.212  1.00  0.00     0.265 C 
HETATM   11  O1  UNL     1      92.522  98.397 -46.165  1.00  0.00    -0.267 OA
ENDROOT
BRANCH  10  12
HETATM   12  C4  UNL     1      91.428  96.432 -45.566  1.00  0.00     0.080 C 
HETATM   13 BR1  UNL     1      89.568  96.523 -46.002  1.00  0.00    -0.045 Br
BRANCH  12  14
HETATM   14  C5  UNL     1      92.086  95.322 -45.579  1.00  0.00     0.052 C 
BRANCH  14  15
HETATM   15  C6  UNL     1      91.844  94.160 -44.757  1.00  0.00     0.058 C 
HETATM   16 BR2  UNL     1      91.634  92.465 -45.720  1.00  0.00    -0.042 Br
BRANCH  15  17
HETATM   17  C7  UNL     1      91.764  94.127 -43.521  1.00  0.00    -0.102 C 
BRANCH  17  18
HETATM   18  C8  UNL     1      91.673  94.089 -42.112  1.00  0.00     0.112 C 
HETATM   19 BR3  UNL     1      92.077  95.618 -41.041  1.00  0.00    -0.055 Br
ENDBRANCH  17  18
ENDBRANCH  15  17
ENDBRANCH  14  15
ENDBRANCH  12  14
ENDBRANCH  10  12
TORSDOF 5
ENDMDL
MODEL 2
REMARK VINA RESULT: -4.946032651      1.280      2.491
REMARK  5 active torsions:
REMARK  status: ('A' for Active; 'I' for Inactive)
REMARK       I    between atoms: N3_4  and  C2_6 
REMARK       I    between atoms: N5_8  and  C3_10 
REMARK    1  A    between atoms: C3_10  and  C4_12 
REMARK    2  A    between atoms: C4_12  and  C5_14 
REMARK    3  A    between atoms: C5_14  and  C6_15 
REMARK    4  A    between atoms: C6_15  and  C7_17 
REMARK    5  A    between atoms: C7_17  and  C8_18 
ROOT
HETATM    1  N1  UNL     1      92.821 100.655 -40.360  1.00  0.00    -0.066 NA
HETATM    2  C1  UNL     1      92.306 100.321 -41.630  1.00  0.00     0.203 C 
HETATM    3  N2  UNL     1      92.098 101.359 -42.583  1.00  0.00    -0.066 NA
HETATM    4  N3  UNL     1      92.043  99.070 -41.870  1.00  0.00    -0.307 N 
ATOM      5  H3  UNL     1      92.212  98.367 -41.151  1.00  0.00     0.170 HD
HETATM    6  C2  UNL     1      91.518  98.678 -43.138  1.00  0.00     0.197 C 
HETATM    7  N4  UNL     1      90.160  98.855 -43.480  1.00  0.00    -0.063 NA
HETATM    8  N5  UNL     1      92.331  98.145 -43.986  1.00  0.00    -0.296 N 
ATOM      9  H5  UNL     1      93.315  98.008 -43.756  1.00  0.00     0.171 HD
HETATM   10  C3  UNL     1      91.827  97.764 -45.222  1.00  0.00     0.265 C 
HETATM   11  O1  UNL     1      91.795  98.628 -46.155  1.00  0.00    -0.267 OA
ENDROOT
BRANCH  10  12
HETATM   12  C4  UNL     1      91.325  96.436 -45.527  1.00  0.00     0.080 C 
HETATM   13 BR1  UNL     1      89.516  96.223 -46.112  1.00  0.00    -0.045 Br
BRANCH  12  14
HETATM   14  C5  UNL     1      92.131  95.437 -45.397  1.00  0.00     0.052 C 
BRANCH  14  15
HETATM   15  C6  UNL     1      91.778  94.073 -45.079  1.00  0.00     0.058 C 
HETATM   16 BR2  UNL     1      91.771  93.617 -43.172  1.00  0.00    -0.042 Br
BRANCH  15  17
HETATM   17  C7  UNL     1      91.476  93.177 -45.880  1.00  0.00    -0.102 C 
BRANCH  17  18
HETATM   18  C8  UNL     1      91.132  92.156 -46.794  1.00  0.00     0.112 C 
HETATM   19 BR3  UNL     1      92.429  90.913 -47.441  1.00  0.00    -0.055 Br
ENDBRANCH  17  18
ENDBRANCH  15  17
ENDBRANCH  14  15
ENDBRANCH  12  14
ENDBRANCH  10  12
TORSDOF 5
ENDMDL
MODEL 3
REMARK VINA RESULT: -4.773116688      1.741      2.186
REMARK  5 active torsions:
REMARK  status: ('A' for Active; 'I' for Inactive)
REMARK       I    between atoms: N3_4  and  C2_6 
REMARK       I    between atoms: N5_8  and  C3_10 
REMARK    1  A    between atoms: C3_10  and  C4_12 
REMARK    2  A    between atoms: C4_12  and  C5_14 
REMARK    3  A    between atoms: C5_14  and  C6_15 
REMARK    4  A    between atoms: C6_15  and  C7_17 
REMARK    5  A    between atoms: C7_17  and  C8_18 
ROOT
HETATM    1  N1  UNL     1      91.953 103.044 -44.231  1.00  0.00    -0.066 NA
HETATM    2  C1  UNL     1      92.135 101.668 -43.979  1.00  0.00     0.203 C 
HETATM    3  N2  UNL     1      92.683 101.264 -42.727  1.00  0.00    -0.066 NA
HETATM    4  N3  UNL     1      91.791 100.828 -44.911  1.00  0.00    -0.307 N 
ATOM      5  H3  UNL     1      91.402 101.173 -45.788  1.00  0.00     0.170 HD
HETATM    6  C2  UNL     1      91.956  99.425 -44.708  1.00  0.00     0.197 C 
HETATM    7  N4  UNL     1      93.210  98.787 -44.830  1.00  0.00    -0.063 NA
HETATM    8  N5  UNL     1      90.910  98.734 -44.404  1.00  0.00    -0.296 N 
ATOM      9  H5  UNL     1      89.997  99.177 -44.314  1.00  0.00     0.171 HD
HETATM   10  C3  UNL     1      91.066  97.370 -44.203  1.00  0.00     0.265 C 
HETATM   11  O1  UNL     1      91.381  96.961 -43.041  1.00  0.00    -0.267 OA
ENDROOT
BRANCH  10  12
HETATM   12  C4  UNL     1      90.894  96.366 -45.239  1.00  0.00     0.080 C 
HETATM   13 BR1  UNL     1      89.353  96.433 -46.371  1.00  0.00    -0.045 Br
BRANCH  12  14
HETATM   14  C5  UNL     1      91.802  95.458 -45.363  1.00  0.00     0.052 C 
BRANCH  14  15
HETATM   15  C6  UNL     1      91.723  94.085 -44.922  1.00  0.00     0.058 C 
HETATM   16 BR2  UNL     1      91.386  92.758 -46.325  1.00  0.00    -0.042 Br
BRANCH  15  17
HETATM   17  C7  UNL     1      91.852  93.668 -43.762  1.00  0.00    -0.102 C 
BRANCH  17  18
HETATM   18  C8  UNL     1      91.998  93.193 -42.440  1.00  0.00     0.112 C 
HETATM   19 BR3  UNL     1      93.719  92.874 -41.676  1.00  0.00    -0.055 Br
ENDBRANCH  17  18
ENDBRANCH  15  17
ENDBRANCH  14  15
ENDBRANCH  12  14
ENDBRANCH  10  12
TORSDOF 5
ENDMDL
MODEL 4
REMARK VINA RESULT: -4.743626546      3.361      4.177
REMARK  5 active torsions:
REMARK  status: ('A' for Active; 'I' for Inactive)
REMARK       I    between atoms: N3_4  and  C2_6 
REMARK       I    between atoms: N5_8  and  C3_10 
REMARK    1  A    between atoms: C3_10  and  C4_12 
REMARK    2  A    between atoms: C4_12  and  C5_14 
REMARK    3  A    between atoms: C5_14  and  C6_15 
REMARK    4  A    between atoms: C6_15  and  C7_17 
REMARK    5  A    between atoms: C7_17  and  C8_18 
ROOT
HETATM    1  N1  UNL     1      87.972  99.468 -46.113  1.00  0.00    -0.066 NA
HETATM    2  C1  UNL     1      88.954  98.483 -46.351  1.00  0.00     0.203 C 
HETATM    3  N2  UNL     1      90.016  98.774 -47.255  1.00  0.00    -0.066 NA
HETATM    4  N3  UNL     1      88.841  97.347 -45.727  1.00  0.00    -0.307 N 
ATOM      5  H3  UNL     1      88.061  97.193 -45.089  1.00  0.00     0.170 HD
HETATM    6  C2  UNL     1      89.806  96.317 -45.933  1.00  0.00     0.197 C 
HETATM    7  N4  UNL     1      89.800  95.495 -47.082  1.00  0.00    -0.063 NA
HETATM    8  N5  UNL     1      90.708  96.146 -45.027  1.00  0.00    -0.296 N 
ATOM      9  H5  UNL     1      90.727  96.729 -44.190  1.00  0.00     0.171 HD
HETATM   10  C3  UNL     1      91.650  95.147 -45.223  1.00  0.00     0.265 C 
HETATM   11  O1  UNL     1      92.703  95.429 -45.879  1.00  0.00    -0.267 OA
ENDROOT
BRANCH  10  12
HETATM   12  C4  UNL     1      91.517  93.788 -44.729  1.00  0.00     0.080 C 
HETATM   13 BR1  UNL     1      91.655  92.323 -45.952  1.00  0.00    -0.045 Br
BRANCH  12  14
HETATM   14  C5  UNL     1      91.315  93.617 -43.466  1.00  0.00     0.052 C 
BRANCH  14  15
HETATM   15  C6  UNL     1      92.163  94.058 -42.384  1.00  0.00     0.058 C 
HETATM   16 BR2  UNL     1      93.553  92.795 -41.823  1.00  0.00    -0.042 Br
BRANCH  15  17
HETATM   17  C7  UNL     1      92.104  95.143 -41.789  1.00  0.00    -0.102 C 
BRANCH  17  18
HETATM   18  C8  UNL     1      92.037  96.380 -41.110  1.00  0.00     0.112 C 
HETATM   19 BR3  UNL     1      92.022  98.040 -42.053  1.00  0.00    -0.055 Br
ENDBRANCH  17  18
ENDBRANCH  15  17
ENDBRANCH  14  15
ENDBRANCH  12  14
ENDBRANCH  10  12
TORSDOF 5
ENDMDL
MODEL 5
REMARK VINA RESULT: -4.603986279      1.384      1.473
REMARK  5 active torsions:
REMARK  status: ('A' for Active; 'I' for Inactive)
REMARK       I    between atoms: N3_4  and  C2_6 
REMARK       I    between atoms: N5_8  and  C3_10 
REMARK    1  A    between atoms: C3_10  and  C4_12 
REMARK    2  A    between atoms: C4_12  and  C5_14 
REMARK    3  A    between atoms: C5_14  and  C6_15 
REMARK    4  A    between atoms: C6_15  and  C7_17 
REMARK    5  A    between atoms: C7_17  and  C8_18 
ROOT
HETATM    1  N1  UNL     1      93.938 102.431 -41.538  1.00  0.00    -0.066 NA
HETATM    2  C1  UNL     1      93.415 101.829 -42.702  1.00  0.00     0.203 C 
HETATM    3  N2  UNL     1      93.501 102.532 -43.938  1.00  0.00    -0.066 NA
HETATM    4  N3  UNL     1      92.876 100.651 -42.589  1.00  0.00    -0.307 N 
ATOM      5  H3  UNL     1      92.843 100.192 -41.678  1.00  0.00     0.170 HD
HETATM    6  C2  UNL     1      92.332  99.998 -43.734  1.00  0.00     0.197 C 
HETATM    7  N4  UNL     1      91.070 100.339 -44.269  1.00  0.00    -0.063 NA
HETATM    8  N5  UNL     1      93.033  99.066 -44.286  1.00  0.00    -0.296 N 
ATOM      9  H5  UNL     1      93.946  98.806 -43.913  1.00  0.00     0.171 HD
HETATM   10  C3  UNL     1      92.509  98.430 -45.403  1.00  0.00     0.265 C 
HETATM   11  O1  UNL     1      92.724  98.941 -46.547  1.00  0.00    -0.267 OA
ENDROOT
BRANCH  10  12
HETATM   12  C4  UNL     1      91.723  97.209 -45.355  1.00  0.00     0.080 C 
HETATM   13 BR1  UNL     1      89.813  97.318 -45.353  1.00  0.00    -0.045 Br
BRANCH  12  14
HETATM   14  C5  UNL     1      92.351  96.083 -45.322  1.00  0.00     0.052 C 
BRANCH  14  15
HETATM   15  C6  UNL     1      91.819  94.805 -44.909  1.00  0.00     0.058 C 
HETATM   16 BR2  UNL     1      91.041  93.706 -46.334  1.00  0.00    -0.042 Br
BRANCH  15  17
HETATM   17  C7  UNL     1      91.811  94.339 -43.761  1.00  0.00    -0.102 C 
BRANCH  17  18
HETATM   18  C8  UNL     1      91.803  93.807 -42.452  1.00  0.00     0.112 C 
HETATM   19 BR3  UNL     1      93.410  93.233 -41.595  1.00  0.00    -0.055 Br
ENDBRANCH  17  18
ENDBRANCH  15  17
ENDBRANCH  14  15
ENDBRANCH  12  14
ENDBRANCH  10  12
TORSDOF 5
ENDMDL
