MODEL 1
REMARK VINA RESULT: -6.002573718      0.000      0.000
REMARK  7 active torsions:
REMARK  status: ('A' for Active; 'I' for Inactive)
REMARK    1  A    between atoms: C2_2  and  C3_3 
REMARK    2  A    between atoms: C3_3  and  C4_11 
REMARK    3  A    between atoms: N1_4  and  N2_6 
REMARK    4  A    between atoms: N2_6  and  N3_8 
REMARK    5  A    between atoms: C11_19  and  C12_21 
REMARK    6  A    between atoms: N4_25  and  C14_26 
REMARK    7  A    between atoms: C14_26  and  C15_27 
ROOT
HETATM    1  C1  UNL     1      90.175  99.135 -43.059  1.00  0.00     0.047 C 
HETATM    2  C2  UNL     1      90.728 100.596 -42.771  1.00  0.00     0.092 C 
HETATM    3  C10 UNL     1      89.519 101.444 -42.699  1.00  0.00     0.121 C 
HETATM    4 BR1  UNL     1      87.871 100.397 -42.467  1.00  0.00    -0.086 Br
HETATM    5  C11 UNL     1      89.463 102.147 -44.038  1.00  0.00     0.123 C 
HETATM    6 BR2  UNL     1      88.126 101.222 -45.115  1.00  0.00    -0.073 Br
HETATM    7  C13 UNL     1      90.814 101.959 -44.613  1.00  0.00     0.242 C 
HETATM    8  O1  UNL     1      91.277 102.684 -45.534  1.00  0.00    -0.271 OA
HETATM    9  N4  UNL     1      91.462 100.853 -43.955  1.00  0.00    -0.326 N 
ENDROOT
BRANCH   2  10
HETATM   10  C3  UNL     1      91.424 100.477 -41.476  1.00  0.00     0.066 C 
HETATM   11  N1  UNL     1      91.789  99.318 -41.209  1.00  0.00    -0.288 N 
ATOM     12  H1  UNL     1      91.467  98.800 -42.027  1.00  0.00     0.188 HD
BRANCH  11  13
HETATM   13  N2  UNL     1      92.339  98.386 -40.500  1.00  0.00    -0.249 N 
ATOM     14  H2  UNL     1      93.203  98.570 -39.990  1.00  0.00     0.207 HD
BRANCH  13  15
HETATM   15  N3  UNL     1      91.778  97.205 -40.445  1.00  0.00    -0.331 N 
ATOM     16  H32 UNL     1      90.760  97.134 -40.455  1.00  0.00     0.178 HD
ATOM     17  H31 UNL     1      92.366  96.373 -40.394  1.00  0.00     0.178 HD
ENDBRANCH  13  15
ENDBRANCH  11  13
BRANCH  10  18
HETATM   18  C4  UNL     1      91.710 101.540 -40.528  1.00  0.00    -0.009 A 
HETATM   19  C5  UNL     1      93.016 102.002 -40.389  1.00  0.00     0.013 A 
HETATM   20  C6  UNL     1      93.355 103.009 -39.484  1.00  0.00     0.001 A 
HETATM   21  C7  UNL     1      92.408 103.590 -38.684  1.00  0.00     0.000 A 
HETATM   22  C8  UNL     1      91.131 103.153 -38.806  1.00  0.00     0.001 A 
HETATM   23  C9  UNL     1      90.795 102.155 -39.706  1.00  0.00     0.013 A 
ENDBRANCH  10  18
ENDBRANCH   2  10
BRANCH   9  24
HETATM   24  C14 UNL     1      92.553 100.134 -44.509  1.00  0.00     0.226 C 
BRANCH  24  25
HETATM   25  C15 UNL     1      92.366  99.370 -45.732  1.00  0.00     0.249 C 
HETATM   26  N5  UNL     1      92.359  99.863 -47.046  1.00  0.00    -0.061 NA
HETATM   27  O2  UNL     1      92.179  98.096 -45.650  1.00  0.00    -0.275 OA
ENDBRANCH  24  25
ENDBRANCH   9  24
BRANCH   5  28
HETATM   28  C12 UNL     1      89.138 103.600 -43.929  1.00  0.00     0.117 C 
HETATM   29 BR3  UNL     1      90.214 104.489 -42.593  1.00  0.00    -0.094 Br
ENDBRANCH   5  28
TORSDOF 7
ENDMDL
MODEL 2
REMARK VINA RESULT: -5.865053013      3.672      5.866
REMARK  7 active torsions:
REMARK  status: ('A' for Active; 'I' for Inactive)
REMARK    1  A    between atoms: C2_2  and  C3_3 
REMARK    2  A    between atoms: C3_3  and  C4_11 
REMARK    3  A    between atoms: N1_4  and  N2_6 
REMARK    4  A    between atoms: N2_6  and  N3_8 
REMARK    5  A    between atoms: C11_19  and  C12_21 
REMARK    6  A    between atoms: N4_25  and  C14_26 
REMARK    7  A    between atoms: C14_26  and  C15_27 
ROOT
HETATM    1  C1  UNL     1      90.854 100.187 -43.467  1.00  0.00     0.047 C 
HETATM    2  C2  UNL     1      90.256  98.718 -43.562  1.00  0.00     0.092 C 
HETATM    3  C10 UNL     1      90.528  98.296 -44.953  1.00  0.00     0.121 C 
HETATM    4 BR1  UNL     1      91.874  99.422 -45.839  1.00  0.00    -0.086 Br
HETATM    5  C11 UNL     1      89.206  98.465 -45.669  1.00  0.00     0.123 C 
HETATM    6 BR2  UNL     1      89.317 100.121 -46.694  1.00  0.00    -0.073 Br
HETATM    7  C13 UNL     1      88.208  98.591 -44.584  1.00  0.00     0.242 C 
HETATM    8  O1  UNL     1      86.975  98.388 -44.755  1.00  0.00    -0.271 OA
HETATM    9  N4  UNL     1      88.876  98.967 -43.364  1.00  0.00    -0.326 N 
ENDROOT
BRANCH   2  10
HETATM   10  C3  UNL     1      91.022  97.945 -42.567  1.00  0.00     0.066 C 
HETATM   11  N1  UNL     1      91.595  98.651 -41.717  1.00  0.00    -0.288 N 
ATOM     12  H1  UNL     1      91.327  99.591 -42.007  1.00  0.00     0.188 HD
BRANCH  11  13
HETATM   13  N2  UNL     1      92.330  98.888 -40.680  1.00  0.00    -0.249 N 
ATOM     14  H2  UNL     1      92.799  98.123 -40.195  1.00  0.00     0.207 HD
BRANCH  13  15
HETATM   15  N3  UNL     1      92.467 100.119 -40.258  1.00  0.00    -0.331 N 
ATOM     16  H32 UNL     1      91.787 100.501 -39.600  1.00  0.00     0.178 HD
ATOM     17  H31 UNL     1      93.252 100.679 -40.592  1.00  0.00     0.178 HD
ENDBRANCH  13  15
ENDBRANCH  11  13
BRANCH  10  18
HETATM   18  C4  UNL     1      91.163  96.501 -42.491  1.00  0.00    -0.009 A 
HETATM   19  C5  UNL     1      91.369  95.896 -41.254  1.00  0.00     0.013 A 
HETATM   20  C6  UNL     1      91.527  94.515 -41.119  1.00  0.00     0.001 A 
HETATM   21  C7  UNL     1      91.486  93.689 -42.209  1.00  0.00     0.000 A 
HETATM   22  C8  UNL     1      91.286  94.260 -43.422  1.00  0.00     0.001 A 
HETATM   23  C9  UNL     1      91.128  95.630 -43.554  1.00  0.00     0.013 A 
ENDBRANCH  10  18
ENDBRANCH   2  10
BRANCH   9  24
HETATM   24  C14 UNL     1      88.222  99.575 -42.261  1.00  0.00     0.226 C 
BRANCH  24  25
HETATM   25  C15 UNL     1      87.525 100.839 -42.442  1.00  0.00     0.249 C 
HETATM   26  N5  UNL     1      86.182 101.020 -42.806  1.00  0.00    -0.061 NA
HETATM   27  O2  UNL     1      88.174 101.940 -42.264  1.00  0.00    -0.275 OA
ENDBRANCH  24  25
ENDBRANCH   9  24
BRANCH   5  28
HETATM   28  C12 UNL     1      88.866  97.316 -46.561  1.00  0.00     0.117 C 
HETATM   29 BR3  UNL     1      88.061  97.894 -48.219  1.00  0.00    -0.094 Br
ENDBRANCH   5  28
TORSDOF 7
ENDMDL
MODEL 3
REMARK VINA RESULT: -5.755011785      2.444      4.095
REMARK  7 active torsions:
REMARK  status: ('A' for Active; 'I' for Inactive)
REMARK    1  A    between atoms: C2_2  and  C3_3 
REMARK    2  A    between atoms: C3_3  and  C4_11 
REMARK    3  A    between atoms: N1_4  and  N2_6 
REMARK    4  A    between atoms: N2_6  and  N3_8 
REMARK    5  A    between atoms: C11_19  and  C12_21 
REMARK    6  A    between atoms: N4_25  and  C14_26 
REMARK    7  A    between atoms: C14_26  and  C15_27 
ROOT
HETATM    1  C1  UNL     1      89.480  98.335 -44.179  1.00  0.00     0.047 C 
HETATM    2  C2  UNL     1      90.368  99.358 -43.349  1.00  0.00     0.092 C 
HETATM    3  C10 UNL     1      89.390 100.257 -42.700  1.00  0.00     0.121 C 
HETATM    4 BR1  UNL     1      87.565  99.528 -42.708  1.00  0.00    -0.086 Br
HETATM    5  C11 UNL     1      89.414 101.517 -43.540  1.00  0.00     0.123 C 
HETATM    6 BR2  UNL     1      87.837 101.470 -44.687  1.00  0.00    -0.073 Br
HETATM    7  C13 UNL     1      90.649 101.402 -44.348  1.00  0.00     0.242 C 
HETATM    8  O1  UNL     1      91.207 102.390 -44.896  1.00  0.00    -0.271 OA
HETATM    9  N4  UNL     1      91.067 100.023 -44.385  1.00  0.00    -0.326 N 
ENDROOT
BRANCH   2  10
HETATM   10  C3  UNL     1      91.097  98.512 -42.385  1.00  0.00     0.066 C 
HETATM   11  N1  UNL     1      91.711  99.157 -41.517  1.00  0.00    -0.288 N 
ATOM     12  H1  UNL     1      91.493 100.120 -41.775  1.00  0.00     0.188 HD
BRANCH  11  13
HETATM   13  N2  UNL     1      92.465  99.321 -40.478  1.00  0.00    -0.249 N 
ATOM     14  H2  UNL     1      92.692  98.529 -39.878  1.00  0.00     0.207 HD
BRANCH  13  15
HETATM   15  N3  UNL     1      92.932 100.513 -40.205  1.00  0.00    -0.331 N 
ATOM     16  H32 UNL     1      93.401 101.046 -40.937  1.00  0.00     0.178 HD
ATOM     17  H31 UNL     1      92.818 100.891 -39.264  1.00  0.00     0.178 HD
ENDBRANCH  13  15
ENDBRANCH  11  13
BRANCH  10  18
HETATM   18  C4  UNL     1      91.159  97.060 -42.357  1.00  0.00    -0.009 A 
HETATM   19  C5  UNL     1      91.160  96.350 -43.554  1.00  0.00     0.013 A 
HETATM   20  C6  UNL     1      91.203  94.955 -43.590  1.00  0.00     0.001 A 
HETATM   21  C7  UNL     1      91.244  94.218 -42.437  1.00  0.00     0.000 A 
HETATM   22  C8  UNL     1      91.243  94.893 -41.262  1.00  0.00     0.001 A 
HETATM   23  C9  UNL     1      91.203  96.277 -41.227  1.00  0.00     0.013 A 
ENDBRANCH  10  18
ENDBRANCH   2  10
BRANCH   9  24
HETATM   24  C14 UNL     1      91.929  99.486 -45.377  1.00  0.00     0.226 C 
BRANCH  24  25
HETATM   25  C15 UNL     1      91.681  99.775 -46.781  1.00  0.00     0.249 C 
HETATM   26  N5  UNL     1      92.627 100.143 -47.749  1.00  0.00    -0.061 NA
HETATM   27  O2  UNL     1      90.473  99.700 -47.229  1.00  0.00    -0.275 OA
ENDBRANCH  24  25
ENDBRANCH   9  24
BRANCH   5  28
HETATM   28  C12 UNL     1      89.436 102.768 -42.726  1.00  0.00     0.117 C 
HETATM   29 BR3  UNL     1      89.856 102.425 -40.872  1.00  0.00    -0.094 Br
ENDBRANCH   5  28
TORSDOF 7
ENDMDL
MODEL 4
REMARK VINA RESULT: -5.639214824      1.895      2.587
REMARK  7 active torsions:
REMARK  status: ('A' for Active; 'I' for Inactive)
REMARK    1  A    between atoms: C2_2  and  C3_3 
REMARK    2  A    between atoms: C3_3  and  C4_11 
REMARK    3  A    between atoms: N1_4  and  N2_6 
REMARK    4  A    between atoms: N2_6  and  N3_8 
REMARK    5  A    between atoms: C11_19  and  C12_21 
REMARK    6  A    between atoms: N4_25  and  C14_26 
REMARK    7  A    between atoms: C14_26  and  C15_27 
ROOT
HETATM    1  C1  UNL     1      92.110  99.402 -43.890  1.00  0.00     0.047 C 
HETATM    2  C2  UNL     1      91.183 100.459 -43.150  1.00  0.00     0.092 C 
HETATM    3  C10 UNL     1      89.804 100.008 -43.433  1.00  0.00     0.121 C 
HETATM    4 BR1  UNL     1      89.731  98.155 -44.086  1.00  0.00    -0.086 Br
HETATM    5  C11 UNL     1      89.318 100.929 -44.531  1.00  0.00     0.123 C 
HETATM    6 BR2  UNL     1      89.439  99.937 -46.207  1.00  0.00    -0.073 Br
HETATM    7  C13 UNL     1      90.277 102.056 -44.523  1.00  0.00     0.242 C 
HETATM    8  O1  UNL     1      90.022 103.181 -45.030  1.00  0.00    -0.271 OA
HETATM    9  N4  UNL     1      91.490 101.644 -43.862  1.00  0.00    -0.326 N 
ENDROOT
BRANCH   2  10
HETATM   10  C3  UNL     1      91.547 100.333 -41.726  1.00  0.00     0.066 C 
HETATM   11  N1  UNL     1      91.882  99.181 -41.395  1.00  0.00    -0.288 N 
ATOM     12  H1  UNL     1      91.789  98.672 -42.275  1.00  0.00     0.188 HD
BRANCH  11  13
HETATM   13  N2  UNL     1      92.279  98.252 -40.588  1.00  0.00    -0.249 N 
ATOM     14  H2  UNL     1      93.084  98.407 -39.980  1.00  0.00     0.207 HD
BRANCH  13  15
HETATM   15  N3  UNL     1      91.640  97.110 -40.558  1.00  0.00    -0.331 N 
ATOM     16  H32 UNL     1      91.916  96.366 -41.199  1.00  0.00     0.178 HD
ATOM     17  H31 UNL     1      90.877  96.981 -39.894  1.00  0.00     0.178 HD
ENDBRANCH  13  15
ENDBRANCH  11  13
BRANCH  10  18
HETATM   18  C4  UNL     1      91.552 101.382 -40.720  1.00  0.00    -0.009 A 
HETATM   19  C5  UNL     1      92.736 101.690 -40.056  1.00  0.00     0.013 A 
HETATM   20  C6  UNL     1      92.800 102.675 -39.069  1.00  0.00     0.001 A 
HETATM   21  C7  UNL     1      91.689 103.389 -38.709  1.00  0.00     0.000 A 
HETATM   22  C8  UNL     1      90.527 103.103 -39.346  1.00  0.00     0.001 A 
HETATM   23  C9  UNL     1      90.465 102.125 -40.325  1.00  0.00     0.013 A 
ENDBRANCH  10  18
ENDBRANCH   2  10
BRANCH   9  24
HETATM   24  C14 UNL     1      92.742 102.290 -44.036  1.00  0.00     0.226 C 
BRANCH  24  25
HETATM   25  C15 UNL     1      93.124 103.374 -43.145  1.00  0.00     0.249 C 
HETATM   26  N5  UNL     1      92.297 104.394 -42.651  1.00  0.00    -0.061 NA
HETATM   27  O2  UNL     1      94.347 103.448 -42.741  1.00  0.00    -0.275 OA
ENDBRANCH  24  25
ENDBRANCH   9  24
BRANCH   5  28
HETATM   28  C12 UNL     1      87.927 101.425 -44.313  1.00  0.00     0.117 C 
HETATM   29 BR3  UNL     1      87.296 101.062 -42.523  1.00  0.00    -0.094 Br
ENDBRANCH   5  28
TORSDOF 7
ENDMDL
MODEL 5
REMARK VINA RESULT: -5.636215428      1.757      2.190
REMARK  7 active torsions:
REMARK  status: ('A' for Active; 'I' for Inactive)
REMARK    1  A    between atoms: C2_2  and  C3_3 
REMARK    2  A    between atoms: C3_3  and  C4_11 
REMARK    3  A    between atoms: N1_4  and  N2_6 
REMARK    4  A    between atoms: N2_6  and  N3_8 
REMARK    5  A    between atoms: C11_19  and  C12_21 
REMARK    6  A    between atoms: N4_25  and  C14_26 
REMARK    7  A    between atoms: C14_26  and  C15_27 
ROOT
HETATM    1  C1  UNL     1      89.234  99.743 -43.207  1.00  0.00     0.047 C 
HETATM    2  C2  UNL     1      90.766 100.126 -43.381  1.00  0.00     0.092 C 
HETATM    3  C10 UNL     1      90.745 101.452 -44.035  1.00  0.00     0.121 C 
HETATM    4 BR1  UNL     1      88.989 102.328 -43.920  1.00  0.00    -0.086 Br
HETATM    5  C11 UNL     1      91.051 101.166 -45.490  1.00  0.00     0.123 C 
HETATM    6 BR2  UNL     1      89.357 101.233 -46.455  1.00  0.00    -0.073 Br
HETATM    7  C13 UNL     1      91.596  99.790 -45.492  1.00  0.00     0.242 C 
HETATM    8  O1  UNL     1      92.291  99.326 -46.435  1.00  0.00    -0.271 OA
HETATM    9  N4  UNL     1      91.203  99.121 -44.277  1.00  0.00    -0.326 N 
ENDROOT
BRANCH   2  10
HETATM   10  C3  UNL     1      91.290 100.174 -42.004  1.00  0.00     0.066 C 
HETATM   11  N1  UNL     1      91.678  99.071 -41.577  1.00  0.00    -0.288 N 
ATOM     12  H1  UNL     1      91.493  98.459 -42.372  1.00  0.00     0.188 HD
BRANCH  11  13
HETATM   13  N2  UNL     1      92.178  98.248 -40.713  1.00  0.00    -0.249 N 
ATOM     14  H2  UNL     1      92.955  98.535 -40.118  1.00  0.00     0.207 HD
BRANCH  13  15
HETATM   15  N3  UNL     1      91.677  97.043 -40.611  1.00  0.00    -0.331 N 
ATOM     16  H32 UNL     1      92.286  96.270 -40.342  1.00  0.00     0.178 HD
ATOM     17  H31 UNL     1      90.686  96.894 -40.802  1.00  0.00     0.178 HD
ENDBRANCH  13  15
ENDBRANCH  11  13
BRANCH  10  18
HETATM   18  C4  UNL     1      91.394 101.338 -41.140  1.00  0.00    -0.009 A 
HETATM   19  C5  UNL     1      92.631 101.952 -40.962  1.00  0.00     0.013 A 
HETATM   20  C6  UNL     1      92.796 103.063 -40.132  1.00  0.00     0.001 A 
HETATM   21  C7  UNL     1      91.738 103.600 -39.450  1.00  0.00     0.000 A 
HETATM   22  C8  UNL     1      90.526 103.015 -39.611  1.00  0.00     0.001 A 
HETATM   23  C9  UNL     1      90.363 101.914 -40.436  1.00  0.00     0.013 A 
ENDBRANCH  10  18
ENDBRANCH   2  10
BRANCH   9  24
HETATM   24  C14 UNL     1      91.178  97.710 -44.126  1.00  0.00     0.226 C 
BRANCH  24  25
HETATM   25  C15 UNL     1      90.533  96.888 -45.138  1.00  0.00     0.249 C 
HETATM   26  N5  UNL     1      89.206  96.980 -45.584  1.00  0.00    -0.061 NA
HETATM   27  O2  UNL     1      91.217  95.957 -45.715  1.00  0.00    -0.275 OA
ENDBRANCH  24  25
ENDBRANCH   9  24
BRANCH   5  28
HETATM   28  C12 UNL     1      92.034 102.119 -46.085  1.00  0.00     0.117 C 
HETATM   29 BR3  UNL     1      92.682 103.399 -44.792  1.00  0.00    -0.094 Br
ENDBRANCH   5  28
TORSDOF 7
ENDMDL
