MODEL 1
REMARK VINA RESULT: -6.287777081      0.000      0.000
REMARK  6 active torsions:
REMARK  status: ('A' for Active; 'I' for Inactive)
REMARK    1  A    between atoms: C2_5  and  N2_6 
REMARK    2  A    between atoms: N2_6  and  S1_8 
REMARK    3  A    between atoms: S1_8  and  N3_10 
REMARK    4  A    between atoms: S1_8  and  C8_20 
REMARK    5  A    between atoms: N3_10  and  C3_12 
REMARK    6  A    between atoms: C13_25  and  C14_26 
ROOT
HETATM    1  S1  UNL     1      90.908  98.831 -42.744  1.00  0.00     0.154 S 
HETATM    2  O2  UNL     1      91.826  98.773 -44.159  1.00  0.00    -0.222 OA
ENDROOT
BRANCH   1   3
HETATM    3  N2  UNL     1      91.353 100.445 -42.554  1.00  0.00    -0.230 N 
HETATM    4 BR1  UNL     1      91.475 101.572 -44.037  1.00  0.00     0.061 Br
BRANCH   3   5
HETATM    5  C2  UNL     1      91.263 101.237 -41.342  1.00  0.00     0.208 C 
HETATM    6  N1  UNL     1      92.205 100.707 -40.403  1.00  0.00    -0.338 N 
HETATM    7  C1  UNL     1      93.220 101.663 -40.126  1.00  0.00     0.224 C 
ATOM      8  H1  UNL     1      92.156  99.774 -39.992  1.00  0.00     0.164 HD
HETATM    9  O1  UNL     1      94.096 101.551 -39.211  1.00  0.00    -0.273 OA
HETATM   10  C13 UNL     1      93.096 102.805 -41.066  1.00  0.00     0.091 C 
HETATM   11  C12 UNL     1      91.718 102.641 -41.620  1.00  0.00     0.063 C 
BRANCH  10  12
HETATM   12  C14 UNL     1      93.207 104.078 -40.256  1.00  0.00     0.099 C 
HETATM   13 BR3  UNL     1      91.716 104.277 -39.047  1.00  0.00    -0.096 Br
ENDBRANCH  10  12
ENDBRANCH   3   5
ENDBRANCH   1   3
BRANCH   1  14
HETATM   14  N3  UNL     1      90.895  97.073 -42.723  1.00  0.00    -0.281 N 
ATOM     15  H3  UNL     1      90.895  96.695 -41.775  1.00  0.00     0.179 HD
BRANCH  14  16
HETATM   16  C3  UNL     1      90.885  96.155 -43.613  1.00  0.00     0.131 A 
HETATM   17  N4  UNL     1      90.524  96.339 -44.888  1.00  0.00    -0.351 N 
HETATM   18  C4  UNL     1      90.544  95.302 -45.780  1.00  0.00     0.090 A 
ATOM     19  H4  UNL     1      90.230  97.265 -45.199  1.00  0.00     0.166 HD
HETATM   20  C5  UNL     1      90.937  94.036 -45.390  1.00  0.00     0.018 A 
HETATM   21  C6  UNL     1      91.310  93.832 -44.089  1.00  0.00     0.024 A 
HETATM   22  C7  UNL     1      91.274  94.908 -43.224  1.00  0.00     0.055 A 
HETATM   23 BR2  UNL     1      91.788  94.648 -41.408  1.00  0.00    -0.047 Br
ENDBRANCH  14  16
ENDBRANCH   1  14
BRANCH   1  24
HETATM   24  C8  UNL     1      88.908  99.054 -43.058  1.00  0.00     0.059 A 
HETATM   25  C9  UNL     1      87.916  99.509 -42.366  1.00  0.00     0.023 A 
HETATM   26  C10 UNL     1      86.974  99.225 -43.471  1.00  0.00     0.003 A 
HETATM   27  C11 UNL     1      88.019  98.770 -44.143  1.00  0.00     0.023 A 
ENDBRANCH   1  24
TORSDOF 6
ENDMDL
MODEL 2
REMARK VINA RESULT: -6.168979543      2.367      2.914
REMARK  6 active torsions:
REMARK  status: ('A' for Active; 'I' for Inactive)
REMARK    1  A    between atoms: C2_5  and  N2_6 
REMARK    2  A    between atoms: N2_6  and  S1_8 
REMARK    3  A    between atoms: S1_8  and  N3_10 
REMARK    4  A    between atoms: S1_8  and  C8_20 
REMARK    5  A    between atoms: N3_10  and  C3_12 
REMARK    6  A    between atoms: C13_25  and  C14_26 
ROOT
HETATM    1  S1  UNL     1      90.804  98.819 -42.795  1.00  0.00     0.154 S 
HETATM    2  O2  UNL     1      91.973  98.374 -41.661  1.00  0.00    -0.222 OA
ENDROOT
BRANCH   1   3
HETATM    3  N2  UNL     1      90.655 100.306 -42.017  1.00  0.00    -0.230 N 
HETATM    4 BR1  UNL     1      88.995 101.153 -41.908  1.00  0.00     0.061 Br
BRANCH   3   5
HETATM    5  C2  UNL     1      91.559 100.869 -41.032  1.00  0.00     0.208 C 
HETATM    6  N1  UNL     1      92.747 101.281 -41.715  1.00  0.00    -0.338 N 
HETATM    7  C1  UNL     1      92.897 102.694 -41.640  1.00  0.00     0.224 C 
ATOM      8  H1  UNL     1      93.395 100.652 -42.189  1.00  0.00     0.164 HD
HETATM    9  O1  UNL     1      93.933 103.337 -42.002  1.00  0.00    -0.273 OA
HETATM   10  C13 UNL     1      91.661 103.294 -41.077  1.00  0.00     0.091 C 
HETATM   11  C12 UNL     1      90.966 102.125 -40.460  1.00  0.00     0.063 C 
BRANCH  10  12
HETATM   12  C14 UNL     1      92.079 104.296 -40.023  1.00  0.00     0.099 C 
HETATM   13 BR3  UNL     1      92.920 103.426 -38.519  1.00  0.00    -0.096 Br
ENDBRANCH  10  12
ENDBRANCH   3   5
ENDBRANCH   1   3
BRANCH   1  14
HETATM   14  N3  UNL     1      90.641  97.126 -43.239  1.00  0.00    -0.281 N 
ATOM     15  H3  UNL     1      90.110  96.999 -44.101  1.00  0.00     0.179 HD
BRANCH  14  16
HETATM   16  C3  UNL     1      91.031  96.015 -42.738  1.00  0.00     0.131 A 
HETATM   17  N4  UNL     1      91.198  95.790 -41.431  1.00  0.00    -0.351 N 
HETATM   18  C4  UNL     1      91.616  94.569 -40.976  1.00  0.00     0.090 A 
ATOM     19  H4  UNL     1      91.013  96.539 -40.763  1.00  0.00     0.166 HD
HETATM   20  C5  UNL     1      91.876  93.535 -41.854  1.00  0.00     0.018 A 
HETATM   21  C6  UNL     1      91.709  93.749 -43.196  1.00  0.00     0.024 A 
HETATM   22  C7  UNL     1      91.286  94.998 -43.609  1.00  0.00     0.055 A 
HETATM   23 BR2  UNL     1      91.046  95.320 -45.471  1.00  0.00    -0.047 Br
ENDBRANCH  14  16
ENDBRANCH   1  14
BRANCH   1  24
HETATM   24  C8  UNL     1      91.568  99.433 -44.581  1.00  0.00     0.059 A 
HETATM   25  C9  UNL     1      92.753  99.672 -45.037  1.00  0.00     0.023 A 
HETATM   26  C10 UNL     1      92.204 100.034 -46.362  1.00  0.00     0.003 A 
HETATM   27  C11 UNL     1      91.011  99.777 -45.853  1.00  0.00     0.023 A 
ENDBRANCH   1  24
TORSDOF 6
ENDMDL
MODEL 3
REMARK VINA RESULT: -6.153734698      2.941      4.958
REMARK  6 active torsions:
REMARK  status: ('A' for Active; 'I' for Inactive)
REMARK    1  A    between atoms: C2_5  and  N2_6 
REMARK    2  A    between atoms: N2_6  and  S1_8 
REMARK    3  A    between atoms: S1_8  and  N3_10 
REMARK    4  A    between atoms: S1_8  and  C8_20 
REMARK    5  A    between atoms: N3_10  and  C3_12 
REMARK    6  A    between atoms: C13_25  and  C14_26 
ROOT
HETATM    1  S1  UNL     1      90.641  98.520 -42.946  1.00  0.00     0.154 S 
HETATM    2  O2  UNL     1      91.815  98.242 -41.765  1.00  0.00    -0.222 OA
ENDROOT
BRANCH   1   3
HETATM    3  N2  UNL     1      90.223  99.948 -42.156  1.00  0.00    -0.230 N 
HETATM    4 BR1  UNL     1      91.539 101.182 -41.677  1.00  0.00     0.061 Br
BRANCH   3   5
HETATM    5  C2  UNL     1      88.922 100.589 -42.143  1.00  0.00     0.208 C 
HETATM    6  N1  UNL     1      88.881 101.514 -43.235  1.00  0.00    -0.338 N 
HETATM    7  C1  UNL     1      87.903 101.113 -44.188  1.00  0.00     0.224 C 
ATOM      8  H1  UNL     1      89.469 102.343 -43.318  1.00  0.00     0.164 HD
HETATM    9  O1  UNL     1      87.516 101.816 -45.174  1.00  0.00    -0.273 OA
HETATM   10  C13 UNL     1      87.410  99.754 -43.850  1.00  0.00     0.091 C 
HETATM   11  C12 UNL     1      87.855  99.573 -42.435  1.00  0.00     0.063 C 
BRANCH  10  12
HETATM   12  C14 UNL     1      85.900  99.780 -43.945  1.00  0.00     0.099 C 
HETATM   13 BR3  UNL     1      85.154  98.007 -43.783  1.00  0.00    -0.096 Br
ENDBRANCH  10  12
ENDBRANCH   3   5
ENDBRANCH   1   3
BRANCH   1  14
HETATM   14  N3  UNL     1      90.771  96.831 -43.419  1.00  0.00    -0.281 N 
ATOM     15  H3  UNL     1      90.499  96.679 -44.391  1.00  0.00     0.179 HD
BRANCH  14  16
HETATM   16  C3  UNL     1      91.124  95.750 -42.836  1.00  0.00     0.131 A 
HETATM   17  N4  UNL     1      91.261  95.611 -41.513  1.00  0.00    -0.351 N 
HETATM   18  C4  UNL     1      91.641  94.416 -40.967  1.00  0.00     0.090 A 
ATOM     19  H4  UNL     1      91.079  96.408 -40.902  1.00  0.00     0.166 HD
HETATM   20  C5  UNL     1      91.894  93.318 -41.767  1.00  0.00     0.018 A 
HETATM   21  C6  UNL     1      91.758  93.443 -43.124  1.00  0.00     0.024 A 
HETATM   22  C7  UNL     1      91.372  94.670 -43.629  1.00  0.00     0.055 A 
HETATM   23 BR2  UNL     1      91.177  94.868 -45.514  1.00  0.00    -0.047 Br
ENDBRANCH  14  16
ENDBRANCH   1  14
BRANCH   1  24
HETATM   24  C8  UNL     1      91.376  99.284 -44.685  1.00  0.00     0.059 A 
HETATM   25  C9  UNL     1      90.867  99.635 -45.819  1.00  0.00     0.023 A 
HETATM   26  C10 UNL     1      92.199 100.027 -46.332  1.00  0.00     0.003 A 
HETATM   27  C11 UNL     1      92.675  99.656 -45.155  1.00  0.00     0.023 A 
ENDBRANCH   1  24
TORSDOF 6
ENDMDL
MODEL 4
REMARK VINA RESULT: -6.148133104      1.250      1.863
REMARK  6 active torsions:
REMARK  status: ('A' for Active; 'I' for Inactive)
REMARK    1  A    between atoms: C2_5  and  N2_6 
REMARK    2  A    between atoms: N2_6  and  S1_8 
REMARK    3  A    between atoms: S1_8  and  N3_10 
REMARK    4  A    between atoms: S1_8  and  C8_20 
REMARK    5  A    between atoms: N3_10  and  C3_12 
REMARK    6  A    between atoms: C13_25  and  C14_26 
ROOT
HETATM    1  S1  UNL     1      90.808  98.743 -43.121  1.00  0.00     0.154 S 
HETATM    2  O2  UNL     1      91.705  99.009 -44.526  1.00  0.00    -0.222 OA
ENDROOT
BRANCH   1   3
HETATM    3  N2  UNL     1      91.259 100.272 -42.576  1.00  0.00    -0.230 N 
HETATM    4 BR1  UNL     1      91.473 101.680 -43.783  1.00  0.00     0.061 Br
BRANCH   3   5
HETATM    5  C2  UNL     1      91.113 100.796 -41.231  1.00  0.00     0.208 C 
HETATM    6  N1  UNL     1      92.280 100.426 -40.489  1.00  0.00    -0.338 N 
HETATM    7  C1  UNL     1      93.017 101.583 -40.114  1.00  0.00     0.224 C 
ATOM      8  H1  UNL     1      92.546  99.468 -40.262  1.00  0.00     0.164 HD
HETATM    9  O1  UNL     1      94.002 101.591 -39.310  1.00  0.00    -0.273 OA
HETATM   10  C13 UNL     1      92.458 102.772 -40.805  1.00  0.00     0.091 C 
HETATM   11  C12 UNL     1      91.119 102.297 -41.270  1.00  0.00     0.063 C 
BRANCH  10  12
HETATM   12  C14 UNL     1      92.317 103.873 -39.777  1.00  0.00     0.099 C 
HETATM   13 BR3  UNL     1      90.844 103.532 -38.576  1.00  0.00    -0.096 Br
ENDBRANCH  10  12
ENDBRANCH   3   5
ENDBRANCH   1   3
BRANCH   1  14
HETATM   14  N3  UNL     1      90.791  97.026 -43.500  1.00  0.00    -0.281 N 
ATOM     15  H3  UNL     1      90.424  96.838 -44.433  1.00  0.00     0.179 HD
BRANCH  14  16
HETATM   16  C3  UNL     1      91.130  95.957 -42.886  1.00  0.00     0.131 A 
HETATM   17  N4  UNL     1      91.363  95.880 -41.571  1.00  0.00    -0.351 N 
HETATM   18  C4  UNL     1      91.720  94.694 -40.990  1.00  0.00     0.090 A 
ATOM     19  H4  UNL     1      91.274  96.717 -40.994  1.00  0.00     0.166 HD
HETATM   20  C5  UNL     1      91.850  93.544 -41.743  1.00  0.00     0.018 A 
HETATM   21  C6  UNL     1      91.615  93.606 -43.091  1.00  0.00     0.024 A 
HETATM   22  C7  UNL     1      91.257  94.825 -43.634  1.00  0.00     0.055 A 
HETATM   23 BR2  UNL     1      90.924  94.936 -45.506  1.00  0.00    -0.047 Br
ENDBRANCH  14  16
ENDBRANCH   1  14
BRANCH   1  24
HETATM   24  C8  UNL     1      88.804  99.029 -43.346  1.00  0.00     0.059 A 
HETATM   25  C9  UNL     1      87.945  98.798 -44.283  1.00  0.00     0.023 A 
HETATM   26  C10 UNL     1      86.849  99.353 -43.458  1.00  0.00     0.003 A 
HETATM   27  C11 UNL     1      87.762  99.569 -42.527  1.00  0.00     0.023 A 
ENDBRANCH   1  24
TORSDOF 6
ENDMDL
MODEL 5
REMARK VINA RESULT: -6.118260500      2.139      2.361
REMARK  6 active torsions:
REMARK  status: ('A' for Active; 'I' for Inactive)
REMARK    1  A    between atoms: C2_5  and  N2_6 
REMARK    2  A    between atoms: N2_6  and  S1_8 
REMARK    3  A    between atoms: S1_8  and  N3_10 
REMARK    4  A    between atoms: S1_8  and  C8_20 
REMARK    5  A    between atoms: N3_10  and  C3_12 
REMARK    6  A    between atoms: C13_25  and  C14_26 
ROOT
HETATM    1  S1  UNL     1      90.961  98.259 -44.032  1.00  0.00     0.154 S 
HETATM    2  O2  UNL     1      91.711  97.740 -45.453  1.00  0.00    -0.222 OA
ENDROOT
BRANCH   1   3
HETATM    3  N2  UNL     1      91.499  99.823 -44.352  1.00  0.00    -0.230 N 
HETATM    4 BR1  UNL     1      91.054 100.665 -45.957  1.00  0.00     0.061 Br
BRANCH   3   5
HETATM    5  C2  UNL     1      91.931 100.812 -43.382  1.00  0.00     0.208 C 
HETATM    6  N1  UNL     1      91.346 102.066 -43.749  1.00  0.00    -0.338 N 
HETATM    7  C1  UNL     1      90.433 102.499 -42.748  1.00  0.00     0.224 C 
ATOM      8  H1  UNL     1      91.556 102.577 -44.606  1.00  0.00     0.164 HD
HETATM    9  O1  UNL     1      89.888 103.647 -42.706  1.00  0.00    -0.273 OA
HETATM   10  C13 UNL     1      90.217 101.404 -41.768  1.00  0.00     0.091 C 
HETATM   11  C12 UNL     1      91.360 100.480 -42.033  1.00  0.00     0.063 C 
BRANCH  10  12
HETATM   12  C14 UNL     1      90.315 102.006 -40.383  1.00  0.00     0.099 C 
HETATM   13 BR3  UNL     1      92.148 102.376 -39.904  1.00  0.00    -0.096 Br
ENDBRANCH  10  12
ENDBRANCH   3   5
ENDBRANCH   1   3
BRANCH   1  14
HETATM   14  N3  UNL     1      90.868  96.582 -43.512  1.00  0.00    -0.281 N 
ATOM     15  H3  UNL     1      90.683  96.495 -42.512  1.00  0.00     0.179 HD
BRANCH  14  16
HETATM   16  C3  UNL     1      90.978  95.445 -44.088  1.00  0.00     0.131 A 
HETATM   17  N4  UNL     1      90.638  95.203 -45.358  1.00  0.00    -0.351 N 
HETATM   18  C4  UNL     1      90.789  93.957 -45.901  1.00  0.00     0.090 A 
ATOM     19  H4  UNL     1      90.261  95.959 -45.931  1.00  0.00     0.166 HD
HETATM   20  C5  UNL     1      91.297  92.913 -45.152  1.00  0.00     0.018 A 
HETATM   21  C6  UNL     1      91.649  93.144 -43.849  1.00  0.00     0.024 A 
HETATM   22  C7  UNL     1      91.479  94.419 -43.345  1.00  0.00     0.055 A 
HETATM   23 BR2  UNL     1      91.962  94.765 -41.535  1.00  0.00    -0.047 Br
ENDBRANCH  14  16
ENDBRANCH   1  14
BRANCH   1  24
HETATM   24  C8  UNL     1      88.951  98.538 -44.206  1.00  0.00     0.059 A 
HETATM   25  C9  UNL     1      88.041  98.153 -45.039  1.00  0.00     0.023 A 
HETATM   26  C10 UNL     1      86.996  98.874 -44.278  1.00  0.00     0.003 A 
HETATM   27  C11 UNL     1      87.960  99.243 -43.451  1.00  0.00     0.023 A 
ENDBRANCH   1  24
TORSDOF 6
ENDMDL
