MODEL 1
REMARK VINA RESULT: -6.297278776      0.000      0.000
REMARK  10 active torsions:
REMARK  status: ('A' for Active; 'I' for Inactive)
REMARK    1  A    between atoms: C5_8  and  C6_9 
REMARK    2  A    between atoms: C6_9  and  N2_10 
REMARK    3  A    between atoms: N2_10  and  C7_11 
REMARK    4  A    between atoms: C7_11  and  C8_12 
REMARK    5  A    between atoms: C16_21  and  C17_22 
REMARK    6  A    between atoms: C17_22  and  C18_23 
REMARK    7  A    between atoms: C18_23  and  C19_24 
REMARK       I    between atoms: C19_24  and  N3_26 
REMARK    8  A    between atoms: N3_26  and  C20_28 
REMARK    9  A    between atoms: C20_28  and  C21_29 
REMARK   10  A    between atoms: C22_30  and  C23_31 
ROOT
HETATM    1  C1  UNL     1      89.917  96.183 -45.367  1.00  0.00     0.049 C 
HETATM    2  C2  UNL     1      89.445  97.471 -44.846  1.00  0.00    -0.044 A 
HETATM    3  C3  UNL     1      88.404  98.061 -45.587  1.00  0.00     0.082 A 
HETATM    4  C4  UNL     1      87.872  99.263 -45.224  1.00  0.00     0.246 A 
HETATM    5  O1  UNL     1      86.925  99.812 -45.889  1.00  0.00    -0.268 OA
HETATM    6  N1  UNL     1      88.376  99.863 -44.133  1.00  0.00    -0.322 N 
ATOM      7  H1  UNL     1      87.986 100.762 -43.851  1.00  0.00     0.169 HD
HETATM    8  C5  UNL     1      89.365  99.338 -43.399  1.00  0.00     0.069 A 
HETATM    9  C16 UNL     1      89.947  98.094 -43.739  1.00  0.00    -0.005 A 
ENDROOT
BRANCH   8  10
HETATM   10  C6  UNL     1      89.776 100.018 -42.351  1.00  0.00     0.239 C 
BRANCH  10  11
HETATM   11  N2  UNL     1      90.800 101.044 -42.349  1.00  0.00    -0.010 N 
HETATM   12  C9  UNL     1      91.842 100.753 -41.432  1.00  0.00     0.290 A 
HETATM   13  C10 UNL     1      91.371 101.799 -40.495  1.00  0.00     0.004 A 
HETATM   14  C11 UNL     1      91.485 102.486 -39.305  1.00  0.00     0.011 A 
HETATM   15  C15 UNL     1      90.418 102.110 -41.440  1.00  0.00     0.150 A 
HETATM   16  C12 UNL     1      90.590 103.535 -39.070  1.00  0.00     0.001 A 
HETATM   17  C13 UNL     1      89.648 103.832 -40.025  1.00  0.00     0.002 A 
HETATM   18  C14 UNL     1      89.554 103.133 -41.201  1.00  0.00     0.038 A 
BRANCH  11  19
HETATM   19  C7  UNL     1      91.178 101.511 -43.621  1.00  0.00     0.261 C 
BRANCH  19  20
HETATM   20  C8  UNL     1      92.481 101.103 -44.200  1.00  0.00     0.114 C 
HETATM   21 BR1  UNL     1      92.394  99.969 -45.737  1.00  0.00    -0.095 Br
ENDBRANCH  19  20
ENDBRANCH  11  19
ENDBRANCH  10  11
ENDBRANCH   8  10
BRANCH   9  22
HETATM   22  C17 UNL     1      90.890  97.578 -43.025  1.00  0.00    -0.003 C 
BRANCH  22  23
HETATM   23  C18 UNL     1      91.020  96.922 -41.740  1.00  0.00     0.131 C 
BRANCH  23  24
HETATM   24  C19 UNL     1      91.194  95.442 -41.847  1.00  0.00     0.221 C 
HETATM   25  O2  UNL     1      90.805  94.738 -40.910  1.00  0.00    -0.273 OA
HETATM   26  N3  UNL     1      91.784  94.885 -42.983  1.00  0.00    -0.350 N 
ATOM     27  H3  UNL     1      92.097  95.487 -43.744  1.00  0.00     0.163 HD
BRANCH  26  28
HETATM   28  C20 UNL     1      91.947  93.450 -43.078  1.00  0.00     0.217 C 
BRANCH  28  29
HETATM   29  C21 UNL     1      91.582  92.952 -44.402  1.00  0.00    -0.086 C 
HETATM   30  C22 UNL     1      91.289  92.522 -45.489  1.00  0.00    -0.094 C 
BRANCH  30  31
HETATM   31  C23 UNL     1      90.934  91.972 -46.816  1.00  0.00     0.178 C 
HETATM   32 BR2  UNL     1      92.319  90.733 -47.410  1.00  0.00    -0.083 Br
ENDBRANCH  30  31
ENDBRANCH  28  29
ENDBRANCH  26  28
ENDBRANCH  23  24
ENDBRANCH  22  23
ENDBRANCH   9  22
TORSDOF 10
ENDMDL
MODEL 2
REMARK VINA RESULT: -6.123804521      2.972      5.237
REMARK  10 active torsions:
REMARK  status: ('A' for Active; 'I' for Inactive)
REMARK    1  A    between atoms: C5_8  and  C6_9 
REMARK    2  A    between atoms: C6_9  and  N2_10 
REMARK    3  A    between atoms: N2_10  and  C7_11 
REMARK    4  A    between atoms: C7_11  and  C8_12 
REMARK    5  A    between atoms: C16_21  and  C17_22 
REMARK    6  A    between atoms: C17_22  and  C18_23 
REMARK    7  A    between atoms: C18_23  and  C19_24 
REMARK       I    between atoms: C19_24  and  N3_26 
REMARK    8  A    between atoms: N3_26  and  C20_28 
REMARK    9  A    between atoms: C20_28  and  C21_29 
REMARK   10  A    between atoms: C22_30  and  C23_31 
ROOT
HETATM    1  C1  UNL     1      91.176  94.380 -41.541  1.00  0.00     0.049 C 
HETATM    2  C2  UNL     1      91.339  95.800 -41.874  1.00  0.00    -0.044 A 
HETATM    3  C3  UNL     1      91.858  96.594 -40.836  1.00  0.00     0.082 A 
HETATM    4  C4  UNL     1      92.055  97.933 -41.002  1.00  0.00     0.246 A 
HETATM    5  O1  UNL     1      92.526  98.668 -40.065  1.00  0.00    -0.268 OA
HETATM    6  N1  UNL     1      91.736  98.467 -42.192  1.00  0.00    -0.322 N 
ATOM      7  H1  UNL     1      91.879  99.467 -42.329  1.00  0.00     0.169 HD
HETATM    8  C5  UNL     1      91.239  97.749 -43.208  1.00  0.00     0.069 A 
HETATM    9  C16 UNL     1      91.019  96.357 -43.080  1.00  0.00    -0.005 A 
ENDROOT
BRANCH   8  10
HETATM   10  C6  UNL     1      90.965  98.382 -44.327  1.00  0.00     0.239 C 
BRANCH  10  11
HETATM   11  N2  UNL     1      89.822  99.242 -44.562  1.00  0.00    -0.010 N 
HETATM   12  C9  UNL     1      88.772  98.992 -43.643  1.00  0.00     0.290 A 
HETATM   13  C10 UNL     1      87.960  98.321 -44.685  1.00  0.00     0.004 A 
HETATM   14  C11 UNL     1      86.817  97.655 -45.074  1.00  0.00     0.011 A 
HETATM   15  C15 UNL     1      88.964  98.647 -45.570  1.00  0.00     0.150 A 
HETATM   16  C12 UNL     1      86.693  97.309 -46.423  1.00  0.00     0.001 A 
HETATM   17  C13 UNL     1      87.703  97.644 -47.292  1.00  0.00     0.002 A 
HETATM   18  C14 UNL     1      88.832  98.306 -46.880  1.00  0.00     0.038 A 
BRANCH  11  19
HETATM   19  C7  UNL     1      90.135 100.588 -44.826  1.00  0.00     0.261 C 
BRANCH  19  20
HETATM   20  C8  UNL     1      90.545 101.483 -43.716  1.00  0.00     0.114 C 
HETATM   21 BR1  UNL     1      92.415 101.866 -43.600  1.00  0.00    -0.095 Br
ENDBRANCH  19  20
ENDBRANCH  11  19
ENDBRANCH  10  11
ENDBRANCH   8  10
BRANCH   9  22
HETATM   22  C17 UNL     1      90.555  95.659 -44.062  1.00  0.00    -0.003 C 
BRANCH  22  23
HETATM   23  C18 UNL     1      91.008  95.212 -45.362  1.00  0.00     0.131 C 
BRANCH  23  24
HETATM   24  C19 UNL     1      91.235  93.736 -45.433  1.00  0.00     0.221 C 
HETATM   25  O2  UNL     1      91.925  93.208 -44.555  1.00  0.00    -0.273 OA
HETATM   26  N3  UNL     1      90.674  92.989 -46.470  1.00  0.00    -0.350 N 
ATOM     27  H3  UNL     1      90.108  93.448 -47.183  1.00  0.00     0.163 HD
BRANCH  26  28
HETATM   28  C20 UNL     1      90.899  91.561 -46.529  1.00  0.00     0.217 C 
BRANCH  28  29
HETATM   29  C21 UNL     1      90.531  91.011 -47.832  1.00  0.00    -0.086 C 
HETATM   30  C22 UNL     1      90.210  90.568 -48.906  1.00  0.00    -0.094 C 
BRANCH  30  31
HETATM   31  C23 UNL     1      89.799  90.040 -50.226  1.00  0.00     0.178 C 
HETATM   32 BR2  UNL     1      89.260  88.173 -50.052  1.00  0.00    -0.083 Br
ENDBRANCH  30  31
ENDBRANCH  28  29
ENDBRANCH  26  28
ENDBRANCH  23  24
ENDBRANCH  22  23
ENDBRANCH   9  22
TORSDOF 10
ENDMDL
MODEL 3
REMARK VINA RESULT: -5.977871550      3.285      6.070
REMARK  10 active torsions:
REMARK  status: ('A' for Active; 'I' for Inactive)
REMARK    1  A    between atoms: C5_8  and  C6_9 
REMARK    2  A    between atoms: C6_9  and  N2_10 
REMARK    3  A    between atoms: N2_10  and  C7_11 
REMARK    4  A    between atoms: C7_11  and  C8_12 
REMARK    5  A    between atoms: C16_21  and  C17_22 
REMARK    6  A    between atoms: C17_22  and  C18_23 
REMARK    7  A    between atoms: C18_23  and  C19_24 
REMARK       I    between atoms: C19_24  and  N3_26 
REMARK    8  A    between atoms: N3_26  and  C20_28 
REMARK    9  A    between atoms: C20_28  and  C21_29 
REMARK   10  A    between atoms: C22_30  and  C23_31 
ROOT
HETATM    1  C1  UNL     1      91.494  94.561 -41.262  1.00  0.00     0.049 C 
HETATM    2  C2  UNL     1      91.268  94.854 -42.682  1.00  0.00    -0.044 A 
HETATM    3  C3  UNL     1      91.372  93.743 -43.537  1.00  0.00     0.082 A 
HETATM    4  C4  UNL     1      91.194  93.870 -44.884  1.00  0.00     0.246 A 
HETATM    5  O1  UNL     1      91.288  92.867 -45.675  1.00  0.00    -0.268 OA
HETATM    6  N1  UNL     1      90.914  95.092 -45.363  1.00  0.00    -0.322 N 
ATOM      7  H1  UNL     1      90.779  95.200 -46.368  1.00  0.00     0.169 HD
HETATM    8  C5  UNL     1      90.805  96.177 -44.585  1.00  0.00     0.069 A 
HETATM    9  C16 UNL     1      90.982  96.092 -43.184  1.00  0.00    -0.005 A 
ENDROOT
BRANCH   8  10
HETATM   10  C6  UNL     1      90.527  97.322 -45.168  1.00  0.00     0.239 C 
BRANCH  10  11
HETATM   11  N2  UNL     1      89.222  97.746 -45.637  1.00  0.00    -0.010 N 
HETATM   12  C9  UNL     1      89.315  98.791 -46.590  1.00  0.00     0.290 A 
HETATM   13  C10 UNL     1      88.831  99.790 -45.609  1.00  0.00     0.004 A 
HETATM   14  C11 UNL     1      88.501 101.087 -45.277  1.00  0.00     0.011 A 
HETATM   15  C15 UNL     1      88.680  98.740 -44.729  1.00  0.00     0.150 A 
HETATM   16  C12 UNL     1      87.994 101.323 -43.995  1.00  0.00     0.001 A 
HETATM   17  C13 UNL     1      87.848 100.263 -43.132  1.00  0.00     0.002 A 
HETATM   18  C14 UNL     1      88.184  98.981 -43.485  1.00  0.00     0.038 A 
BRANCH  11  19
HETATM   19  C7  UNL     1      88.322  96.702 -45.916  1.00  0.00     0.261 C 
BRANCH  19  20
HETATM   20  C8  UNL     1      87.007  97.006 -46.531  1.00  0.00     0.114 C 
HETATM   21 BR1  UNL     1      85.499  96.933 -45.358  1.00  0.00    -0.095 Br
ENDBRANCH  19  20
ENDBRANCH  11  19
ENDBRANCH  10  11
ENDBRANCH   8  10
BRANCH   9  22
HETATM   22  C17 UNL     1      90.862  97.133 -42.429  1.00  0.00    -0.003 C 
BRANCH  22  23
HETATM   23  C18 UNL     1      91.735  98.097 -41.794  1.00  0.00     0.131 C 
BRANCH  23  24
HETATM   24  C19 UNL     1      91.707  99.441 -42.448  1.00  0.00     0.221 C 
HETATM   25  O2  UNL     1      91.089 100.351 -41.887  1.00  0.00    -0.273 OA
HETATM   26  N3  UNL     1      92.367  99.645 -43.661  1.00  0.00    -0.350 N 
ATOM     27  H3  UNL     1      92.871  98.877 -44.105  1.00  0.00     0.163 HD
BRANCH  26  28
HETATM   28  C20 UNL     1      92.334 100.949 -44.286  1.00  0.00     0.217 C 
BRANCH  28  29
HETATM   29  C21 UNL     1      92.395 100.851 -45.743  1.00  0.00    -0.086 C 
HETATM   30  C22 UNL     1      92.464 100.763 -46.943  1.00  0.00    -0.094 C 
BRANCH  30  31
HETATM   31  C23 UNL     1      92.570 100.642 -48.414  1.00  0.00     0.178 C 
HETATM   32 BR2  UNL     1      90.874 101.137 -49.240  1.00  0.00    -0.083 Br
ENDBRANCH  30  31
ENDBRANCH  28  29
ENDBRANCH  26  28
ENDBRANCH  23  24
ENDBRANCH  22  23
ENDBRANCH   9  22
TORSDOF 10
ENDMDL
MODEL 4
REMARK VINA RESULT: -5.859579420      3.346      5.438
REMARK  10 active torsions:
REMARK  status: ('A' for Active; 'I' for Inactive)
REMARK    1  A    between atoms: C5_8  and  C6_9 
REMARK    2  A    between atoms: C6_9  and  N2_10 
REMARK    3  A    between atoms: N2_10  and  C7_11 
REMARK    4  A    between atoms: C7_11  and  C8_12 
REMARK    5  A    between atoms: C16_21  and  C17_22 
REMARK    6  A    between atoms: C17_22  and  C18_23 
REMARK    7  A    between atoms: C18_23  and  C19_24 
REMARK       I    between atoms: C19_24  and  N3_26 
REMARK    8  A    between atoms: N3_26  and  C20_28 
REMARK    9  A    between atoms: C20_28  and  C21_29 
REMARK   10  A    between atoms: C22_30  and  C23_31 
ROOT
HETATM    1  C1  UNL     1      91.975  93.135 -41.363  1.00  0.00     0.049 C 
HETATM    2  C2  UNL     1      91.728  94.521 -41.776  1.00  0.00    -0.044 A 
HETATM    3  C3  UNL     1      92.083  95.493 -40.822  1.00  0.00     0.082 A 
HETATM    4  C4  UNL     1      91.902  96.822 -41.068  1.00  0.00     0.246 A 
HETATM    5  O1  UNL     1      92.219  97.717 -40.209  1.00  0.00    -0.268 OA
HETATM    6  N1  UNL     1      91.374  97.171 -42.252  1.00  0.00    -0.322 N 
ATOM      7  H1  UNL     1      91.234  98.162 -42.448  1.00  0.00     0.169 HD
HETATM    8  C5  UNL     1      91.022  96.280 -43.188  1.00  0.00     0.069 A 
HETATM    9  C16 UNL     1      91.192  94.891 -42.977  1.00  0.00    -0.005 A 
ENDROOT
BRANCH   8  10
HETATM   10  C6  UNL     1      90.515  96.741 -44.311  1.00  0.00     0.239 C 
BRANCH  10  11
HETATM   11  N2  UNL     1      90.100  98.106 -44.562  1.00  0.00    -0.010 N 
HETATM   12  C9  UNL     1      89.618  98.739 -43.387  1.00  0.00     0.290 A 
HETATM   13  C10 UNL     1      88.218  98.661 -43.866  1.00  0.00     0.004 A 
HETATM   14  C11 UNL     1      86.870  98.888 -43.681  1.00  0.00     0.011 A 
HETATM   15  C15 UNL     1      88.725  98.119 -45.026  1.00  0.00     0.150 A 
HETATM   16  C12 UNL     1      86.004  98.551 -44.726  1.00  0.00     0.001 A 
HETATM   17  C13 UNL     1      86.528  98.014 -45.877  1.00  0.00     0.002 A 
HETATM   18  C14 UNL     1      87.872  97.796 -46.036  1.00  0.00     0.038 A 
BRANCH  11  19
HETATM   19  C7  UNL     1      90.967  98.852 -45.381  1.00  0.00     0.261 C 
BRANCH  19  20
HETATM   20  C8  UNL     1      92.287  99.283 -44.859  1.00  0.00     0.114 C 
HETATM   21 BR1  UNL     1      92.386 101.081 -44.218  1.00  0.00    -0.095 Br
ENDBRANCH  19  20
ENDBRANCH  11  19
ENDBRANCH  10  11
ENDBRANCH   8  10
BRANCH   9  22
HETATM   22  C17 UNL     1      90.869  94.031 -43.883  1.00  0.00    -0.003 C 
BRANCH  22  23
HETATM   23  C18 UNL     1      91.546  93.118 -44.779  1.00  0.00     0.131 C 
BRANCH  23  24
HETATM   24  C19 UNL     1      90.890  93.008 -46.118  1.00  0.00     0.221 C 
HETATM   25  O2  UNL     1      90.214  93.962 -46.517  1.00  0.00    -0.273 OA
HETATM   26  N3  UNL     1      91.046  91.852 -46.883  1.00  0.00    -0.350 N 
ATOM     27  H3  UNL     1      91.609  91.077 -46.532  1.00  0.00     0.163 HD
BRANCH  26  28
HETATM   28  C20 UNL     1      90.406  91.755 -48.178  1.00  0.00     0.217 C 
BRANCH  28  29
HETATM   29  C21 UNL     1      89.969  90.390 -48.463  1.00  0.00    -0.086 C 
HETATM   30  C22 UNL     1      89.594  89.272 -48.710  1.00  0.00    -0.094 C 
BRANCH  30  31
HETATM   31  C23 UNL     1      89.118  87.908 -49.031  1.00  0.00     0.178 C 
HETATM   32 BR2  UNL     1      87.715  87.387 -47.780  1.00  0.00    -0.083 Br
ENDBRANCH  30  31
ENDBRANCH  28  29
ENDBRANCH  26  28
ENDBRANCH  23  24
ENDBRANCH  22  23
ENDBRANCH   9  22
TORSDOF 10
ENDMDL
MODEL 5
REMARK VINA RESULT: -5.812537096      3.095      7.120
REMARK  10 active torsions:
REMARK  status: ('A' for Active; 'I' for Inactive)
REMARK    1  A    between atoms: C5_8  and  C6_9 
REMARK    2  A    between atoms: C6_9  and  N2_10 
REMARK    3  A    between atoms: N2_10  and  C7_11 
REMARK    4  A    between atoms: C7_11  and  C8_12 
REMARK    5  A    between atoms: C16_21  and  C17_22 
REMARK    6  A    between atoms: C17_22  and  C18_23 
REMARK    7  A    between atoms: C18_23  and  C19_24 
REMARK       I    between atoms: C19_24  and  N3_26 
REMARK    8  A    between atoms: N3_26  and  C20_28 
REMARK    9  A    between atoms: C20_28  and  C21_29 
REMARK   10  A    between atoms: C22_30  and  C23_31 
ROOT
HETATM    1  C1  UNL     1      91.629  94.736 -41.606  1.00  0.00     0.049 C 
HETATM    2  C2  UNL     1      91.234  95.155 -42.956  1.00  0.00    -0.044 A 
HETATM    3  C3  UNL     1      91.224  94.125 -43.914  1.00  0.00     0.082 A 
HETATM    4  C4  UNL     1      90.884  94.371 -45.211  1.00  0.00     0.246 A 
HETATM    5  O1  UNL     1      90.872  93.443 -46.094  1.00  0.00    -0.268 OA
HETATM    6  N1  UNL     1      90.558  95.631 -45.542  1.00  0.00    -0.322 N 
ATOM      7  H1  UNL     1      90.302  95.828 -46.509  1.00  0.00     0.169 HD
HETATM    8  C5  UNL     1      90.554  96.641 -44.663  1.00  0.00     0.069 A 
HETATM    9  C16 UNL     1      90.899  96.432 -43.307  1.00  0.00    -0.005 A 
ENDROOT
BRANCH   8  10
HETATM   10  C6  UNL     1      90.217  97.833 -45.104  1.00  0.00     0.239 C 
BRANCH  10  11
HETATM   11  N2  UNL     1      88.866  98.304 -45.340  1.00  0.00    -0.010 N 
HETATM   12  C9  UNL     1      88.846  99.476 -46.139  1.00  0.00     0.290 A 
HETATM   13  C10 UNL     1      88.495 100.319 -44.972  1.00  0.00     0.004 A 
HETATM   14  C11 UNL     1      88.217 101.552 -44.420  1.00  0.00     0.011 A 
HETATM   15  C15 UNL     1      88.448  99.153 -44.240  1.00  0.00     0.150 A 
HETATM   16  C12 UNL     1      87.876 101.597 -43.065  1.00  0.00     0.001 A 
HETATM   17  C13 UNL     1      87.832 100.423 -42.351  1.00  0.00     0.002 A 
HETATM   18  C14 UNL     1      88.113  99.209 -42.922  1.00  0.00     0.038 A 
BRANCH  11  19
HETATM   19  C7  UNL     1      87.932  97.300 -45.651  1.00  0.00     0.261 C 
BRANCH  19  20
HETATM   20  C8  UNL     1      86.543  97.672 -46.016  1.00  0.00     0.114 C 
HETATM   21 BR1  UNL     1      85.219  97.383 -44.667  1.00  0.00    -0.095 Br
ENDBRANCH  19  20
ENDBRANCH  11  19
ENDBRANCH  10  11
ENDBRANCH   8  10
BRANCH   9  22
HETATM   22  C17 UNL     1      90.881  97.401 -42.454  1.00  0.00    -0.003 C 
BRANCH  22  23
HETATM   23  C18 UNL     1      91.842  98.250 -41.782  1.00  0.00     0.131 C 
BRANCH  23  24
HETATM   24  C19 UNL     1      91.576  99.709 -41.973  1.00  0.00     0.221 C 
HETATM   25  O2  UNL     1      91.599 100.162 -43.122  1.00  0.00    -0.273 OA
HETATM   26  N3  UNL     1      91.309 100.523 -40.871  1.00  0.00    -0.350 N 
ATOM     27  H3  UNL     1      91.296 100.126 -39.932  1.00  0.00     0.163 HD
BRANCH  26  28
HETATM   28  C20 UNL     1      91.052 101.934 -41.066  1.00  0.00     0.217 C 
BRANCH  28  29
HETATM   29  C21 UNL     1      90.816 102.619 -39.797  1.00  0.00    -0.086 C 
HETATM   30  C22 UNL     1      90.640 103.192 -38.752  1.00  0.00    -0.094 C 
BRANCH  30  31
HETATM   31  C23 UNL     1      90.445 103.908 -37.471  1.00  0.00     0.178 C 
HETATM   32 BR2  UNL     1      92.161 104.130 -36.571  1.00  0.00    -0.083 Br
ENDBRANCH  30  31
ENDBRANCH  28  29
ENDBRANCH  26  28
ENDBRANCH  23  24
ENDBRANCH  22  23
ENDBRANCH   9  22
TORSDOF 10
ENDMDL
