MODEL 1
REMARK VINA RESULT: -7.045577892      0.000      0.000
REMARK  8 active torsions:
REMARK  status: ('A' for Active; 'I' for Inactive)
REMARK    1  A    between atoms: N1_4  and  C4_5 
REMARK    2  A    between atoms: C4_5  and  N2_6 
REMARK    3  A    between atoms: C7_10  and  C8_11 
REMARK    4  A    between atoms: C12_20  and  N5_21 
REMARK    5  A    between atoms: N5_21  and  C13_23 
REMARK    6  A    between atoms: C13_23  and  C14_24 
REMARK    7  A    between atoms: C14_24  and  C15_25 
REMARK    8  A    between atoms: C21_33  and  O1_34 
ROOT
HETATM    1  N2  UNL     1      89.822  98.887 -43.239  1.00  0.00    -0.175 N 
HETATM    2  C5  UNL     1      88.993  98.323 -44.133  1.00  0.00     0.132 A 
HETATM    3  C6  UNL     1      87.681  98.763 -44.240  1.00  0.00     0.056 A 
HETATM    4 BR1  UNL     1      86.589  97.850 -45.514  1.00  0.00    -0.047 Br
HETATM    5  C7  UNL     1      87.231  99.769 -43.438  1.00  0.00     0.094 A 
HETATM    6  N4  UNL     1      88.132 100.290 -42.557  1.00  0.00    -0.188 N 
ATOM      7  H4  UNL     1      87.818 101.044 -41.946  1.00  0.00     0.184 HD
HETATM    8  C12 UNL     1      89.402  99.878 -42.439  1.00  0.00     0.685 A 
ENDROOT
BRANCH   1   9
HETATM    9  C4  UNL     1      91.197  98.372 -43.162  1.00  0.00     0.277 C 
BRANCH   9  10
HETATM   10  N1  UNL     1      91.201  96.973 -42.799  1.00  0.00    -0.348 N 
HETATM   11  C3  UNL     1      91.209  96.021 -43.760  1.00  0.00     0.101 A 
HETATM   12  C2  UNL     1      91.241  94.683 -43.502  1.00  0.00    -0.013 A 
HETATM   13  C1  UNL     1      91.244  93.640 -44.570  1.00  0.00     0.052 C 
HETATM   14  C21 UNL     1      91.269  94.266 -42.198  1.00  0.00     0.074 A 
HETATM   15  C20 UNL     1      91.263  95.230 -41.230  1.00  0.00     0.054 A 
HETATM   16  C19 UNL     1      91.230  96.575 -41.531  1.00  0.00     0.095 A 
BRANCH  14  17
HETATM   17  O1  UNL     1      91.303  92.907 -41.913  1.00  0.00    -0.360 OA
ATOM     18  H1  UNL     1      91.855  92.332 -42.429  1.00  0.00     0.217 HD
ENDBRANCH  14  17
ENDBRANCH   9  10
ENDBRANCH   1   9
BRANCH   8  19
HETATM   19  N5  UNL     1      90.158 100.435 -41.594  1.00  0.00    -0.205 N 
ATOM     20  H5  UNL     1      90.912  99.829 -41.271  1.00  0.00     0.183 HD
BRANCH  19  21
HETATM   21  C13 UNL     1      90.186 101.705 -41.005  1.00  0.00     0.083 C 
BRANCH  21  22
HETATM   22  C14 UNL     1      91.265 101.935 -39.971  1.00  0.00     0.085 C 
BRANCH  22  23
HETATM   23  C15 UNL     1      92.592 102.216 -40.556  1.00  0.00    -0.037 A 
HETATM   24  C16 UNL     1      92.893 102.809 -41.767  1.00  0.00     0.025 A 
HETATM   25  C17 UNL     1      94.264 102.872 -41.892  1.00  0.00     0.088 A 
HETATM   26  N6  UNL     1      94.804 102.333 -40.787  1.00  0.00    -0.375 N 
HETATM   27  C18 UNL     1      93.793 101.927 -39.962  1.00  0.00     0.095 A 
ATOM     28  H6  UNL     1      95.802 102.243 -40.595  1.00  0.00     0.164 HD
ENDBRANCH  22  23
ENDBRANCH  21  22
ENDBRANCH  19  21
ENDBRANCH   8  19
BRANCH   5  29
HETATM   29  C8  UNL     1      85.887 100.321 -43.513  1.00  0.00     0.062 A 
HETATM   30  C9  UNL     1      85.616 101.590 -44.072  1.00  0.00     0.052 A 
HETATM   31  C10 UNL     1      84.283 101.866 -43.976  1.00  0.00     0.028 A 
HETATM   32 BR2  UNL     1      83.370 103.458 -44.579  1.00  0.00    -0.050 Br
HETATM   33  C11 UNL     1      83.716 100.788 -43.365  1.00  0.00     0.107 A 
HETATM   34  N3  UNL     1      84.711  99.884 -43.105  1.00  0.00    -0.363 N 
ATOM     35  H3  UNL     1      84.561  98.984 -42.650  1.00  0.00     0.165 HD
ENDBRANCH   5  29
TORSDOF 8
ENDMDL
MODEL 2
REMARK VINA RESULT: -6.910899260      3.279      6.843
REMARK  8 active torsions:
REMARK  status: ('A' for Active; 'I' for Inactive)
REMARK    1  A    between atoms: N1_4  and  C4_5 
REMARK    2  A    between atoms: C4_5  and  N2_6 
REMARK    3  A    between atoms: C7_10  and  C8_11 
REMARK    4  A    between atoms: C12_20  and  N5_21 
REMARK    5  A    between atoms: N5_21  and  C13_23 
REMARK    6  A    between atoms: C13_23  and  C14_24 
REMARK    7  A    between atoms: C14_24  and  C15_25 
REMARK    8  A    between atoms: C21_33  and  O1_34 
ROOT
HETATM    1  N2  UNL     1      91.357  98.840 -43.508  1.00  0.00    -0.175 N 
HETATM    2  C5  UNL     1      91.624 100.112 -43.850  1.00  0.00     0.132 A 
HETATM    3  C6  UNL     1      91.839 101.067 -42.866  1.00  0.00     0.056 A 
HETATM    4 BR1  UNL     1      92.161 102.847 -43.479  1.00  0.00    -0.047 Br
HETATM    5  C7  UNL     1      91.780 100.716 -41.551  1.00  0.00     0.094 A 
HETATM    6  N4  UNL     1      91.505  99.408 -41.284  1.00  0.00    -0.188 N 
ATOM      7  H4  UNL     1      91.457  99.122 -40.306  1.00  0.00     0.184 HD
HETATM    8  C12 UNL     1      91.294  98.472 -42.220  1.00  0.00     0.685 A 
ENDROOT
BRANCH   1   9
HETATM    9  C4  UNL     1      91.127  97.875 -44.592  1.00  0.00     0.277 C 
BRANCH   9  10
HETATM   10  N1  UNL     1      89.717  97.769 -44.894  1.00  0.00    -0.348 N 
HETATM   11  C3  UNL     1      88.823  98.552 -44.248  1.00  0.00     0.101 A 
HETATM   12  C2  UNL     1      87.483  98.533 -44.493  1.00  0.00    -0.013 A 
HETATM   13  C1  UNL     1      86.503  99.399 -43.771  1.00  0.00     0.052 C 
HETATM   14  C21 UNL     1      87.001  97.678 -45.447  1.00  0.00     0.074 A 
HETATM   15  C20 UNL     1      87.906  96.889 -46.098  1.00  0.00     0.054 A 
HETATM   16  C19 UNL     1      89.256  96.937 -45.823  1.00  0.00     0.095 A 
BRANCH  14  17
HETATM   17  O1  UNL     1      85.637  97.643 -45.712  1.00  0.00    -0.360 OA
ATOM     18  H1  UNL     1      85.026  97.467 -45.007  1.00  0.00     0.217 HD
ENDBRANCH  14  17
ENDBRANCH   9  10
ENDBRANCH   1   9
BRANCH   8  19
HETATM   19  N5  UNL     1      91.055  97.284 -41.865  1.00  0.00    -0.205 N 
ATOM     20  H5  UNL     1      90.260  96.873 -42.354  1.00  0.00     0.183 HD
BRANCH  19  21
HETATM   21  C13 UNL     1      91.644  96.408 -40.945  1.00  0.00     0.083 C 
BRANCH  21  22
HETATM   22  C14 UNL     1      91.217  94.960 -41.037  1.00  0.00     0.085 C 
BRANCH  22  23
HETATM   23  C15 UNL     1      91.592  94.315 -42.312  1.00  0.00    -0.037 A 
HETATM   24  C16 UNL     1      90.907  94.313 -43.512  1.00  0.00     0.025 A 
HETATM   25  C17 UNL     1      91.637  93.590 -44.429  1.00  0.00     0.088 A 
HETATM   26  N6  UNL     1      92.750  93.154 -43.818  1.00  0.00    -0.375 N 
HETATM   27  C18 UNL     1      92.735  93.589 -42.523  1.00  0.00     0.095 A 
ATOM     28  H6  UNL     1      93.485  92.591 -44.249  1.00  0.00     0.164 HD
ENDBRANCH  22  23
ENDBRANCH  21  22
ENDBRANCH  19  21
ENDBRANCH   8  19
BRANCH   5  29
HETATM   29  C8  UNL     1      92.036 101.642 -40.457  1.00  0.00     0.062 A 
HETATM   30  C9  UNL     1      90.997 102.270 -39.734  1.00  0.00     0.052 A 
HETATM   31  C10 UNL     1      91.524 103.110 -38.796  1.00  0.00     0.028 A 
HETATM   32 BR2  UNL     1      90.560 104.215 -37.540  1.00  0.00    -0.050 Br
HETATM   33  C11 UNL     1      92.878 103.016 -38.922  1.00  0.00     0.107 A 
HETATM   34  N3  UNL     1      93.143 102.125 -39.927  1.00  0.00    -0.363 N 
ATOM     35  H3  UNL     1      94.082 101.867 -40.230  1.00  0.00     0.165 HD
ENDBRANCH   5  29
TORSDOF 8
ENDMDL
MODEL 3
REMARK VINA RESULT: -6.899620784      0.924      1.229
REMARK  8 active torsions:
REMARK  status: ('A' for Active; 'I' for Inactive)
REMARK    1  A    between atoms: N1_4  and  C4_5 
REMARK    2  A    between atoms: C4_5  and  N2_6 
REMARK    3  A    between atoms: C7_10  and  C8_11 
REMARK    4  A    between atoms: C12_20  and  N5_21 
REMARK    5  A    between atoms: N5_21  and  C13_23 
REMARK    6  A    between atoms: C13_23  and  C14_24 
REMARK    7  A    between atoms: C14_24  and  C15_25 
REMARK    8  A    between atoms: C21_33  and  O1_34 
ROOT
HETATM    1  N2  UNL     1      89.730  98.606 -43.667  1.00  0.00    -0.175 N 
HETATM    2  C5  UNL     1      88.799  98.124 -44.506  1.00  0.00     0.132 A 
HETATM    3  C6  UNL     1      87.496  98.599 -44.446  1.00  0.00     0.056 A 
HETATM    4 BR1  UNL     1      86.253  97.801 -45.657  1.00  0.00    -0.047 Br
HETATM    5  C7  UNL     1      87.160  99.556 -43.535  1.00  0.00     0.094 A 
HETATM    6  N4  UNL     1      88.161  99.994 -42.720  1.00  0.00    -0.188 N 
ATOM      7  H4  UNL     1      87.934 100.710 -42.031  1.00  0.00     0.184 HD
HETATM    8  C12 UNL     1      89.424  99.547 -42.763  1.00  0.00     0.685 A 
ENDROOT
BRANCH   1   9
HETATM    9  C4  UNL     1      91.091  98.057 -43.770  1.00  0.00     0.277 C 
BRANCH   9  10
HETATM   10  N1  UNL     1      91.133  96.696 -43.283  1.00  0.00    -0.348 N 
HETATM   11  C3  UNL     1      91.164  95.662 -44.154  1.00  0.00     0.101 A 
HETATM   12  C2  UNL     1      91.233  94.355 -43.778  1.00  0.00    -0.013 A 
HETATM   13  C1  UNL     1      91.262  93.220 -44.748  1.00  0.00     0.052 C 
HETATM   14  C21 UNL     1      91.275  94.057 -42.442  1.00  0.00     0.074 A 
HETATM   15  C20 UNL     1      91.244  95.103 -41.564  1.00  0.00     0.054 A 
HETATM   16  C19 UNL     1      91.175  96.414 -41.984  1.00  0.00     0.095 A 
BRANCH  14  17
HETATM   17  O1  UNL     1      91.345  92.730 -42.036  1.00  0.00    -0.360 OA
ATOM     18  H1  UNL     1      92.173  92.374 -41.737  1.00  0.00     0.217 HD
ENDBRANCH  14  17
ENDBRANCH   9  10
ENDBRANCH   1   9
BRANCH   8  19
HETATM   19  N5  UNL     1      90.278 100.027 -41.967  1.00  0.00    -0.205 N 
ATOM     20  H5  UNL     1      90.682  99.327 -41.344  1.00  0.00     0.183 HD
BRANCH  19  21
HETATM   21  C13 UNL     1      90.791 101.312 -41.753  1.00  0.00     0.083 C 
BRANCH  21  22
HETATM   22  C14 UNL     1      90.344 102.004 -40.485  1.00  0.00     0.085 C 
BRANCH  22  23
HETATM   23  C15 UNL     1      91.464 102.477 -39.645  1.00  0.00    -0.037 A 
HETATM   24  C16 UNL     1      91.446 103.417 -38.632  1.00  0.00     0.025 A 
HETATM   25  C17 UNL     1      92.721 103.531 -38.122  1.00  0.00     0.088 A 
HETATM   26  N6  UNL     1      93.513 102.682 -38.796  1.00  0.00    -0.375 N 
HETATM   27  C18 UNL     1      92.758 102.032 -39.731  1.00  0.00     0.095 A 
ATOM     28  H6  UNL     1      94.511 102.546 -38.638  1.00  0.00     0.164 HD
ENDBRANCH  22  23
ENDBRANCH  21  22
ENDBRANCH  19  21
ENDBRANCH   8  19
BRANCH   5  29
HETATM   29  C8  UNL     1      85.832 100.141 -43.432  1.00  0.00     0.062 A 
HETATM   30  C9  UNL     1      85.576 101.502 -43.711  1.00  0.00     0.052 A 
HETATM   31  C10 UNL     1      84.257 101.782 -43.496  1.00  0.00     0.028 A 
HETATM   32 BR2  UNL     1      83.370 103.482 -43.722  1.00  0.00    -0.050 Br
HETATM   33  C11 UNL     1      83.685 100.615 -43.087  1.00  0.00     0.107 A 
HETATM   34  N3  UNL     1      84.661  99.656 -43.063  1.00  0.00    -0.363 N 
ATOM     35  H3  UNL     1      84.503  98.686 -42.792  1.00  0.00     0.165 HD
ENDBRANCH   5  29
TORSDOF 8
ENDMDL
MODEL 4
REMARK VINA RESULT: -6.848874048      3.369      6.952
REMARK  8 active torsions:
REMARK  status: ('A' for Active; 'I' for Inactive)
REMARK    1  A    between atoms: N1_4  and  C4_5 
REMARK    2  A    between atoms: C4_5  and  N2_6 
REMARK    3  A    between atoms: C7_10  and  C8_11 
REMARK    4  A    between atoms: C12_20  and  N5_21 
REMARK    5  A    between atoms: N5_21  and  C13_23 
REMARK    6  A    between atoms: C13_23  and  C14_24 
REMARK    7  A    between atoms: C14_24  and  C15_25 
REMARK    8  A    between atoms: C21_33  and  O1_34 
ROOT
HETATM    1  N2  UNL     1      91.144  98.822 -43.447  1.00  0.00    -0.175 N 
HETATM    2  C5  UNL     1      91.442 100.075 -43.829  1.00  0.00     0.132 A 
HETATM    3  C6  UNL     1      91.857 101.008 -42.889  1.00  0.00     0.056 A 
HETATM    4 BR1  UNL     1      92.205 102.767 -43.547  1.00  0.00    -0.047 Br
HETATM    5  C7  UNL     1      91.964 100.655 -41.577  1.00  0.00     0.094 A 
HETATM    6  N4  UNL     1      91.644  99.366 -41.269  1.00  0.00    -0.188 N 
ATOM      7  H4  UNL     1      91.717  99.078 -40.293  1.00  0.00     0.184 HD
HETATM    8  C12 UNL     1      91.241  98.451 -42.162  1.00  0.00     0.685 A 
ENDROOT
BRANCH   1   9
HETATM    9  C4  UNL     1      90.699  97.880 -44.484  1.00  0.00     0.277 C 
BRANCH   9  10
HETATM   10  N1  UNL     1      89.277  98.002 -44.712  1.00  0.00    -0.348 N 
HETATM   11  C3  UNL     1      88.696  97.355 -45.749  1.00  0.00     0.101 A 
HETATM   12  C2  UNL     1      87.361  97.395 -46.015  1.00  0.00    -0.013 A 
HETATM   13  C1  UNL     1      86.730  96.680 -47.165  1.00  0.00     0.052 C 
HETATM   14  C21 UNL     1      86.548  98.129 -45.193  1.00  0.00     0.074 A 
HETATM   15  C20 UNL     1      87.137  98.781 -44.147  1.00  0.00     0.054 A 
HETATM   16  C19 UNL     1      88.493  98.715 -43.909  1.00  0.00     0.095 A 
BRANCH  14  17
HETATM   17  O1  UNL     1      85.183  98.184 -45.448  1.00  0.00    -0.360 OA
ATOM     18  H1  UNL     1      84.877  98.412 -46.317  1.00  0.00     0.217 HD
ENDBRANCH  14  17
ENDBRANCH   9  10
ENDBRANCH   1   9
BRANCH   8  19
HETATM   19  N5  UNL     1      90.977  97.279 -41.772  1.00  0.00    -0.205 N 
ATOM     20  H5  UNL     1      90.105  96.916 -42.157  1.00  0.00     0.183 HD
BRANCH  19  21
HETATM   21  C13 UNL     1      91.622  96.370 -40.925  1.00  0.00     0.083 C 
BRANCH  21  22
HETATM   22  C14 UNL     1      91.188  94.926 -41.045  1.00  0.00     0.085 C 
BRANCH  22  23
HETATM   23  C15 UNL     1      91.593  94.292 -42.316  1.00  0.00    -0.037 A 
HETATM   24  C16 UNL     1      90.931  94.290 -43.529  1.00  0.00     0.025 A 
HETATM   25  C17 UNL     1      91.686  93.580 -44.436  1.00  0.00     0.088 A 
HETATM   26  N6  UNL     1      92.792  93.151 -43.807  1.00  0.00    -0.375 N 
HETATM   27  C18 UNL     1      92.747  93.578 -42.510  1.00  0.00     0.095 A 
ATOM     28  H6  UNL     1      93.539  92.598 -44.226  1.00  0.00     0.164 HD
ENDBRANCH  22  23
ENDBRANCH  21  22
ENDBRANCH  19  21
ENDBRANCH   8  19
BRANCH   5  29
HETATM   29  C8  UNL     1      92.432 101.555 -40.534  1.00  0.00     0.062 A 
HETATM   30  C9  UNL     1      91.551 102.321 -39.738  1.00  0.00     0.052 A 
HETATM   31  C10 UNL     1      92.264 103.100 -38.872  1.00  0.00     0.028 A 
HETATM   32 BR2  UNL     1      91.565 104.335 -37.563  1.00  0.00    -0.050 Br
HETATM   33  C11 UNL     1      93.577 102.832 -39.116  1.00  0.00     0.107 A 
HETATM   34  N3  UNL     1      93.636 101.901 -40.118  1.00  0.00    -0.363 N 
ATOM     35  H3  UNL     1      94.503 101.522 -40.497  1.00  0.00     0.165 HD
ENDBRANCH   5  29
TORSDOF 8
ENDMDL
MODEL 5
REMARK VINA RESULT: -6.823128767      3.650      7.489
REMARK  8 active torsions:
REMARK  status: ('A' for Active; 'I' for Inactive)
REMARK    1  A    between atoms: N1_4  and  C4_5 
REMARK    2  A    between atoms: C4_5  and  N2_6 
REMARK    3  A    between atoms: C7_10  and  C8_11 
REMARK    4  A    between atoms: C12_20  and  N5_21 
REMARK    5  A    between atoms: N5_21  and  C13_23 
REMARK    6  A    between atoms: C13_23  and  C14_24 
REMARK    7  A    between atoms: C14_24  and  C15_25 
REMARK    8  A    between atoms: C21_33  and  O1_34 
ROOT
HETATM    1  N2  UNL     1      90.382 100.263 -43.588  1.00  0.00    -0.175 N 
HETATM    2  C5  UNL     1      90.784 101.527 -43.805  1.00  0.00     0.132 A 
HETATM    3  C6  UNL     1      91.611 102.161 -42.889  1.00  0.00     0.056 A 
HETATM    4 BR1  UNL     1      92.073 103.971 -43.285  1.00  0.00    -0.047 Br
HETATM    5  C7  UNL     1      92.018 101.503 -41.767  1.00  0.00     0.094 A 
HETATM    6  N4  UNL     1      91.568 100.224 -41.619  1.00  0.00    -0.188 N 
ATOM      7  H4  UNL     1      91.860  99.711 -40.786  1.00  0.00     0.184 HD
HETATM    8  C12 UNL     1      90.769  99.595 -42.491  1.00  0.00     0.685 A 
ENDROOT
BRANCH   1   9
HETATM    9  C4  UNL     1      89.497  99.647 -44.587  1.00  0.00     0.277 C 
BRANCH   9  10
HETATM   10  N1  UNL     1      88.113  99.755 -44.184  1.00  0.00    -0.348 N 
HETATM   11  C3  UNL     1      87.294  98.681 -44.270  1.00  0.00     0.101 A 
HETATM   12  C2  UNL     1      85.988  98.692 -43.885  1.00  0.00    -0.013 A 
HETATM   13  C1  UNL     1      85.091  97.503 -43.989  1.00  0.00     0.052 C 
HETATM   14  C21 UNL     1      85.461  99.850 -43.378  1.00  0.00     0.074 A 
HETATM   15  C20 UNL     1      86.291 100.932 -43.292  1.00  0.00     0.054 A 
HETATM   16  C19 UNL     1      87.609 100.881 -43.691  1.00  0.00     0.095 A 
BRANCH  14  17
HETATM   17  O1  UNL     1      84.130  99.882 -42.980  1.00  0.00    -0.360 OA
ATOM     18  H1  UNL     1      83.539 100.516 -43.368  1.00  0.00     0.217 HD
ENDBRANCH  14  17
ENDBRANCH   9  10
ENDBRANCH   1   9
BRANCH   8  19
HETATM   19  N5  UNL     1      90.417  98.404 -42.262  1.00  0.00    -0.205 N 
ATOM     20  H5  UNL     1      89.510  98.338 -41.800  1.00  0.00     0.183 HD
BRANCH  19  21
HETATM   21  C13 UNL     1      91.001  97.156 -42.505  1.00  0.00     0.083 C 
BRANCH  21  22
HETATM   22  C14 UNL     1      91.526  96.420 -41.292  1.00  0.00     0.085 C 
BRANCH  22  23
HETATM   23  C15 UNL     1      91.733  94.975 -41.523  1.00  0.00    -0.037 A 
HETATM   24  C16 UNL     1      92.760  94.168 -41.074  1.00  0.00     0.025 A 
HETATM   25  C17 UNL     1      92.537  92.886 -41.528  1.00  0.00     0.088 A 
HETATM   26  N6  UNL     1      91.399  92.893 -42.240  1.00  0.00    -0.375 N 
HETATM   27  C18 UNL     1      90.897  94.163 -42.246  1.00  0.00     0.095 A 
ATOM     28  H6  UNL     1      90.979  92.085 -42.699  1.00  0.00     0.164 HD
ENDBRANCH  22  23
ENDBRANCH  21  22
ENDBRANCH  19  21
ENDBRANCH   8  19
BRANCH   5  29
HETATM   29  C8  UNL     1      92.918 102.075 -40.777  1.00  0.00     0.062 A 
HETATM   30  C9  UNL     1      92.490 102.446 -39.483  1.00  0.00     0.052 A 
HETATM   31  C10 UNL     1      93.531 102.987 -38.785  1.00  0.00     0.028 A 
HETATM   32 BR2  UNL     1      93.503 103.660 -36.975  1.00  0.00    -0.050 Br
HETATM   33  C11 UNL     1      94.604 102.960 -39.625  1.00  0.00     0.107 A 
HETATM   34  N3  UNL     1      94.196 102.405 -40.807  1.00  0.00    -0.363 N 
ATOM     35  H3  UNL     1      94.804 102.265 -41.614  1.00  0.00     0.165 HD
ENDBRANCH   5  29
TORSDOF 8
ENDMDL
