MODEL 1
REMARK VINA RESULT: -7.267199375      0.000      0.000
REMARK  8 active torsions:
REMARK  status: ('A' for Active; 'I' for Inactive)
REMARK    1  A    between atoms: C3_3  and  N6_29 
REMARK       I    between atoms: N1_4  and  C4_6 
REMARK    2  A    between atoms: C4_6  and  C5_8 
REMARK    3  A    between atoms: C5_8  and  C6_9 
REMARK    4  A    between atoms: C5_8  and  N2_16 
REMARK    5  A    between atoms: C6_9  and  C7_10 
REMARK       I    between atoms: N2_16  and  C13_18 
REMARK    6  A    between atoms: C13_18  and  C14_20 
REMARK    7  A    between atoms: C14_20  and  C16_22 
REMARK       I    between atoms: C16_22  and  N3_24 
REMARK    8  A    between atoms: N6_29  and  C18_31 
ROOT
HETATM    1  C1  UNL     1      91.233 103.727 -45.416  1.00  0.00     0.021 C 
HETATM    2  C2  UNL     1      91.437 102.572 -45.138  1.00  0.00    -0.041 C 
HETATM    3  C3  UNL     1      91.685 101.167 -44.830  1.00  0.00     0.164 C 
HETATM    4  N1  UNL     1      91.245 100.292 -45.663  1.00  0.00    -0.304 N 
ATOM      5  H1  UNL     1      90.743 100.582 -46.502  1.00  0.00     0.171 HD
HETATM    6  C4  UNL     1      91.466  98.919 -45.397  1.00  0.00     0.246 C 
HETATM    7  O1  UNL     1      92.661  98.476 -45.455  1.00  0.00    -0.271 OA
ENDROOT
BRANCH   3   8
HETATM    8  N6  UNL     1      92.367 100.766 -43.676  1.00  0.00    -0.321 N 
ATOM      9  H6  UNL     1      93.146 100.116 -43.789  1.00  0.00     0.169 HD
BRANCH   8  10
HETATM   10  C18 UNL     1      92.089 101.152 -42.494  1.00  0.00     0.109 A 
HETATM   11  C19 UNL     1      90.799 101.170 -42.049  1.00  0.00     0.049 A 
HETATM   12  C20 UNL     1      90.511 101.584 -40.773  1.00  0.00     0.008 A 
HETATM   13  C21 UNL     1      91.573 101.980 -39.956  1.00  0.00     0.061 A 
HETATM   14  C22 UNL     1      92.868 101.953 -40.430  1.00  0.00     0.189 A 
HETATM   15  F1  UNL     1      93.858 102.349 -39.597  1.00  0.00    -0.186 F 
HETATM   16  N7  UNL     1      93.079 101.543 -41.674  1.00  0.00    -0.319 N 
ATOM     17  H7  UNL     1      94.037 101.523 -42.024  1.00  0.00     0.169 HD
ENDBRANCH   8  10
ENDBRANCH   3   8
BRANCH   6  18
HETATM   18  C5  UNL     1      90.353  98.010 -45.059  1.00  0.00     0.181 C 
BRANCH  18  19
HETATM   19  C6  UNL     1      89.298  98.809 -44.331  1.00  0.00     0.073 C 
BRANCH  19  20
HETATM   20  C7  UNL     1      87.917  98.293 -44.605  1.00  0.00    -0.056 A 
HETATM   21  C8  UNL     1      86.886  98.591 -43.743  1.00  0.00     0.007 A 
HETATM   22  C9  UNL     1      85.603  98.127 -43.970  1.00  0.00     0.001 A 
HETATM   23  C10 UNL     1      85.380  97.355 -45.087  1.00  0.00     0.000 A 
HETATM   24  C11 UNL     1      86.401  97.048 -45.959  1.00  0.00     0.001 A 
HETATM   25  C12 UNL     1      87.651  97.521 -45.704  1.00  0.00     0.007 A 
ENDBRANCH  19  20
ENDBRANCH  18  19
BRANCH  18  26
HETATM   26  N2  UNL     1      90.860  96.921 -44.221  1.00  0.00    -0.343 N 
HETATM   27  C13 UNL     1      90.992  95.651 -44.783  1.00  0.00     0.257 C 
HETATM   28  O2  UNL     1      90.648  95.542 -46.021  1.00  0.00    -0.267 OA
ATOM     29  H2  UNL     1      91.111  97.088 -43.246  1.00  0.00     0.163 HD
BRANCH  27  30
HETATM   30  C14 UNL     1      91.461  94.474 -44.147  1.00  0.00     0.090 C 
HETATM   31  C15 UNL     1      91.553  93.348 -44.880  1.00  0.00     0.035 C 
BRANCH  30  32
HETATM   32  C16 UNL     1      91.849  94.392 -42.767  1.00  0.00     0.262 C 
HETATM   33  O3  UNL     1      91.162  94.800 -41.811  1.00  0.00    -0.267 OA
HETATM   34  N3  UNL     1      93.112  93.812 -42.375  1.00  0.00    -0.299 N 
HETATM   35  C17 UNL     1      93.166  92.777 -41.600  1.00  0.00     0.203 C 
ATOM     36  H3  UNL     1      93.980  94.226 -42.715  1.00  0.00     0.171 HD
HETATM   37  N4  UNL     1      91.951  92.216 -41.139  1.00  0.00    -0.066 NA
HETATM   38  N5  UNL     1      94.454  92.298 -41.284  1.00  0.00    -0.066 NA
ENDBRANCH  30  32
ENDBRANCH  27  30
ENDBRANCH  18  26
ENDBRANCH   6  18
TORSDOF 8
ENDMDL
MODEL 2
REMARK VINA RESULT: -7.178232044      3.040      6.003
REMARK  8 active torsions:
REMARK  status: ('A' for Active; 'I' for Inactive)
REMARK    1  A    between atoms: C3_3  and  N6_29 
REMARK       I    between atoms: N1_4  and  C4_6 
REMARK    2  A    between atoms: C4_6  and  C5_8 
REMARK    3  A    between atoms: C5_8  and  C6_9 
REMARK    4  A    between atoms: C5_8  and  N2_16 
REMARK    5  A    between atoms: C6_9  and  C7_10 
REMARK       I    between atoms: N2_16  and  C13_18 
REMARK    6  A    between atoms: C13_18  and  C14_20 
REMARK    7  A    between atoms: C14_20  and  C16_22 
REMARK       I    between atoms: C16_22  and  N3_24 
REMARK    8  A    between atoms: N6_29  and  C18_31 
ROOT
HETATM    1  C1  UNL     1      90.958 103.698 -46.056  1.00  0.00     0.021 C 
HETATM    2  C2  UNL     1      91.306 102.606 -45.682  1.00  0.00    -0.041 C 
HETATM    3  C3  UNL     1      91.721 101.274 -45.254  1.00  0.00     0.164 C 
HETATM    4  N1  UNL     1      91.046 100.273 -45.698  1.00  0.00    -0.304 N 
ATOM      5  H1  UNL     1      90.254 100.420 -46.325  1.00  0.00     0.171 HD
HETATM    6  C4  UNL     1      91.417  98.966 -45.305  1.00  0.00     0.246 C 
HETATM    7  O1  UNL     1      92.525  98.497 -45.730  1.00  0.00    -0.271 OA
ENDROOT
BRANCH   3   8
HETATM    8  N6  UNL     1      92.802 101.070 -44.390  1.00  0.00    -0.321 N 
ATOM      9  H6  UNL     1      93.574 100.494 -44.727  1.00  0.00     0.169 HD
BRANCH   8  10
HETATM   10  C18 UNL     1      92.895 101.551 -43.213  1.00  0.00     0.109 A 
HETATM   11  C19 UNL     1      91.942 101.288 -42.273  1.00  0.00     0.049 A 
HETATM   12  C20 UNL     1      92.054 101.807 -41.008  1.00  0.00     0.008 A 
HETATM   13  C21 UNL     1      93.165 102.604 -40.722  1.00  0.00     0.061 A 
HETATM   14  C22 UNL     1      94.114 102.855 -41.690  1.00  0.00     0.189 A 
HETATM   15  F1  UNL     1      95.170 103.635 -41.359  1.00  0.00    -0.186 F 
HETATM   16  N7  UNL     1      93.947 102.323 -42.894  1.00  0.00    -0.319 N 
ATOM     17  H7  UNL     1      94.649 102.509 -43.610  1.00  0.00     0.169 HD
ENDBRANCH   8  10
ENDBRANCH   3   8
BRANCH   6  18
HETATM   18  C5  UNL     1      90.556  98.151 -44.425  1.00  0.00     0.181 C 
BRANCH  18  19
HETATM   19  C6  UNL     1      90.712  96.704 -44.825  1.00  0.00     0.073 C 
BRANCH  19  20
HETATM   20  C7  UNL     1      91.166  95.852 -43.677  1.00  0.00    -0.056 A 
HETATM   21  C8  UNL     1      91.267  96.393 -42.414  1.00  0.00     0.007 A 
HETATM   22  C9  UNL     1      91.685  95.632 -41.338  1.00  0.00     0.001 A 
HETATM   23  C10 UNL     1      92.000  94.311 -41.560  1.00  0.00     0.000 A 
HETATM   24  C11 UNL     1      91.905  93.755 -42.817  1.00  0.00     0.001 A 
HETATM   25  C12 UNL     1      91.490  94.534 -43.853  1.00  0.00     0.007 A 
ENDBRANCH  19  20
ENDBRANCH  18  19
BRANCH  18  26
HETATM   26  N2  UNL     1      89.166  98.590 -44.574  1.00  0.00    -0.343 N 
HETATM   27  C13 UNL     1      88.483  99.039 -43.443  1.00  0.00     0.257 C 
HETATM   28  O2  UNL     1      89.148  99.028 -42.339  1.00  0.00    -0.267 OA
ATOM     29  H2  UNL     1      88.708  98.569 -45.485  1.00  0.00     0.163 HD
BRANCH  27  30
HETATM   30  C14 UNL     1      87.145  99.504 -43.375  1.00  0.00     0.090 C 
HETATM   31  C15 UNL     1      86.155  98.633 -43.652  1.00  0.00     0.035 C 
BRANCH  30  32
HETATM   32  C16 UNL     1      86.764 100.844 -43.030  1.00  0.00     0.262 C 
HETATM   33  O3  UNL     1      87.238 101.872 -43.548  1.00  0.00    -0.267 OA
HETATM   34  N3  UNL     1      85.766 101.104 -42.018  1.00  0.00    -0.299 N 
HETATM   35  C17 UNL     1      84.675 101.742 -42.295  1.00  0.00     0.203 C 
ATOM     36  H3  UNL     1      85.926 100.779 -41.064  1.00  0.00     0.171 HD
HETATM   37  N4  UNL     1      84.473 102.183 -43.625  1.00  0.00    -0.066 NA
HETATM   38  N5  UNL     1      83.776 101.938 -41.228  1.00  0.00    -0.066 NA
ENDBRANCH  30  32
ENDBRANCH  27  30
ENDBRANCH  18  26
ENDBRANCH   6  18
TORSDOF 8
ENDMDL
MODEL 3
REMARK VINA RESULT: -7.010639884      1.791      2.284
REMARK  8 active torsions:
REMARK  status: ('A' for Active; 'I' for Inactive)
REMARK    1  A    between atoms: C3_3  and  N6_29 
REMARK       I    between atoms: N1_4  and  C4_6 
REMARK    2  A    between atoms: C4_6  and  C5_8 
REMARK    3  A    between atoms: C5_8  and  C6_9 
REMARK    4  A    between atoms: C5_8  and  N2_16 
REMARK    5  A    between atoms: C6_9  and  C7_10 
REMARK       I    between atoms: N2_16  and  C13_18 
REMARK    6  A    between atoms: C13_18  and  C14_20 
REMARK    7  A    between atoms: C14_20  and  C16_22 
REMARK       I    between atoms: C16_22  and  N3_24 
REMARK    8  A    between atoms: N6_29  and  C18_31 
ROOT
HETATM    1  C1  UNL     1      90.726 104.688 -43.218  1.00  0.00     0.021 C 
HETATM    2  C2  UNL     1      91.012 103.519 -43.279  1.00  0.00    -0.041 C 
HETATM    3  C3  UNL     1      91.352 102.103 -43.379  1.00  0.00     0.164 C 
HETATM    4  N1  UNL     1      90.634 101.376 -44.159  1.00  0.00    -0.304 N 
ATOM      5  H1  UNL     1      89.860 101.787 -44.683  1.00  0.00     0.171 HD
HETATM    6  C4  UNL     1      90.932  99.998 -44.282  1.00  0.00     0.246 C 
HETATM    7  O1  UNL     1      92.021  99.663 -44.856  1.00  0.00    -0.271 OA
ENDROOT
BRANCH   3   8
HETATM    8  N6  UNL     1      92.409 101.536 -42.658  1.00  0.00    -0.321 N 
ATOM      9  H6  UNL     1      92.581 100.538 -42.777  1.00  0.00     0.169 HD
BRANCH   8  10
HETATM   10  C18 UNL     1      93.173 102.175 -41.862  1.00  0.00     0.109 A 
HETATM   11  C19 UNL     1      94.182 102.959 -42.340  1.00  0.00     0.049 A 
HETATM   12  C20 UNL     1      94.996 103.646 -41.474  1.00  0.00     0.008 A 
HETATM   13  C21 UNL     1      94.757 103.513 -40.104  1.00  0.00     0.061 A 
HETATM   14  C22 UNL     1      93.731 102.714 -39.648  1.00  0.00     0.189 A 
HETATM   15  F1  UNL     1      93.545 102.621 -38.310  1.00  0.00    -0.186 F 
HETATM   16  N7  UNL     1      92.980 102.077 -40.536  1.00  0.00    -0.319 N 
ATOM     17  H7  UNL     1      92.221 101.486 -40.197  1.00  0.00     0.169 HD
ENDBRANCH   8  10
ENDBRANCH   3   8
BRANCH   6  18
HETATM   18  C5  UNL     1      90.018  98.962 -43.763  1.00  0.00     0.181 C 
BRANCH  18  19
HETATM   19  C6  UNL     1      88.648  99.579 -43.612  1.00  0.00     0.073 C 
BRANCH  19  20
HETATM   20  C7  UNL     1      87.567  98.671 -44.119  1.00  0.00    -0.056 A 
HETATM   21  C8  UNL     1      86.367  98.585 -43.449  1.00  0.00     0.007 A 
HETATM   22  C9  UNL     1      85.354  97.755 -43.893  1.00  0.00     0.001 A 
HETATM   23  C10 UNL     1      85.575  97.011 -45.029  1.00  0.00     0.000 A 
HETATM   24  C11 UNL     1      86.770  97.085 -45.711  1.00  0.00     0.001 A 
HETATM   25  C12 UNL     1      87.745  97.913 -45.245  1.00  0.00     0.007 A 
ENDBRANCH  19  20
ENDBRANCH  18  19
BRANCH  18  26
HETATM   26  N2  UNL     1      90.521  98.478 -42.475  1.00  0.00    -0.343 N 
HETATM   27  C13 UNL     1      91.093  97.207 -42.417  1.00  0.00     0.257 C 
HETATM   28  O2  UNL     1      91.130  96.552 -43.526  1.00  0.00    -0.267 OA
ATOM     29  H2  UNL     1      90.455  99.059 -41.639  1.00  0.00     0.163 HD
BRANCH  27  30
HETATM   30  C14 UNL     1      91.636  96.561 -41.277  1.00  0.00     0.090 C 
HETATM   31  C15 UNL     1      92.240  97.320 -40.343  1.00  0.00     0.035 C 
BRANCH  30  32
HETATM   32  C16 UNL     1      91.588  95.145 -41.042  1.00  0.00     0.262 C 
HETATM   33  O3  UNL     1      90.541  94.481 -40.920  1.00  0.00    -0.267 OA
HETATM   34  N3  UNL     1      92.796  94.361 -40.925  1.00  0.00    -0.299 N 
HETATM   35  C17 UNL     1      93.049  93.388 -41.740  1.00  0.00     0.203 C 
ATOM     36  H3  UNL     1      93.463  94.579 -40.185  1.00  0.00     0.171 HD
HETATM   37  N4  UNL     1      92.111  93.103 -42.760  1.00  0.00    -0.066 NA
HETATM   38  N5  UNL     1      94.257  92.694 -41.529  1.00  0.00    -0.066 NA
ENDBRANCH  30  32
ENDBRANCH  27  30
ENDBRANCH  18  26
ENDBRANCH   6  18
TORSDOF 8
ENDMDL
MODEL 4
REMARK VINA RESULT: -7.005626374      2.789      5.850
REMARK  8 active torsions:
REMARK  status: ('A' for Active; 'I' for Inactive)
REMARK    1  A    between atoms: C3_3  and  N6_29 
REMARK       I    between atoms: N1_4  and  C4_6 
REMARK    2  A    between atoms: C4_6  and  C5_8 
REMARK    3  A    between atoms: C5_8  and  C6_9 
REMARK    4  A    between atoms: C5_8  and  N2_16 
REMARK    5  A    between atoms: C6_9  and  C7_10 
REMARK       I    between atoms: N2_16  and  C13_18 
REMARK    6  A    between atoms: C13_18  and  C14_20 
REMARK    7  A    between atoms: C14_20  and  C16_22 
REMARK       I    between atoms: C16_22  and  N3_24 
REMARK    8  A    between atoms: N6_29  and  C18_31 
ROOT
HETATM    1  C1  UNL     1      90.176 102.489 -47.543  1.00  0.00     0.021 C 
HETATM    2  C2  UNL     1      90.651 101.658 -46.810  1.00  0.00    -0.041 C 
HETATM    3  C3  UNL     1      91.228 100.635 -45.943  1.00  0.00     0.164 C 
HETATM    4  N1  UNL     1      90.939  99.409 -46.202  1.00  0.00    -0.304 N 
ATOM      5  H1  UNL     1      90.328  99.175 -46.985  1.00  0.00     0.171 HD
HETATM    6  C4  UNL     1      91.479  98.389 -45.383  1.00  0.00     0.246 C 
HETATM    7  O1  UNL     1      92.736  98.176 -45.431  1.00  0.00    -0.271 OA
ENDROOT
BRANCH   3   8
HETATM    8  N6  UNL     1      92.060 100.954 -44.864  1.00  0.00    -0.321 N 
ATOM      9  H6  UNL     1      93.068 100.926 -45.020  1.00  0.00     0.169 HD
BRANCH   8  10
HETATM   10  C18 UNL     1      91.653 101.276 -43.700  1.00  0.00     0.109 A 
HETATM   11  C19 UNL     1      90.651 102.188 -43.537  1.00  0.00     0.049 A 
HETATM   12  C20 UNL     1      90.218 102.525 -42.279  1.00  0.00     0.008 A 
HETATM   13  C21 UNL     1      90.832 101.908 -41.186  1.00  0.00     0.061 A 
HETATM   14  C22 UNL     1      91.842 100.990 -41.379  1.00  0.00     0.189 A 
HETATM   15  F1  UNL     1      92.403 100.424 -40.285  1.00  0.00    -0.186 F 
HETATM   16  N7  UNL     1      92.215 100.708 -42.621  1.00  0.00    -0.319 N 
ATOM     17  H7  UNL     1      92.963 100.029 -42.762  1.00  0.00     0.169 HD
ENDBRANCH   8  10
ENDBRANCH   3   8
BRANCH   6  18
HETATM   18  C5  UNL     1      90.623  97.583 -44.490  1.00  0.00     0.181 C 
BRANCH  18  19
HETATM   19  C6  UNL     1      90.753  96.135 -44.897  1.00  0.00     0.073 C 
BRANCH  19  20
HETATM   20  C7  UNL     1      91.323  95.292 -43.796  1.00  0.00    -0.056 A 
HETATM   21  C8  UNL     1      91.320  95.758 -42.500  1.00  0.00     0.007 A 
HETATM   22  C9  UNL     1      91.841  95.003 -41.464  1.00  0.00     0.001 A 
HETATM   23  C10 UNL     1      92.365  93.767 -41.762  1.00  0.00     0.000 A 
HETATM   24  C11 UNL     1      92.376  93.286 -43.054  1.00  0.00     0.001 A 
HETATM   25  C12 UNL     1      91.855  94.057 -44.048  1.00  0.00     0.007 A 
ENDBRANCH  19  20
ENDBRANCH  18  19
BRANCH  18  26
HETATM   26  N2  UNL     1      89.237  98.041 -44.611  1.00  0.00    -0.343 N 
HETATM   27  C13 UNL     1      88.674  98.751 -43.550  1.00  0.00     0.257 C 
HETATM   28  O2  UNL     1      89.438  98.948 -42.531  1.00  0.00    -0.267 OA
ATOM     29  H2  UNL     1      88.696  97.845 -45.453  1.00  0.00     0.163 HD
BRANCH  27  30
HETATM   30  C14 UNL     1      87.360  99.279 -43.471  1.00  0.00     0.090 C 
HETATM   31  C15 UNL     1      87.175 100.425 -42.789  1.00  0.00     0.035 C 
BRANCH  30  32
HETATM   32  C16 UNL     1      86.202  98.677 -44.071  1.00  0.00     0.262 C 
HETATM   33  O3  UNL     1      85.520  97.776 -43.547  1.00  0.00    -0.267 OA
HETATM   34  N3  UNL     1      85.730  99.089 -45.373  1.00  0.00    -0.299 N 
HETATM   35  C17 UNL     1      84.544  99.580 -45.535  1.00  0.00     0.203 C 
ATOM     36  H3  UNL     1      86.345  98.989 -46.181  1.00  0.00     0.171 HD
HETATM   37  N4  UNL     1      83.709  99.710 -44.400  1.00  0.00    -0.066 NA
HETATM   38  N5  UNL     1      84.193  99.946 -46.850  1.00  0.00    -0.066 NA
ENDBRANCH  30  32
ENDBRANCH  27  30
ENDBRANCH  18  26
ENDBRANCH   6  18
TORSDOF 8
ENDMDL
MODEL 5
REMARK VINA RESULT: -6.964074613      2.801      5.434
REMARK  8 active torsions:
REMARK  status: ('A' for Active; 'I' for Inactive)
REMARK    1  A    between atoms: C3_3  and  N6_29 
REMARK       I    between atoms: N1_4  and  C4_6 
REMARK    2  A    between atoms: C4_6  and  C5_8 
REMARK    3  A    between atoms: C5_8  and  C6_9 
REMARK    4  A    between atoms: C5_8  and  N2_16 
REMARK    5  A    between atoms: C6_9  and  C7_10 
REMARK       I    between atoms: N2_16  and  C13_18 
REMARK    6  A    between atoms: C13_18  and  C14_20 
REMARK    7  A    between atoms: C14_20  and  C16_22 
REMARK       I    between atoms: C16_22  and  N3_24 
REMARK    8  A    between atoms: N6_29  and  C18_31 
ROOT
HETATM    1  C1  UNL     1      90.759 103.786 -45.933  1.00  0.00     0.021 C 
HETATM    2  C2  UNL     1      91.157 102.691 -45.625  1.00  0.00    -0.041 C 
HETATM    3  C3  UNL     1      91.630 101.354 -45.276  1.00  0.00     0.164 C 
HETATM    4  N1  UNL     1      90.976 100.353 -45.748  1.00  0.00    -0.304 N 
ATOM      5  H1  UNL     1      90.159 100.501 -46.341  1.00  0.00     0.171 HD
HETATM    6  C4  UNL     1      91.405  99.042 -45.431  1.00  0.00     0.246 C 
HETATM    7  O1  UNL     1      92.514  98.634 -45.913  1.00  0.00    -0.271 OA
ENDROOT
BRANCH   3   8
HETATM    8  N6  UNL     1      92.747 101.148 -44.458  1.00  0.00    -0.321 N 
ATOM      9  H6  UNL     1      93.530 100.626 -44.850  1.00  0.00     0.169 HD
BRANCH   8  10
HETATM   10  C18 UNL     1      92.857 101.564 -43.258  1.00  0.00     0.109 A 
HETATM   11  C19 UNL     1      91.949 101.203 -42.306  1.00  0.00     0.049 A 
HETATM   12  C20 UNL     1      92.080 101.653 -41.016  1.00  0.00     0.008 A 
HETATM   13  C21 UNL     1      93.162 102.484 -40.718  1.00  0.00     0.061 A 
HETATM   14  C22 UNL     1      94.065 102.835 -41.699  1.00  0.00     0.189 A 
HETATM   15  F1  UNL     1      95.095 103.643 -41.355  1.00  0.00    -0.186 F 
HETATM   16  N7  UNL     1      93.882 102.366 -42.926  1.00  0.00    -0.319 N 
ATOM     17  H7  UNL     1      94.552 102.626 -43.651  1.00  0.00     0.169 HD
ENDBRANCH   8  10
ENDBRANCH   3   8
BRANCH   6  18
HETATM   18  C5  UNL     1      90.602  98.156 -44.566  1.00  0.00     0.181 C 
BRANCH  18  19
HETATM   19  C6  UNL     1      90.996  96.728 -44.861  1.00  0.00     0.073 C 
BRANCH  19  20
HETATM   20  C7  UNL     1      91.247  95.946 -43.606  1.00  0.00    -0.056 A 
HETATM   21  C8  UNL     1      91.409  94.580 -43.666  1.00  0.00     0.007 A 
HETATM   22  C9  UNL     1      91.639  93.834 -42.524  1.00  0.00     0.001 A 
HETATM   23  C10 UNL     1      91.703  94.494 -41.319  1.00  0.00     0.000 A 
HETATM   24  C11 UNL     1      91.543  95.860 -41.243  1.00  0.00     0.001 A 
HETATM   25  C12 UNL     1      91.318  96.563 -42.386  1.00  0.00     0.007 A 
ENDBRANCH  19  20
ENDBRANCH  18  19
BRANCH  18  26
HETATM   26  N2  UNL     1      89.180  98.376 -44.841  1.00  0.00    -0.343 N 
HETATM   27  C13 UNL     1      88.358  98.811 -43.801  1.00  0.00     0.257 C 
HETATM   28  O2  UNL     1      88.933  98.985 -42.661  1.00  0.00    -0.267 OA
ATOM     29  H2  UNL     1      88.800  98.215 -45.774  1.00  0.00     0.163 HD
BRANCH  27  30
HETATM   30  C14 UNL     1      86.967  99.081 -43.861  1.00  0.00     0.090 C 
HETATM   31  C15 UNL     1      86.565 100.364 -43.779  1.00  0.00     0.035 C 
BRANCH  30  32
HETATM   32  C16 UNL     1      85.947  98.081 -44.004  1.00  0.00     0.262 C 
HETATM   33  O3  UNL     1      84.986  97.932 -43.227  1.00  0.00    -0.267 OA
HETATM   34  N3  UNL     1      85.965  97.141 -45.101  1.00  0.00    -0.299 N 
HETATM   35  C17 UNL     1      84.993  97.081 -45.953  1.00  0.00     0.203 C 
ATOM     36  H3  UNL     1      86.761  96.512 -45.207  1.00  0.00     0.171 HD
HETATM   37  N4  UNL     1      83.899  97.964 -45.789  1.00  0.00    -0.066 NA
HETATM   38  N5  UNL     1      85.119  96.125 -46.981  1.00  0.00    -0.066 NA
ENDBRANCH  30  32
ENDBRANCH  27  30
ENDBRANCH  18  26
ENDBRANCH   6  18
TORSDOF 8
ENDMDL
