MODEL 1
REMARK VINA RESULT: -5.947674702      0.000      0.000
REMARK  6 active torsions:
REMARK  status: ('A' for Active; 'I' for Inactive)
REMARK    1  A    between atoms: C2_2  and  C4_4 
REMARK    2  A    between atoms: C4_4  and  N1_5 
REMARK    3  A    between atoms: C4_4  and  C13_23 
REMARK       I    between atoms: N1_5  and  C5_7 
REMARK       I    between atoms: C5_7  and  N2_9 
REMARK    4  A    between atoms: N2_9  and  N3_11 
REMARK    5  A    between atoms: C8_15  and  C9_16 
REMARK    6  A    between atoms: C10_19  and  C12_21 
REMARK       I    between atoms: C13_23  and  N4_25 
ROOT
HETATM    1  N1  UNL     1      91.120  99.040 -43.820  1.00  0.00    -0.328 N 
ATOM      2  H1  UNL     1      90.427  99.168 -43.081  1.00  0.00     0.165 HD
HETATM    3  C5  UNL     1      92.227  99.894 -43.844  1.00  0.00     0.335 C 
HETATM    4  O1  UNL     1      93.086  99.737 -44.746  1.00  0.00    -0.246 OA
HETATM    5  N2  UNL     1      92.438 100.931 -42.901  1.00  0.00    -0.252 N 
ATOM      6  H2  UNL     1      91.757 101.087 -42.158  1.00  0.00     0.191 HD
ENDROOT
BRANCH   1   7
HETATM    7  C4  UNL     1      90.900  97.963 -44.806  1.00  0.00     0.181 C 
BRANCH   7   8
HETATM    8  C2  UNL     1      90.796  96.723 -43.924  1.00  0.00     0.009 C 
HETATM    9  C1  UNL     1      91.248  96.906 -42.525  1.00  0.00     0.012 C 
HETATM   10  C3  UNL     1      91.384  95.499 -44.551  1.00  0.00     0.012 C 
ENDBRANCH   7   8
BRANCH   7  11
HETATM   11  C13 UNL     1      89.679  98.286 -45.534  1.00  0.00     0.243 C 
HETATM   12  O4  UNL     1      89.718  98.187 -46.807  1.00  0.00    -0.271 OA
HETATM   13  N4  UNL     1      88.433  98.701 -44.984  1.00  0.00    -0.338 N 
HETATM   14  C14 UNL     1      87.915  98.910 -43.636  1.00  0.00     0.173 C 
HETATM   15  C16 UNL     1      87.187  99.082 -45.622  1.00  0.00     0.140 A 
HETATM   16  C15 UNL     1      86.752  99.626 -44.249  1.00  0.00     0.149 A 
HETATM   17  F1  UNL     1      86.582 100.964 -44.119  1.00  0.00    -0.238 F 
HETATM   18  C17 UNL     1      85.868  98.784 -45.087  1.00  0.00     0.016 A 
HETATM   19  C18 UNL     1      85.540  97.426 -44.480  1.00  0.00     0.020 C 
HETATM   20  C19 UNL     1      84.705  99.467 -45.769  1.00  0.00     0.020 C 
ENDBRANCH   7  11
ENDBRANCH   1   7
BRANCH   5  21
HETATM   21  N3  UNL     1      93.563 101.734 -42.986  1.00  0.00    -0.304 N 
HETATM   22  C6  UNL     1      93.857 102.564 -42.064  1.00  0.00     0.015 C 
HETATM   23  C7  UNL     1      94.966 103.567 -41.825  1.00  0.00     0.071 C 
HETATM   24  C10 UNL     1      93.296 102.980 -40.775  1.00  0.00     0.019 C 
HETATM   25  C8  UNL     1      94.191 104.202 -40.722  1.00  0.00     0.107 C 
HETATM   26  C11 UNL     1      93.564 101.962 -39.683  1.00  0.00     0.023 C 
ATOM     27  H3  UNL     1      94.170 101.660 -43.802  1.00  0.00     0.186 HD
BRANCH  25  28
HETATM   28  C9  UNL     1      94.863 104.295 -39.417  1.00  0.00     0.178 C 
HETATM   29  O2  UNL     1      96.007 103.817 -39.238  1.00  0.00    -0.648 OA
HETATM   30  O3  UNL     1      94.214 104.926 -38.370  1.00  0.00    -0.648 OA
ENDBRANCH  25  28
BRANCH  24  31
HETATM   31  C12 UNL     1      91.827 103.296 -40.838  1.00  0.00     0.101 C 
HETATM   32 BR1  UNL     1      91.009 103.096 -39.089  1.00  0.00    -0.095 Br
ENDBRANCH  24  31
ENDBRANCH   5  21
TORSDOF 6
ENDMDL
MODEL 2
REMARK VINA RESULT: -5.881333686      1.987      2.366
REMARK  6 active torsions:
REMARK  status: ('A' for Active; 'I' for Inactive)
REMARK    1  A    between atoms: C2_2  and  C4_4 
REMARK    2  A    between atoms: C4_4  and  N1_5 
REMARK    3  A    between atoms: C4_4  and  C13_23 
REMARK       I    between atoms: N1_5  and  C5_7 
REMARK       I    between atoms: C5_7  and  N2_9 
REMARK    4  A    between atoms: N2_9  and  N3_11 
REMARK    5  A    between atoms: C8_15  and  C9_16 
REMARK    6  A    between atoms: C10_19  and  C12_21 
REMARK       I    between atoms: C13_23  and  N4_25 
ROOT
HETATM    1  N1  UNL     1      91.185  97.304 -44.528  1.00  0.00    -0.328 N 
ATOM      2  H1  UNL     1      90.820  97.110 -43.595  1.00  0.00     0.165 HD
HETATM    3  C5  UNL     1      91.970  98.448 -44.707  1.00  0.00     0.335 C 
HETATM    4  O1  UNL     1      92.427  98.688 -45.850  1.00  0.00    -0.246 OA
HETATM    5  N2  UNL     1      92.282  99.355 -43.663  1.00  0.00    -0.252 N 
ATOM      6  H2  UNL     1      91.924  99.190 -42.723  1.00  0.00     0.191 HD
ENDROOT
BRANCH   1   7
HETATM    7  C4  UNL     1      90.857  96.363 -45.618  1.00  0.00     0.181 C 
BRANCH   7   8
HETATM    8  C2  UNL     1      90.788  95.025 -44.890  1.00  0.00     0.009 C 
HETATM    9  C1  UNL     1      91.409  95.007 -43.545  1.00  0.00     0.012 C 
HETATM   10  C3  UNL     1      91.232  93.870 -45.731  1.00  0.00     0.012 C 
ENDBRANCH   7   8
BRANCH   7  11
HETATM   11  C13 UNL     1      89.591  96.797 -46.197  1.00  0.00     0.243 C 
HETATM   12  O4  UNL     1      89.302  96.355 -47.360  1.00  0.00    -0.271 OA
HETATM   13  N4  UNL     1      88.627  97.663 -45.608  1.00  0.00    -0.338 N 
HETATM   14  C14 UNL     1      88.502  98.356 -44.329  1.00  0.00     0.173 C 
HETATM   15  C16 UNL     1      87.371  98.181 -46.117  1.00  0.00     0.140 A 
HETATM   16  C15 UNL     1      87.400  99.169 -44.935  1.00  0.00     0.149 A 
HETATM   17  F1  UNL     1      87.547 100.487 -45.211  1.00  0.00    -0.238 F 
HETATM   18  C17 UNL     1      86.186  98.404 -45.303  1.00  0.00     0.016 A 
HETATM   19  C18 UNL     1      85.740  97.398 -44.251  1.00  0.00     0.020 C 
HETATM   20  C19 UNL     1      85.062  99.167 -45.963  1.00  0.00     0.020 C 
ENDBRANCH   7  11
ENDBRANCH   1   7
BRANCH   5  21
HETATM   21  N3  UNL     1      93.072 100.465 -43.915  1.00  0.00    -0.304 N 
HETATM   22  C6  UNL     1      92.728 101.627 -43.523  1.00  0.00     0.015 C 
HETATM   23  C7  UNL     1      93.317 103.019 -43.615  1.00  0.00     0.071 C 
HETATM   24  C10 UNL     1      91.606 102.225 -42.790  1.00  0.00     0.019 C 
HETATM   25  C8  UNL     1      92.022 103.625 -43.196  1.00  0.00     0.107 C 
HETATM   26  C11 UNL     1      91.692 101.955 -41.301  1.00  0.00     0.023 C 
ATOM     27  H3  UNL     1      93.948 100.349 -44.425  1.00  0.00     0.186 HD
BRANCH  25  28
HETATM   28  C9  UNL     1      92.062 104.513 -42.024  1.00  0.00     0.178 C 
HETATM   29  O2  UNL     1      91.032 105.091 -41.608  1.00  0.00    -0.648 OA
HETATM   30  O3  UNL     1      93.267 104.709 -41.371  1.00  0.00    -0.648 OA
ENDBRANCH  25  28
BRANCH  24  31
HETATM   31  C12 UNL     1      90.260 101.807 -43.315  1.00  0.00     0.101 C 
HETATM   32 BR1  UNL     1      89.073 101.335 -41.854  1.00  0.00    -0.095 Br
ENDBRANCH  24  31
ENDBRANCH   5  21
TORSDOF 6
ENDMDL
MODEL 3
REMARK VINA RESULT: -5.774269910      1.672      2.009
REMARK  6 active torsions:
REMARK  status: ('A' for Active; 'I' for Inactive)
REMARK    1  A    between atoms: C2_2  and  C4_4 
REMARK    2  A    between atoms: C4_4  and  N1_5 
REMARK    3  A    between atoms: C4_4  and  C13_23 
REMARK       I    between atoms: N1_5  and  C5_7 
REMARK       I    between atoms: C5_7  and  N2_9 
REMARK    4  A    between atoms: N2_9  and  N3_11 
REMARK    5  A    between atoms: C8_15  and  C9_16 
REMARK    6  A    between atoms: C10_19  and  C12_21 
REMARK       I    between atoms: C13_23  and  N4_25 
ROOT
HETATM    1  N1  UNL     1      90.973  99.607 -43.023  1.00  0.00    -0.328 N 
ATOM      2  H1  UNL     1      90.823  99.475 -42.022  1.00  0.00     0.165 HD
HETATM    3  C5  UNL     1      91.979 100.488 -43.431  1.00  0.00     0.335 C 
HETATM    4  O1  UNL     1      92.172 100.651 -44.660  1.00  0.00    -0.246 OA
HETATM    5  N2  UNL     1      92.800 101.212 -42.530  1.00  0.00    -0.252 N 
ATOM      6  H2  UNL     1      92.667 101.105 -41.524  1.00  0.00     0.191 HD
ENDROOT
BRANCH   1   7
HETATM    7  C4  UNL     1      90.115  98.859 -43.964  1.00  0.00     0.181 C 
BRANCH   7   8
HETATM    8  C2  UNL     1      90.698  97.451 -43.894  1.00  0.00     0.009 C 
HETATM    9  C1  UNL     1      91.226  97.054 -42.568  1.00  0.00     0.012 C 
HETATM   10  C3  UNL     1      91.663  97.154 -44.997  1.00  0.00     0.012 C 
ENDBRANCH   7   8
BRANCH   7  11
HETATM   11  C13 UNL     1      88.744  98.965 -43.479  1.00  0.00     0.243 C 
HETATM   12  O4  UNL     1      88.573  99.526 -42.345  1.00  0.00    -0.271 OA
HETATM   13  N4  UNL     1      87.562  98.515 -44.132  1.00  0.00    -0.338 N 
HETATM   14  C14 UNL     1      87.264  97.878 -45.411  1.00  0.00     0.173 C 
HETATM   15  C16 UNL     1      86.173  98.538 -43.714  1.00  0.00     0.140 A 
HETATM   16  C15 UNL     1      85.897  97.573 -44.882  1.00  0.00     0.149 A 
HETATM   17  F1  UNL     1      85.506  96.310 -44.586  1.00  0.00    -0.238 F 
HETATM   18  C17 UNL     1      85.051  98.758 -44.613  1.00  0.00     0.016 A 
HETATM   19  C18 UNL     1      85.097  99.820 -45.703  1.00  0.00     0.020 C 
HETATM   20  C19 UNL     1      83.678  98.510 -44.032  1.00  0.00     0.020 C 
ENDBRANCH   7  11
ENDBRANCH   1   7
BRANCH   5  21
HETATM   21  N3  UNL     1      93.782 102.064 -43.009  1.00  0.00    -0.304 N 
HETATM   22  C6  UNL     1      94.146 103.092 -42.352  1.00  0.00     0.015 C 
HETATM   23  C7  UNL     1      95.151 104.207 -42.556  1.00  0.00     0.071 C 
HETATM   24  C10 UNL     1      93.800 103.731 -41.078  1.00  0.00     0.019 C 
HETATM   25  C8  UNL     1      94.533 105.002 -41.457  1.00  0.00     0.107 C 
HETATM   26  C11 UNL     1      94.396 102.997 -39.892  1.00  0.00     0.023 C 
ATOM     27  H3  UNL     1      94.223 101.863 -43.906  1.00  0.00     0.186 HD
BRANCH  25  28
HETATM   28  C9  UNL     1      95.430 105.427 -40.371  1.00  0.00     0.178 C 
HETATM   29  O2  UNL     1      95.005 106.088 -39.396  1.00  0.00    -0.648 OA
HETATM   30  O3  UNL     1      96.770 105.085 -40.435  1.00  0.00    -0.648 OA
ENDBRANCH  25  28
BRANCH  24  31
HETATM   31  C12 UNL     1      92.319 103.910 -40.883  1.00  0.00     0.101 C 
HETATM   32 BR1  UNL     1      91.698 102.870 -39.367  1.00  0.00    -0.095 Br
ENDBRANCH  24  31
ENDBRANCH   5  21
TORSDOF 6
ENDMDL
MODEL 4
REMARK VINA RESULT: -5.748686321      1.874      2.228
REMARK  6 active torsions:
REMARK  status: ('A' for Active; 'I' for Inactive)
REMARK    1  A    between atoms: C2_2  and  C4_4 
REMARK    2  A    between atoms: C4_4  and  N1_5 
REMARK    3  A    between atoms: C4_4  and  C13_23 
REMARK       I    between atoms: N1_5  and  C5_7 
REMARK       I    between atoms: C5_7  and  N2_9 
REMARK    4  A    between atoms: N2_9  and  N3_11 
REMARK    5  A    between atoms: C8_15  and  C9_16 
REMARK    6  A    between atoms: C10_19  and  C12_21 
REMARK       I    between atoms: C13_23  and  N4_25 
ROOT
HETATM    1  N1  UNL     1      90.817  99.815 -42.156  1.00  0.00    -0.328 N 
ATOM      2  H1  UNL     1      90.519  99.538 -41.221  1.00  0.00     0.165 HD
HETATM    3  C5  UNL     1      91.919 100.668 -42.274  1.00  0.00     0.335 C 
HETATM    4  O1  UNL     1      92.295 101.008 -43.422  1.00  0.00    -0.246 OA
HETATM    5  N2  UNL     1      92.641 101.173 -41.163  1.00  0.00    -0.252 N 
ATOM      6  H2  UNL     1      92.360 100.919 -40.217  1.00  0.00     0.191 HD
ENDROOT
BRANCH   1   7
HETATM    7  C4  UNL     1      90.063  99.295 -43.315  1.00  0.00     0.181 C 
BRANCH   7   8
HETATM    8  C2  UNL     1      90.534  97.846 -43.392  1.00  0.00     0.009 C 
HETATM    9  C1  UNL     1      91.181  97.329 -42.164  1.00  0.00     0.012 C 
HETATM   10  C3  UNL     1      91.334  97.548 -44.620  1.00  0.00     0.012 C 
ENDBRANCH   7   8
BRANCH   7  11
HETATM   11  C13 UNL     1      88.645  99.450 -43.012  1.00  0.00     0.243 C 
HETATM   12  O4  UNL     1      88.345 100.114 -41.964  1.00  0.00    -0.271 OA
HETATM   13  N4  UNL     1      87.545  98.944 -43.761  1.00  0.00    -0.338 N 
HETATM   14  C14 UNL     1      87.396  98.192 -45.003  1.00  0.00     0.173 C 
HETATM   15  C16 UNL     1      86.115  99.009 -43.520  1.00  0.00     0.140 A 
HETATM   16  C15 UNL     1      85.971  97.941 -44.620  1.00  0.00     0.149 A 
HETATM   17  F1  UNL     1      85.529  96.712 -44.259  1.00  0.00    -0.238 F 
HETATM   18  C17 UNL     1      85.114  99.148 -44.565  1.00  0.00     0.016 A 
HETATM   19  C18 UNL     1      85.307 100.103 -45.735  1.00  0.00     0.020 C 
HETATM   20  C19 UNL     1      83.678  98.958 -44.137  1.00  0.00     0.020 C 
ENDBRANCH   7  11
ENDBRANCH   1   7
BRANCH   5  21
HETATM   21  N3  UNL     1      93.728 102.010 -41.359  1.00  0.00    -0.304 N 
HETATM   22  C6  UNL     1      93.896 103.056 -40.650  1.00  0.00     0.015 C 
HETATM   23  C7  UNL     1      94.926 104.163 -40.583  1.00  0.00     0.071 C 
HETATM   24  C10 UNL     1      93.201 103.729 -39.548  1.00  0.00     0.019 C 
HETATM   25  C8  UNL     1      94.024 104.988 -39.731  1.00  0.00     0.107 C 
HETATM   26  C11 UNL     1      93.421 103.026 -38.223  1.00  0.00     0.023 C 
ATOM     27  H3  UNL     1      94.408 101.784 -42.084  1.00  0.00     0.186 HD
BRANCH  25  28
HETATM   28  C9  UNL     1      94.571 105.441 -38.443  1.00  0.00     0.178 C 
HETATM   29  O2  UNL     1      93.887 106.126 -37.648  1.00  0.00    -0.648 OA
HETATM   30  O3  UNL     1      95.870 105.098 -38.108  1.00  0.00    -0.648 OA
ENDBRANCH  25  28
BRANCH  24  31
HETATM   31  C12 UNL     1      91.729 103.915 -39.796  1.00  0.00     0.101 C 
HETATM   32 BR1  UNL     1      90.736 103.801 -38.133  1.00  0.00    -0.095 Br
ENDBRANCH  24  31
ENDBRANCH   5  21
TORSDOF 6
ENDMDL
MODEL 5
REMARK VINA RESULT: -5.593082112      5.496     10.460
REMARK  6 active torsions:
REMARK  status: ('A' for Active; 'I' for Inactive)
REMARK    1  A    between atoms: C2_2  and  C4_4 
REMARK    2  A    between atoms: C4_4  and  N1_5 
REMARK    3  A    between atoms: C4_4  and  C13_23 
REMARK       I    between atoms: N1_5  and  C5_7 
REMARK       I    between atoms: C5_7  and  N2_9 
REMARK    4  A    between atoms: N2_9  and  N3_11 
REMARK    5  A    between atoms: C8_15  and  C9_16 
REMARK    6  A    between atoms: C10_19  and  C12_21 
REMARK       I    between atoms: C13_23  and  N4_25 
ROOT
HETATM    1  N1  UNL     1      90.397  95.824 -46.340  1.00  0.00    -0.328 N 
ATOM      2  H1  UNL     1      91.090  95.327 -46.901  1.00  0.00     0.165 HD
HETATM    3  C5  UNL     1      89.214  96.237 -46.960  1.00  0.00     0.335 C 
HETATM    4  O1  UNL     1      88.356  96.841 -46.273  1.00  0.00    -0.246 OA
HETATM    5  N2  UNL     1      88.927  96.008 -48.330  1.00  0.00    -0.252 N 
ATOM      6  H2  UNL     1      89.605  95.522 -48.916  1.00  0.00     0.191 HD
ENDROOT
BRANCH   1   7
HETATM    7  C4  UNL     1      90.696  96.068 -44.914  1.00  0.00     0.181 C 
BRANCH   7   8
HETATM    8  C2  UNL     1      91.550  94.859 -44.544  1.00  0.00     0.009 C 
HETATM    9  C1  UNL     1      91.359  93.667 -45.402  1.00  0.00     0.012 C 
HETATM   10  C3  UNL     1      91.497  94.520 -43.088  1.00  0.00     0.012 C 
ENDBRANCH   7   8
BRANCH   7  11
HETATM   11  C13 UNL     1      91.396  97.345 -44.832  1.00  0.00     0.243 C 
HETATM   12  O4  UNL     1      92.269  97.587 -45.731  1.00  0.00    -0.271 OA
HETATM   13  N4  UNL     1      91.214  98.365 -43.856  1.00  0.00    -0.338 N 
HETATM   14  C14 UNL     1      90.336  98.552 -42.705  1.00  0.00     0.173 C 
HETATM   15  C16 UNL     1      91.885  99.638 -43.668  1.00  0.00     0.140 A 
HETATM   16  C15 UNL     1      91.219  99.684 -42.280  1.00  0.00     0.149 A 
HETATM   17  F1  UNL     1      92.017  99.604 -41.189  1.00  0.00    -0.238 F 
HETATM   18  C17 UNL     1      91.230 100.848 -43.197  1.00  0.00     0.016 A 
HETATM   19  C18 UNL     1      89.853 101.259 -43.701  1.00  0.00     0.020 C 
HETATM   20  C19 UNL     1      92.141 101.999 -42.842  1.00  0.00     0.020 C 
ENDBRANCH   7  11
ENDBRANCH   1   7
BRANCH   5  21
HETATM   21  N3  UNL     1      87.729  96.442 -48.874  1.00  0.00    -0.304 N 
HETATM   22  C6  UNL     1      87.266  95.935 -49.947  1.00  0.00     0.015 C 
HETATM   23  C7  UNL     1      86.035  96.151 -50.803  1.00  0.00     0.071 C 
HETATM   24  C10 UNL     1      87.665  94.898 -50.904  1.00  0.00     0.019 C 
HETATM   25  C8  UNL     1      86.637  95.365 -51.916  1.00  0.00     0.107 C 
HETATM   26  C11 UNL     1      87.421  93.502 -50.365  1.00  0.00     0.023 C 
ATOM     27  H3  UNL     1      87.207  97.182 -48.406  1.00  0.00     0.186 HD
BRANCH  25  28
HETATM   28  C9  UNL     1      85.849  94.227 -52.415  1.00  0.00     0.178 C 
HETATM   29  O2  UNL     1      86.254  93.522 -53.369  1.00  0.00    -0.648 OA
HETATM   30  O3  UNL     1      84.636  93.935 -51.815  1.00  0.00    -0.648 OA
ENDBRANCH  25  28
BRANCH  24  31
HETATM   31  C12 UNL     1      89.089  95.031 -51.370  1.00  0.00     0.101 C 
HETATM   32 BR1  UNL     1      89.845  93.288 -51.762  1.00  0.00    -0.095 Br
ENDBRANCH  24  31
ENDBRANCH   5  21
TORSDOF 6
ENDMDL
