MODEL 1
REMARK VINA RESULT: -5.660033087      0.000      0.000
REMARK  9 active torsions:
REMARK  status: ('A' for Active; 'I' for Inactive)
REMARK    1  A    between atoms: N2_4  and  C3_5 
REMARK    2  A    between atoms: C3_5  and  C4_6 
REMARK    3  A    between atoms: C8_11  and  C9_12 
REMARK    4  A    between atoms: C12_17  and  N4_18 
REMARK    5  A    between atoms: N5_21  and  C13_22 
REMARK    6  A    between atoms: C13_22  and  C14_23 
REMARK    7  A    between atoms: C17_26  and  C18_27 
REMARK    8  A    between atoms: C21_30  and  S1_31 
REMARK    9  A    between atoms: S1_31  and  N6_32 
ROOT
HETATM    1  C9  UNL     1      89.091  99.935 -46.835  1.00  0.00     0.080 A 
HETATM    2  C10 UNL     1      89.326 100.263 -48.178  1.00  0.00     0.050 A 
HETATM    3  C11 UNL     1      88.879 101.441 -48.713  1.00  0.00     0.108 A 
HETATM    4  N3  UNL     1      88.206 102.285 -47.921  1.00  0.00    -0.202 N 
ATOM      5  H3  UNL     1      87.870 103.165 -48.309  1.00  0.00     0.183 HD
HETATM    6  C12 UNL     1      87.958 102.005 -46.617  1.00  0.00     0.678 A 
HETATM    7  N5  UNL     1      88.400 100.844 -46.104  1.00  0.00    -0.177 N 
ENDROOT
BRANCH   7   8
HETATM    8  C13 UNL     1      88.052 100.564 -44.743  1.00  0.00     0.186 C 
BRANCH   8   9
HETATM    9  C14 UNL     1      88.988 101.060 -43.716  1.00  0.00    -0.039 A 
HETATM   10  C15 UNL     1      88.599 100.907 -42.389  1.00  0.00     0.010 A 
HETATM   11  C16 UNL     1      89.444 101.321 -41.399  1.00  0.00     0.013 A 
HETATM   12  C17 UNL     1      90.680 101.891 -41.603  1.00  0.00    -0.026 A 
HETATM   13  C24 UNL     1      91.061 102.040 -42.923  1.00  0.00     0.013 A 
HETATM   14  C25 UNL     1      90.213 101.624 -43.942  1.00  0.00     0.010 A 
BRANCH  12  15
HETATM   15  C18 UNL     1      91.528 102.310 -40.492  1.00  0.00    -0.026 A 
HETATM   16  C19 UNL     1      92.874 101.955 -40.438  1.00  0.00     0.014 A 
HETATM   17  C20 UNL     1      93.672 102.352 -39.388  1.00  0.00     0.026 A 
HETATM   18  C21 UNL     1      93.172 103.116 -38.348  1.00  0.00     0.079 A 
HETATM   19  C22 UNL     1      91.845 103.474 -38.389  1.00  0.00     0.026 A 
HETATM   20  C23 UNL     1      91.054 103.071 -39.443  1.00  0.00     0.014 A 
BRANCH  18  21
HETATM   21  S1  UNL     1      94.189 103.616 -37.017  1.00  0.00     0.256 S 
HETATM   22  O1  UNL     1      94.301 102.413 -36.093  1.00  0.00    -0.201 OA
HETATM   23  O2  UNL     1      95.530 104.031 -37.497  1.00  0.00    -0.201 OA
BRANCH  21  24
HETATM   24  N6  UNL     1      93.497 104.887 -36.103  1.00  0.00    -0.324 N 
ATOM     25  H62 UNL     1      93.760 105.082 -35.136  1.00  0.00     0.169 HD
ATOM     26  H61 UNL     1      92.803 105.417 -36.631  1.00  0.00     0.169 HD
ENDBRANCH  21  24
ENDBRANCH  18  21
ENDBRANCH  12  15
ENDBRANCH   8   9
ENDBRANCH   7   8
BRANCH   1  27
HETATM   27  C8  UNL     1      89.657  98.708 -46.292  1.00  0.00     0.064 A 
HETATM   28  N1  UNL     1      88.938  97.589 -46.383  1.00  0.00    -0.345 N 
HETATM   29  C1  UNL     1      87.606  97.514 -46.994  1.00  0.00     0.157 C 
HETATM   30  C2  UNL     1      89.462  96.450 -45.869  1.00  0.00     0.185 A 
HETATM   31  N2  UNL     1      90.666  96.400 -45.278  1.00  0.00    -0.349 N 
HETATM   32  C6  UNL     1      91.413  97.512 -45.172  1.00  0.00     0.094 A 
HETATM   33  C7  UNL     1      90.879  98.676 -45.696  1.00  0.00     0.049 A 
BRANCH  31  34
HETATM   34  C3  UNL     1      91.186  95.142 -44.741  1.00  0.00     0.156 C 
BRANCH  34  35
HETATM   35  C4  UNL     1      91.184  94.095 -45.780  1.00  0.00     0.001 C 
HETATM   36  C5  UNL     1      91.546  92.853 -45.527  1.00  0.00     0.053 C 
HETATM   37 BR1  UNL     1      91.543  91.500 -46.867  1.00  0.00    -0.064 Br
ENDBRANCH  34  35
ENDBRANCH  31  34
ENDBRANCH   1  27
BRANCH   6  38
HETATM   38  N4  UNL     1      87.311 102.905 -45.981  1.00  0.00    -0.234 N 
ATOM     39  H42 UNL     1      86.318 103.113 -46.085  1.00  0.00     0.174 HD
ATOM     40  H41 UNL     1      87.861 103.445 -45.313  1.00  0.00     0.174 HD
ENDBRANCH   6  38
TORSDOF 9
ENDMDL
MODEL 2
REMARK VINA RESULT: -5.622302823      1.895      2.629
REMARK  9 active torsions:
REMARK  status: ('A' for Active; 'I' for Inactive)
REMARK    1  A    between atoms: N2_4  and  C3_5 
REMARK    2  A    between atoms: C3_5  and  C4_6 
REMARK    3  A    between atoms: C8_11  and  C9_12 
REMARK    4  A    between atoms: C12_17  and  N4_18 
REMARK    5  A    between atoms: N5_21  and  C13_22 
REMARK    6  A    between atoms: C13_22  and  C14_23 
REMARK    7  A    between atoms: C17_26  and  C18_27 
REMARK    8  A    between atoms: C21_30  and  S1_31 
REMARK    9  A    between atoms: S1_31  and  N6_32 
ROOT
HETATM    1  C9  UNL     1      88.898  99.062 -44.381  1.00  0.00     0.080 A 
HETATM    2  C10 UNL     1      87.506  99.023 -44.212  1.00  0.00     0.050 A 
HETATM    3  C11 UNL     1      86.751 100.162 -44.266  1.00  0.00     0.108 A 
HETATM    4  N3  UNL     1      87.371 101.328 -44.485  1.00  0.00    -0.202 N 
ATOM      5  H3  UNL     1      86.816 102.183 -44.527  1.00  0.00     0.183 HD
HETATM    6  C12 UNL     1      88.714 101.409 -44.652  1.00  0.00     0.678 A 
HETATM    7  N5  UNL     1      89.446 100.283 -44.596  1.00  0.00    -0.177 N 
ENDROOT
BRANCH   7   8
HETATM    8  C13 UNL     1      90.867 100.429 -44.709  1.00  0.00     0.186 C 
BRANCH   8   9
HETATM    9  C14 UNL     1      91.559 100.991 -43.534  1.00  0.00    -0.039 A 
HETATM   10  C15 UNL     1      92.589 101.891 -43.787  1.00  0.00     0.010 A 
HETATM   11  C16 UNL     1      93.242 102.465 -42.732  1.00  0.00     0.013 A 
HETATM   12  C17 UNL     1      92.963 102.225 -41.406  1.00  0.00    -0.026 A 
HETATM   13  C24 UNL     1      91.938 101.330 -41.162  1.00  0.00     0.013 A 
HETATM   14  C25 UNL     1      91.265 100.738 -42.223  1.00  0.00     0.010 A 
BRANCH  12  15
HETATM   15  C18 UNL     1      93.705 102.877 -40.333  1.00  0.00    -0.026 A 
HETATM   16  C19 UNL     1      93.260 102.827 -39.013  1.00  0.00     0.014 A 
HETATM   17  C20 UNL     1      93.965 103.442 -38.003  1.00  0.00     0.026 A 
HETATM   18  C21 UNL     1      95.136 104.133 -38.253  1.00  0.00     0.079 A 
HETATM   19  C22 UNL     1      95.588 104.190 -39.551  1.00  0.00     0.026 A 
HETATM   20  C23 UNL     1      94.877 103.571 -40.557  1.00  0.00     0.014 A 
BRANCH  18  21
HETATM   21  S1  UNL     1      96.026 104.914 -36.966  1.00  0.00     0.256 S 
HETATM   22  O1  UNL     1      96.898 103.836 -36.339  1.00  0.00    -0.201 OA
HETATM   23  O2  UNL     1      96.862 106.020 -37.492  1.00  0.00    -0.201 OA
BRANCH  21  24
HETATM   24  N6  UNL     1      95.004 105.514 -35.731  1.00  0.00    -0.324 N 
ATOM     25  H62 UNL     1      94.076 105.131 -35.545  1.00  0.00     0.169 HD
ATOM     26  H61 UNL     1      95.426 106.285 -35.214  1.00  0.00     0.169 HD
ENDBRANCH  21  24
ENDBRANCH  18  21
ENDBRANCH  12  15
ENDBRANCH   8   9
ENDBRANCH   7   8
BRANCH   1  27
HETATM   27  C8  UNL     1      89.648  97.814 -44.397  1.00  0.00     0.064 A 
HETATM   28  N1  UNL     1      89.601  97.063 -45.498  1.00  0.00    -0.345 N 
HETATM   29  C1  UNL     1      88.836  97.414 -46.700  1.00  0.00     0.157 C 
HETATM   30  C2  UNL     1      90.292  95.898 -45.508  1.00  0.00     0.185 A 
HETATM   31  N2  UNL     1      91.018  95.469 -44.463  1.00  0.00    -0.349 N 
HETATM   32  C6  UNL     1      91.084  96.205 -43.339  1.00  0.00     0.094 A 
HETATM   33  C7  UNL     1      90.379  97.395 -43.329  1.00  0.00     0.049 A 
BRANCH  31  34
HETATM   34  C3  UNL     1      91.748  94.202 -44.526  1.00  0.00     0.156 C 
BRANCH  34  35
HETATM   35  C4  UNL     1      91.501  93.527 -45.813  1.00  0.00     0.001 C 
HETATM   36  C5  UNL     1      91.570  92.217 -45.944  1.00  0.00     0.053 C 
HETATM   37 BR1  UNL     1      91.250  91.342 -47.605  1.00  0.00    -0.064 Br
ENDBRANCH  34  35
ENDBRANCH  31  34
ENDBRANCH   1  27
BRANCH   6  38
HETATM   38  N4  UNL     1      89.167 102.586 -44.860  1.00  0.00    -0.234 N 
ATOM     39  H42 UNL     1      88.764 103.279 -45.491  1.00  0.00     0.174 HD
ATOM     40  H41 UNL     1      90.004 102.829 -44.331  1.00  0.00     0.174 HD
ENDBRANCH   6  38
TORSDOF 9
ENDMDL
MODEL 3
REMARK VINA RESULT: -5.596347281      3.434      5.075
REMARK  9 active torsions:
REMARK  status: ('A' for Active; 'I' for Inactive)
REMARK    1  A    between atoms: N2_4  and  C3_5 
REMARK    2  A    between atoms: C3_5  and  C4_6 
REMARK    3  A    between atoms: C8_11  and  C9_12 
REMARK    4  A    between atoms: C12_17  and  N4_18 
REMARK    5  A    between atoms: N5_21  and  C13_22 
REMARK    6  A    between atoms: C13_22  and  C14_23 
REMARK    7  A    between atoms: C17_26  and  C18_27 
REMARK    8  A    between atoms: C21_30  and  S1_31 
REMARK    9  A    between atoms: S1_31  and  N6_32 
ROOT
HETATM    1  C9  UNL     1      84.946  99.478 -45.794  1.00  0.00     0.080 A 
HETATM    2  C10 UNL     1      83.665 100.037 -45.911  1.00  0.00     0.050 A 
HETATM    3  C11 UNL     1      82.661  99.706 -45.042  1.00  0.00     0.108 A 
HETATM    4  N3  UNL     1      82.927  98.828 -44.066  1.00  0.00    -0.202 N 
ATOM      5  H3  UNL     1      82.186  98.575 -43.413  1.00  0.00     0.183 HD
HETATM    6  C12 UNL     1      84.152  98.264 -43.920  1.00  0.00     0.678 A 
HETATM    7  N5  UNL     1      85.129  98.596 -44.781  1.00  0.00    -0.177 N 
ENDROOT
BRANCH   7   8
HETATM    8  C13 UNL     1      86.384  97.921 -44.627  1.00  0.00     0.186 C 
BRANCH   8   9
HETATM    9  C14 UNL     1      87.470  98.700 -44.003  1.00  0.00    -0.039 A 
HETATM   10  C15 UNL     1      88.730  98.588 -44.580  1.00  0.00     0.010 A 
HETATM   11  C16 UNL     1      89.764  99.313 -44.058  1.00  0.00     0.013 A 
HETATM   12  C17 UNL     1      89.667 100.168 -42.984  1.00  0.00    -0.026 A 
HETATM   13  C24 UNL     1      88.411 100.275 -42.415  1.00  0.00     0.013 A 
HETATM   14  C25 UNL     1      87.350  99.544 -42.933  1.00  0.00     0.010 A 
BRANCH  12  15
HETATM   15  C18 UNL     1      90.819 100.910 -42.483  1.00  0.00    -0.026 A 
HETATM   16  C19 UNL     1      91.838 101.323 -43.338  1.00  0.00     0.014 A 
HETATM   17  C20 UNL     1      92.924 102.024 -42.862  1.00  0.00     0.026 A 
HETATM   18  C21 UNL     1      93.048 102.344 -41.522  1.00  0.00     0.079 A 
HETATM   19  C22 UNL     1      92.048 101.944 -40.667  1.00  0.00     0.026 A 
HETATM   20  C23 UNL     1      90.965 101.242 -41.151  1.00  0.00     0.014 A 
BRANCH  18  21
HETATM   21  S1  UNL     1      94.429 103.233 -40.922  1.00  0.00     0.256 S 
HETATM   22  O1  UNL     1      93.884 104.543 -40.373  1.00  0.00    -0.201 OA
HETATM   23  O2  UNL     1      95.131 102.473 -39.859  1.00  0.00    -0.201 OA
BRANCH  21  24
HETATM   24  N6  UNL     1      95.541 103.632 -42.160  1.00  0.00    -0.324 N 
ATOM     25  H62 UNL     1      96.457 103.190 -42.246  1.00  0.00     0.169 HD
ATOM     26  H61 UNL     1      95.186 104.352 -42.790  1.00  0.00     0.169 HD
ENDBRANCH  21  24
ENDBRANCH  18  21
ENDBRANCH  12  15
ENDBRANCH   8   9
ENDBRANCH   7   8
BRANCH   1  27
HETATM   27  C8  UNL     1      86.001  99.923 -46.692  1.00  0.00     0.064 A 
HETATM   28  N1  UNL     1      86.274  99.177 -47.763  1.00  0.00    -0.345 N 
HETATM   29  C1  UNL     1      85.578  97.929 -48.095  1.00  0.00     0.157 C 
HETATM   30  C2  UNL     1      87.263  99.588 -48.594  1.00  0.00     0.185 A 
HETATM   31  N2  UNL     1      87.975 100.708 -48.386  1.00  0.00    -0.349 N 
HETATM   32  C6  UNL     1      87.723 101.480 -47.315  1.00  0.00     0.094 A 
HETATM   33  C7  UNL     1      86.713 101.061 -46.467  1.00  0.00     0.049 A 
BRANCH  31  34
HETATM   34  C3  UNL     1      89.032 101.108 -49.316  1.00  0.00     0.156 C 
BRANCH  34  35
HETATM   35  C4  UNL     1      90.280 101.399 -48.586  1.00  0.00     0.001 C 
HETATM   36  C5  UNL     1      91.012 100.449 -48.039  1.00  0.00     0.053 C 
HETATM   37 BR1  UNL     1      92.625 100.823 -47.097  1.00  0.00    -0.064 Br
ENDBRANCH  34  35
ENDBRANCH  31  34
ENDBRANCH   1  27
BRANCH   6  38
HETATM   38  N4  UNL     1      84.263  97.449 -42.941  1.00  0.00    -0.234 N 
ATOM     39  H42 UNL     1      83.664  96.643 -42.765  1.00  0.00     0.174 HD
ATOM     40  H41 UNL     1      85.029  97.645 -42.298  1.00  0.00     0.174 HD
ENDBRANCH   6  38
TORSDOF 9
ENDMDL
MODEL 4
REMARK VINA RESULT: -5.574273233      3.409      5.214
REMARK  9 active torsions:
REMARK  status: ('A' for Active; 'I' for Inactive)
REMARK    1  A    between atoms: N2_4  and  C3_5 
REMARK    2  A    between atoms: C3_5  and  C4_6 
REMARK    3  A    between atoms: C8_11  and  C9_12 
REMARK    4  A    between atoms: C12_17  and  N4_18 
REMARK    5  A    between atoms: N5_21  and  C13_22 
REMARK    6  A    between atoms: C13_22  and  C14_23 
REMARK    7  A    between atoms: C17_26  and  C18_27 
REMARK    8  A    between atoms: C21_30  and  S1_31 
REMARK    9  A    between atoms: S1_31  and  N6_32 
ROOT
HETATM    1  C9  UNL     1      84.966  99.430 -45.834  1.00  0.00     0.080 A 
HETATM    2  C10 UNL     1      83.686  99.993 -45.951  1.00  0.00     0.050 A 
HETATM    3  C11 UNL     1      82.689  99.685 -45.067  1.00  0.00     0.108 A 
HETATM    4  N3  UNL     1      82.959  98.827 -44.075  1.00  0.00    -0.202 N 
ATOM      5  H3  UNL     1      82.222  98.592 -43.410  1.00  0.00     0.183 HD
HETATM    6  C12 UNL     1      84.183  98.260 -43.927  1.00  0.00     0.678 A 
HETATM    7  N5  UNL     1      85.154  98.569 -44.804  1.00  0.00    -0.177 N 
ENDROOT
BRANCH   7   8
HETATM    8  C13 UNL     1      86.406  97.892 -44.646  1.00  0.00     0.186 C 
BRANCH   8   9
HETATM    9  C14 UNL     1      87.493  98.669 -44.022  1.00  0.00    -0.039 A 
HETATM   10  C15 UNL     1      88.725  98.651 -44.667  1.00  0.00     0.010 A 
HETATM   11  C16 UNL     1      89.756  99.380 -44.146  1.00  0.00     0.013 A 
HETATM   12  C17 UNL     1      89.683 100.152 -43.009  1.00  0.00    -0.026 A 
HETATM   13  C24 UNL     1      88.456 100.166 -42.372  1.00  0.00     0.013 A 
HETATM   14  C25 UNL     1      87.397  99.429 -42.889  1.00  0.00     0.010 A 
BRANCH  12  15
HETATM   15  C18 UNL     1      90.830 100.904 -42.513  1.00  0.00    -0.026 A 
HETATM   16  C19 UNL     1      90.942 101.245 -41.166  1.00  0.00     0.014 A 
HETATM   17  C20 UNL     1      92.027 101.953 -40.701  1.00  0.00     0.026 A 
HETATM   18  C21 UNL     1      93.045 102.356 -41.546  1.00  0.00     0.079 A 
HETATM   19  C22 UNL     1      92.949 102.026 -42.878  1.00  0.00     0.026 A 
HETATM   20  C23 UNL     1      91.859 101.316 -43.335  1.00  0.00     0.014 A 
BRANCH  18  21
HETATM   21  S1  UNL     1      94.420 103.257 -40.951  1.00  0.00     0.256 S 
HETATM   22  O1  UNL     1      93.871 104.580 -40.440  1.00  0.00    -0.201 OA
HETATM   23  O2  UNL     1      95.107 102.522 -39.860  1.00  0.00    -0.201 OA
BRANCH  21  24
HETATM   24  N6  UNL     1      95.549 103.625 -42.184  1.00  0.00    -0.324 N 
ATOM     25  H62 UNL     1      95.401 103.376 -43.163  1.00  0.00     0.169 HD
ATOM     26  H61 UNL     1      96.372 104.113 -41.830  1.00  0.00     0.169 HD
ENDBRANCH  21  24
ENDBRANCH  18  21
ENDBRANCH  12  15
ENDBRANCH   8   9
ENDBRANCH   7   8
BRANCH   1  27
HETATM   27  C8  UNL     1      86.015  99.851 -46.751  1.00  0.00     0.064 A 
HETATM   28  N1  UNL     1      86.628 101.012 -46.517  1.00  0.00    -0.345 N 
HETATM   29  C1  UNL     1      86.311 101.898 -45.391  1.00  0.00     0.157 C 
HETATM   30  C2  UNL     1      87.599 101.407 -47.377  1.00  0.00     0.185 A 
HETATM   31  N2  UNL     1      87.967 100.683 -48.447  1.00  0.00    -0.349 N 
HETATM   32  C6  UNL     1      87.366  99.510 -48.708  1.00  0.00     0.094 A 
HETATM   33  C7  UNL     1      86.375  99.106 -47.831  1.00  0.00     0.049 A 
BRANCH  31  34
HETATM   34  C3  UNL     1      89.023 101.155 -49.343  1.00  0.00     0.156 C 
BRANCH  34  35
HETATM   35  C4  UNL     1      90.258 101.434 -48.587  1.00  0.00     0.001 C 
HETATM   36  C5  UNL     1      91.016 100.471 -48.102  1.00  0.00     0.053 C 
HETATM   37 BR1  UNL     1      92.613 100.829 -47.126  1.00  0.00    -0.064 Br
ENDBRANCH  34  35
ENDBRANCH  31  34
ENDBRANCH   1  27
BRANCH   6  38
HETATM   38  N4  UNL     1      84.298  97.466 -42.932  1.00  0.00    -0.234 N 
ATOM     39  H42 UNL     1      85.148  97.306 -42.391  1.00  0.00     0.174 HD
ATOM     40  H41 UNL     1      83.447  96.966 -42.676  1.00  0.00     0.174 HD
ENDBRANCH   6  38
TORSDOF 9
ENDMDL
MODEL 5
REMARK VINA RESULT: -5.563464360      2.164      2.959
REMARK  9 active torsions:
REMARK  status: ('A' for Active; 'I' for Inactive)
REMARK    1  A    between atoms: N2_4  and  C3_5 
REMARK    2  A    between atoms: C3_5  and  C4_6 
REMARK    3  A    between atoms: C8_11  and  C9_12 
REMARK    4  A    between atoms: C12_17  and  N4_18 
REMARK    5  A    between atoms: N5_21  and  C13_22 
REMARK    6  A    between atoms: C13_22  and  C14_23 
REMARK    7  A    between atoms: C17_26  and  C18_27 
REMARK    8  A    between atoms: C21_30  and  S1_31 
REMARK    9  A    between atoms: S1_31  and  N6_32 
ROOT
HETATM    1  C9  UNL     1      88.156  98.821 -44.819  1.00  0.00     0.080 A 
HETATM    2  C10 UNL     1      86.849  98.570 -44.377  1.00  0.00     0.050 A 
HETATM    3  C11 UNL     1      85.889  99.545 -44.402  1.00  0.00     0.108 A 
HETATM    4  N3  UNL     1      86.225 100.757 -44.860  1.00  0.00    -0.202 N 
ATOM      5  H3  UNL     1      85.516 101.491 -44.884  1.00  0.00     0.183 HD
HETATM    6  C12 UNL     1      87.478 101.041 -45.295  1.00  0.00     0.678 A 
HETATM    7  N5  UNL     1      88.412 100.075 -45.264  1.00  0.00    -0.177 N 
ENDROOT
BRANCH   7   8
HETATM    8  C13 UNL     1      89.736 100.444 -45.668  1.00  0.00     0.186 C 
BRANCH   8   9
HETATM    9  C14 UNL     1      90.615 100.979 -44.611  1.00  0.00    -0.039 A 
HETATM   10  C15 UNL     1      91.827 101.523 -45.021  1.00  0.00     0.010 A 
HETATM   11  C16 UNL     1      92.663 102.061 -44.084  1.00  0.00     0.013 A 
HETATM   12  C17 UNL     1      92.405 102.114 -42.733  1.00  0.00    -0.026 A 
HETATM   13  C24 UNL     1      91.198 101.572 -42.332  1.00  0.00     0.013 A 
HETATM   14  C25 UNL     1      90.337 101.021 -43.272  1.00  0.00     0.010 A 
BRANCH  12  15
HETATM   15  C18 UNL     1      93.349 102.706 -41.791  1.00  0.00    -0.026 A 
HETATM   16  C19 UNL     1      93.214 102.515 -40.418  1.00  0.00     0.014 A 
HETATM   17  C20 UNL     1      94.108 103.073 -39.532  1.00  0.00     0.026 A 
HETATM   18  C21 UNL     1      95.171 103.844 -39.966  1.00  0.00     0.079 A 
HETATM   19  C22 UNL     1      95.318 104.041 -41.319  1.00  0.00     0.026 A 
HETATM   20  C23 UNL     1      94.418 103.478 -42.199  1.00  0.00     0.014 A 
BRANCH  18  21
HETATM   21  S1  UNL     1      96.303 104.553 -38.836  1.00  0.00     0.256 S 
HETATM   22  O1  UNL     1      96.159 106.060 -38.982  1.00  0.00    -0.201 OA
HETATM   23  O2  UNL     1      96.001 104.133 -37.445  1.00  0.00    -0.201 OA
BRANCH  21  24
HETATM   24  N6  UNL     1      97.929 104.166 -39.205  1.00  0.00    -0.324 N 
ATOM     25  H62 UNL     1      98.189 103.380 -39.801  1.00  0.00     0.169 HD
ATOM     26  H61 UNL     1      98.593 104.803 -38.765  1.00  0.00     0.169 HD
ENDBRANCH  21  24
ENDBRANCH  18  21
ENDBRANCH  12  15
ENDBRANCH   8   9
ENDBRANCH   7   8
BRANCH   1  27
HETATM   27  C8  UNL     1      89.119  97.729 -44.848  1.00  0.00     0.064 A 
HETATM   28  N1  UNL     1      89.117  96.915 -45.904  1.00  0.00    -0.345 N 
HETATM   29  C1  UNL     1      88.201  97.047 -47.043  1.00  0.00     0.157 C 
HETATM   30  C2  UNL     1      90.008  95.894 -45.926  1.00  0.00     0.185 A 
HETATM   31  N2  UNL     1      90.887  95.669 -44.937  1.00  0.00    -0.349 N 
HETATM   32  C6  UNL     1      90.912  96.472 -43.859  1.00  0.00     0.094 A 
HETATM   33  C7  UNL     1      90.003  97.515 -43.836  1.00  0.00     0.049 A 
BRANCH  31  34
HETATM   34  C3  UNL     1      91.829  94.552 -45.011  1.00  0.00     0.156 C 
BRANCH  34  35
HETATM   35  C4  UNL     1      91.727  93.707 -43.806  1.00  0.00     0.001 C 
HETATM   36  C5  UNL     1      92.756  93.488 -43.012  1.00  0.00     0.053 C 
HETATM   37 BR1  UNL     1      92.626  92.399 -41.455  1.00  0.00    -0.064 Br
ENDBRANCH  34  35
ENDBRANCH  31  34
ENDBRANCH   1  27
BRANCH   6  38
HETATM   38  N4  UNL     1      87.652 102.237 -45.711  1.00  0.00    -0.234 N 
ATOM     39  H42 UNL     1      88.546 102.726 -45.768  1.00  0.00     0.174 HD
ATOM     40  H41 UNL     1      86.805 102.720 -46.011  1.00  0.00     0.174 HD
ENDBRANCH   6  38
TORSDOF 9
ENDMDL
