MODEL 1
REMARK VINA RESULT: -6.313704088      0.000      0.000
REMARK  11 active torsions:
REMARK  status: ('A' for Active; 'I' for Inactive)
REMARK    1  A    between atoms: C5_5  and  C6_6 
REMARK    2  A    between atoms: C6_6  and  C7_7 
REMARK    3  A    between atoms: C7_7  and  C8_8 
REMARK    4  A    between atoms: C8_8  and  C9_9 
REMARK    5  A    between atoms: C9_9  and  C10_10 
REMARK    6  A    between atoms: C13_13  and  C14_14 
REMARK    7  A    between atoms: C22_25  and  C23_26 
REMARK    8  A    between atoms: C23_26  and  C24_27 
REMARK    9  A    between atoms: C24_27  and  C25_29 
REMARK   10  A    between atoms: C26_32  and  C27_33 
REMARK   11  A    between atoms: C30_36  and  C31_37 
ROOT
HETATM    1  C10 UNL     1      91.948 101.462 -43.316  1.00  0.00    -0.026 A 
HETATM    2  C11 UNL     1      92.546 100.643 -44.281  1.00  0.00     0.013 A 
HETATM    3  C12 UNL     1      92.199  99.339 -44.449  1.00  0.00     0.015 A 
HETATM    4  C13 UNL     1      91.183  98.707 -43.659  1.00  0.00     0.003 A 
HETATM    5  C22 UNL     1      90.594  99.527 -42.750  1.00  0.00    -0.006 A 
HETATM    6  C26 UNL     1      90.943 100.875 -42.519  1.00  0.00     0.012 A 
ENDROOT
BRANCH   1   7
HETATM    7  C9  UNL     1      92.417 102.682 -43.205  1.00  0.00    -0.014 C 
BRANCH   7   8
HETATM    8  C8  UNL     1      92.777 103.419 -44.490  1.00  0.00     0.032 C 
BRANCH   8   9
HETATM    9  C7  UNL     1      91.686 104.427 -44.786  1.00  0.00     0.033 C 
BRANCH   9  10
HETATM   10  C6  UNL     1      91.109 104.099 -46.104  1.00  0.00     0.003 C 
BRANCH  10  11
HETATM   11  C5  UNL     1      90.425 102.981 -46.238  1.00  0.00     0.028 A 
HETATM   12  C4  UNL     1      89.270 102.627 -45.580  1.00  0.00     0.031 A 
HETATM   13  C3  UNL     1      88.882 101.378 -46.010  1.00  0.00     0.031 A 
HETATM   14  C2  UNL     1      89.795 100.962 -46.930  1.00  0.00     0.023 A 
HETATM   15  C1  UNL     1      89.774  99.796 -47.583  1.00  0.00     0.043 C 
HETATM   16  N3  UNL     1      90.721 101.934 -47.061  1.00  0.00    -0.357 N 
ATOM     17  H3  UNL     1      91.526 101.893 -47.685  1.00  0.00     0.166 HD
ENDBRANCH  10  11
ENDBRANCH   9  10
ENDBRANCH   8   9
ENDBRANCH   7   8
ENDBRANCH   1   7
BRANCH   6  18
HETATM   18  C27 UNL     1      90.370 101.573 -41.587  1.00  0.00     0.044 A 
HETATM   19  C28 UNL     1      89.617 102.665 -41.426  1.00  0.00     0.033 A 
HETATM   20  C29 UNL     1      89.825 103.398 -40.303  1.00  0.00     0.032 A 
HETATM   21  C30 UNL     1      90.818 102.712 -39.656  1.00  0.00     0.043 A 
HETATM   22  N2  UNL     1      91.152 101.646 -40.382  1.00  0.00    -0.355 N 
ATOM     23  H2  UNL     1      91.868 100.971 -40.117  1.00  0.00     0.166 HD
BRANCH  21  24
HETATM   24  C31 UNL     1      91.354 103.067 -38.485  1.00  0.00     0.114 C 
HETATM   25 CL1  UNL     1      90.328 103.481 -37.145  1.00  0.00    -0.095 Cl
ENDBRANCH  21  24
ENDBRANCH   6  18
BRANCH   5  26
HETATM   26  C23 UNL     1      89.221  99.334 -42.719  1.00  0.00     0.075 C 
BRANCH  26  27
HETATM   27  C24 UNL     1      87.946  99.619 -43.145  1.00  0.00     0.248 C 
HETATM   28  O2  UNL     1      87.177 100.556 -42.974  1.00  0.00    -0.281 OA
BRANCH  27  29
HETATM   29  C25 UNL     1      87.279  98.572 -44.041  1.00  0.00     0.251 C 
HETATM   30  O3  UNL     1      87.869  98.085 -45.004  1.00  0.00    -0.642 OA
HETATM   31  O4  UNL     1      86.008  98.210 -43.719  1.00  0.00    -0.642 OA
ENDBRANCH  27  29
ENDBRANCH  26  27
ENDBRANCH   5  26
BRANCH   4  32
HETATM   32  C14 UNL     1      90.930  97.471 -43.965  1.00  0.00     0.057 A 
HETATM   33  N1  UNL     1      90.773  96.971 -45.329  1.00  0.00    -0.321 N 
HETATM   34  C15 UNL     1      90.869  95.595 -45.359  1.00  0.00     0.257 A 
ATOM     35  H1  UNL     1      90.612  97.559 -46.146  1.00  0.00     0.169 HD
HETATM   36  O1  UNL     1      90.767  94.895 -46.409  1.00  0.00    -0.267 OA
HETATM   37  C16 UNL     1      91.102  95.144 -44.012  1.00  0.00     0.044 A 
HETATM   38  C17 UNL     1      91.345  93.837 -43.562  1.00  0.00     0.018 A 
HETATM   39  C21 UNL     1      91.149  96.231 -43.155  1.00  0.00     0.007 A 
HETATM   40  C18 UNL     1      91.649  93.606 -42.248  1.00  0.00     0.001 A 
HETATM   41  C19 UNL     1      91.705  94.699 -41.402  1.00  0.00     0.001 A 
HETATM   42  C20 UNL     1      91.466  95.972 -41.830  1.00  0.00     0.015 A 
ENDBRANCH   4  32
TORSDOF 11
ENDMDL
MODEL 2
REMARK VINA RESULT: -6.202958997      0.682      1.158
REMARK  11 active torsions:
REMARK  status: ('A' for Active; 'I' for Inactive)
REMARK    1  A    between atoms: C5_5  and  C6_6 
REMARK    2  A    between atoms: C6_6  and  C7_7 
REMARK    3  A    between atoms: C7_7  and  C8_8 
REMARK    4  A    between atoms: C8_8  and  C9_9 
REMARK    5  A    between atoms: C9_9  and  C10_10 
REMARK    6  A    between atoms: C13_13  and  C14_14 
REMARK    7  A    between atoms: C22_25  and  C23_26 
REMARK    8  A    between atoms: C23_26  and  C24_27 
REMARK    9  A    between atoms: C24_27  and  C25_29 
REMARK   10  A    between atoms: C26_32  and  C27_33 
REMARK   11  A    between atoms: C30_36  and  C31_37 
ROOT
HETATM    1  C10 UNL     1      91.965 101.471 -43.319  1.00  0.00    -0.026 A 
HETATM    2  C11 UNL     1      92.575 100.647 -44.272  1.00  0.00     0.013 A 
HETATM    3  C12 UNL     1      92.229  99.342 -44.438  1.00  0.00     0.015 A 
HETATM    4  C13 UNL     1      91.205  98.714 -43.658  1.00  0.00     0.003 A 
HETATM    5  C22 UNL     1      90.605  99.539 -42.759  1.00  0.00    -0.006 A 
HETATM    6  C26 UNL     1      90.951 100.888 -42.531  1.00  0.00     0.012 A 
ENDROOT
BRANCH   1   7
HETATM    7  C9  UNL     1      92.433 102.691 -43.207  1.00  0.00    -0.014 C 
BRANCH   7   8
HETATM    8  C8  UNL     1      92.404 103.574 -44.450  1.00  0.00     0.032 C 
BRANCH   8   9
HETATM    9  C7  UNL     1      90.970 103.976 -44.720  1.00  0.00     0.033 C 
BRANCH   9  10
HETATM   10  C6  UNL     1      90.704 103.781 -46.158  1.00  0.00     0.003 C 
BRANCH  10  11
HETATM   11  C5  UNL     1      90.559 102.554 -46.617  1.00  0.00     0.028 A 
HETATM   12  C4  UNL     1      91.345 101.915 -47.547  1.00  0.00     0.031 A 
HETATM   13  C3  UNL     1      90.850 100.646 -47.745  1.00  0.00     0.031 A 
HETATM   14  C2  UNL     1      89.761 100.502 -46.939  1.00  0.00     0.023 A 
HETATM   15  C1  UNL     1      88.998  99.410 -46.841  1.00  0.00     0.043 C 
HETATM   16  N3  UNL     1      89.594 101.658 -46.263  1.00  0.00    -0.357 N 
ATOM     17  H3  UNL     1      88.853 101.835 -45.586  1.00  0.00     0.166 HD
ENDBRANCH  10  11
ENDBRANCH   9  10
ENDBRANCH   8   9
ENDBRANCH   7   8
ENDBRANCH   1   7
BRANCH   6  18
HETATM   18  C27 UNL     1      90.367 101.590 -41.609  1.00  0.00     0.044 A 
HETATM   19  C28 UNL     1      89.631 102.695 -41.459  1.00  0.00     0.033 A 
HETATM   20  C29 UNL     1      89.823 103.416 -40.326  1.00  0.00     0.032 A 
HETATM   21  C30 UNL     1      90.786 102.708 -39.658  1.00  0.00     0.043 A 
HETATM   22  N2  UNL     1      91.119 101.641 -40.383  1.00  0.00    -0.355 N 
ATOM     23  H2  UNL     1      91.815 100.950 -40.105  1.00  0.00     0.166 HD
BRANCH  21  24
HETATM   24  C31 UNL     1      91.298 103.045 -38.472  1.00  0.00     0.114 C 
HETATM   25 CL1  UNL     1      90.250 103.548 -37.181  1.00  0.00    -0.095 Cl
ENDBRANCH  21  24
ENDBRANCH   6  18
BRANCH   5  26
HETATM   26  C23 UNL     1      89.231  99.346 -42.743  1.00  0.00     0.075 C 
BRANCH  26  27
HETATM   27  C24 UNL     1      88.000  99.341 -43.354  1.00  0.00     0.248 C 
HETATM   28  O2  UNL     1      87.303  98.476 -43.866  1.00  0.00    -0.281 OA
BRANCH  27  29
HETATM   29  C25 UNL     1      87.283 100.690 -43.446  1.00  0.00     0.251 C 
HETATM   30  O3  UNL     1      87.673 101.570 -44.213  1.00  0.00    -0.642 OA
HETATM   31  O4  UNL     1      86.200 100.866 -42.643  1.00  0.00    -0.642 OA
ENDBRANCH  27  29
ENDBRANCH  26  27
ENDBRANCH   5  26
BRANCH   4  32
HETATM   32  C14 UNL     1      90.955  97.476 -43.960  1.00  0.00     0.057 A 
HETATM   33  N1  UNL     1      90.835  96.966 -45.324  1.00  0.00    -0.321 N 
HETATM   34  C15 UNL     1      90.927  95.589 -45.340  1.00  0.00     0.257 A 
ATOM     35  H1  UNL     1      90.702  97.548 -46.151  1.00  0.00     0.169 HD
HETATM   36  O1  UNL     1      90.852  94.881 -46.387  1.00  0.00    -0.267 OA
HETATM   37  C16 UNL     1      91.118  95.149 -43.983  1.00  0.00     0.044 A 
HETATM   38  C17 UNL     1      91.342  93.844 -43.516  1.00  0.00     0.018 A 
HETATM   39  C21 UNL     1      91.144  96.242 -43.134  1.00  0.00     0.007 A 
HETATM   40  C18 UNL     1      91.606  93.623 -42.191  1.00  0.00     0.001 A 
HETATM   41  C19 UNL     1      91.642  94.723 -41.353  1.00  0.00     0.001 A 
HETATM   42  C20 UNL     1      91.422  95.993 -41.799  1.00  0.00     0.015 A 
ENDBRANCH   4  32
TORSDOF 11
ENDMDL
MODEL 3
REMARK VINA RESULT: -6.194725422      3.616      5.690
REMARK  11 active torsions:
REMARK  status: ('A' for Active; 'I' for Inactive)
REMARK    1  A    between atoms: C5_5  and  C6_6 
REMARK    2  A    between atoms: C6_6  and  C7_7 
REMARK    3  A    between atoms: C7_7  and  C8_8 
REMARK    4  A    between atoms: C8_8  and  C9_9 
REMARK    5  A    between atoms: C9_9  and  C10_10 
REMARK    6  A    between atoms: C13_13  and  C14_14 
REMARK    7  A    between atoms: C22_25  and  C23_26 
REMARK    8  A    between atoms: C23_26  and  C24_27 
REMARK    9  A    between atoms: C24_27  and  C25_29 
REMARK   10  A    between atoms: C26_32  and  C27_33 
REMARK   11  A    between atoms: C30_36  and  C31_37 
ROOT
HETATM    1  C10 UNL     1      87.701 100.957 -44.012  1.00  0.00    -0.026 A 
HETATM    2  C11 UNL     1      87.804 100.276 -42.793  1.00  0.00     0.013 A 
HETATM    3  C12 UNL     1      88.695  99.267 -42.592  1.00  0.00     0.015 A 
HETATM    4  C13 UNL     1      89.605  98.833 -43.611  1.00  0.00     0.003 A 
HETATM    5  C22 UNL     1      89.510  99.527 -44.775  1.00  0.00    -0.006 A 
HETATM    6  C26 UNL     1      88.582 100.557 -45.038  1.00  0.00     0.012 A 
ENDROOT
BRANCH   1   7
HETATM    7  C9  UNL     1      86.757 101.862 -44.103  1.00  0.00    -0.014 C 
BRANCH   7   8
HETATM    8  C8  UNL     1      85.316 101.398 -43.928  1.00  0.00     0.032 C 
BRANCH   8   9
HETATM    9  C7  UNL     1      84.751 101.063 -45.292  1.00  0.00     0.033 C 
BRANCH   9  10
HETATM   10  C6  UNL     1      84.386  99.633 -45.296  1.00  0.00     0.003 C 
BRANCH  10  11
HETATM   11  C5  UNL     1      85.321  98.739 -45.546  1.00  0.00     0.028 A 
HETATM   12  C4  UNL     1      85.820  97.792 -44.681  1.00  0.00     0.031 A 
HETATM   13  C3  UNL     1      86.783  97.060 -45.338  1.00  0.00     0.031 A 
HETATM   14  C2  UNL     1      86.878  97.553 -46.603  1.00  0.00     0.023 A 
HETATM   15  C1  UNL     1      87.703  97.110 -47.557  1.00  0.00     0.043 C 
HETATM   16  N3  UNL     1      85.993  98.564 -46.719  1.00  0.00    -0.357 N 
ATOM     17  H3  UNL     1      85.848  99.119 -47.563  1.00  0.00     0.166 HD
ENDBRANCH  10  11
ENDBRANCH   9  10
ENDBRANCH   8   9
ENDBRANCH   7   8
ENDBRANCH   1   7
BRANCH   6  18
HETATM   18  C27 UNL     1      88.516 101.128 -46.202  1.00  0.00     0.044 A 
HETATM   19  C28 UNL     1      88.497 100.827 -47.504  1.00  0.00     0.033 A 
HETATM   20  C29 UNL     1      89.106 101.697 -48.348  1.00  0.00     0.032 A 
HETATM   21  C30 UNL     1      89.572 102.676 -47.512  1.00  0.00     0.043 A 
HETATM   22  N2  UNL     1      89.241 102.369 -46.259  1.00  0.00    -0.355 N 
ATOM     23  H2  UNL     1      89.472 102.940 -45.446  1.00  0.00     0.166 HD
BRANCH  21  24
HETATM   24  C31 UNL     1      90.248 103.759 -47.905  1.00  0.00     0.114 C 
HETATM   25 CL1  UNL     1      91.448 103.632 -49.156  1.00  0.00    -0.095 Cl
ENDBRANCH  21  24
ENDBRANCH   6  18
BRANCH   5  26
HETATM   26  C23 UNL     1      90.765  99.815 -45.290  1.00  0.00     0.075 C 
BRANCH  26  27
HETATM   27  C24 UNL     1      91.922  99.454 -45.937  1.00  0.00     0.248 C 
HETATM   28  O2  UNL     1      92.659  98.478 -45.891  1.00  0.00    -0.281 OA
BRANCH  27  29
HETATM   29  C25 UNL     1      92.468 100.453 -46.961  1.00  0.00     0.251 C 
HETATM   30  O3  UNL     1      92.722 101.615 -46.649  1.00  0.00    -0.642 OA
HETATM   31  O4  UNL     1      92.656  99.992 -48.227  1.00  0.00    -0.642 OA
ENDBRANCH  27  29
ENDBRANCH  26  27
ENDBRANCH   5  26
BRANCH   4  32
HETATM   32  C14 UNL     1      90.426  97.891 -43.258  1.00  0.00     0.057 A 
HETATM   33  N1  UNL     1      90.932  97.700 -41.901  1.00  0.00    -0.321 N 
HETATM   34  C15 UNL     1      91.480  96.441 -41.756  1.00  0.00     0.257 A 
ATOM     35  H1  UNL     1      90.888  98.401 -41.162  1.00  0.00     0.169 HD
HETATM   36  O1  UNL     1      91.997  96.007 -40.685  1.00  0.00    -0.267 OA
HETATM   37  C16 UNL     1      91.344  95.759 -43.016  1.00  0.00     0.044 A 
HETATM   38  C17 UNL     1      91.682  94.433 -43.328  1.00  0.00     0.018 A 
HETATM   39  C21 UNL     1      90.718  96.587 -43.933  1.00  0.00     0.007 A 
HETATM   40  C18 UNL     1      91.385  93.919 -44.561  1.00  0.00     0.001 A 
HETATM   41  C19 UNL     1      90.750  94.749 -45.466  1.00  0.00     0.001 A 
HETATM   42  C20 UNL     1      90.422  96.040 -45.172  1.00  0.00     0.015 A 
ENDBRANCH   4  32
TORSDOF 11
ENDMDL
MODEL 4
REMARK VINA RESULT: -5.995263032      3.624      6.145
REMARK  11 active torsions:
REMARK  status: ('A' for Active; 'I' for Inactive)
REMARK    1  A    between atoms: C5_5  and  C6_6 
REMARK    2  A    between atoms: C6_6  and  C7_7 
REMARK    3  A    between atoms: C7_7  and  C8_8 
REMARK    4  A    between atoms: C8_8  and  C9_9 
REMARK    5  A    between atoms: C9_9  and  C10_10 
REMARK    6  A    between atoms: C13_13  and  C14_14 
REMARK    7  A    between atoms: C22_25  and  C23_26 
REMARK    8  A    between atoms: C23_26  and  C24_27 
REMARK    9  A    between atoms: C24_27  and  C25_29 
REMARK   10  A    between atoms: C26_32  and  C27_33 
REMARK   11  A    between atoms: C30_36  and  C31_37 
ROOT
HETATM    1  C10 UNL     1      87.982  99.430 -45.349  1.00  0.00    -0.026 A 
HETATM    2  C11 UNL     1      87.903  99.238 -43.965  1.00  0.00     0.013 A 
HETATM    3  C12 UNL     1      88.845  98.547 -43.268  1.00  0.00     0.015 A 
HETATM    4  C13 UNL     1      89.997  97.972 -43.898  1.00  0.00     0.003 A 
HETATM    5  C22 UNL     1      90.069  98.195 -45.236  1.00  0.00    -0.006 A 
HETATM    6  C26 UNL     1      89.102  98.878 -46.004  1.00  0.00     0.012 A 
ENDROOT
BRANCH   1   7
HETATM    7  C9  UNL     1      86.977 100.054 -45.916  1.00  0.00    -0.014 C 
BRANCH   7   8
HETATM    8  C8  UNL     1      86.631 101.447 -45.401  1.00  0.00     0.032 C 
BRANCH   8   9
HETATM    9  C7  UNL     1      87.735 102.398 -45.811  1.00  0.00     0.033 C 
BRANCH   9  10
HETATM   10  C6  UNL     1      88.178 103.128 -44.607  1.00  0.00     0.003 C 
BRANCH  10  11
HETATM   11  C5  UNL     1      89.102 102.587 -43.840  1.00  0.00     0.028 A 
HETATM   12  C4  UNL     1      90.306 102.053 -44.238  1.00  0.00     0.031 A 
HETATM   13  C3  UNL     1      90.974 101.594 -43.125  1.00  0.00     0.031 A 
HETATM   14  C2  UNL     1      90.185 101.844 -42.043  1.00  0.00     0.023 A 
HETATM   15  C1  UNL     1      90.478 101.547 -40.774  1.00  0.00     0.043 C 
HETATM   16  N3  UNL     1      89.059 102.443 -42.485  1.00  0.00    -0.357 N 
ATOM     17  H3  UNL     1      88.288 102.744 -41.891  1.00  0.00     0.166 HD
ENDBRANCH  10  11
ENDBRANCH   9  10
ENDBRANCH   8   9
ENDBRANCH   7   8
ENDBRANCH   1   7
BRANCH   6  18
HETATM   18  C27 UNL     1      89.218  98.995 -47.292  1.00  0.00     0.044 A 
HETATM   19  C28 UNL     1      89.043  99.888 -48.270  1.00  0.00     0.033 A 
HETATM   20  C29 UNL     1      88.620  99.415 -49.469  1.00  0.00     0.032 A 
HETATM   21  C30 UNL     1      88.509  98.067 -49.257  1.00  0.00     0.043 A 
HETATM   22  N2  UNL     1      88.852  97.797 -47.998  1.00  0.00    -0.355 N 
ATOM     23  H2  UNL     1      88.854  96.863 -47.590  1.00  0.00     0.166 HD
BRANCH  21  24
HETATM   24  C31 UNL     1      88.118  97.178 -50.174  1.00  0.00     0.114 C 
HETATM   25 CL1  UNL     1      88.481  95.491 -49.964  1.00  0.00    -0.095 Cl
ENDBRANCH  21  24
ENDBRANCH   6  18
BRANCH   5  26
HETATM   26  C23 UNL     1      91.362  98.522 -45.619  1.00  0.00     0.075 C 
BRANCH  26  27
HETATM   27  C24 UNL     1      92.455  99.355 -45.610  1.00  0.00     0.248 C 
HETATM   28  O2  UNL     1      93.375  99.550 -44.827  1.00  0.00    -0.281 OA
BRANCH  27  29
HETATM   29  C25 UNL     1      92.619 100.273 -46.824  1.00  0.00     0.251 C 
HETATM   30  O3  UNL     1      92.736 101.491 -46.694  1.00  0.00    -0.642 OA
HETATM   31  O4  UNL     1      92.630  99.677 -48.047  1.00  0.00    -0.642 OA
ENDBRANCH  27  29
ENDBRANCH  26  27
ENDBRANCH   5  26
BRANCH   4  32
HETATM   32  C14 UNL     1      90.830  97.379 -43.098  1.00  0.00     0.057 A 
HETATM   33  N1  UNL     1      91.217  97.886 -41.783  1.00  0.00    -0.321 N 
HETATM   34  C15 UNL     1      91.816  96.894 -41.034  1.00  0.00     0.257 A 
ATOM     35  H1  UNL     1      91.067  98.843 -41.464  1.00  0.00     0.169 HD
HETATM   36  O1  UNL     1      92.254  97.055 -39.857  1.00  0.00    -0.267 OA
HETATM   37  C16 UNL     1      91.835  95.696 -41.832  1.00  0.00     0.044 A 
HETATM   38  C17 UNL     1      92.271  94.414 -41.464  1.00  0.00     0.018 A 
HETATM   39  C21 UNL     1      91.254  95.943 -43.064  1.00  0.00     0.007 A 
HETATM   40  C18 UNL     1      92.118  93.361 -42.326  1.00  0.00     0.001 A 
HETATM   41  C19 UNL     1      91.526  93.616 -43.550  1.00  0.00     0.001 A 
HETATM   42  C20 UNL     1      91.104  94.860 -43.916  1.00  0.00     0.015 A 
ENDBRANCH   4  32
TORSDOF 11
ENDMDL
MODEL 5
REMARK VINA RESULT: -5.937795900      1.663      3.556
REMARK  11 active torsions:
REMARK  status: ('A' for Active; 'I' for Inactive)
REMARK    1  A    between atoms: C5_5  and  C6_6 
REMARK    2  A    between atoms: C6_6  and  C7_7 
REMARK    3  A    between atoms: C7_7  and  C8_8 
REMARK    4  A    between atoms: C8_8  and  C9_9 
REMARK    5  A    between atoms: C9_9  and  C10_10 
REMARK    6  A    between atoms: C13_13  and  C14_14 
REMARK    7  A    between atoms: C22_25  and  C23_26 
REMARK    8  A    between atoms: C23_26  and  C24_27 
REMARK    9  A    between atoms: C24_27  and  C25_29 
REMARK   10  A    between atoms: C26_32  and  C27_33 
REMARK   11  A    between atoms: C30_36  and  C31_37 
ROOT
HETATM    1  C10 UNL     1      91.410 101.121 -45.718  1.00  0.00    -0.026 A 
HETATM    2  C11 UNL     1      92.352 100.113 -45.957  1.00  0.00     0.013 A 
HETATM    3  C12 UNL     1      92.136  98.815 -45.613  1.00  0.00     0.015 A 
HETATM    4  C13 UNL     1      90.921  98.378 -44.991  1.00  0.00     0.003 A 
HETATM    5  C22 UNL     1      90.009  99.366 -44.795  1.00  0.00    -0.006 A 
HETATM    6  C26 UNL     1      90.201 100.729 -45.106  1.00  0.00     0.012 A 
ENDROOT
BRANCH   1   7
HETATM    7  C9  UNL     1      91.763 102.345 -46.031  1.00  0.00    -0.014 C 
BRANCH   7   8
HETATM    8  C8  UNL     1      92.991 102.924 -45.338  1.00  0.00     0.032 C 
BRANCH   8   9
HETATM    9  C7  UNL     1      92.568 103.466 -43.988  1.00  0.00     0.033 C 
BRANCH   9  10
HETATM   10  C6  UNL     1      93.152 102.599 -42.946  1.00  0.00     0.003 C 
BRANCH  10  11
HETATM   11  C5  UNL     1      92.446 102.344 -41.864  1.00  0.00     0.028 A 
HETATM   12  C4  UNL     1      91.895 101.139 -41.493  1.00  0.00     0.031 A 
HETATM   13  C3  UNL     1      91.239 101.304 -40.295  1.00  0.00     0.031 A 
HETATM   14  C2  UNL     1      91.383 102.607 -39.926  1.00  0.00     0.023 A 
HETATM   15  C1  UNL     1      90.889 103.167 -38.819  1.00  0.00     0.043 C 
HETATM   16  N3  UNL     1      92.113 103.225 -40.878  1.00  0.00    -0.357 N 
ATOM     17  H3  UNL     1      92.377 104.210 -40.862  1.00  0.00     0.166 HD
ENDBRANCH  10  11
ENDBRANCH   9  10
ENDBRANCH   8   9
ENDBRANCH   7   8
ENDBRANCH   1   7
BRANCH   6  18
HETATM   18  C27 UNL     1      89.300 101.620 -44.829  1.00  0.00     0.044 A 
HETATM   19  C28 UNL     1      88.743 102.722 -45.340  1.00  0.00     0.033 A 
HETATM   20  C29 UNL     1      88.371 103.689 -44.464  1.00  0.00     0.032 A 
HETATM   21  C30 UNL     1      88.718 103.165 -43.248  1.00  0.00     0.043 A 
HETATM   22  N2  UNL     1      89.259 101.962 -43.433  1.00  0.00    -0.355 N 
ATOM     23  H2  UNL     1      89.600 101.362 -42.682  1.00  0.00     0.166 HD
BRANCH  21  24
HETATM   24  C31 UNL     1      88.536 103.774 -42.073  1.00  0.00     0.114 C 
HETATM   25 CL1  UNL     1      89.436 105.210 -41.687  1.00  0.00    -0.095 Cl
ENDBRANCH  21  24
ENDBRANCH   6  18
BRANCH   5  26
HETATM   26  C23 UNL     1      88.730  98.935 -45.116  1.00  0.00     0.075 C 
BRANCH  26  27
HETATM   27  C24 UNL     1      87.522  98.369 -44.785  1.00  0.00     0.248 C 
HETATM   28  O2  UNL     1      86.881  97.415 -45.206  1.00  0.00    -0.281 OA
BRANCH  27  29
HETATM   29  C25 UNL     1      86.753  99.031 -43.639  1.00  0.00     0.251 C 
HETATM   30  O3  UNL     1      87.340  99.597 -42.718  1.00  0.00    -0.642 OA
HETATM   31  O4  UNL     1      85.396  98.961 -43.690  1.00  0.00    -0.642 OA
ENDBRANCH  27  29
ENDBRANCH  26  27
ENDBRANCH   5  26
BRANCH   4  32
HETATM   32  C14 UNL     1      90.842  97.102 -44.762  1.00  0.00     0.057 A 
HETATM   33  N1  UNL     1      90.944  96.069 -45.791  1.00  0.00    -0.321 N 
HETATM   34  C15 UNL     1      91.181  94.835 -45.221  1.00  0.00     0.257 A 
ATOM     35  H1  UNL     1      90.853  96.238 -46.792  1.00  0.00     0.169 HD
HETATM   36  O1  UNL     1      91.310  93.759 -45.877  1.00  0.00    -0.267 OA
HETATM   37  C16 UNL     1      91.249  95.018 -43.795  1.00  0.00     0.044 A 
HETATM   38  C17 UNL     1      91.549  94.065 -42.810  1.00  0.00     0.018 A 
HETATM   39  C21 UNL     1      91.056  96.353 -43.484  1.00  0.00     0.007 A 
HETATM   40  C18 UNL     1      91.671  94.443 -41.500  1.00  0.00     0.001 A 
HETATM   41  C19 UNL     1      91.488  95.781 -41.200  1.00  0.00     0.001 A 
HETATM   42  C20 UNL     1      91.192  96.712 -42.152  1.00  0.00     0.015 A 
ENDBRANCH   4  32
TORSDOF 11
ENDMDL
