MODEL 1
REMARK VINA RESULT: -6.215671630      0.000      0.000
REMARK  10 active torsions:
REMARK  status: ('A' for Active; 'I' for Inactive)
REMARK    1  A    between atoms: C6_9  and  C7_10 
REMARK       I    between atoms: C7_10  and  N2_12 
REMARK    2  A    between atoms: C10_15  and  C11_16 
REMARK    3  A    between atoms: C11_16  and  N3_17 
REMARK       I    between atoms: N3_17  and  C12_19 
REMARK    4  A    between atoms: C12_19  and  C13_21 
REMARK    5  A    between atoms: C13_21  and  C14_22 
REMARK    6  A    between atoms: C18_26  and  N4_27 
REMARK    7  A    between atoms: N4_27  and  C19_29 
REMARK    8  A    between atoms: C19_29  and  O3_30 
REMARK    9  A    between atoms: C19_29  and  C20_32 
REMARK   10  A    between atoms: C20_32  and  N5_33 
ROOT
HETATM    1  C1  UNL     1      88.674  98.490 -49.370  1.00  0.00     0.069 C 
HETATM    2  C2  UNL     1      88.102  98.364 -48.009  1.00  0.00     0.024 A 
HETATM    3  N1  UNL     1      87.621  97.201 -47.497  1.00  0.00    -0.358 N 
ATOM      4  H1  UNL     1      87.592  96.293 -47.962  1.00  0.00     0.166 HD
HETATM    5  C3  UNL     1      87.188  97.492 -46.240  1.00  0.00     0.040 A 
HETATM    6  C4  UNL     1      87.406  98.820 -45.966  1.00  0.00     0.003 A 
HETATM    7  C5  UNL     1      87.969  99.370 -47.072  1.00  0.00     0.042 A 
HETATM    8 BR1  UNL     1      88.443 101.163 -47.398  1.00  0.00    -0.048 Br
HETATM    9  C6  UNL     1      87.147  99.269 -44.594  1.00  0.00     0.141 C 
HETATM   10  C18 UNL     1      85.926  98.584 -43.982  1.00  0.00     0.124 C 
HETATM   11  C24 UNL     1      85.783  97.173 -44.308  1.00  0.00     0.001 C 
HETATM   12  C25 UNL     1      86.363  96.650 -45.370  1.00  0.00     0.028 C 
ENDROOT
BRANCH   9  13
HETATM   13  C7  UNL     1      88.258  98.973 -43.655  1.00  0.00     0.231 C 
HETATM   14  O1  UNL     1      88.058  99.207 -42.404  1.00  0.00    -0.272 OA
HETATM   15  N2  UNL     1      89.488  98.461 -44.103  1.00  0.00    -0.337 N 
HETATM   16  C8  UNL     1      90.590  97.944 -44.877  1.00  0.00     0.108 A 
HETATM   17  C10 UNL     1      90.863  98.132 -43.480  1.00  0.00     0.128 A 
HETATM   18  C9  UNL     1      90.578  96.476 -45.323  1.00  0.00     0.034 C 
BRANCH  17  19
HETATM   19  C11 UNL     1      90.683  97.021 -42.455  1.00  0.00     0.150 C 
BRANCH  19  20
HETATM   20  N3  UNL     1      91.885  96.330 -42.132  1.00  0.00    -0.359 N 
HETATM   21  C12 UNL     1      91.852  95.110 -41.379  1.00  0.00     0.218 C 
HETATM   22  O2  UNL     1      90.782  94.614 -40.985  1.00  0.00    -0.274 OA
ATOM     23  H3  UNL     1      92.781  96.708 -42.440  1.00  0.00     0.162 HD
BRANCH  21  24
HETATM   24  C13 UNL     1      93.133  94.431 -41.069  1.00  0.00     0.111 C 
BRANCH  24  25
HETATM   25  C14 UNL     1      93.217  93.164 -41.862  1.00  0.00    -0.043 C 
HETATM   26  C15 UNL     1      94.628  92.598 -41.676  1.00  0.00     0.015 C 
HETATM   27  C16 UNL     1      92.239  92.159 -41.328  1.00  0.00     0.015 C 
HETATM   28  C17 UNL     1      93.007  93.458 -43.324  1.00  0.00     0.015 C 
ENDBRANCH  24  25
ENDBRANCH  21  24
ENDBRANCH  19  20
ENDBRANCH  17  19
ENDBRANCH   9  13
BRANCH  10  29
HETATM   29  N4  UNL     1      84.726  99.352 -44.372  1.00  0.00    -0.364 N 
ATOM     30  H4  UNL     1      84.553  99.583 -45.351  1.00  0.00     0.162 HD
BRANCH  29  31
HETATM   31  C19 UNL     1      83.832  99.757 -43.376  1.00  0.00     0.138 C 
BRANCH  31  32
HETATM   32  O3  UNL     1      83.573  98.920 -42.401  1.00  0.00    -0.348 OA
ATOM     33  H3  UNL     1      82.904  98.260 -42.543  1.00  0.00     0.219 HD
ENDBRANCH  31  32
BRANCH  31  34
HETATM   34  C20 UNL     1      83.131 101.039 -43.290  1.00  0.00     0.319 C 
BRANCH  34  35
HETATM   35  N5  UNL     1      83.830 102.073 -42.616  1.00  0.00    -0.071 N 
HETATM   36  C21 UNL     1      83.522 103.346 -43.328  1.00  0.00     0.272 C 
HETATM   37  C22 UNL     1      85.250 101.936 -42.636  1.00  0.00     0.272 C 
HETATM   38  C23 UNL     1      83.297 102.219 -41.267  1.00  0.00     0.272 C 
ENDBRANCH  34  35
ENDBRANCH  31  34
ENDBRANCH  29  31
ENDBRANCH  10  29
TORSDOF 10
ENDMDL
MODEL 2
REMARK VINA RESULT: -5.886323425      3.661      7.715
REMARK  10 active torsions:
REMARK  status: ('A' for Active; 'I' for Inactive)
REMARK    1  A    between atoms: C6_9  and  C7_10 
REMARK       I    between atoms: C7_10  and  N2_12 
REMARK    2  A    between atoms: C10_15  and  C11_16 
REMARK    3  A    between atoms: C11_16  and  N3_17 
REMARK       I    between atoms: N3_17  and  C12_19 
REMARK    4  A    between atoms: C12_19  and  C13_21 
REMARK    5  A    between atoms: C13_21  and  C14_22 
REMARK    6  A    between atoms: C18_26  and  N4_27 
REMARK    7  A    between atoms: N4_27  and  C19_29 
REMARK    8  A    between atoms: C19_29  and  O3_30 
REMARK    9  A    between atoms: C19_29  and  C20_32 
REMARK   10  A    between atoms: C20_32  and  N5_33 
ROOT
HETATM    1  C1  UNL     1      87.814  98.751 -47.830  1.00  0.00     0.069 C 
HETATM    2  C2  UNL     1      88.744  98.751 -46.675  1.00  0.00     0.024 A 
HETATM    3  N1  UNL     1      90.074  99.005 -46.778  1.00  0.00    -0.358 N 
ATOM      4  H1  UNL     1      90.592  99.223 -47.629  1.00  0.00     0.166 HD
HETATM    5  C3  UNL     1      90.575  98.911 -45.516  1.00  0.00     0.040 A 
HETATM    6  C4  UNL     1      89.566  98.612 -44.633  1.00  0.00     0.003 A 
HETATM    7  C5  UNL     1      88.422  98.503 -45.355  1.00  0.00     0.042 A 
HETATM    8 BR1  UNL     1      86.693  98.033 -44.778  1.00  0.00    -0.048 Br
HETATM    9  C6  UNL     1      89.901  98.633 -43.206  1.00  0.00     0.141 C 
HETATM   10  C18 UNL     1      91.302  98.087 -42.931  1.00  0.00     0.124 C 
HETATM   11  C24 UNL     1      92.313  98.469 -43.905  1.00  0.00     0.001 C 
HETATM   12  C25 UNL     1      91.986  98.849 -45.124  1.00  0.00     0.028 C 
ENDROOT
BRANCH   9  13
HETATM   13  C7  UNL     1      89.903  99.997 -42.619  1.00  0.00     0.231 C 
HETATM   14  O1  UNL     1      90.840 100.283 -41.782  1.00  0.00    -0.272 OA
HETATM   15  N2  UNL     1      88.925 100.949 -42.955  1.00  0.00    -0.337 N 
HETATM   16  C8  UNL     1      87.805 101.668 -43.511  1.00  0.00     0.108 A 
HETATM   17  C10 UNL     1      88.544 102.376 -42.505  1.00  0.00     0.128 A 
HETATM   18  C9  UNL     1      87.918 102.274 -44.916  1.00  0.00     0.034 C 
BRANCH  17  19
HETATM   19  C11 UNL     1      89.690 103.319 -42.843  1.00  0.00     0.150 C 
BRANCH  19  20
HETATM   20  N3  UNL     1      90.443 103.746 -41.713  1.00  0.00    -0.359 N 
HETATM   21  C12 UNL     1      91.864 103.560 -41.664  1.00  0.00     0.218 C 
HETATM   22  O2  UNL     1      92.486 103.026 -42.598  1.00  0.00    -0.274 OA
ATOM     23  H3  UNL     1      89.965 104.189 -40.928  1.00  0.00     0.162 HD
BRANCH  21  24
HETATM   24  C13 UNL     1      92.600 104.022 -40.462  1.00  0.00     0.111 C 
BRANCH  24  25
HETATM   25  C14 UNL     1      92.538 102.955 -39.413  1.00  0.00    -0.043 C 
HETATM   26  C15 UNL     1      93.138 103.537 -38.130  1.00  0.00     0.015 C 
HETATM   27  C16 UNL     1      91.109 102.591 -39.135  1.00  0.00     0.015 C 
HETATM   28  C17 UNL     1      93.367 101.770 -39.836  1.00  0.00     0.015 C 
ENDBRANCH  24  25
ENDBRANCH  21  24
ENDBRANCH  19  20
ENDBRANCH  17  19
ENDBRANCH   9  13
BRANCH  10  29
HETATM   29  N4  UNL     1      91.203  96.619 -42.802  1.00  0.00    -0.364 N 
ATOM     30  H4  UNL     1      90.875  96.050 -43.583  1.00  0.00     0.162 HD
BRANCH  29  31
HETATM   31  C19 UNL     1      91.568  96.024 -41.590  1.00  0.00     0.138 C 
BRANCH  31  32
HETATM   32  O3  UNL     1      92.068  96.790 -40.652  1.00  0.00    -0.348 OA
ATOM     33  H3  UNL     1      92.181  96.419 -39.784  1.00  0.00     0.219 HD
ENDBRANCH  31  32
BRANCH  31  34
HETATM   34  C20 UNL     1      91.456  94.608 -41.236  1.00  0.00     0.319 C 
BRANCH  34  35
HETATM   35  N5  UNL     1      92.462  93.763 -41.774  1.00  0.00    -0.071 N 
HETATM   36  C21 UNL     1      92.121  92.368 -41.375  1.00  0.00     0.272 C 
HETATM   37  C22 UNL     1      93.774  94.014 -41.273  1.00  0.00     0.272 C 
HETATM   38  C23 UNL     1      92.398  93.801 -43.230  1.00  0.00     0.272 C 
ENDBRANCH  34  35
ENDBRANCH  31  34
ENDBRANCH  29  31
ENDBRANCH  10  29
TORSDOF 10
ENDMDL
MODEL 3
REMARK VINA RESULT: -5.813791992      3.271      8.203
REMARK  10 active torsions:
REMARK  status: ('A' for Active; 'I' for Inactive)
REMARK    1  A    between atoms: C6_9  and  C7_10 
REMARK       I    between atoms: C7_10  and  N2_12 
REMARK    2  A    between atoms: C10_15  and  C11_16 
REMARK    3  A    between atoms: C11_16  and  N3_17 
REMARK       I    between atoms: N3_17  and  C12_19 
REMARK    4  A    between atoms: C12_19  and  C13_21 
REMARK    5  A    between atoms: C13_21  and  C14_22 
REMARK    6  A    between atoms: C18_26  and  N4_27 
REMARK    7  A    between atoms: N4_27  and  C19_29 
REMARK    8  A    between atoms: C19_29  and  O3_30 
REMARK    9  A    between atoms: C19_29  and  C20_32 
REMARK   10  A    between atoms: C20_32  and  N5_33 
ROOT
HETATM    1  C1  UNL     1      91.520  94.447 -44.493  1.00  0.00     0.069 C 
HETATM    2  C2  UNL     1      91.280  95.910 -44.451  1.00  0.00     0.024 A 
HETATM    3  N1  UNL     1      91.043  96.666 -45.554  1.00  0.00    -0.358 N 
ATOM      4  H1  UNL     1      90.997  96.343 -46.520  1.00  0.00     0.166 HD
HETATM    5  C3  UNL     1      90.877  97.942 -45.108  1.00  0.00     0.040 A 
HETATM    6  C4  UNL     1      90.999  97.979 -43.740  1.00  0.00     0.003 A 
HETATM    7  C5  UNL     1      91.259  96.712 -43.327  1.00  0.00     0.042 A 
HETATM    8 BR1  UNL     1      91.616  96.077 -41.591  1.00  0.00    -0.048 Br
HETATM    9  C6  UNL     1      90.687  99.248 -43.077  1.00  0.00     0.141 C 
HETATM   10  C18 UNL     1      91.156 100.456 -43.888  1.00  0.00     0.124 C 
HETATM   11  C24 UNL     1      90.971 100.340 -45.327  1.00  0.00     0.001 C 
HETATM   12  C25 UNL     1      90.848  99.165 -45.912  1.00  0.00     0.028 C 
ENDROOT
BRANCH   9  13
HETATM   13  C7  UNL     1      89.232  99.468 -42.875  1.00  0.00     0.231 C 
HETATM   14  O1  UNL     1      88.878 100.290 -41.947  1.00  0.00    -0.272 OA
HETATM   15  N2  UNL     1      88.269  98.809 -43.658  1.00  0.00    -0.337 N 
HETATM   16  C8  UNL     1      87.565  97.999 -44.621  1.00  0.00     0.108 A 
HETATM   17  C10 UNL     1      86.728  98.700 -43.688  1.00  0.00     0.128 A 
HETATM   18  C9  UNL     1      87.435  98.486 -46.069  1.00  0.00     0.034 C 
BRANCH  17  19
HETATM   19  C11 UNL     1      86.145 100.074 -43.985  1.00  0.00     0.150 C 
BRANCH  19  20
HETATM   20  N3  UNL     1      85.615 100.739 -42.843  1.00  0.00    -0.359 N 
HETATM   21  C12 UNL     1      84.215 101.037 -42.750  1.00  0.00     0.218 C 
HETATM   22  O2  UNL     1      83.419 100.728 -43.654  1.00  0.00    -0.274 OA
ATOM     23  H3  UNL     1      86.239 101.006 -42.082  1.00  0.00     0.162 HD
BRANCH  21  24
HETATM   24  C13 UNL     1      83.716 101.732 -41.539  1.00  0.00     0.111 C 
BRANCH  24  25
HETATM   25  C14 UNL     1      83.610 103.197 -41.827  1.00  0.00    -0.043 C 
HETATM   26  C15 UNL     1      83.671 103.934 -40.486  1.00  0.00     0.015 C 
HETATM   27  C16 UNL     1      84.778 103.643 -42.657  1.00  0.00     0.015 C 
HETATM   28  C17 UNL     1      82.286 103.498 -42.480  1.00  0.00     0.015 C 
ENDBRANCH  24  25
ENDBRANCH  21  24
ENDBRANCH  19  20
ENDBRANCH  17  19
ENDBRANCH   9  13
BRANCH  10  29
HETATM   29  N4  UNL     1      92.568 100.717 -43.544  1.00  0.00    -0.364 N 
ATOM     30  H4  UNL     1      93.304 100.082 -43.853  1.00  0.00     0.162 HD
BRANCH  29  31
HETATM   31  C19 UNL     1      92.877 101.851 -42.787  1.00  0.00     0.138 C 
BRANCH  31  32
HETATM   32  O3  UNL     1      94.135 102.212 -42.700  1.00  0.00    -0.348 OA
ATOM     33  H3  UNL     1      94.343 103.136 -42.777  1.00  0.00     0.219 HD
ENDBRANCH  31  32
BRANCH  31  34
HETATM   34  C20 UNL     1      91.939 102.707 -42.059  1.00  0.00     0.319 C 
BRANCH  34  35
HETATM   35  N5  UNL     1      91.812 102.434 -40.673  1.00  0.00    -0.071 N 
HETATM   36  C21 UNL     1      92.740 103.354 -39.957  1.00  0.00     0.272 C 
HETATM   37  C22 UNL     1      92.190 101.110 -40.295  1.00  0.00     0.272 C 
HETATM   38  C23 UNL     1      90.467 102.783 -40.231  1.00  0.00     0.272 C 
ENDBRANCH  34  35
ENDBRANCH  31  34
ENDBRANCH  29  31
ENDBRANCH  10  29
TORSDOF 10
ENDMDL
MODEL 4
REMARK VINA RESULT: -5.734809613      0.938      1.455
REMARK  10 active torsions:
REMARK  status: ('A' for Active; 'I' for Inactive)
REMARK    1  A    between atoms: C6_9  and  C7_10 
REMARK       I    between atoms: C7_10  and  N2_12 
REMARK    2  A    between atoms: C10_15  and  C11_16 
REMARK    3  A    between atoms: C11_16  and  N3_17 
REMARK       I    between atoms: N3_17  and  C12_19 
REMARK    4  A    between atoms: C12_19  and  C13_21 
REMARK    5  A    between atoms: C13_21  and  C14_22 
REMARK    6  A    between atoms: C18_26  and  N4_27 
REMARK    7  A    between atoms: N4_27  and  C19_29 
REMARK    8  A    between atoms: C19_29  and  O3_30 
REMARK    9  A    between atoms: C19_29  and  C20_32 
REMARK   10  A    between atoms: C20_32  and  N5_33 
ROOT
HETATM    1  C1  UNL     1      89.630 100.250 -48.964  1.00  0.00     0.069 C 
HETATM    2  C2  UNL     1      88.963  99.647 -47.785  1.00  0.00     0.024 A 
HETATM    3  N1  UNL     1      88.687  98.322 -47.670  1.00  0.00    -0.358 N 
ATOM      4  H1  UNL     1      88.894  97.592 -48.351  1.00  0.00     0.166 HD
HETATM    5  C3  UNL     1      88.079  98.167 -46.462  1.00  0.00     0.040 A 
HETATM    6  C4  UNL     1      87.987  99.380 -45.825  1.00  0.00     0.003 A 
HETATM    7  C5  UNL     1      88.531 100.309 -46.652  1.00  0.00     0.042 A 
HETATM    8 BR1  UNL     1      88.651 102.174 -46.429  1.00  0.00    -0.048 Br
HETATM    9  C6  UNL     1      87.504  99.372 -44.441  1.00  0.00     0.141 C 
HETATM   10  C18 UNL     1      86.397  98.341 -44.220  1.00  0.00     0.124 C 
HETATM   11  C24 UNL     1      86.585  97.077 -44.916  1.00  0.00     0.001 C 
HETATM   12  C25 UNL     1      87.365  96.984 -45.975  1.00  0.00     0.028 C 
ENDROOT
BRANCH   9  13
HETATM   13  C7  UNL     1      88.553  99.020 -43.451  1.00  0.00     0.231 C 
HETATM   14  O1  UNL     1      88.275  99.188 -42.204  1.00  0.00    -0.272 OA
HETATM   15  N2  UNL     1      89.808  98.525 -43.847  1.00  0.00    -0.337 N 
HETATM   16  C8  UNL     1      90.955  98.044 -44.576  1.00  0.00     0.108 A 
HETATM   17  C10 UNL     1      91.139  98.156 -43.156  1.00  0.00     0.128 A 
HETATM   18  C9  UNL     1      90.968  96.602 -45.099  1.00  0.00     0.034 C 
BRANCH  17  19
HETATM   19  C11 UNL     1      90.892  96.993 -42.205  1.00  0.00     0.150 C 
BRANCH  19  20
HETATM   20  N3  UNL     1      92.064  96.258 -41.871  1.00  0.00    -0.359 N 
HETATM   21  C12 UNL     1      91.972  94.966 -41.258  1.00  0.00     0.218 C 
HETATM   22  O2  UNL     1      90.875  94.442 -40.999  1.00  0.00    -0.274 OA
ATOM     23  H3  UNL     1      92.982  96.657 -42.070  1.00  0.00     0.162 HD
BRANCH  21  24
HETATM   24  C13 UNL     1      93.224  94.244 -40.929  1.00  0.00     0.111 C 
BRANCH  24  25
HETATM   25  C14 UNL     1      93.365  93.069 -41.846  1.00  0.00    -0.043 C 
HETATM   26  C15 UNL     1      92.303  92.041 -41.442  1.00  0.00     0.015 C 
HETATM   27  C16 UNL     1      93.091  93.487 -43.262  1.00  0.00     0.015 C 
HETATM   28  C17 UNL     1      94.725  92.445 -41.678  1.00  0.00     0.015 C 
ENDBRANCH  24  25
ENDBRANCH  21  24
ENDBRANCH  19  20
ENDBRANCH  17  19
ENDBRANCH   9  13
BRANCH  10  29
HETATM   29  N4  UNL     1      85.109  98.969 -44.578  1.00  0.00    -0.364 N 
ATOM     30  H4  UNL     1      84.826  99.051 -45.555  1.00  0.00     0.162 HD
BRANCH  29  31
HETATM   31  C19 UNL     1      84.286  99.448 -43.555  1.00  0.00     0.138 C 
BRANCH  31  32
HETATM   32  O3  UNL     1      83.597  98.578 -42.858  1.00  0.00    -0.348 OA
ATOM     33  H3  UNL     1      83.063  98.900 -42.141  1.00  0.00     0.219 HD
ENDBRANCH  31  32
BRANCH  31  34
HETATM   34  C20 UNL     1      84.096 100.844 -43.159  1.00  0.00     0.319 C 
BRANCH  34  35
HETATM   35  N5  UNL     1      83.575 101.699 -44.165  1.00  0.00    -0.071 N 
HETATM   36  C21 UNL     1      83.059 102.918 -43.480  1.00  0.00     0.272 C 
HETATM   37  C22 UNL     1      82.476 101.153 -44.893  1.00  0.00     0.272 C 
HETATM   38  C23 UNL     1      84.660 102.144 -45.031  1.00  0.00     0.272 C 
ENDBRANCH  34  35
ENDBRANCH  31  34
ENDBRANCH  29  31
ENDBRANCH  10  29
TORSDOF 10
ENDMDL
MODEL 5
REMARK VINA RESULT: -5.632541948      4.015      8.067
REMARK  10 active torsions:
REMARK  status: ('A' for Active; 'I' for Inactive)
REMARK    1  A    between atoms: C6_9  and  C7_10 
REMARK       I    between atoms: C7_10  and  N2_12 
REMARK    2  A    between atoms: C10_15  and  C11_16 
REMARK    3  A    between atoms: C11_16  and  N3_17 
REMARK       I    between atoms: N3_17  and  C12_19 
REMARK    4  A    between atoms: C12_19  and  C13_21 
REMARK    5  A    between atoms: C13_21  and  C14_22 
REMARK    6  A    between atoms: C18_26  and  N4_27 
REMARK    7  A    between atoms: N4_27  and  C19_29 
REMARK    8  A    between atoms: C19_29  and  O3_30 
REMARK    9  A    between atoms: C19_29  and  C20_32 
REMARK   10  A    between atoms: C20_32  and  N5_33 
ROOT
HETATM    1  C1  UNL     1      91.364  96.057 -45.122  1.00  0.00     0.069 C 
HETATM    2  C2  UNL     1      91.444  97.522 -44.907  1.00  0.00     0.024 A 
HETATM    3  N1  UNL     1      91.565  98.426 -45.914  1.00  0.00    -0.358 N 
ATOM      4  H1  UNL     1      91.613  98.227 -46.913  1.00  0.00     0.166 HD
HETATM    5  C3  UNL     1      91.608  99.650 -45.320  1.00  0.00     0.040 A 
HETATM    6  C4  UNL     1      91.504  99.512 -43.957  1.00  0.00     0.003 A 
HETATM    7  C5  UNL     1      91.410  98.183 -43.695  1.00  0.00     0.042 A 
HETATM    8 BR1  UNL     1      91.325  97.302 -42.034  1.00  0.00    -0.048 Br
HETATM    9  C6  UNL     1      91.370 100.741 -43.170  1.00  0.00     0.141 C 
HETATM   10  C18 UNL     1      92.218 101.883 -43.730  1.00  0.00     0.124 C 
HETATM   11  C24 UNL     1      92.257 101.967 -45.182  1.00  0.00     0.001 C 
HETATM   12  C25 UNL     1      91.981 100.924 -45.939  1.00  0.00     0.028 C 
ENDROOT
BRANCH   9  13
HETATM   13  C7  UNL     1      89.985 101.277 -43.143  1.00  0.00     0.231 C 
HETATM   14  O1  UNL     1      89.836 102.549 -43.285  1.00  0.00    -0.272 OA
HETATM   15  N2  UNL     1      88.871 100.439 -42.965  1.00  0.00    -0.337 N 
HETATM   16  C8  UNL     1      87.973  99.325 -42.780  1.00  0.00     0.108 A 
HETATM   17  C10 UNL     1      87.347 100.617 -42.787  1.00  0.00     0.128 A 
HETATM   18  C9  UNL     1      87.605  98.442 -43.979  1.00  0.00     0.034 C 
BRANCH  17  19
HETATM   19  C11 UNL     1      86.775 101.242 -44.052  1.00  0.00     0.150 C 
BRANCH  19  20
HETATM   20  N3  UNL     1      85.455 100.812 -44.366  1.00  0.00    -0.359 N 
HETATM   21  C12 UNL     1      85.132 100.322 -45.674  1.00  0.00     0.218 C 
HETATM   22  O2  UNL     1      85.986 100.253 -46.575  1.00  0.00    -0.274 OA
ATOM     23  H3  UNL     1      84.729 100.854 -43.650  1.00  0.00     0.162 HD
BRANCH  21  24
HETATM   24  C13 UNL     1      83.741  99.888 -45.947  1.00  0.00     0.111 C 
BRANCH  24  25
HETATM   25  C14 UNL     1      83.574  98.472 -45.491  1.00  0.00    -0.043 C 
HETATM   26  C15 UNL     1      82.286  97.935 -46.122  1.00  0.00     0.015 C 
HETATM   27  C16 UNL     1      84.718  97.634 -45.985  1.00  0.00     0.015 C 
HETATM   28  C17 UNL     1      83.429  98.428 -43.993  1.00  0.00     0.015 C 
ENDBRANCH  24  25
ENDBRANCH  21  24
ENDBRANCH  19  20
ENDBRANCH  17  19
ENDBRANCH   9  13
BRANCH  10  29
HETATM   29  N4  UNL     1      93.576 101.764 -43.160  1.00  0.00    -0.364 N 
ATOM     30  H4  UNL     1      94.255 101.120 -43.566  1.00  0.00     0.162 HD
BRANCH  29  31
HETATM   31  C19 UNL     1      93.913 102.552 -42.055  1.00  0.00     0.138 C 
BRANCH  31  32
HETATM   32  O3  UNL     1      95.159 102.543 -41.647  1.00  0.00    -0.348 OA
ATOM     33  H3  UNL     1      95.688 103.316 -41.808  1.00  0.00     0.219 HD
ENDBRANCH  31  32
BRANCH  31  34
HETATM   34  C20 UNL     1      93.016 103.408 -41.277  1.00  0.00     0.319 C 
BRANCH  34  35
HETATM   35  N5  UNL     1      92.490 102.826 -40.095  1.00  0.00    -0.071 N 
HETATM   36  C21 UNL     1      93.128 103.522 -38.942  1.00  0.00     0.272 C 
HETATM   37  C22 UNL     1      92.783 101.439 -39.939  1.00  0.00     0.272 C 
HETATM   38  C23 UNL     1      91.063 103.114 -40.008  1.00  0.00     0.272 C 
ENDBRANCH  34  35
ENDBRANCH  31  34
ENDBRANCH  29  31
ENDBRANCH  10  29
TORSDOF 10
ENDMDL
