MODEL 1
REMARK VINA RESULT: -5.803993776      0.000      0.000
REMARK  11 active torsions:
REMARK  status: ('A' for Active; 'I' for Inactive)
REMARK    1  A    between atoms: C2_2  and  C3_3 
REMARK    2  A    between atoms: C2_2  and  C7_8 
REMARK    3  A    between atoms: C3_3  and  C4_4 
REMARK    4  A    between atoms: C5_5  and  C6_6 
REMARK       I    between atoms: C7_8  and  N1_10 
REMARK    5  A    between atoms: N1_10  and  C8_12 
REMARK    6  A    between atoms: C8_12  and  C9_13 
REMARK       I    between atoms: C9_13  and  N2_15 
REMARK    7  A    between atoms: N2_15  and  C10_17 
REMARK    8  A    between atoms: C10_17  and  C11_18 
REMARK    9  A    between atoms: C11_18  and  N3_19 
REMARK   10  A    between atoms: N4_22  and  C14_23 
REMARK   11  A    between atoms: C14_23  and  C15_24 
ROOT
HETATM    1  C9  UNL     1      90.521  99.975 -44.503  1.00  0.00     0.275 C 
HETATM    2  O2  UNL     1      90.735 100.471 -45.634  1.00  0.00    -0.269 OA
HETATM    3  N2  UNL     1      91.195 100.386 -43.328  1.00  0.00    -0.356 N 
ATOM      4  H2  UNL     1      90.953  99.929 -42.449  1.00  0.00     0.162 HD
ENDROOT
BRANCH   1   5
HETATM    5  C8  UNL     1      89.503  98.899 -44.398  1.00  0.00     0.280 C 
HETATM    6  C23 UNL     1      88.245  99.237 -45.142  1.00  0.00     0.074 C 
HETATM    7  C24 UNL     1      87.168  99.433 -44.140  1.00  0.00     0.032 C 
HETATM    8  C25 UNL     1      87.817  99.226 -42.818  1.00  0.00     0.236 C 
HETATM    9  N5  UNL     1      89.158  98.776 -42.992  1.00  0.00    -0.039 N 
ATOM     10  H52 UNL     1      89.305  97.833 -42.633  1.00  0.00     0.280 HD
ATOM     11  H51 UNL     1      89.816  99.262 -42.382  1.00  0.00     0.280 HD
BRANCH   5  12
HETATM   12  N1  UNL     1      90.085  97.668 -44.894  1.00  0.00    -0.320 N 
HETATM   13  C7  UNL     1      90.916  96.837 -44.124  1.00  0.00     0.224 C 
HETATM   14  O1  UNL     1      91.143  97.238 -42.929  1.00  0.00    -0.273 OA
ATOM     15  H1  UNL     1      89.880  97.389 -45.853  1.00  0.00     0.165 HD
BRANCH  13  16
HETATM   16  C2  UNL     1      91.508  95.575 -44.616  1.00  0.00     0.085 C 
HETATM   17  C1  UNL     1      91.366  94.560 -43.469  1.00  0.00     0.021 C 
BRANCH  16  18
HETATM   18  C3  UNL     1      90.768  94.984 -45.790  1.00  0.00     0.107 C 
BRANCH  18  19
HETATM   19  C4  UNL     1      91.185  93.663 -46.184  1.00  0.00    -0.105 C 
HETATM   20  C5  UNL     1      91.518  92.561 -46.538  1.00  0.00    -0.096 C 
BRANCH  20  21
HETATM   21  C6  UNL     1      91.925  91.200 -46.947  1.00  0.00     0.178 C 
HETATM   22 BR1  UNL     1      91.161  90.738 -48.671  1.00  0.00    -0.083 Br
ENDBRANCH  20  21
ENDBRANCH  18  19
ENDBRANCH  16  18
ENDBRANCH  13  16
ENDBRANCH   5  12
ENDBRANCH   1   5
BRANCH   3  23
HETATM   23  C10 UNL     1      92.208 101.420 -43.304  1.00  0.00     0.150 C 
BRANCH  23  24
HETATM   24  C11 UNL     1      91.628 102.678 -42.756  1.00  0.00     0.257 C 
BRANCH  24  25
HETATM   25  N3  UNL     1      91.993 102.867 -41.367  1.00  0.00    -0.061 N 
HETATM   26  C12 UNL     1      93.390 102.411 -41.245  1.00  0.00     0.265 C 
HETATM   27  C13 UNL     1      93.607 102.238 -39.765  1.00  0.00     0.265 C 
HETATM   28  N4  UNL     1      92.825 103.241 -38.996  1.00  0.00    -0.061 N 
HETATM   29  C19 UNL     1      91.457 102.712 -39.059  1.00  0.00     0.265 C 
HETATM   30  C21 UNL     1      92.913 104.440 -39.750  1.00  0.00     0.265 C 
HETATM   31  C20 UNL     1      91.239 102.073 -40.441  1.00  0.00     0.265 C 
HETATM   32  C22 UNL     1      92.030 104.270 -40.997  1.00  0.00     0.265 C 
BRANCH  28  33
HETATM   33  C14 UNL     1      93.403 103.200 -37.718  1.00  0.00     0.245 C 
BRANCH  33  34
HETATM   34  C15 UNL     1      92.889 103.980 -36.596  1.00  0.00    -0.027 C 
HETATM   35  C16 UNL     1      93.393 103.257 -35.322  1.00  0.00     0.016 C 
HETATM   36  C17 UNL     1      93.478 105.382 -36.452  1.00  0.00     0.016 C 
HETATM   37  C18 UNL     1      91.411 104.068 -36.429  1.00  0.00     0.016 C 
ENDBRANCH  33  34
ENDBRANCH  28  33
ENDBRANCH  24  25
ENDBRANCH  23  24
ENDBRANCH   3  23
TORSDOF 11
ENDMDL
MODEL 2
REMARK VINA RESULT: -5.702599562      3.388      7.699
REMARK  11 active torsions:
REMARK  status: ('A' for Active; 'I' for Inactive)
REMARK    1  A    between atoms: C2_2  and  C3_3 
REMARK    2  A    between atoms: C2_2  and  C7_8 
REMARK    3  A    between atoms: C3_3  and  C4_4 
REMARK    4  A    between atoms: C5_5  and  C6_6 
REMARK       I    between atoms: C7_8  and  N1_10 
REMARK    5  A    between atoms: N1_10  and  C8_12 
REMARK    6  A    between atoms: C8_12  and  C9_13 
REMARK       I    between atoms: C9_13  and  N2_15 
REMARK    7  A    between atoms: N2_15  and  C10_17 
REMARK    8  A    between atoms: C10_17  and  C11_18 
REMARK    9  A    between atoms: C11_18  and  N3_19 
REMARK   10  A    between atoms: N4_22  and  C14_23 
REMARK   11  A    between atoms: C14_23  and  C15_24 
ROOT
HETATM    1  C9  UNL     1      90.474 101.863 -41.926  1.00  0.00     0.275 C 
HETATM    2  O2  UNL     1      89.632 101.837 -40.997  1.00  0.00    -0.269 OA
HETATM    3  N2  UNL     1      90.229 102.453 -43.188  1.00  0.00    -0.356 N 
ATOM      4  H2  UNL     1      90.975 102.431 -43.883  1.00  0.00     0.162 HD
ENDROOT
BRANCH   1   5
HETATM    5  C8  UNL     1      91.799 101.239 -41.678  1.00  0.00     0.280 C 
HETATM    6  C23 UNL     1      92.499 101.849 -40.500  1.00  0.00     0.074 C 
HETATM    7  C24 UNL     1      93.687 102.578 -41.009  1.00  0.00     0.032 C 
HETATM    8  C25 UNL     1      93.653 102.403 -42.485  1.00  0.00     0.236 C 
HETATM    9  N5  UNL     1      92.616 101.497 -42.852  1.00  0.00    -0.039 N 
ATOM     10  H52 UNL     1      92.974 100.642 -43.276  1.00  0.00     0.280 HD
ATOM     11  H51 UNL     1      92.068 101.829 -43.646  1.00  0.00     0.280 HD
BRANCH   5  12
HETATM   12  N1  UNL     1      91.606  99.815 -41.489  1.00  0.00    -0.320 N 
HETATM   13  C7  UNL     1      91.080  98.965 -42.475  1.00  0.00     0.224 C 
HETATM   14  O1  UNL     1      90.766  99.531 -43.581  1.00  0.00    -0.273 OA
ATOM     15  H1  UNL     1      91.867  99.408 -40.591  1.00  0.00     0.165 HD
BRANCH  13  16
HETATM   16  C2  UNL     1      90.888  97.511 -42.298  1.00  0.00     0.085 C 
HETATM   17  C1  UNL     1      91.318  96.856 -43.622  1.00  0.00     0.021 C 
BRANCH  16  18
HETATM   18  C3  UNL     1      91.773  96.915 -41.231  1.00  0.00     0.107 C 
BRANCH  18  19
HETATM   19  C4  UNL     1      91.999  95.497 -41.334  1.00  0.00    -0.105 C 
HETATM   20  C5  UNL     1      92.164  94.306 -41.406  1.00  0.00    -0.096 C 
BRANCH  20  21
HETATM   21  C6  UNL     1      92.392  92.848 -41.491  1.00  0.00     0.178 C 
HETATM   22 BR1  UNL     1      94.279  92.430 -41.305  1.00  0.00    -0.083 Br
ENDBRANCH  20  21
ENDBRANCH  18  19
ENDBRANCH  16  18
ENDBRANCH  13  16
ENDBRANCH   5  12
ENDBRANCH   1   5
BRANCH   3  23
HETATM   23  C10 UNL     1      88.979 103.087 -43.549  1.00  0.00     0.150 C 
BRANCH  23  24
HETATM   24  C11 UNL     1      88.632 102.747 -44.958  1.00  0.00     0.257 C 
BRANCH  24  25
HETATM   25  N3  UNL     1      87.604 101.728 -45.019  1.00  0.00    -0.061 N 
HETATM   26  C12 UNL     1      86.596 102.219 -45.975  1.00  0.00     0.265 C 
HETATM   27  C13 UNL     1      85.381 101.367 -45.721  1.00  0.00     0.265 C 
HETATM   28  N4  UNL     1      85.776  99.990 -45.322  1.00  0.00    -0.061 N 
HETATM   29  C19 UNL     1      86.197 100.159 -43.926  1.00  0.00     0.265 C 
HETATM   30  C21 UNL     1      86.901  99.677 -46.128  1.00  0.00     0.265 C 
HETATM   31  C20 UNL     1      86.904 101.517 -43.785  1.00  0.00     0.265 C 
HETATM   32  C22 UNL     1      88.094 100.492 -45.600  1.00  0.00     0.265 C 
BRANCH  28  33
HETATM   33  C14 UNL     1      84.597  99.248 -45.486  1.00  0.00     0.245 C 
BRANCH  33  34
HETATM   34  C15 UNL     1      84.382  97.958 -44.839  1.00  0.00    -0.027 C 
HETATM   35  C16 UNL     1      83.179  97.317 -45.576  1.00  0.00     0.016 C 
HETATM   36  C17 UNL     1      85.496  96.932 -45.042  1.00  0.00     0.016 C 
HETATM   37  C18 UNL     1      83.996  97.958 -43.399  1.00  0.00     0.016 C 
ENDBRANCH  33  34
ENDBRANCH  28  33
ENDBRANCH  24  25
ENDBRANCH  23  24
ENDBRANCH   3  23
TORSDOF 11
ENDMDL
MODEL 3
REMARK VINA RESULT: -5.539510921      0.993      1.733
REMARK  11 active torsions:
REMARK  status: ('A' for Active; 'I' for Inactive)
REMARK    1  A    between atoms: C2_2  and  C3_3 
REMARK    2  A    between atoms: C2_2  and  C7_8 
REMARK    3  A    between atoms: C3_3  and  C4_4 
REMARK    4  A    between atoms: C5_5  and  C6_6 
REMARK       I    between atoms: C7_8  and  N1_10 
REMARK    5  A    between atoms: N1_10  and  C8_12 
REMARK    6  A    between atoms: C8_12  and  C9_13 
REMARK       I    between atoms: C9_13  and  N2_15 
REMARK    7  A    between atoms: N2_15  and  C10_17 
REMARK    8  A    between atoms: C10_17  and  C11_18 
REMARK    9  A    between atoms: C11_18  and  N3_19 
REMARK   10  A    between atoms: N4_22  and  C14_23 
REMARK   11  A    between atoms: C14_23  and  C15_24 
ROOT
HETATM    1  C9  UNL     1      91.544 100.059 -44.974  1.00  0.00     0.275 C 
HETATM    2  O2  UNL     1      92.627 100.147 -45.600  1.00  0.00    -0.269 OA
HETATM    3  N2  UNL     1      91.325 100.641 -43.703  1.00  0.00    -0.356 N 
ATOM      4  H2  UNL     1      90.410 100.521 -43.269  1.00  0.00     0.162 HD
ENDROOT
BRANCH   1   5
HETATM    5  C8  UNL     1      90.435  99.301 -45.608  1.00  0.00     0.280 C 
HETATM    6  C23 UNL     1      89.994  99.921 -46.901  1.00  0.00     0.074 C 
HETATM    7  C24 UNL     1      88.623 100.452 -46.701  1.00  0.00     0.032 C 
HETATM    8  C25 UNL     1      88.287 100.152 -45.284  1.00  0.00     0.236 C 
HETATM    9  N5  UNL     1      89.308  99.353 -44.693  1.00  0.00    -0.039 N 
ATOM     10  H52 UNL     1      88.975  98.426 -44.428  1.00  0.00     0.280 HD
ATOM     11  H51 UNL     1      89.571  99.678 -43.763  1.00  0.00     0.280 HD
BRANCH   5  12
HETATM   12  N1  UNL     1      90.872  97.934 -45.810  1.00  0.00    -0.320 N 
HETATM   13  C7  UNL     1      91.112  97.033 -44.759  1.00  0.00     0.224 C 
HETATM   14  O1  UNL     1      90.924  97.497 -43.581  1.00  0.00    -0.273 OA
ATOM     15  H1  UNL     1      91.012  97.608 -46.766  1.00  0.00     0.165 HD
BRANCH  13  16
HETATM   16  C2  UNL     1      91.548  95.634 -44.952  1.00  0.00     0.085 C 
HETATM   17  C1  UNL     1      91.355  94.933 -43.597  1.00  0.00     0.021 C 
BRANCH  16  18
HETATM   18  C3  UNL     1      90.699  94.872 -45.941  1.00  0.00     0.107 C 
BRANCH  18  19
HETATM   19  C4  UNL     1      91.172  93.555 -46.278  1.00  0.00    -0.105 C 
HETATM   20  C5  UNL     1      91.563  92.458 -46.588  1.00  0.00    -0.096 C 
BRANCH  20  21
HETATM   21  C6  UNL     1      92.031  91.103 -46.947  1.00  0.00     0.178 C 
HETATM   22 BR1  UNL     1      91.417  90.606 -48.720  1.00  0.00    -0.083 Br
ENDBRANCH  20  21
ENDBRANCH  18  19
ENDBRANCH  16  18
ENDBRANCH  13  16
ENDBRANCH   5  12
ENDBRANCH   1   5
BRANCH   3  23
HETATM   23  C10 UNL     1      92.328 101.398 -42.984  1.00  0.00     0.150 C 
BRANCH  23  24
HETATM   24  C11 UNL     1      91.789 102.744 -42.638  1.00  0.00     0.257 C 
BRANCH  24  25
HETATM   25  N3  UNL     1      92.071 103.088 -41.260  1.00  0.00    -0.061 N 
HETATM   26  C12 UNL     1      91.010 102.457 -40.454  1.00  0.00     0.265 C 
HETATM   27  C13 UNL     1      91.087 103.144 -39.117  1.00  0.00     0.265 C 
HETATM   28  N4  UNL     1      92.490 103.508 -38.790  1.00  0.00    -0.061 N 
HETATM   29  C19 UNL     1      92.730 104.686 -39.632  1.00  0.00     0.265 C 
HETATM   30  C21 UNL     1      93.275 102.419 -39.251  1.00  0.00     0.265 C 
HETATM   31  C20 UNL     1      92.000 104.491 -40.971  1.00  0.00     0.265 C 
HETATM   32  C22 UNL     1      93.303 102.484 -40.787  1.00  0.00     0.265 C 
BRANCH  28  33
HETATM   33  C14 UNL     1      92.449 103.779 -37.414  1.00  0.00     0.245 C 
BRANCH  33  34
HETATM   34  C15 UNL     1      93.650 104.026 -36.623  1.00  0.00    -0.027 C 
HETATM   35  C16 UNL     1      93.252 105.106 -35.587  1.00  0.00     0.016 C 
HETATM   36  C17 UNL     1      94.106 102.860 -35.747  1.00  0.00     0.016 C 
HETATM   37  C18 UNL     1      94.842 104.585 -37.324  1.00  0.00     0.016 C 
ENDBRANCH  33  34
ENDBRANCH  28  33
ENDBRANCH  24  25
ENDBRANCH  23  24
ENDBRANCH   3  23
TORSDOF 11
ENDMDL
MODEL 4
REMARK VINA RESULT: -5.518984920      1.348      1.838
REMARK  11 active torsions:
REMARK  status: ('A' for Active; 'I' for Inactive)
REMARK    1  A    between atoms: C2_2  and  C3_3 
REMARK    2  A    between atoms: C2_2  and  C7_8 
REMARK    3  A    between atoms: C3_3  and  C4_4 
REMARK    4  A    between atoms: C5_5  and  C6_6 
REMARK       I    between atoms: C7_8  and  N1_10 
REMARK    5  A    between atoms: N1_10  and  C8_12 
REMARK    6  A    between atoms: C8_12  and  C9_13 
REMARK       I    between atoms: C9_13  and  N2_15 
REMARK    7  A    between atoms: N2_15  and  C10_17 
REMARK    8  A    between atoms: C10_17  and  C11_18 
REMARK    9  A    between atoms: C11_18  and  N3_19 
REMARK   10  A    between atoms: N4_22  and  C14_23 
REMARK   11  A    between atoms: C14_23  and  C15_24 
ROOT
HETATM    1  C9  UNL     1      91.106  99.941 -43.813  1.00  0.00     0.275 C 
HETATM    2  O2  UNL     1      91.852  99.858 -42.808  1.00  0.00    -0.269 OA
HETATM    3  N2  UNL     1      91.278 100.903 -44.837  1.00  0.00    -0.356 N 
ATOM      4  H2  UNL     1      90.626 100.894 -45.621  1.00  0.00     0.162 HD
ENDROOT
BRANCH   1   5
HETATM    5  C8  UNL     1      89.986  98.974 -43.929  1.00  0.00     0.280 C 
HETATM    6  C23 UNL     1      88.852  99.518 -44.748  1.00  0.00     0.074 C 
HETATM    7  C24 UNL     1      87.697  99.723 -43.839  1.00  0.00     0.032 C 
HETATM    8  C25 UNL     1      88.178  99.314 -42.492  1.00  0.00     0.236 C 
HETATM    9  N5  UNL     1      89.481  98.746 -42.585  1.00  0.00    -0.039 N 
ATOM     10  H52 UNL     1      89.499  97.760 -42.322  1.00  0.00     0.280 HD
ATOM     11  H51 UNL     1      90.113  99.094 -41.864  1.00  0.00     0.280 HD
BRANCH   5  12
HETATM   12  N1  UNL     1      90.498  97.745 -44.502  1.00  0.00    -0.320 N 
HETATM   13  C7  UNL     1      91.025  96.693 -43.736  1.00  0.00     0.224 C 
HETATM   14  O1  UNL     1      91.034  96.882 -42.469  1.00  0.00    -0.273 OA
ATOM     15  H1  UNL     1      90.475  97.640 -45.516  1.00  0.00     0.165 HD
BRANCH  13  16
HETATM   16  C2  UNL     1      91.542  95.432 -44.307  1.00  0.00     0.085 C 
HETATM   17  C1  UNL     1      91.315  94.351 -43.237  1.00  0.00     0.021 C 
BRANCH  16  18
HETATM   18  C3  UNL     1      90.786  94.973 -45.530  1.00  0.00     0.107 C 
BRANCH  18  19
HETATM   19  C4  UNL     1      91.161  93.681 -46.043  1.00  0.00    -0.105 C 
HETATM   20  C5  UNL     1      91.486  92.594 -46.446  1.00  0.00    -0.096 C 
BRANCH  20  21
HETATM   21  C6  UNL     1      91.891  91.270 -46.963  1.00  0.00     0.178 C 
HETATM   22 BR1  UNL     1      91.163  90.968 -48.738  1.00  0.00    -0.083 Br
ENDBRANCH  20  21
ENDBRANCH  18  19
ENDBRANCH  16  18
ENDBRANCH  13  16
ENDBRANCH   5  12
ENDBRANCH   1   5
BRANCH   3  23
HETATM   23  C10 UNL     1      92.329 101.899 -44.835  1.00  0.00     0.150 C 
BRANCH  23  24
HETATM   24  C11 UNL     1      91.818 103.165 -44.238  1.00  0.00     0.257 C 
BRANCH  24  25
HETATM   25  N3  UNL     1      92.483 103.465 -42.986  1.00  0.00    -0.061 N 
HETATM   26  C12 UNL     1      92.775 104.909 -43.012  1.00  0.00     0.265 C 
HETATM   27  C13 UNL     1      93.794 105.112 -41.923  1.00  0.00     0.265 C 
HETATM   28  N4  UNL     1      93.556 104.173 -40.795  1.00  0.00    -0.061 N 
HETATM   29  C19 UNL     1      94.069 102.899 -41.313  1.00  0.00     0.265 C 
HETATM   30  C21 UNL     1      92.145 104.104 -40.660  1.00  0.00     0.265 C 
HETATM   31  C20 UNL     1      93.748 102.812 -42.814  1.00  0.00     0.265 C 
HETATM   32  C22 UNL     1      91.604 103.286 -41.845  1.00  0.00     0.265 C 
BRANCH  28  33
HETATM   33  C14 UNL     1      94.311 104.719 -39.746  1.00  0.00     0.245 C 
BRANCH  33  34
HETATM   34  C15 UNL     1      93.954 104.540 -38.343  1.00  0.00    -0.027 C 
HETATM   35  C16 UNL     1      95.256 104.799 -37.545  1.00  0.00     0.016 C 
HETATM   36  C17 UNL     1      92.991 105.583 -37.777  1.00  0.00     0.016 C 
HETATM   37  C18 UNL     1      93.498 103.190 -37.907  1.00  0.00     0.016 C 
ENDBRANCH  33  34
ENDBRANCH  28  33
ENDBRANCH  24  25
ENDBRANCH  23  24
ENDBRANCH   3  23
TORSDOF 11
ENDMDL
MODEL 5
REMARK VINA RESULT: -5.488166046      1.133      1.687
REMARK  11 active torsions:
REMARK  status: ('A' for Active; 'I' for Inactive)
REMARK    1  A    between atoms: C2_2  and  C3_3 
REMARK    2  A    between atoms: C2_2  and  C7_8 
REMARK    3  A    between atoms: C3_3  and  C4_4 
REMARK    4  A    between atoms: C5_5  and  C6_6 
REMARK       I    between atoms: C7_8  and  N1_10 
REMARK    5  A    between atoms: N1_10  and  C8_12 
REMARK    6  A    between atoms: C8_12  and  C9_13 
REMARK       I    between atoms: C9_13  and  N2_15 
REMARK    7  A    between atoms: N2_15  and  C10_17 
REMARK    8  A    between atoms: C10_17  and  C11_18 
REMARK    9  A    between atoms: C11_18  and  N3_19 
REMARK   10  A    between atoms: N4_22  and  C14_23 
REMARK   11  A    between atoms: C14_23  and  C15_24 
ROOT
HETATM    1  C9  UNL     1      90.644  99.852 -44.491  1.00  0.00     0.275 C 
HETATM    2  O2  UNL     1      91.113 100.192 -45.603  1.00  0.00    -0.269 OA
HETATM    3  N2  UNL     1      91.103 100.371 -43.256  1.00  0.00    -0.356 N 
ATOM      4  H2  UNL     1      90.659 100.040 -42.400  1.00  0.00     0.162 HD
ENDROOT
BRANCH   1   5
HETATM    5  C8  UNL     1      89.546  98.853 -44.477  1.00  0.00     0.280 C 
HETATM    6  C23 UNL     1      88.375  99.288 -45.308  1.00  0.00     0.074 C 
HETATM    7  C24 UNL     1      87.242  99.553 -44.387  1.00  0.00     0.032 C 
HETATM    8  C25 UNL     1      87.774  99.288 -43.023  1.00  0.00     0.236 C 
HETATM    9  N5  UNL     1      89.088  98.744 -43.102  1.00  0.00    -0.039 N 
ATOM     10  H52 UNL     1      89.139  97.789 -42.746  1.00  0.00     0.280 HD
ATOM     11  H51 UNL     1      89.731  99.175 -42.439  1.00  0.00     0.280 HD
BRANCH   5  12
HETATM   12  N1  UNL     1      90.074  97.586 -44.945  1.00  0.00    -0.320 N 
HETATM   13  C7  UNL     1      90.973  96.800 -44.207  1.00  0.00     0.224 C 
HETATM   14  O1  UNL     1      91.317  97.276 -43.069  1.00  0.00    -0.273 OA
ATOM     15  H1  UNL     1      89.775  97.248 -45.860  1.00  0.00     0.165 HD
BRANCH  13  16
HETATM   16  C2  UNL     1      91.511  95.504 -44.669  1.00  0.00     0.085 C 
HETATM   17  C1  UNL     1      91.336  94.524 -43.497  1.00  0.00     0.021 C 
BRANCH  16  18
HETATM   18  C3  UNL     1      90.742  94.914 -45.826  1.00  0.00     0.107 C 
BRANCH  18  19
HETATM   19  C4  UNL     1      91.156  93.598 -46.239  1.00  0.00    -0.105 C 
HETATM   20  C5  UNL     1      91.499  92.506 -46.613  1.00  0.00    -0.096 C 
BRANCH  20  21
HETATM   21  C6  UNL     1      91.908  91.155 -47.052  1.00  0.00     0.178 C 
HETATM   22 BR1  UNL     1      91.192  90.751 -48.811  1.00  0.00    -0.083 Br
ENDBRANCH  20  21
ENDBRANCH  18  19
ENDBRANCH  16  18
ENDBRANCH  13  16
ENDBRANCH   5  12
ENDBRANCH   1   5
BRANCH   3  23
HETATM   23  C10 UNL     1      92.167 101.345 -43.141  1.00  0.00     0.150 C 
BRANCH  23  24
HETATM   24  C11 UNL     1      91.625 102.617 -42.585  1.00  0.00     0.257 C 
BRANCH  24  25
HETATM   25  N3  UNL     1      92.420 103.086 -41.468  1.00  0.00    -0.061 N 
HETATM   26  C12 UNL     1      92.071 102.224 -40.325  1.00  0.00     0.265 C 
HETATM   27  C13 UNL     1      92.582 102.964 -39.118  1.00  0.00     0.265 C 
HETATM   28  N4  UNL     1      93.823 103.714 -39.446  1.00  0.00    -0.061 N 
HETATM   29  C19 UNL     1      93.319 104.874 -40.191  1.00  0.00     0.265 C 
HETATM   30  C21 UNL     1      94.554 102.864 -40.316  1.00  0.00     0.265 C 
HETATM   31  C20 UNL     1      92.126 104.426 -41.052  1.00  0.00     0.265 C 
HETATM   32  C22 UNL     1      93.839 102.866 -41.677  1.00  0.00     0.265 C 
BRANCH  28  33
HETATM   33  C14 UNL     1      94.364 104.024 -38.189  1.00  0.00     0.245 C 
BRANCH  33  34
HETATM   34  C15 UNL     1      95.415 105.019 -38.007  1.00  0.00    -0.027 C 
HETATM   35  C16 UNL     1      95.895 104.855 -36.543  1.00  0.00     0.016 C 
HETATM   36  C17 UNL     1      96.689 104.778 -38.816  1.00  0.00     0.016 C 
HETATM   37  C18 UNL     1      95.041 106.457 -38.131  1.00  0.00     0.016 C 
ENDBRANCH  33  34
ENDBRANCH  28  33
ENDBRANCH  24  25
ENDBRANCH  23  24
ENDBRANCH   3  23
TORSDOF 11
ENDMDL
