MODEL 1
REMARK VINA RESULT: -6.619054451      0.000      0.000
REMARK  9 active torsions:
REMARK  status: ('A' for Active; 'I' for Inactive)
REMARK    1  A    between atoms: C2_2  and  C3_3 
REMARK    2  A    between atoms: C5_7  and  C6_8 
REMARK    3  A    between atoms: C7_9  and  C8_10 
REMARK    4  A    between atoms: C8_10  and  O1_11 
REMARK    5  A    between atoms: C8_10  and  N2_13 
REMARK    6  A    between atoms: N2_13  and  C9_15 
REMARK    7  A    between atoms: C9_15  and  C10_16 
REMARK    8  A    between atoms: C10_16  and  C11_17 
REMARK    9  A    between atoms: N4_24  and  C17_25 
ROOT
HETATM    1  C6  UNL     1      90.528  98.387 -44.939  1.00  0.00     0.077 A 
HETATM    2  C7  UNL     1      91.196  99.549 -45.109  1.00  0.00     0.104 A 
HETATM    3  N4  UNL     1      90.761 100.370 -46.217  1.00  0.00    -0.330 N 
HETATM    4  C19 UNL     1      89.699 100.024 -47.091  1.00  0.00     0.102 A 
HETATM    5  C20 UNL     1      89.296 100.777 -48.084  1.00  0.00     0.064 C 
HETATM    6  N5  UNL     1      88.999  98.778 -46.879  1.00  0.00    -0.304 N 
HETATM    7  C21 UNL     1      87.911  98.435 -47.774  1.00  0.00     0.161 C 
HETATM    8  C22 UNL     1      89.418  97.988 -45.821  1.00  0.00     0.262 A 
HETATM    9  O2  UNL     1      88.835  96.871 -45.591  1.00  0.00    -0.267 OA
ENDROOT
BRANCH   2  10
HETATM   10  C8  UNL     1      92.238  99.884 -44.186  1.00  0.00     0.164 C 
BRANCH  10  11
HETATM   11  O1  UNL     1      93.406  99.405 -44.591  1.00  0.00    -0.345 OA
ATOM     12  H1  UNL     1      93.846  98.941 -43.889  1.00  0.00     0.219 HD
ENDBRANCH  10  11
BRANCH  10  13
HETATM   13  N2  UNL     1      92.316 100.568 -42.993  1.00  0.00    -0.369 N 
ATOM     14  H2  UNL     1      93.059 100.324 -42.337  1.00  0.00     0.161 HD
BRANCH  13  15
HETATM   15  C9  UNL     1      91.370 101.638 -42.626  1.00  0.00     0.126 C 
BRANCH  15  16
HETATM   16  C10 UNL     1      90.260 101.256 -41.754  1.00  0.00     0.058 C 
BRANCH  16  17
HETATM   17  C11 UNL     1      89.085 100.945 -42.596  1.00  0.00    -0.054 A 
HETATM   18  C12 UNL     1      88.275  99.855 -42.426  1.00  0.00     0.024 A 
HETATM   19  C13 UNL     1      87.200  99.628 -43.270  1.00  0.00     0.090 A 
HETATM   20  N3  UNL     1      86.912 100.457 -44.276  1.00  0.00    -0.371 N 
HETATM   21  C14 UNL     1      85.774 100.154 -45.121  1.00  0.00     0.154 C 
HETATM   22  C15 UNL     1      87.682 101.545 -44.481  1.00  0.00     0.090 A 
HETATM   23  C16 UNL     1      88.762 101.798 -43.657  1.00  0.00     0.024 A 
ENDBRANCH  16  17
ENDBRANCH  15  16
ENDBRANCH  13  15
ENDBRANCH  10  13
ENDBRANCH   2  10
BRANCH   1  24
HETATM   24  C5  UNL     1      90.770  97.393 -43.887  1.00  0.00     0.026 A 
HETATM   25  C4  UNL     1      91.093  96.051 -44.122  1.00  0.00     0.074 A 
HETATM   26  N1  UNL     1      91.218  95.125 -45.079  1.00  0.00    -0.352 N 
HETATM   27  C24 UNL     1      91.404  95.511 -42.902  1.00  0.00     0.080 A 
HETATM   28  C3  UNL     1      91.619  93.947 -44.507  1.00  0.00     0.051 A 
ATOM     29  H1  UNL     1      91.044  95.272 -46.073  1.00  0.00     0.166 HD
HETATM   30  C25 UNL     1      91.735  94.172 -43.168  1.00  0.00     0.066 A 
HETATM   31 BR1  UNL     1      92.236  92.982 -41.766  1.00  0.00    -0.046 Br
HETATM   32  N6  UNL     1      91.294  96.416 -41.921  1.00  0.00    -0.362 N 
HETATM   33  C23 UNL     1      90.911  97.560 -42.509  1.00  0.00     0.103 A 
ATOM     34  H6  UNL     1      91.467  96.267 -40.927  1.00  0.00     0.165 HD
BRANCH  28  35
HETATM   35  C2  UNL     1      91.859  92.706 -45.215  1.00  0.00     0.021 C 
HETATM   36  C1  UNL     1      91.486  92.383 -46.422  1.00  0.00     0.013 C 
ENDBRANCH  28  35
ENDBRANCH   1  24
BRANCH   3  37
HETATM   37  C17 UNL     1      91.522 101.569 -46.553  1.00  0.00     0.126 C 
HETATM   38  C18 UNL     1      92.632 101.120 -47.478  1.00  0.00     0.027 C 
ENDBRANCH   3  37
TORSDOF 9
ENDMDL
MODEL 2
REMARK VINA RESULT: -6.366235519      1.167      3.415
REMARK  9 active torsions:
REMARK  status: ('A' for Active; 'I' for Inactive)
REMARK    1  A    between atoms: C2_2  and  C3_3 
REMARK    2  A    between atoms: C5_7  and  C6_8 
REMARK    3  A    between atoms: C7_9  and  C8_10 
REMARK    4  A    between atoms: C8_10  and  O1_11 
REMARK    5  A    between atoms: C8_10  and  N2_13 
REMARK    6  A    between atoms: N2_13  and  C9_15 
REMARK    7  A    between atoms: C9_15  and  C10_16 
REMARK    8  A    between atoms: C10_16  and  C11_17 
REMARK    9  A    between atoms: N4_24  and  C17_25 
ROOT
HETATM    1  C6  UNL     1      90.451  98.855 -45.059  1.00  0.00     0.077 A 
HETATM    2  C7  UNL     1      89.236  99.170 -45.558  1.00  0.00     0.104 A 
HETATM    3  N4  UNL     1      89.231 100.080 -46.682  1.00  0.00    -0.330 N 
HETATM    4  C19 UNL     1      90.404 100.624 -47.266  1.00  0.00     0.102 A 
HETATM    5  C20 UNL     1      90.398 101.434 -48.294  1.00  0.00     0.064 C 
HETATM    6  N5  UNL     1      91.690 100.263 -46.715  1.00  0.00    -0.304 N 
HETATM    7  C21 UNL     1      92.883 100.820 -47.320  1.00  0.00     0.161 C 
HETATM    8  C22 UNL     1      91.695  99.396 -45.633  1.00  0.00     0.262 A 
HETATM    9  O2  UNL     1      92.807  99.046 -45.104  1.00  0.00    -0.267 OA
ENDROOT
BRANCH   2  10
HETATM   10  C8  UNL     1      88.075  98.572 -44.969  1.00  0.00     0.164 C 
BRANCH  10  11
HETATM   11  O1  UNL     1      87.764  97.436 -45.576  1.00  0.00    -0.345 OA
ATOM     12  H1  UNL     1      88.295  97.308 -46.353  1.00  0.00     0.219 HD
ENDBRANCH  10  11
BRANCH  10  13
HETATM   13  N2  UNL     1      87.214  98.893 -43.943  1.00  0.00    -0.369 N 
ATOM     14  H2  UNL     1      86.231  98.634 -44.031  1.00  0.00     0.161 HD
BRANCH  13  15
HETATM   15  C9  UNL     1      87.656  99.595 -42.724  1.00  0.00     0.126 C 
BRANCH  15  16
HETATM   16  C10 UNL     1      87.682 101.056 -42.785  1.00  0.00     0.058 C 
BRANCH  16  17
HETATM   17  C11 UNL     1      89.078 101.509 -42.611  1.00  0.00    -0.054 A 
HETATM   18  C12 UNL     1      89.851 102.044 -43.606  1.00  0.00     0.024 A 
HETATM   19  C13 UNL     1      91.159 102.431 -43.362  1.00  0.00     0.090 A 
HETATM   20  N3  UNL     1      91.715 102.300 -42.155  1.00  0.00    -0.371 N 
HETATM   21  C14 UNL     1      93.090 102.724 -41.976  1.00  0.00     0.154 C 
HETATM   22  C15 UNL     1      90.991 101.780 -41.144  1.00  0.00     0.090 A 
HETATM   23  C16 UNL     1      89.684 101.383 -41.356  1.00  0.00     0.024 A 
ENDBRANCH  16  17
ENDBRANCH  15  16
ENDBRANCH  13  15
ENDBRANCH  10  13
ENDBRANCH   2  10
BRANCH   1  24
HETATM   24  C5  UNL     1      90.720  97.951 -43.936  1.00  0.00     0.026 A 
HETATM   25  C4  UNL     1      90.992  96.583 -44.064  1.00  0.00     0.074 A 
HETATM   26  N1  UNL     1      91.040  95.572 -44.939  1.00  0.00    -0.352 N 
HETATM   27  C24 UNL     1      91.350  96.144 -42.817  1.00  0.00     0.080 A 
HETATM   28  C3  UNL     1      91.435  94.437 -44.283  1.00  0.00     0.051 A 
ATOM     29  H1  UNL     1      90.818  95.636 -45.932  1.00  0.00     0.166 HD
HETATM   30  C25 UNL     1      91.628  94.776 -42.977  1.00  0.00     0.066 A 
HETATM   31 BR1  UNL     1      92.168  93.699 -41.501  1.00  0.00    -0.046 Br
HETATM   32  N6  UNL     1      91.317  97.135 -41.918  1.00  0.00    -0.362 N 
HETATM   33  C23 UNL     1      90.937  98.235 -42.587  1.00  0.00     0.103 A 
ATOM     34  H6  UNL     1      91.538  97.069 -40.924  1.00  0.00     0.165 HD
BRANCH  28  35
HETATM   35  C2  UNL     1      91.603  93.131 -44.888  1.00  0.00     0.021 C 
HETATM   36  C1  UNL     1      91.450  92.798 -46.139  1.00  0.00     0.013 C 
ENDBRANCH  28  35
ENDBRANCH   1  24
BRANCH   3  37
HETATM   37  C17 UNL     1      87.956 100.578 -47.187  1.00  0.00     0.126 C 
HETATM   38  C18 UNL     1      87.616 101.792 -46.350  1.00  0.00     0.027 C 
ENDBRANCH   3  37
TORSDOF 9
ENDMDL
MODEL 3
REMARK VINA RESULT: -6.136376983      1.453      1.838
REMARK  9 active torsions:
REMARK  status: ('A' for Active; 'I' for Inactive)
REMARK    1  A    between atoms: C2_2  and  C3_3 
REMARK    2  A    between atoms: C5_7  and  C6_8 
REMARK    3  A    between atoms: C7_9  and  C8_10 
REMARK    4  A    between atoms: C8_10  and  O1_11 
REMARK    5  A    between atoms: C8_10  and  N2_13 
REMARK    6  A    between atoms: N2_13  and  C9_15 
REMARK    7  A    between atoms: C9_15  and  C10_16 
REMARK    8  A    between atoms: C10_16  and  C11_17 
REMARK    9  A    between atoms: N4_24  and  C17_25 
ROOT
HETATM    1  C6  UNL     1      89.848  99.162 -44.839  1.00  0.00     0.077 A 
HETATM    2  C7  UNL     1      90.639 100.090 -45.420  1.00  0.00     0.104 A 
HETATM    3  N4  UNL     1      89.954 101.134 -46.151  1.00  0.00    -0.330 N 
HETATM    4  C19 UNL     1      88.544 101.224 -46.269  1.00  0.00     0.102 A 
HETATM    5  C20 UNL     1      87.925 102.180 -46.917  1.00  0.00     0.064 C 
HETATM    6  N5  UNL     1      87.724 100.220 -45.630  1.00  0.00    -0.304 N 
HETATM    7  C21 UNL     1      86.284 100.323 -45.751  1.00  0.00     0.161 C 
HETATM    8  C22 UNL     1      88.379  99.216 -44.934  1.00  0.00     0.262 A 
HETATM    9  O2  UNL     1      87.702  98.299 -44.353  1.00  0.00    -0.267 OA
ENDROOT
BRANCH   2  10
HETATM   10  C8  UNL     1      92.057  99.990 -45.249  1.00  0.00     0.164 C 
BRANCH  10  11
HETATM   11  O1  UNL     1      92.600  99.247 -46.203  1.00  0.00    -0.345 OA
ATOM     12  H1  UNL     1      92.064  99.252 -46.987  1.00  0.00     0.219 HD
ENDBRANCH  10  11
BRANCH  10  13
HETATM   13  N2  UNL     1      92.977 100.466 -44.343  1.00  0.00    -0.369 N 
ATOM     14  H2  UNL     1      93.829  99.929 -44.182  1.00  0.00     0.161 HD
BRANCH  13  15
HETATM   15  C9  UNL     1      92.781 101.723 -43.595  1.00  0.00     0.126 C 
BRANCH  15  16
HETATM   16  C10 UNL     1      92.072 101.619 -42.320  1.00  0.00     0.058 C 
BRANCH  16  17
HETATM   17  C11 UNL     1      90.667 102.028 -42.529  1.00  0.00    -0.054 A 
HETATM   18  C12 UNL     1      89.581 101.357 -42.035  1.00  0.00     0.024 A 
HETATM   19  C13 UNL     1      88.293 101.800 -42.289  1.00  0.00     0.090 A 
HETATM   20  N3  UNL     1      88.059 102.892 -43.021  1.00  0.00    -0.371 N 
HETATM   21  C14 UNL     1      86.685 103.294 -43.248  1.00  0.00     0.154 C 
HETATM   22  C15 UNL     1      89.098 103.586 -43.528  1.00  0.00     0.090 A 
HETATM   23  C16 UNL     1      90.395 103.169 -43.293  1.00  0.00     0.024 A 
ENDBRANCH  16  17
ENDBRANCH  15  16
ENDBRANCH  13  15
ENDBRANCH  10  13
ENDBRANCH   2  10
BRANCH   1  24
HETATM   24  C5  UNL     1      90.298  98.018 -44.039  1.00  0.00     0.026 A 
HETATM   25  C4  UNL     1      90.632  96.763 -44.564  1.00  0.00     0.074 A 
HETATM   26  N1  UNL     1      90.635  96.031 -45.683  1.00  0.00    -0.352 N 
HETATM   27  C24 UNL     1      91.159  96.040 -43.527  1.00  0.00     0.080 A 
HETATM   28  C3  UNL     1      91.170  94.800 -45.407  1.00  0.00     0.051 A 
ATOM     29  H1  UNL     1      90.296  96.338 -46.595  1.00  0.00     0.166 HD
HETATM   30  C25 UNL     1      91.494  94.794 -44.083  1.00  0.00     0.066 A 
HETATM   31 BR1  UNL     1      92.265  93.414 -43.019  1.00  0.00    -0.046 Br
HETATM   32  N6  UNL     1      91.175  96.749 -42.391  1.00  0.00    -0.362 N 
HETATM   33  C23 UNL     1      90.656  97.949 -42.692  1.00  0.00     0.103 A 
ATOM     34  H6  UNL     1      91.513  96.439 -41.480  1.00  0.00     0.165 HD
BRANCH  28  35
HETATM   35  C2  UNL     1      91.340  93.723 -46.360  1.00  0.00     0.021 C 
HETATM   36  C1  UNL     1      91.464  92.447 -46.120  1.00  0.00     0.013 C 
ENDBRANCH  28  35
ENDBRANCH   1  24
BRANCH   3  37
HETATM   37  C17 UNL     1      90.739 102.092 -46.923  1.00  0.00     0.126 C 
HETATM   38  C18 UNL     1      90.931 101.475 -48.291  1.00  0.00     0.027 C 
ENDBRANCH   3  37
TORSDOF 9
ENDMDL
MODEL 4
REMARK VINA RESULT: -6.112663876      2.029      3.486
REMARK  9 active torsions:
REMARK  status: ('A' for Active; 'I' for Inactive)
REMARK    1  A    between atoms: C2_2  and  C3_3 
REMARK    2  A    between atoms: C5_7  and  C6_8 
REMARK    3  A    between atoms: C7_9  and  C8_10 
REMARK    4  A    between atoms: C8_10  and  O1_11 
REMARK    5  A    between atoms: C8_10  and  N2_13 
REMARK    6  A    between atoms: N2_13  and  C9_15 
REMARK    7  A    between atoms: C9_15  and  C10_16 
REMARK    8  A    between atoms: C10_16  and  C11_17 
REMARK    9  A    between atoms: N4_24  and  C17_25 
ROOT
HETATM    1  C6  UNL     1      90.462  98.713 -44.795  1.00  0.00     0.077 A 
HETATM    2  C7  UNL     1      91.238  99.779 -45.090  1.00  0.00     0.104 A 
HETATM    3  N4  UNL     1      90.787 100.603 -46.190  1.00  0.00    -0.330 N 
HETATM    4  C19 UNL     1      89.606 100.354 -46.934  1.00  0.00     0.102 A 
HETATM    5  C20 UNL     1      89.191 101.111 -47.919  1.00  0.00     0.064 C 
HETATM    6  N5  UNL     1      88.793  99.210 -46.591  1.00  0.00    -0.304 N 
HETATM    7  C21 UNL     1      87.585  98.966 -47.354  1.00  0.00     0.161 C 
HETATM    8  C22 UNL     1      89.227  98.416 -45.542  1.00  0.00     0.262 A 
HETATM    9  O2  UNL     1      88.547  97.388 -45.199  1.00  0.00    -0.267 OA
ENDROOT
BRANCH   2  10
HETATM   10  C8  UNL     1      92.403 100.023 -44.293  1.00  0.00     0.164 C 
BRANCH  10  11
HETATM   11  O1  UNL     1      93.396  99.218 -44.644  1.00  0.00    -0.345 OA
ATOM     12  H1  UNL     1      93.244  98.334 -44.333  1.00  0.00     0.219 HD
ENDBRANCH  10  11
BRANCH  10  13
HETATM   13  N2  UNL     1      92.732 100.874 -43.262  1.00  0.00    -0.369 N 
ATOM     14  H2  UNL     1      93.695 100.886 -42.926  1.00  0.00     0.161 HD
BRANCH  13  15
HETATM   15  C9  UNL     1      91.748 101.768 -42.624  1.00  0.00     0.126 C 
BRANCH  15  16
HETATM   16  C10 UNL     1      91.123 101.280 -41.396  1.00  0.00     0.058 C 
BRANCH  16  17
HETATM   17  C11 UNL     1      91.655 102.056 -40.256  1.00  0.00    -0.054 A 
HETATM   18  C12 UNL     1      92.962 102.039 -39.847  1.00  0.00     0.024 A 
HETATM   19  C13 UNL     1      93.377 102.787 -38.757  1.00  0.00     0.090 A 
HETATM   20  N3  UNL     1      92.527 103.550 -38.066  1.00  0.00    -0.371 N 
HETATM   21  C14 UNL     1      93.033 104.302 -36.935  1.00  0.00     0.154 C 
HETATM   22  C15 UNL     1      91.231 103.599 -38.433  1.00  0.00     0.090 A 
HETATM   23  C16 UNL     1      90.785 102.864 -39.515  1.00  0.00     0.024 A 
ENDBRANCH  16  17
ENDBRANCH  15  16
ENDBRANCH  13  15
ENDBRANCH  10  13
ENDBRANCH   2  10
BRANCH   1  24
HETATM   24  C5  UNL     1      90.697  97.739 -43.725  1.00  0.00     0.026 A 
HETATM   25  C4  UNL     1      91.026  96.394 -43.933  1.00  0.00     0.074 A 
HETATM   26  N1  UNL     1      91.161  95.451 -44.873  1.00  0.00    -0.352 N 
HETATM   27  C24 UNL     1      91.326  95.876 -42.701  1.00  0.00     0.080 A 
HETATM   28  C3  UNL     1      91.559  94.284 -44.276  1.00  0.00     0.051 A 
ATOM     29  H1  UNL     1      90.996  95.580 -45.871  1.00  0.00     0.166 HD
HETATM   30  C25 UNL     1      91.663  94.533 -42.940  1.00  0.00     0.066 A 
HETATM   31 BR1  UNL     1      92.155  93.369 -41.514  1.00  0.00    -0.046 Br
HETATM   32  N6  UNL     1      91.206  96.798 -41.737  1.00  0.00    -0.362 N 
HETATM   33  C23 UNL     1      90.825  97.931 -42.349  1.00  0.00     0.103 A 
ATOM     34  H6  UNL     1      91.370  96.667 -40.739  1.00  0.00     0.165 HD
BRANCH  28  35
HETATM   35  C2  UNL     1      91.809  93.032 -44.960  1.00  0.00     0.021 C 
HETATM   36  C1  UNL     1      91.440  92.684 -46.161  1.00  0.00     0.013 C 
ENDBRANCH  28  35
ENDBRANCH   1  24
BRANCH   3  37
HETATM   37  C17 UNL     1      91.641 101.690 -46.659  1.00  0.00     0.126 C 
HETATM   38  C18 UNL     1      92.676 101.053 -47.561  1.00  0.00     0.027 C 
ENDBRANCH   3  37
TORSDOF 9
ENDMDL
MODEL 5
REMARK VINA RESULT: -6.109309549      2.652      5.525
REMARK  9 active torsions:
REMARK  status: ('A' for Active; 'I' for Inactive)
REMARK    1  A    between atoms: C2_2  and  C3_3 
REMARK    2  A    between atoms: C5_7  and  C6_8 
REMARK    3  A    between atoms: C7_9  and  C8_10 
REMARK    4  A    between atoms: C8_10  and  O1_11 
REMARK    5  A    between atoms: C8_10  and  N2_13 
REMARK    6  A    between atoms: N2_13  and  C9_15 
REMARK    7  A    between atoms: C9_15  and  C10_16 
REMARK    8  A    between atoms: C10_16  and  C11_17 
REMARK    9  A    between atoms: N4_24  and  C17_25 
ROOT
HETATM    1  C6  UNL     1      90.795  96.990 -44.470  1.00  0.00     0.077 A 
HETATM    2  C7  UNL     1      90.883  97.253 -43.148  1.00  0.00     0.104 A 
HETATM    3  N4  UNL     1      91.243  96.134 -42.305  1.00  0.00    -0.330 N 
HETATM    4  C19 UNL     1      91.509  94.829 -42.791  1.00  0.00     0.102 A 
HETATM    5  C20 UNL     1      91.851  93.821 -42.028  1.00  0.00     0.064 C 
HETATM    6  N5  UNL     1      91.414  94.580 -44.211  1.00  0.00    -0.304 N 
HETATM    7  C21 UNL     1      91.691  93.244 -44.700  1.00  0.00     0.161 C 
HETATM    8  C22 UNL     1      91.062  95.649 -45.019  1.00  0.00     0.262 A 
HETATM    9  O2  UNL     1      90.960  95.484 -46.285  1.00  0.00    -0.267 OA
ENDROOT
BRANCH   2  10
HETATM   10  C8  UNL     1      90.646  98.591 -42.696  1.00  0.00     0.164 C 
BRANCH  10  11
HETATM   11  O1  UNL     1      91.770  99.293 -42.676  1.00  0.00    -0.345 OA
ATOM     12  H1  UNL     1      91.994  99.553 -41.790  1.00  0.00     0.219 HD
ENDBRANCH  10  11
BRANCH  10  13
HETATM   13  N2  UNL     1      89.550  99.310 -42.277  1.00  0.00    -0.369 N 
ATOM     14  H2  UNL     1      89.686 100.062 -41.601  1.00  0.00     0.161 HD
BRANCH  13  15
HETATM   15  C9  UNL     1      88.185  99.038 -42.768  1.00  0.00     0.126 C 
BRANCH  15  16
HETATM   16  C10 UNL     1      87.632  99.996 -43.724  1.00  0.00     0.058 C 
BRANCH  16  17
HETATM   17  C11 UNL     1      86.309  99.508 -44.168  1.00  0.00    -0.054 A 
HETATM   18  C12 UNL     1      85.441 100.221 -44.949  1.00  0.00     0.024 A 
HETATM   19  C13 UNL     1      84.210  99.695 -45.309  1.00  0.00     0.090 A 
HETATM   20  N3  UNL     1      83.824  98.480 -44.912  1.00  0.00    -0.371 N 
HETATM   21  C14 UNL     1      82.521  97.997 -45.325  1.00  0.00     0.154 C 
HETATM   22  C15 UNL     1      84.648  97.741 -44.142  1.00  0.00     0.090 A 
HETATM   23  C16 UNL     1      85.881  98.238 -43.765  1.00  0.00     0.024 A 
ENDBRANCH  16  17
ENDBRANCH  15  16
ENDBRANCH  13  15
ENDBRANCH  10  13
ENDBRANCH   2  10
BRANCH   1  24
HETATM   24  C5  UNL     1      90.459  97.952 -45.525  1.00  0.00     0.026 A 
HETATM   25  C4  UNL     1      89.248  97.971 -46.226  1.00  0.00     0.074 A 
HETATM   26  N1  UNL     1      88.101  97.308 -46.413  1.00  0.00    -0.352 N 
HETATM   27  C24 UNL     1      89.263  99.109 -46.990  1.00  0.00     0.080 A 
HETATM   28  C3  UNL     1      87.329  98.000 -47.309  1.00  0.00     0.051 A 
ATOM     29  H1  UNL     1      87.843  96.430 -45.962  1.00  0.00     0.166 HD
HETATM   30  C25 UNL     1      88.034  99.108 -47.671  1.00  0.00     0.066 A 
HETATM   31 BR1  UNL     1      87.578 100.505 -48.885  1.00  0.00    -0.046 Br
HETATM   32  N6  UNL     1      90.397  99.800 -46.821  1.00  0.00    -0.362 N 
HETATM   33  C23 UNL     1      91.129  99.106 -45.934  1.00  0.00     0.103 A 
ATOM     34  H6  UNL     1      90.654 100.677 -47.274  1.00  0.00     0.165 HD
BRANCH  28  35
HETATM   35  C2  UNL     1      86.016  97.601 -47.772  1.00  0.00     0.021 C 
HETATM   36  C1  UNL     1      85.413  96.459 -47.595  1.00  0.00     0.013 C 
ENDBRANCH  28  35
ENDBRANCH   1  24
BRANCH   3  37
HETATM   37  C17 UNL     1      91.221  96.302 -40.855  1.00  0.00     0.126 C 
HETATM   38  C18 UNL     1      92.441  97.127 -40.507  1.00  0.00     0.027 C 
ENDBRANCH   3  37
TORSDOF 9
ENDMDL
