MODEL 1
REMARK VINA RESULT: -6.046814155      0.000      0.000
REMARK  10 active torsions:
REMARK  status: ('A' for Active; 'I' for Inactive)
REMARK    1  A    between atoms: C2_2  and  C3_3 
REMARK    2  A    between atoms: C3_3  and  C4_4 
REMARK    3  A    between atoms: C9_13  and  N2_14 
REMARK       I    between atoms: N2_14  and  C10_16 
REMARK    4  A    between atoms: C10_16  and  C11_18 
REMARK       I    between atoms: C11_18  and  N3_20 
REMARK    5  A    between atoms: N3_20  and  C12_22 
REMARK    6  A    between atoms: C12_22  and  C13_23 
REMARK    7  A    between atoms: C13_23  and  N4_24 
REMARK    8  A    between atoms: C19_30  and  C20_31 
REMARK    9  A    between atoms: C20_31  and  C22_33 
REMARK   10  A    between atoms: C23_34  and  C24_35 
ROOT
HETATM    1  C24 UNL     1      91.511  93.159 -46.203  1.00  0.00    -0.015 C 
HETATM    2  C25 UNL     1      91.810  92.096 -46.690  1.00  0.00    -0.097 C 
HETATM    3  C26 UNL     1      92.189  90.819 -47.292  1.00  0.00     0.113 C 
ENDROOT
BRANCH   1   4
HETATM    4  C23 UNL     1      91.170  94.412 -45.651  1.00  0.00    -0.010 C 
HETATM    5  C22 UNL     1      90.887  95.512 -45.184  1.00  0.00    -0.056 C 
BRANCH   5   6
HETATM    6  C20 UNL     1      90.563  96.787 -44.609  1.00  0.00     0.018 C 
HETATM    7  C21 UNL     1      90.935  96.973 -43.351  1.00  0.00     0.031 C 
BRANCH   6   8
HETATM    8  C19 UNL     1      89.873  97.803 -45.419  1.00  0.00     0.230 C 
HETATM    9  N4  UNL     1      90.422  99.130 -45.382  1.00  0.00    -0.060 N 
HETATM   10  C14 UNL     1      89.855  99.805 -46.565  1.00  0.00     0.273 C 
HETATM   11  C15 UNL     1      89.953  99.881 -44.250  1.00  0.00     0.238 C 
HETATM   12  C16 UNL     1      88.491  99.925 -44.059  1.00  0.00     0.028 C 
HETATM   13  C17 UNL     1      87.743  98.687 -44.357  1.00  0.00     0.004 C 
HETATM   14  C18 UNL     1      88.400  97.710 -45.243  1.00  0.00     0.039 C 
BRANCH   9  15
HETATM   15  C13 UNL     1      91.828  99.134 -45.494  1.00  0.00     0.257 C 
BRANCH  15  16
HETATM   16  C12 UNL     1      92.537 100.296 -46.034  1.00  0.00     0.151 C 
BRANCH  16  17
HETATM   17  N3  UNL     1      92.910 101.354 -45.139  1.00  0.00    -0.351 N 
HETATM   18  C11 UNL     1      92.263 102.607 -45.019  1.00  0.00     0.309 C 
HETATM   19  O3  UNL     1      91.271 102.834 -45.757  1.00  0.00    -0.262 OA
ATOM     20  H3  UNL     1      93.714 101.187 -44.533  1.00  0.00     0.162 HD
BRANCH  18  21
HETATM   21  C10 UNL     1      92.739 103.589 -44.071  1.00  0.00     0.310 C 
HETATM   22  N2  UNL     1      93.459 103.174 -42.902  1.00  0.00    -0.339 N 
ATOM     23  H2  UNL     1      93.636 102.183 -42.738  1.00  0.00     0.164 HD
HETATM   24  O2  UNL     1      92.506 104.809 -44.296  1.00  0.00    -0.262 OA
BRANCH  22  25
HETATM   25  C9  UNL     1      93.938 104.171 -41.945  1.00  0.00     0.165 C 
HETATM   26  C4  UNL     1      93.399 103.846 -40.567  1.00  0.00    -0.025 C 
HETATM   27  C5  UNL     1      94.114 103.867 -39.488  1.00  0.00     0.084 C 
HETATM   28 BR1  UNL     1      93.371 103.503 -37.756  1.00  0.00    -0.045 Br
HETATM   29  C6  UNL     1      95.584 104.136 -39.526  1.00  0.00     0.263 C 
HETATM   30  O1  UNL     1      96.237 104.151 -38.458  1.00  0.00    -0.267 OA
HETATM   31  N1  UNL     1      96.148 104.358 -40.794  1.00  0.00    -0.325 N 
HETATM   32  C7  UNL     1      95.381 104.329 -41.984  1.00  0.00     0.030 C 
ATOM     33  H1  UNL     1      97.147 104.547 -40.859  1.00  0.00     0.169 HD
HETATM   34  C8  UNL     1      96.001 104.448 -43.185  1.00  0.00     0.041 C 
BRANCH  26  35
HETATM   35  C3  UNL     1      91.954 103.542 -40.588  1.00  0.00     0.064 C 
BRANCH  35  36
HETATM   36  C2  UNL     1      91.476 102.201 -40.384  1.00  0.00    -0.032 C 
HETATM   37  C1  UNL     1      90.360 101.739 -41.006  1.00  0.00     0.007 C 
ENDBRANCH  35  36
ENDBRANCH  26  35
ENDBRANCH  22  25
ENDBRANCH  18  21
ENDBRANCH  16  17
ENDBRANCH  15  16
ENDBRANCH   9  15
ENDBRANCH   6   8
ENDBRANCH   5   6
ENDBRANCH   1   4
TORSDOF 10
ENDMDL
MODEL 2
REMARK VINA RESULT: -5.862479545      3.831      8.232
REMARK  10 active torsions:
REMARK  status: ('A' for Active; 'I' for Inactive)
REMARK    1  A    between atoms: C2_2  and  C3_3 
REMARK    2  A    between atoms: C3_3  and  C4_4 
REMARK    3  A    between atoms: C9_13  and  N2_14 
REMARK       I    between atoms: N2_14  and  C10_16 
REMARK    4  A    between atoms: C10_16  and  C11_18 
REMARK       I    between atoms: C11_18  and  N3_20 
REMARK    5  A    between atoms: N3_20  and  C12_22 
REMARK    6  A    between atoms: C12_22  and  C13_23 
REMARK    7  A    between atoms: C13_23  and  N4_24 
REMARK    8  A    between atoms: C19_30  and  C20_31 
REMARK    9  A    between atoms: C20_31  and  C22_33 
REMARK   10  A    between atoms: C23_34  and  C24_35 
ROOT
HETATM    1  C24 UNL     1      91.406  98.473 -44.351  1.00  0.00    -0.015 C 
HETATM    2  C25 UNL     1      91.107  97.345 -44.658  1.00  0.00    -0.097 C 
HETATM    3  C26 UNL     1      90.768  95.973 -45.032  1.00  0.00     0.113 C 
ENDROOT
BRANCH   1   4
HETATM    4  C23 UNL     1      91.775  99.790 -44.001  1.00  0.00    -0.010 C 
HETATM    5  C22 UNL     1      92.087 100.933 -43.676  1.00  0.00    -0.056 C 
BRANCH   5   6
HETATM    6  C20 UNL     1      92.438 102.279 -43.323  1.00  0.00     0.018 C 
HETATM    7  C21 UNL     1      91.751 103.239 -43.925  1.00  0.00     0.031 C 
BRANCH   6   8
HETATM    8  C19 UNL     1      93.493 102.526 -42.328  1.00  0.00     0.230 C 
HETATM    9  N4  UNL     1      93.066 102.654 -40.962  1.00  0.00    -0.060 N 
HETATM   10  C14 UNL     1      94.289 102.450 -40.164  1.00  0.00     0.273 C 
HETATM   11  C15 UNL     1      92.623 103.986 -40.654  1.00  0.00     0.238 C 
HETATM   12  C16 UNL     1      93.551 105.077 -41.004  1.00  0.00     0.028 C 
HETATM   13  C17 UNL     1      94.302 104.932 -42.267  1.00  0.00     0.004 C 
HETATM   14  C18 UNL     1      94.439 103.567 -42.807  1.00  0.00     0.039 C 
BRANCH   9  15
HETATM   15  C13 UNL     1      92.124 101.669 -40.599  1.00  0.00     0.257 C 
BRANCH  15  16
HETATM   16  C12 UNL     1      90.769 102.040 -40.182  1.00  0.00     0.151 C 
BRANCH  16  17
HETATM   17  N3  UNL     1      89.684 101.834 -41.099  1.00  0.00    -0.351 N 
HETATM   18  C11 UNL     1      88.919 102.849 -41.721  1.00  0.00     0.309 C 
HETATM   19  O3  UNL     1      89.197 104.046 -41.458  1.00  0.00    -0.262 OA
ATOM     20  H3  UNL     1      89.443 100.868 -41.322  1.00  0.00     0.162 HD
BRANCH  18  21
HETATM   21  C10 UNL     1      87.849 102.505 -42.631  1.00  0.00     0.310 C 
HETATM   22  N2  UNL     1      87.101 101.297 -42.442  1.00  0.00    -0.339 N 
ATOM     23  H2  UNL     1      87.322 100.677 -41.662  1.00  0.00     0.164 HD
HETATM   24  O2  UNL     1      87.595 103.287 -43.589  1.00  0.00    -0.262 OA
BRANCH  22  25
HETATM   25  C9  UNL     1      86.020 100.953 -43.365  1.00  0.00     0.165 C 
HETATM   26  C4  UNL     1      86.325  99.622 -44.023  1.00  0.00    -0.025 C 
HETATM   27  C5  UNL     1      85.458  98.671 -44.166  1.00  0.00     0.084 C 
HETATM   28 BR1  UNL     1      85.877  97.025 -45.059  1.00  0.00    -0.045 Br
HETATM   29  C6  UNL     1      84.077  98.778 -43.604  1.00  0.00     0.263 C 
HETATM   30  O1  UNL     1      83.268  97.836 -43.770  1.00  0.00    -0.267 OA
HETATM   31  N1  UNL     1      83.773  99.960 -42.908  1.00  0.00    -0.325 N 
HETATM   32  C7  UNL     1      84.713 101.005 -42.735  1.00  0.00     0.030 C 
ATOM     33  H1  UNL     1      82.840 100.070 -42.512  1.00  0.00     0.169 HD
HETATM   34  C8  UNL     1      84.393 102.075 -41.965  1.00  0.00     0.041 C 
BRANCH  26  35
HETATM   35  C3  UNL     1      87.714  99.548 -44.521  1.00  0.00     0.064 C 
BRANCH  35  36
HETATM   36  C2  UNL     1      88.068 100.082 -45.808  1.00  0.00    -0.032 C 
HETATM   37  C1  UNL     1      88.984 101.077 -45.940  1.00  0.00     0.007 C 
ENDBRANCH  35  36
ENDBRANCH  26  35
ENDBRANCH  22  25
ENDBRANCH  18  21
ENDBRANCH  16  17
ENDBRANCH  15  16
ENDBRANCH   9  15
ENDBRANCH   6   8
ENDBRANCH   5   6
ENDBRANCH   1   4
TORSDOF 10
ENDMDL
MODEL 3
REMARK VINA RESULT: -5.858206756      6.298     11.290
REMARK  10 active torsions:
REMARK  status: ('A' for Active; 'I' for Inactive)
REMARK    1  A    between atoms: C2_2  and  C3_3 
REMARK    2  A    between atoms: C3_3  and  C4_4 
REMARK    3  A    between atoms: C9_13  and  N2_14 
REMARK       I    between atoms: N2_14  and  C10_16 
REMARK    4  A    between atoms: C10_16  and  C11_18 
REMARK       I    between atoms: C11_18  and  N3_20 
REMARK    5  A    between atoms: N3_20  and  C12_22 
REMARK    6  A    between atoms: C12_22  and  C13_23 
REMARK    7  A    between atoms: C13_23  and  N4_24 
REMARK    8  A    between atoms: C19_30  and  C20_31 
REMARK    9  A    between atoms: C20_31  and  C22_33 
REMARK   10  A    between atoms: C23_34  and  C24_35 
ROOT
HETATM    1  C24 UNL     1      91.334  93.702 -46.114  1.00  0.00    -0.015 C 
HETATM    2  C25 UNL     1      91.518  92.569 -46.487  1.00  0.00    -0.097 C 
HETATM    3  C26 UNL     1      91.763  91.203 -46.945  1.00  0.00     0.113 C 
ENDROOT
BRANCH   1   4
HETATM    4  C23 UNL     1      91.134  95.034 -45.691  1.00  0.00    -0.010 C 
HETATM    5  C22 UNL     1      90.940  96.192 -45.331  1.00  0.00    -0.056 C 
BRANCH   5   6
HETATM    6  C20 UNL     1      90.740  97.555 -44.925  1.00  0.00     0.018 C 
HETATM    7  C21 UNL     1      91.830  98.302 -44.830  1.00  0.00     0.031 C 
BRANCH   6   8
HETATM    8  C19 UNL     1      89.380  98.050 -44.662  1.00  0.00     0.230 C 
HETATM    9  N4  UNL     1      88.738  98.756 -45.735  1.00  0.00    -0.060 N 
HETATM   10  C14 UNL     1      87.304  98.743 -45.390  1.00  0.00     0.273 C 
HETATM   11  C15 UNL     1      89.112 100.143 -45.773  1.00  0.00     0.238 C 
HETATM   12  C16 UNL     1      88.968 100.891 -44.510  1.00  0.00     0.028 C 
HETATM   13  C17 UNL     1      89.315 100.172 -43.268  1.00  0.00     0.004 C 
HETATM   14  C18 UNL     1      89.303  98.699 -43.326  1.00  0.00     0.039 C 
BRANCH   9  15
HETATM   15  C13 UNL     1      88.906  98.112 -46.978  1.00  0.00     0.257 C 
BRANCH  15  16
HETATM   16  C12 UNL     1      87.825  98.089 -47.967  1.00  0.00     0.151 C 
BRANCH  16  17
HETATM   17  N3  UNL     1      87.657  96.917 -48.777  1.00  0.00    -0.351 N 
HETATM   18  C11 UNL     1      88.438  96.567 -49.905  1.00  0.00     0.309 C 
HETATM   19  O3  UNL     1      89.367  97.341 -50.245  1.00  0.00    -0.262 OA
ATOM     20  H3  UNL     1      86.906  96.277 -48.517  1.00  0.00     0.162 HD
BRANCH  18  21
HETATM   21  C10 UNL     1      88.164  95.350 -50.636  1.00  0.00     0.310 C 
HETATM   22  N2  UNL     1      87.966  94.115 -49.934  1.00  0.00    -0.339 N 
ATOM     23  H2  UNL     1      88.017  94.094 -48.915  1.00  0.00     0.164 HD
HETATM   24  O2  UNL     1      88.106  95.401 -51.896  1.00  0.00    -0.262 OA
BRANCH  22  25
HETATM   25  C9  UNL     1      87.690  92.886 -50.677  1.00  0.00     0.165 C 
HETATM   26  C4  UNL     1      88.681  91.816 -50.267  1.00  0.00    -0.025 C 
HETATM   27  C5  UNL     1      88.355  90.592 -50.000  1.00  0.00     0.084 C 
HETATM   28 BR1  UNL     1      89.656  89.259 -49.540  1.00  0.00    -0.045 Br
HETATM   29  C6  UNL     1      86.928  90.146 -49.992  1.00  0.00     0.263 C 
HETATM   30  O1  UNL     1      86.656  88.951 -49.733  1.00  0.00    -0.267 OA
HETATM   31  N1  UNL     1      85.963  91.125 -50.282  1.00  0.00    -0.325 N 
HETATM   32  C7  UNL     1      86.303  92.469 -50.566  1.00  0.00     0.030 C 
ATOM     33  H1  UNL     1      84.979  90.856 -50.288  1.00  0.00     0.169 HD
HETATM   34  C8  UNL     1      85.321  93.389 -50.735  1.00  0.00     0.041 C 
BRANCH  26  35
HETATM   35  C3  UNL     1      90.071  92.318 -50.245  1.00  0.00     0.064 C 
BRANCH  35  36
HETATM   36  C2  UNL     1      90.874  92.323 -51.438  1.00  0.00    -0.032 C 
HETATM   37  C1  UNL     1      90.981  93.428 -52.221  1.00  0.00     0.007 C 
ENDBRANCH  35  36
ENDBRANCH  26  35
ENDBRANCH  22  25
ENDBRANCH  18  21
ENDBRANCH  16  17
ENDBRANCH  15  16
ENDBRANCH   9  15
ENDBRANCH   6   8
ENDBRANCH   5   6
ENDBRANCH   1   4
TORSDOF 10
ENDMDL
MODEL 4
REMARK VINA RESULT: -5.855351671      2.390      3.318
REMARK  10 active torsions:
REMARK  status: ('A' for Active; 'I' for Inactive)
REMARK    1  A    between atoms: C2_2  and  C3_3 
REMARK    2  A    between atoms: C3_3  and  C4_4 
REMARK    3  A    between atoms: C9_13  and  N2_14 
REMARK       I    between atoms: N2_14  and  C10_16 
REMARK    4  A    between atoms: C10_16  and  C11_18 
REMARK       I    between atoms: C11_18  and  N3_20 
REMARK    5  A    between atoms: N3_20  and  C12_22 
REMARK    6  A    between atoms: C12_22  and  C13_23 
REMARK    7  A    between atoms: C13_23  and  N4_24 
REMARK    8  A    between atoms: C19_30  and  C20_31 
REMARK    9  A    between atoms: C20_31  and  C22_33 
REMARK   10  A    between atoms: C23_34  and  C24_35 
ROOT
HETATM    1  C24 UNL     1      91.183  94.475 -45.676  1.00  0.00    -0.015 C 
HETATM    2  C25 UNL     1      91.355  93.336 -46.035  1.00  0.00    -0.097 C 
HETATM    3  C26 UNL     1      91.541  91.956 -46.481  1.00  0.00     0.113 C 
ENDROOT
BRANCH   1   4
HETATM    4  C23 UNL     1      90.961  95.805 -45.257  1.00  0.00    -0.010 C 
HETATM    5  C22 UNL     1      90.784  96.969 -44.906  1.00  0.00    -0.056 C 
BRANCH   5   6
HETATM    6  C20 UNL     1      90.580  98.320 -44.466  1.00  0.00     0.018 C 
HETATM    7  C21 UNL     1      91.385  98.750 -43.507  1.00  0.00     0.031 C 
BRANCH   6   8
HETATM    8  C19 UNL     1      89.535  99.145 -45.092  1.00  0.00     0.230 C 
HETATM    9  N4  UNL     1      88.216  99.038 -44.533  1.00  0.00    -0.060 N 
HETATM   10  C14 UNL     1      87.504 100.236 -45.016  1.00  0.00     0.273 C 
HETATM   11  C15 UNL     1      87.489  97.919 -45.065  1.00  0.00     0.238 C 
HETATM   12  C16 UNL     1      87.431  97.820 -46.536  1.00  0.00     0.028 C 
HETATM   13  C17 UNL     1      88.652  98.196 -47.276  1.00  0.00     0.004 C 
HETATM   14  C18 UNL     1      89.615  99.065 -46.575  1.00  0.00     0.039 C 
BRANCH   9  15
HETATM   15  C13 UNL     1      88.227  99.061 -43.123  1.00  0.00     0.257 C 
BRANCH  15  16
HETATM   16  C12 UNL     1      87.762 100.238 -42.385  1.00  0.00     0.151 C 
BRANCH  16  17
HETATM   17  N3  UNL     1      88.737 101.151 -41.859  1.00  0.00    -0.351 N 
HETATM   18  C11 UNL     1      88.780 102.546 -42.094  1.00  0.00     0.309 C 
HETATM   19  O3  UNL     1      87.893 103.051 -42.829  1.00  0.00    -0.262 OA
ATOM     20  H3  UNL     1      89.465 100.759 -41.262  1.00  0.00     0.162 HD
BRANCH  18  21
HETATM   21  C10 UNL     1      89.819 103.358 -41.501  1.00  0.00     0.310 C 
HETATM   22  N2  UNL     1      90.552 102.874 -40.367  1.00  0.00    -0.339 N 
ATOM     23  H2  UNL     1      90.341 101.955 -39.978  1.00  0.00     0.164 HD
HETATM   24  O2  UNL     1      90.061 104.491 -42.000  1.00  0.00    -0.262 OA
BRANCH  22  25
HETATM   25  C9  UNL     1      91.602 103.698 -39.769  1.00  0.00     0.165 C 
HETATM   26  C4  UNL     1      91.324 103.872 -38.289  1.00  0.00    -0.025 C 
HETATM   27  C5  UNL     1      92.224 103.749 -37.366  1.00  0.00     0.084 C 
HETATM   28 BR1  UNL     1      91.835 104.036 -35.509  1.00  0.00    -0.045 Br
HETATM   29  C6  UNL     1      93.624 103.334 -37.685  1.00  0.00     0.263 C 
HETATM   30  O1  UNL     1      94.464 103.233 -36.762  1.00  0.00    -0.267 OA
HETATM   31  N1  UNL     1      93.908 103.077 -39.037  1.00  0.00    -0.325 N 
HETATM   32  C7  UNL     1      92.934 103.196 -40.057  1.00  0.00     0.030 C 
ATOM     33  H1  UNL     1      94.854 102.793 -39.293  1.00  0.00     0.169 HD
HETATM   34  C8  UNL     1      93.243 102.834 -41.327  1.00  0.00     0.041 C 
BRANCH  26  35
HETATM   35  C3  UNL     1      89.918 104.236 -38.022  1.00  0.00     0.064 C 
BRANCH  35  36
HETATM   36  C2  UNL     1      89.415 105.541 -38.359  1.00  0.00    -0.032 C 
HETATM   37  C1  UNL     1      88.245 105.702 -39.031  1.00  0.00     0.007 C 
ENDBRANCH  35  36
ENDBRANCH  26  35
ENDBRANCH  22  25
ENDBRANCH  18  21
ENDBRANCH  16  17
ENDBRANCH  15  16
ENDBRANCH   9  15
ENDBRANCH   6   8
ENDBRANCH   5   6
ENDBRANCH   1   4
TORSDOF 10
ENDMDL
MODEL 5
REMARK VINA RESULT: -5.812057463      5.041      9.569
REMARK  10 active torsions:
REMARK  status: ('A' for Active; 'I' for Inactive)
REMARK    1  A    between atoms: C2_2  and  C3_3 
REMARK    2  A    between atoms: C3_3  and  C4_4 
REMARK    3  A    between atoms: C9_13  and  N2_14 
REMARK       I    between atoms: N2_14  and  C10_16 
REMARK    4  A    between atoms: C10_16  and  C11_18 
REMARK       I    between atoms: C11_18  and  N3_20 
REMARK    5  A    between atoms: N3_20  and  C12_22 
REMARK    6  A    between atoms: C12_22  and  C13_23 
REMARK    7  A    between atoms: C13_23  and  N4_24 
REMARK    8  A    between atoms: C19_30  and  C20_31 
REMARK    9  A    between atoms: C20_31  and  C22_33 
REMARK   10  A    between atoms: C23_34  and  C24_35 
ROOT
HETATM    1  C24 UNL     1      91.241  94.167 -45.836  1.00  0.00    -0.015 C 
HETATM    2  C25 UNL     1      91.424  92.990 -46.029  1.00  0.00    -0.097 C 
HETATM    3  C26 UNL     1      91.669  91.567 -46.257  1.00  0.00     0.113 C 
ENDROOT
BRANCH   1   4
HETATM    4  C23 UNL     1      91.047  95.548 -45.615  1.00  0.00    -0.010 C 
HETATM    5  C22 UNL     1      90.858  96.747 -45.431  1.00  0.00    -0.056 C 
BRANCH   5   6
HETATM    6  C20 UNL     1      90.665  98.156 -45.231  1.00  0.00     0.018 C 
HETATM    7  C21 UNL     1      89.796  98.747 -46.038  1.00  0.00     0.031 C 
BRANCH   6   8
HETATM    8  C19 UNL     1      91.399  98.853 -44.164  1.00  0.00     0.230 C 
HETATM    9  N4  UNL     1      90.605  99.562 -43.200  1.00  0.00    -0.060 N 
HETATM   10  C14 UNL     1      91.506  99.774 -42.052  1.00  0.00     0.273 C 
HETATM   11  C15 UNL     1      90.246 100.877 -43.654  1.00  0.00     0.238 C 
HETATM   12  C16 UNL     1      91.354 101.727 -44.129  1.00  0.00     0.028 C 
HETATM   13  C17 UNL     1      92.423 101.058 -44.897  1.00  0.00     0.004 C 
HETATM   14  C18 UNL     1      92.557  99.601 -44.720  1.00  0.00     0.039 C 
BRANCH   9  15
HETATM   15  C13 UNL     1      89.492  98.813 -42.765  1.00  0.00     0.257 C 
BRANCH  15  16
HETATM   16  C12 UNL     1      88.155  99.411 -42.713  1.00  0.00     0.151 C 
BRANCH  16  17
HETATM   17  N3  UNL     1      87.165  98.969 -43.653  1.00  0.00    -0.351 N 
HETATM   18  C11 UNL     1      86.554  99.765 -44.651  1.00  0.00     0.309 C 
HETATM   19  O3  UNL     1      86.895 100.972 -44.737  1.00  0.00    -0.262 OA
ATOM     20  H3  UNL     1      86.875  97.993 -43.597  1.00  0.00     0.162 HD
BRANCH  18  21
HETATM   21  C10 UNL     1      85.568  99.194 -45.541  1.00  0.00     0.310 C 
HETATM   22  N2  UNL     1      85.599  97.795 -45.850  1.00  0.00    -0.339 N 
ATOM     23  H2  UNL     1      86.319  97.198 -45.441  1.00  0.00     0.164 HD
HETATM   24  O2  UNL     1      84.688  99.952 -46.034  1.00  0.00    -0.262 OA
BRANCH  22  25
HETATM   25  C9  UNL     1      84.600  97.221 -46.750  1.00  0.00     0.165 C 
HETATM   26  C4  UNL     1      85.298  96.441 -47.846  1.00  0.00    -0.025 C 
HETATM   27  C5  UNL     1      84.932  95.263 -48.240  1.00  0.00     0.084 C 
HETATM   28 BR1  UNL     1      85.814  94.339 -49.672  1.00  0.00    -0.045 Br
HETATM   29  C6  UNL     1      83.817  94.524 -47.573  1.00  0.00     0.263 C 
HETATM   30  O1  UNL     1      83.492  93.389 -47.989  1.00  0.00    -0.267 OA
HETATM   31  N1  UNL     1      83.194  95.172 -46.493  1.00  0.00    -0.325 N 
HETATM   32  C7  UNL     1      83.588  96.455 -46.044  1.00  0.00     0.030 C 
ATOM     33  H1  UNL     1      82.428  94.699 -46.014  1.00  0.00     0.169 HD
HETATM   34  C8  UNL     1      83.018  96.982 -44.932  1.00  0.00     0.041 C 
BRANCH  26  35
HETATM   35  C3  UNL     1      86.420  97.194 -48.442  1.00  0.00     0.064 C 
BRANCH  35  36
HETATM   36  C2  UNL     1      86.183  98.240 -49.400  1.00  0.00    -0.032 C 
HETATM   37  C1  UNL     1      86.478  99.538 -49.126  1.00  0.00     0.007 C 
ENDBRANCH  35  36
ENDBRANCH  26  35
ENDBRANCH  22  25
ENDBRANCH  18  21
ENDBRANCH  16  17
ENDBRANCH  15  16
ENDBRANCH   9  15
ENDBRANCH   6   8
ENDBRANCH   5   6
ENDBRANCH   1   4
TORSDOF 10
ENDMDL
