MODEL 1
REMARK VINA RESULT: -6.331758044      0.000      0.000
REMARK  4 active torsions:
REMARK  status: ('A' for Active; 'I' for Inactive)
REMARK    1  A    between atoms: C3_3  and  C5_5 
REMARK    2  A    between atoms: C5_5  and  C6_6 
REMARK    3  A    between atoms: N1_7  and  N2_9 
REMARK    4  A    between atoms: C9_12  and  O1_13 
ROOT
HETATM    1  C1  UNL     1      17.372 -27.879   8.614  1.00  0.00     0.012 C 
HETATM    2  C2  UNL     1      17.507 -27.827   9.813  1.00  0.00    -0.113 C 
HETATM    3  C3  UNL     1      17.690 -27.781  11.274  1.00  0.00     0.065 C 
HETATM    4  C4  UNL     1      17.647 -29.130  11.909  1.00  0.00     0.023 C 
ENDROOT
BRANCH   3   5
HETATM    5  C5  UNL     1      16.586 -26.921  11.860  1.00  0.00     0.062 C 
BRANCH   5   6
HETATM    6  C6  UNL     1      17.105 -25.554  12.087  1.00  0.00     0.081 C 
HETATM    7  N1  UNL     1      16.448 -24.551  11.692  1.00  0.00    -0.318 N 
ATOM      8  H1  UNL     1      15.563 -24.740  11.221  1.00  0.00     0.185 HD
BRANCH   7   9
HETATM    9  N2  UNL     1      16.801 -23.225  11.832  1.00  0.00    -0.328 N 
HETATM   10  C7  UNL     1      18.000 -22.871  12.535  1.00  0.00     0.145 C 
HETATM   11  C8  UNL     1      17.639 -21.657  13.404  1.00  0.00     0.053 C 
HETATM   12  C9  UNL     1      17.441 -20.495  12.461  1.00  0.00     0.121 C 
HETATM   13  C10 UNL     1      16.736 -20.860  11.202  1.00  0.00     0.053 C 
HETATM   14  C11 UNL     1      15.988 -22.180  11.285  1.00  0.00     0.145 C 
BRANCH  12  15
HETATM   15  O1  UNL     1      18.728 -20.002  12.152  1.00  0.00    -0.395 OA
ATOM     16  H1  UNL     1      19.152 -20.666  11.620  1.00  0.00     0.210 HD
ENDBRANCH  12  15
ENDBRANCH   7   9
ENDBRANCH   5   6
ENDBRANCH   3   5
TORSDOF 4
ENDMDL
MODEL 2
REMARK VINA RESULT: -6.214597345      0.857      1.406
REMARK  4 active torsions:
REMARK  status: ('A' for Active; 'I' for Inactive)
REMARK    1  A    between atoms: C3_3  and  C5_5 
REMARK    2  A    between atoms: C5_5  and  C6_6 
REMARK    3  A    between atoms: N1_7  and  N2_9 
REMARK    4  A    between atoms: C9_12  and  O1_13 
ROOT
HETATM    1  C1  UNL     1      17.069 -30.280  11.975  1.00  0.00     0.012 C 
HETATM    2  C2  UNL     1      17.357 -29.142  11.695  1.00  0.00    -0.113 C 
HETATM    3  C3  UNL     1      17.732 -27.760  11.346  1.00  0.00     0.065 C 
HETATM    4  C4  UNL     1      18.940 -27.283  12.080  1.00  0.00     0.023 C 
ENDROOT
BRANCH   3   5
HETATM    5  C5  UNL     1      16.559 -26.856  11.680  1.00  0.00     0.062 C 
BRANCH   5   6
HETATM    6  C6  UNL     1      17.065 -25.501  11.989  1.00  0.00     0.081 C 
HETATM    7  N1  UNL     1      16.456 -24.482  11.559  1.00  0.00    -0.318 N 
ATOM      8  H1  UNL     1      15.619 -24.651  11.001  1.00  0.00     0.185 HD
BRANCH   7   9
HETATM    9  N2  UNL     1      16.805 -23.164  11.765  1.00  0.00    -0.328 N 
HETATM   10  C7  UNL     1      18.009 -22.841  12.476  1.00  0.00     0.145 C 
HETATM   11  C8  UNL     1      17.649 -21.676  13.410  1.00  0.00     0.053 C 
HETATM   12  C9  UNL     1      17.438 -20.467  12.531  1.00  0.00     0.121 C 
HETATM   13  C10 UNL     1      16.724 -20.769  11.260  1.00  0.00     0.053 C 
HETATM   14  C11 UNL     1      15.983 -22.095  11.280  1.00  0.00     0.145 C 
BRANCH  12  15
HETATM   15  O1  UNL     1      18.721 -19.952  12.237  1.00  0.00    -0.395 OA
ATOM     16  H1  UNL     1      18.627 -19.009  12.176  1.00  0.00     0.210 HD
ENDBRANCH  12  15
ENDBRANCH   7   9
ENDBRANCH   5   6
ENDBRANCH   3   5
TORSDOF 4
ENDMDL
MODEL 3
REMARK VINA RESULT: -6.061986772      0.794      1.575
REMARK  4 active torsions:
REMARK  status: ('A' for Active; 'I' for Inactive)
REMARK    1  A    between atoms: C3_3  and  C5_5 
REMARK    2  A    between atoms: C5_5  and  C6_6 
REMARK    3  A    between atoms: N1_7  and  N2_9 
REMARK    4  A    between atoms: C9_12  and  O1_13 
ROOT
HETATM    1  C1  UNL     1      19.822 -26.971  12.482  1.00  0.00     0.012 C 
HETATM    2  C2  UNL     1      18.805 -27.327  11.937  1.00  0.00    -0.113 C 
HETATM    3  C3  UNL     1      17.578 -27.780  11.259  1.00  0.00     0.065 C 
HETATM    4  C4  UNL     1      17.713 -27.817   9.774  1.00  0.00     0.023 C 
ENDROOT
BRANCH   3   5
HETATM    5  C5  UNL     1      16.456 -26.829  11.632  1.00  0.00     0.062 C 
BRANCH   5   6
HETATM    6  C6  UNL     1      17.022 -25.483  11.874  1.00  0.00     0.081 C 
HETATM    7  N1  UNL     1      16.342 -24.452  11.613  1.00  0.00    -0.318 N 
ATOM      8  H1  UNL     1      15.406 -24.604  11.236  1.00  0.00     0.185 HD
BRANCH   7   9
HETATM    9  N2  UNL     1      16.732 -23.141  11.784  1.00  0.00    -0.328 N 
HETATM   10  C7  UNL     1      17.954 -22.838  12.473  1.00  0.00     0.145 C 
HETATM   11  C8  UNL     1      17.641 -21.642  13.384  1.00  0.00     0.053 C 
HETATM   12  C9  UNL     1      17.455 -20.447  12.480  1.00  0.00     0.121 C 
HETATM   13  C10 UNL     1      16.716 -20.756  11.225  1.00  0.00     0.053 C 
HETATM   14  C11 UNL     1      15.935 -22.059  11.285  1.00  0.00     0.145 C 
BRANCH  12  15
HETATM   15  O1  UNL     1      18.748 -19.978  12.159  1.00  0.00    -0.395 OA
ATOM     16  H1  UNL     1      18.806 -19.092  12.496  1.00  0.00     0.210 HD
ENDBRANCH  12  15
ENDBRANCH   7   9
ENDBRANCH   5   6
ENDBRANCH   3   5
TORSDOF 4
ENDMDL
MODEL 4
REMARK VINA RESULT: -5.926547449      2.882      6.037
REMARK  4 active torsions:
REMARK  status: ('A' for Active; 'I' for Inactive)
REMARK    1  A    between atoms: C3_3  and  C5_5 
REMARK    2  A    between atoms: C5_5  and  C6_6 
REMARK    3  A    between atoms: N1_7  and  N2_9 
REMARK    4  A    between atoms: C9_12  and  O1_13 
ROOT
HETATM    1  C1  UNL     1      15.445 -21.489  10.528  1.00  0.00     0.012 C 
HETATM    2  C2  UNL     1      16.192 -21.005  11.343  1.00  0.00    -0.113 C 
HETATM    3  C3  UNL     1      17.110 -20.397  12.321  1.00  0.00     0.065 C 
HETATM    4  C4  UNL     1      18.514 -20.307  11.824  1.00  0.00     0.023 C 
ENDROOT
BRANCH   3   5
HETATM    5  C5  UNL     1      17.083 -21.242  13.581  1.00  0.00     0.062 C 
BRANCH   5   6
HETATM    6  C6  UNL     1      17.636 -22.581  13.279  1.00  0.00     0.081 C 
HETATM    7  N1  UNL     1      17.042 -23.619  13.682  1.00  0.00    -0.318 N 
ATOM      8  H1  UNL     1      16.184 -23.478  14.214  1.00  0.00     0.185 HD
BRANCH   7   9
HETATM    9  N2  UNL     1      17.433 -24.926  13.478  1.00  0.00    -0.328 N 
HETATM   10  C7  UNL     1      18.070 -25.659  14.535  1.00  0.00     0.145 C 
HETATM   11  C8  UNL     1      19.217 -26.440  13.876  1.00  0.00     0.053 C 
HETATM   12  C9  UNL     1      18.579 -27.526  13.044  1.00  0.00     0.121 C 
HETATM   13  C10 UNL     1      17.350 -27.086  12.329  1.00  0.00     0.053 C 
HETATM   14  C11 UNL     1      17.217 -25.577  12.220  1.00  0.00     0.145 C 
BRANCH  12  15
HETATM   15  O1  UNL     1      18.255 -28.576  13.932  1.00  0.00    -0.395 OA
ATOM     16  H1  UNL     1      18.166 -29.360  13.402  1.00  0.00     0.210 HD
ENDBRANCH  12  15
ENDBRANCH   7   9
ENDBRANCH   5   6
ENDBRANCH   3   5
TORSDOF 4
ENDMDL
MODEL 5
REMARK VINA RESULT: -5.743290411      0.733      1.426
REMARK  4 active torsions:
REMARK  status: ('A' for Active; 'I' for Inactive)
REMARK    1  A    between atoms: C3_3  and  C5_5 
REMARK    2  A    between atoms: C5_5  and  C6_6 
REMARK    3  A    between atoms: N1_7  and  N2_9 
REMARK    4  A    between atoms: C9_12  and  O1_13 
ROOT
HETATM    1  C1  UNL     1      17.349 -27.904   8.549  1.00  0.00     0.012 C 
HETATM    2  C2  UNL     1      17.470 -27.816   9.747  1.00  0.00    -0.113 C 
HETATM    3  C3  UNL     1      17.637 -27.726  11.208  1.00  0.00     0.065 C 
HETATM    4  C4  UNL     1      17.551 -29.052  11.886  1.00  0.00     0.023 C 
ENDROOT
BRANCH   3   5
HETATM    5  C5  UNL     1      16.549 -26.818  11.751  1.00  0.00     0.062 C 
BRANCH   5   6
HETATM    6  C6  UNL     1      17.132 -25.493  12.057  1.00  0.00     0.081 C 
HETATM    7  N1  UNL     1      16.395 -24.469  12.098  1.00  0.00    -0.318 N 
ATOM      8  H1  UNL     1      15.402 -24.612  11.911  1.00  0.00     0.185 HD
BRANCH   7   9
HETATM    9  N2  UNL     1      16.791 -23.177  12.369  1.00  0.00    -0.328 N 
HETATM   10  C7  UNL     1      16.504 -22.126  11.436  1.00  0.00     0.145 C 
HETATM   11  C8  UNL     1      17.771 -21.260  11.370  1.00  0.00     0.053 C 
HETATM   12  C9  UNL     1      17.865 -20.530  12.688  1.00  0.00     0.121 C 
HETATM   13  C10 UNL     1      17.483 -21.362  13.861  1.00  0.00     0.053 C 
HETATM   14  C11 UNL     1      17.493 -22.855  13.577  1.00  0.00     0.145 C 
BRANCH  12  15
HETATM   15  O1  UNL     1      16.996 -19.420  12.597  1.00  0.00    -0.395 OA
ATOM     16  H1  UNL     1      16.114 -19.770  12.545  1.00  0.00     0.210 HD
ENDBRANCH  12  15
ENDBRANCH   7   9
ENDBRANCH   5   6
ENDBRANCH   3   5
TORSDOF 4
ENDMDL
