MODEL 1
REMARK VINA RESULT: -4.761207925      0.000      0.000
REMARK  4 active torsions:
REMARK  status: ('A' for Active; 'I' for Inactive)
REMARK    1  A    between atoms: N1_2  and  C2_5 
REMARK    2  A    between atoms: C2_5  and  C3_6 
REMARK    3  A    between atoms: C3_6  and  O1_7 
REMARK    4  A    between atoms: C3_6  and  C5_10 
ROOT
HETATM    1  O1  UNL     1      17.742 -22.597  13.882  1.00  0.00    -0.276 OA
HETATM    2  C4  UNL     1      17.781 -21.318  13.441  1.00  0.00     0.229 C 
HETATM    3  N2  UNL     1      17.814 -20.213  13.082  1.00  0.00    -0.164 NA
ENDROOT
BRANCH   1   4
HETATM    4  C3  UNL     1      17.369 -23.700  13.038  1.00  0.00     0.173 C 
BRANCH   4   5
HETATM    5  C2  UNL     1      17.145 -23.015  11.675  1.00  0.00     0.265 C 
BRANCH   5   6
HETATM    6  N1  UNL     1      15.766 -23.232  11.275  1.00  0.00    -0.077 N 
HETATM    7  C1  UNL     1      15.328 -22.092  10.492  1.00  0.00     0.267 C 
ATOM      8  H12 UNL     1      15.154 -23.420  12.068  1.00  0.00     0.276 HD
ATOM      9  H11 UNL     1      15.636 -24.117  10.784  1.00  0.00     0.276 HD
ENDBRANCH   5   6
ENDBRANCH   4   5
BRANCH   4  10
HETATM   10  C5  UNL     1      18.551 -24.602  12.940  1.00  0.00     0.035 A 
HETATM   11  C6  UNL     1      18.763 -25.559  14.061  1.00  0.00    -0.034 A 
HETATM   12  C7  UNL     1      20.194 -25.625  14.575  1.00  0.00     0.016 C 
HETATM   13  C8  UNL     1      17.737 -25.805  15.122  1.00  0.00     0.016 C 
HETATM   14  C9  UNL     1      18.493 -26.029  12.652  1.00  0.00    -0.034 A 
HETATM   15  C10 UNL     1      17.196 -26.783  12.498  1.00  0.00     0.016 C 
HETATM   16  C11 UNL     1      19.668 -26.705  11.973  1.00  0.00     0.016 C 
ENDBRANCH   4  10
ENDBRANCH   1   4
TORSDOF 4
ENDMDL
MODEL 2
REMARK VINA RESULT: -4.570869510      2.388      4.069
REMARK  4 active torsions:
REMARK  status: ('A' for Active; 'I' for Inactive)
REMARK    1  A    between atoms: N1_2  and  C2_5 
REMARK    2  A    between atoms: C2_5  and  C3_6 
REMARK    3  A    between atoms: C3_6  and  O1_7 
REMARK    4  A    between atoms: C3_6  and  C5_10 
ROOT
HETATM    1  O1  UNL     1      15.881 -25.891  11.477  1.00  0.00    -0.276 OA
HETATM    2  C4  UNL     1      15.474 -24.726  10.920  1.00  0.00     0.229 C 
HETATM    3  N2  UNL     1      15.110 -23.736  10.433  1.00  0.00    -0.164 NA
ENDROOT
BRANCH   1   4
HETATM    4  C3  UNL     1      17.212 -26.087  11.986  1.00  0.00     0.173 C 
BRANCH   4   5
HETATM    5  C2  UNL     1      17.192 -25.273  13.295  1.00  0.00     0.265 C 
BRANCH   5   6
HETATM    6  N1  UNL     1      18.166 -24.202  13.183  1.00  0.00    -0.077 N 
HETATM    7  C1  UNL     1      17.549 -22.967  13.626  1.00  0.00     0.267 C 
ATOM      8  H12 UNL     1      18.560 -24.128  12.244  1.00  0.00     0.276 HD
ATOM      9  H11 UNL     1      19.032 -24.408  13.682  1.00  0.00     0.276 HD
ENDBRANCH   5   6
ENDBRANCH   4   5
BRANCH   4  10
HETATM   10  C5  UNL     1      17.351 -27.533  12.316  1.00  0.00     0.035 A 
HETATM   11  C6  UNL     1      17.875 -28.422  11.242  1.00  0.00    -0.034 A 
HETATM   12  C7  UNL     1      17.097 -29.715  11.055  1.00  0.00     0.016 C 
HETATM   13  C8  UNL     1      18.473 -27.896   9.974  1.00  0.00     0.016 C 
HETATM   14  C9  UNL     1      18.616 -28.222  12.543  1.00  0.00    -0.034 A 
HETATM   15  C10 UNL     1      19.955 -27.549  12.385  1.00  0.00     0.016 C 
HETATM   16  C11 UNL     1      18.654 -29.440  13.444  1.00  0.00     0.016 C 
ENDBRANCH   4  10
ENDBRANCH   1   4
TORSDOF 4
ENDMDL
MODEL 3
REMARK VINA RESULT: -4.492570744      2.336      4.033
REMARK  4 active torsions:
REMARK  status: ('A' for Active; 'I' for Inactive)
REMARK    1  A    between atoms: N1_2  and  C2_5 
REMARK    2  A    between atoms: C2_5  and  C3_6 
REMARK    3  A    between atoms: C3_6  and  O1_7 
REMARK    4  A    between atoms: C3_6  and  C5_10 
ROOT
HETATM    1  O1  UNL     1      16.581 -26.587  11.718  1.00  0.00    -0.276 OA
HETATM    2  C4  UNL     1      17.046 -27.412  10.752  1.00  0.00     0.229 C 
HETATM    3  N2  UNL     1      17.448 -28.135   9.936  1.00  0.00    -0.164 NA
ENDROOT
BRANCH   1   4
HETATM    4  C3  UNL     1      16.598 -25.154  11.593  1.00  0.00     0.173 C 
BRANCH   4   5
HETATM    5  C2  UNL     1      15.138 -24.834  11.217  1.00  0.00     0.265 C 
BRANCH   5   6
HETATM    6  N1  UNL     1      15.143 -23.998  10.030  1.00  0.00    -0.077 N 
HETATM    7  C1  UNL     1      15.200 -22.609  10.442  1.00  0.00     0.267 C 
ATOM      8  H12 UNL     1      14.354 -24.191   9.412  1.00  0.00     0.276 HD
ATOM      9  H11 UNL     1      15.892 -24.245   9.382  1.00  0.00     0.276 HD
ENDBRANCH   5   6
ENDBRANCH   4   5
BRANCH   4  10
HETATM   10  C5  UNL     1      16.887 -24.594  12.943  1.00  0.00     0.035 A 
HETATM   11  C6  UNL     1      18.283 -24.725  13.443  1.00  0.00    -0.034 A 
HETATM   12  C7  UNL     1      18.399 -25.213  14.879  1.00  0.00     0.016 C 
HETATM   13  C8  UNL     1      19.418 -25.163  12.571  1.00  0.00     0.016 C 
HETATM   14  C9  UNL     1      17.647 -23.377  13.201  1.00  0.00    -0.034 A 
HETATM   15  C10 UNL     1      18.309 -22.578  12.107  1.00  0.00     0.016 C 
HETATM   16  C11 UNL     1      17.370 -22.572  14.454  1.00  0.00     0.016 C 
ENDBRANCH   4  10
ENDBRANCH   1   4
TORSDOF 4
ENDMDL
MODEL 4
REMARK VINA RESULT: -4.476868347      1.699      3.133
REMARK  4 active torsions:
REMARK  status: ('A' for Active; 'I' for Inactive)
REMARK    1  A    between atoms: N1_2  and  C2_5 
REMARK    2  A    between atoms: C2_5  and  C3_6 
REMARK    3  A    between atoms: C3_6  and  O1_7 
REMARK    4  A    between atoms: C3_6  and  C5_10 
ROOT
HETATM    1  O1  UNL     1      16.299 -24.914  12.426  1.00  0.00    -0.276 OA
HETATM    2  C4  UNL     1      15.507 -24.673  11.355  1.00  0.00     0.229 C 
HETATM    3  N2  UNL     1      14.813 -24.480  10.444  1.00  0.00    -0.164 NA
ENDROOT
BRANCH   1   4
HETATM    4  C3  UNL     1      17.704 -24.607  12.438  1.00  0.00     0.173 C 
BRANCH   4   5
HETATM    5  C2  UNL     1      17.730 -23.187  13.036  1.00  0.00     0.265 C 
BRANCH   5   6
HETATM    6  N1  UNL     1      18.207 -22.270  12.016  1.00  0.00    -0.077 N 
HETATM    7  C1  UNL     1      17.109 -21.409  11.618  1.00  0.00     0.267 C 
ATOM      8  H12 UNL     1      18.633 -22.752  11.225  1.00  0.00     0.276 HD
ATOM      9  H11 UNL     1      19.028 -21.743  12.317  1.00  0.00     0.276 HD
ENDBRANCH   5   6
ENDBRANCH   4   5
BRANCH   4  10
HETATM   10  C5  UNL     1      18.355 -25.548  13.393  1.00  0.00     0.035 A 
HETATM   11  C6  UNL     1      18.832 -26.847  12.841  1.00  0.00    -0.034 A 
HETATM   12  C7  UNL     1      18.461 -28.064  13.675  1.00  0.00     0.016 C 
HETATM   13  C8  UNL     1      18.898 -27.127  11.372  1.00  0.00     0.016 C 
HETATM   14  C9  UNL     1      19.782 -25.838  13.441  1.00  0.00    -0.034 A 
HETATM   15  C10 UNL     1      20.769 -25.267  12.454  1.00  0.00     0.016 C 
HETATM   16  C11 UNL     1      20.416 -26.266  14.750  1.00  0.00     0.016 C 
ENDBRANCH   4  10
ENDBRANCH   1   4
TORSDOF 4
ENDMDL
MODEL 5
REMARK VINA RESULT: -4.415699010      2.573      4.067
REMARK  4 active torsions:
REMARK  status: ('A' for Active; 'I' for Inactive)
REMARK    1  A    between atoms: N1_2  and  C2_5 
REMARK    2  A    between atoms: C2_5  and  C3_6 
REMARK    3  A    between atoms: C3_6  and  O1_7 
REMARK    4  A    between atoms: C3_6  and  C5_10 
ROOT
HETATM    1  O1  UNL     1      17.059 -27.282  11.115  1.00  0.00    -0.276 OA
HETATM    2  C4  UNL     1      18.021 -27.811  10.324  1.00  0.00     0.229 C 
HETATM    3  N2  UNL     1      18.839 -28.284   9.647  1.00  0.00    -0.164 NA
ENDROOT
BRANCH   1   4
HETATM    4  C3  UNL     1      17.231 -26.046  11.830  1.00  0.00     0.173 C 
BRANCH   4   5
HETATM    5  C2  UNL     1      15.783 -25.534  11.965  1.00  0.00     0.265 C 
BRANCH   5   6
HETATM    6  N1  UNL     1      15.492 -24.679  10.828  1.00  0.00    -0.077 N 
HETATM    7  C1  UNL     1      15.902 -23.325  11.150  1.00  0.00     0.267 C 
ATOM      8  H12 UNL     1      14.516 -24.734  10.537  1.00  0.00     0.276 HD
ATOM      9  H11 UNL     1      15.915 -25.020   9.964  1.00  0.00     0.276 HD
ENDBRANCH   5   6
ENDBRANCH   4   5
BRANCH   4  10
HETATM   10  C5  UNL     1      17.754 -26.386  13.183  1.00  0.00     0.035 A 
HETATM   11  C6  UNL     1      19.204 -26.146  13.425  1.00  0.00    -0.034 A 
HETATM   12  C7  UNL     1      19.929 -27.293  14.113  1.00  0.00     0.016 C 
HETATM   13  C8  UNL     1      20.068 -25.379  12.474  1.00  0.00     0.016 C 
HETATM   14  C9  UNL     1      18.134 -25.416  14.202  1.00  0.00    -0.034 A 
HETATM   15  C10 UNL     1      18.117 -23.927  13.963  1.00  0.00     0.016 C 
HETATM   16  C11 UNL     1      18.045 -25.793  15.667  1.00  0.00     0.016 C 
ENDBRANCH   4  10
ENDBRANCH   1   4
TORSDOF 4
ENDMDL
