MODEL 1
REMARK VINA RESULT: -4.396761094      0.000      0.000
REMARK  3 active torsions:
REMARK  status: ('A' for Active; 'I' for Inactive)
REMARK    1  A    between atoms: C2_2  and  O1_3 
REMARK    2  A    between atoms: O1_3  and  N1_4 
REMARK    3  A    between atoms: C4_9  and  C5_10 
ROOT
HETATM    1  N1  UNL     1      18.323 -24.892  12.547  1.00  0.00    -0.221 N 
HETATM    2  C3  UNL     1      17.057 -25.513  12.374  1.00  0.00     0.195 C 
HETATM    3  S1  UNL     1      15.801 -25.055  11.459  1.00  0.00    -0.039 SA
HETATM    4  N2  UNL     1      17.150 -26.634  13.252  1.00  0.00    -0.352 N 
ATOM      5  H2  UNL     1      16.368 -27.253  13.466  1.00  0.00     0.162 HD
HETATM    6  C4  UNL     1      18.480 -26.793  13.806  1.00  0.00     0.175 C 
HETATM    7  C6  UNL     1      19.271 -26.025  12.721  1.00  0.00     0.082 C 
HETATM    8  C7  UNL     1      19.272 -26.930  11.534  1.00  0.00     0.043 C 
HETATM    9  C8  UNL     1      20.589 -25.501  13.145  1.00  0.00     0.043 C 
ENDROOT
BRANCH   1  10
HETATM   10  O1  UNL     1      18.621 -23.616  12.647  1.00  0.00    -0.275 OA
BRANCH  10  11
HETATM   11  C2  UNL     1      17.748 -22.943  13.490  1.00  0.00     0.197 C 
HETATM   12  C1  UNL     1      17.616 -21.484  13.096  1.00  0.00     0.036 C 
ENDBRANCH  10  11
ENDBRANCH   1  10
BRANCH   6  13
HETATM   13  C5  UNL     1      18.596 -25.997  15.048  1.00  0.00     0.258 C 
HETATM   14  O2  UNL     1      17.740 -25.973  15.904  1.00  0.00    -0.305 OA
ENDBRANCH   6  13
TORSDOF 3
ENDMDL
MODEL 2
REMARK VINA RESULT: -4.109321346      2.032      2.773
REMARK  3 active torsions:
REMARK  status: ('A' for Active; 'I' for Inactive)
REMARK    1  A    between atoms: C2_2  and  O1_3 
REMARK    2  A    between atoms: O1_3  and  N1_4 
REMARK    3  A    between atoms: C4_9  and  C5_10 
ROOT
HETATM    1  N1  UNL     1      17.779 -26.340  12.721  1.00  0.00    -0.221 N 
HETATM    2  C3  UNL     1      18.487 -27.569  12.791  1.00  0.00     0.195 C 
HETATM    3  S1  UNL     1      18.381 -28.876  11.839  1.00  0.00    -0.039 SA
HETATM    4  N2  UNL     1      19.297 -27.384  13.951  1.00  0.00    -0.352 N 
ATOM      5  H2  UNL     1      19.866 -28.120  14.370  1.00  0.00     0.162 HD
HETATM    6  C4  UNL     1      19.220 -26.031  14.468  1.00  0.00     0.175 C 
HETATM    7  C6  UNL     1      18.762 -25.320  13.174  1.00  0.00     0.082 C 
HETATM    8  C7  UNL     1      19.973 -25.295  12.301  1.00  0.00     0.043 C 
HETATM    9  C8  UNL     1      18.071 -24.025  13.369  1.00  0.00     0.043 C 
ENDROOT
BRANCH   1  10
HETATM   10  O1  UNL     1      16.516 -26.118  12.433  1.00  0.00    -0.275 OA
BRANCH  10  11
HETATM   11  C2  UNL     1      16.325 -25.886  11.078  1.00  0.00     0.197 C 
HETATM   12  C1  UNL     1      15.363 -24.735  10.847  1.00  0.00     0.036 C 
ENDBRANCH  10  11
ENDBRANCH   1  10
BRANCH   6  13
HETATM   13  C5  UNL     1      18.091 -25.931  15.421  1.00  0.00     0.258 C 
HETATM   14  O2  UNL     1      18.227 -25.616  16.582  1.00  0.00    -0.305 OA
ENDBRANCH   6  13
TORSDOF 3
ENDMDL
MODEL 3
REMARK VINA RESULT: -3.784139140      2.217      3.980
REMARK  3 active torsions:
REMARK  status: ('A' for Active; 'I' for Inactive)
REMARK    1  A    between atoms: C2_2  and  O1_3 
REMARK    2  A    between atoms: O1_3  and  N1_4 
REMARK    3  A    between atoms: C4_9  and  C5_10 
ROOT
HETATM    1  N1  UNL     1      18.688 -24.306  13.380  1.00  0.00    -0.221 N 
HETATM    2  C3  UNL     1      18.095 -25.014  14.458  1.00  0.00     0.195 C 
HETATM    3  S1  UNL     1      18.791 -25.686  15.758  1.00  0.00    -0.039 SA
HETATM    4  N2  UNL     1      16.717 -25.026  14.087  1.00  0.00    -0.352 N 
ATOM      5  H2  UNL     1      15.999 -25.552  14.586  1.00  0.00     0.162 HD
HETATM    6  C4  UNL     1      16.452 -24.207  12.921  1.00  0.00     0.175 C 
HETATM    7  C6  UNL     1      17.682 -23.274  13.015  1.00  0.00     0.082 C 
HETATM    8  C7  UNL     1      17.385 -22.363  14.160  1.00  0.00     0.043 C 
HETATM    9  C8  UNL     1      18.084 -22.621  11.749  1.00  0.00     0.043 C 
ENDROOT
BRANCH   1  10
HETATM   10  O1  UNL     1      19.816 -24.540  12.746  1.00  0.00    -0.275 OA
BRANCH  10  11
HETATM   11  C2  UNL     1      20.085 -25.898  12.650  1.00  0.00     0.197 C 
HETATM   12  C1  UNL     1      21.434 -26.237  13.257  1.00  0.00     0.036 C 
ENDBRANCH  10  11
ENDBRANCH   1  10
BRANCH   6  13
HETATM   13  C5  UNL     1      16.636 -25.018  11.696  1.00  0.00     0.258 C 
HETATM   14  O2  UNL     1      15.715 -25.478  11.059  1.00  0.00    -0.305 OA
ENDBRANCH   6  13
TORSDOF 3
ENDMDL
MODEL 4
REMARK VINA RESULT: -3.752459922      2.141      3.246
REMARK  3 active torsions:
REMARK  status: ('A' for Active; 'I' for Inactive)
REMARK    1  A    between atoms: C2_2  and  O1_3 
REMARK    2  A    between atoms: O1_3  and  N1_4 
REMARK    3  A    between atoms: C4_9  and  C5_10 
ROOT
HETATM    1  N1  UNL     1      18.491 -25.835  14.073  1.00  0.00    -0.221 N 
HETATM    2  C3  UNL     1      17.862 -24.786  13.353  1.00  0.00     0.195 C 
HETATM    3  S1  UNL     1      17.394 -23.321  13.862  1.00  0.00    -0.039 SA
HETATM    4  N2  UNL     1      17.701 -25.365  12.058  1.00  0.00    -0.352 N 
ATOM      5  H2  UNL     1      17.178 -24.925  11.301  1.00  0.00     0.162 HD
HETATM    6  C4  UNL     1      18.363 -26.649  11.942  1.00  0.00     0.175 C 
HETATM    7  C6  UNL     1      19.394 -26.477  13.081  1.00  0.00     0.082 C 
HETATM    8  C7  UNL     1      20.400 -25.512  12.545  1.00  0.00     0.043 C 
HETATM    9  C8  UNL     1      19.933 -27.734  13.648  1.00  0.00     0.043 C 
ENDROOT
BRANCH   1  10
HETATM   10  O1  UNL     1      18.278 -26.250  15.302  1.00  0.00    -0.275 OA
BRANCH  10  11
HETATM   11  C2  UNL     1      18.789 -25.368  16.244  1.00  0.00     0.197 C 
HETATM   12  C1  UNL     1      20.201 -25.749  16.648  1.00  0.00     0.036 C 
ENDBRANCH  10  11
ENDBRANCH   1  10
BRANCH   6  13
HETATM   13  C5  UNL     1      17.439 -27.722  12.375  1.00  0.00     0.258 C 
HETATM   14  O2  UNL     1      17.095 -28.633  11.655  1.00  0.00    -0.305 OA
ENDBRANCH   6  13
TORSDOF 3
ENDMDL
MODEL 5
REMARK VINA RESULT: -3.728940093      2.627      3.712
REMARK  3 active torsions:
REMARK  status: ('A' for Active; 'I' for Inactive)
REMARK    1  A    between atoms: C2_2  and  O1_3 
REMARK    2  A    between atoms: O1_3  and  N1_4 
REMARK    3  A    between atoms: C4_9  and  C5_10 
ROOT
HETATM    1  N1  UNL     1      18.786 -27.050  13.010  1.00  0.00    -0.221 N 
HETATM    2  C3  UNL     1      19.722 -27.833  13.736  1.00  0.00     0.195 C 
HETATM    3  S1  UNL     1      20.267 -29.329  13.438  1.00  0.00    -0.039 SA
HETATM    4  N2  UNL     1      20.038 -26.980  14.836  1.00  0.00    -0.352 N 
ATOM      5  H2  UNL     1      20.610 -27.266  15.631  1.00  0.00     0.162 HD
HETATM    6  C4  UNL     1      19.456 -25.659  14.695  1.00  0.00     0.175 C 
HETATM    7  C6  UNL     1      19.274 -25.653  13.160  1.00  0.00     0.082 C 
HETATM    8  C7  UNL     1      20.653 -25.490  12.612  1.00  0.00     0.043 C 
HETATM    9  C8  UNL     1      18.251 -24.717  12.642  1.00  0.00     0.043 C 
ENDROOT
BRANCH   1  10
HETATM   10  O1  UNL     1      17.671 -27.417  12.419  1.00  0.00    -0.275 OA
BRANCH  10  11
HETATM   11  C2  UNL     1      17.908 -28.016  11.189  1.00  0.00     0.197 C 
HETATM   12  C1  UNL     1      17.021 -27.427  10.109  1.00  0.00     0.036 C 
ENDBRANCH  10  11
ENDBRANCH   1  10
BRANCH   6  13
HETATM   13  C5  UNL     1      18.094 -25.657  15.276  1.00  0.00     0.258 C 
HETATM   14  O2  UNL     1      17.867 -25.908  16.438  1.00  0.00    -0.305 OA
ENDBRANCH   6  13
TORSDOF 3
ENDMDL
