MODEL 1
REMARK VINA RESULT: -6.174749173      0.000      0.000
REMARK  3 active torsions:
REMARK  status: ('A' for Active; 'I' for Inactive)
REMARK    1  A    between atoms: C5_5  and  O1_6 
REMARK    2  A    between atoms: O1_6  and  C6_7 
REMARK    3  A    between atoms: C6_7  and  C7_8 
ROOT
HETATM    1  O1  UNL     1      16.490 -24.271  13.653  1.00  0.00    -0.379 OA
ENDROOT
BRANCH   1   2
HETATM    2  C5  UNL     1      16.876 -25.516  13.114  1.00  0.00     0.122 C 
HETATM    3  C4  UNL     1      16.682 -25.432  11.637  1.00  0.00     0.032 C 
HETATM    4  C3  UNL     1      16.654 -26.732  10.924  1.00  0.00     0.002 C 
HETATM    5  C2  UNL     1      17.135 -27.902  11.734  1.00  0.00     0.000 C 
HETATM    6  C1  UNL     1      18.553 -27.827  12.153  1.00  0.00     0.000 C 
HETATM    7  C11 UNL     1      19.077 -26.436  12.356  1.00  0.00     0.002 C 
HETATM    8  C10 UNL     1      18.337 -25.680  13.426  1.00  0.00     0.032 C 
ENDBRANCH   1   2
BRANCH   1   9
HETATM    9  C6  UNL     1      17.620 -23.571  14.047  1.00  0.00     0.243 C 
BRANCH   9  10
HETATM   10  C7  UNL     1      17.636 -22.264  13.339  1.00  0.00     0.097 C 
HETATM   11  N1  UNL     1      17.313 -21.108  13.808  1.00  0.00    -0.377 N 
HETATM   12  C8  UNL     1      17.460 -20.074  12.816  1.00  0.00     0.140 C 
ATOM     13  H1  UNL     1      16.992 -20.946  14.763  1.00  0.00     0.160 HD
HETATM   14  C9  UNL     1      18.259 -20.725  11.719  1.00  0.00     0.140 C 
HETATM   15  N2  UNL     1      18.037 -22.135  11.980  1.00  0.00    -0.377 N 
ATOM     16  H2  UNL     1      18.148 -22.896  11.310  1.00  0.00     0.160 HD
ENDBRANCH   9  10
ENDBRANCH   1   9
TORSDOF 3
ENDMDL
MODEL 2
REMARK VINA RESULT: -6.066326584      1.164      2.159
REMARK  3 active torsions:
REMARK  status: ('A' for Active; 'I' for Inactive)
REMARK    1  A    between atoms: C5_5  and  O1_6 
REMARK    2  A    between atoms: O1_6  and  C6_7 
REMARK    3  A    between atoms: C6_7  and  C7_8 
ROOT
HETATM    1  O1  UNL     1      16.048 -24.363  12.312  1.00  0.00    -0.379 OA
ENDROOT
BRANCH   1   2
HETATM    2  C5  UNL     1      17.094 -25.292  12.132  1.00  0.00     0.122 C 
HETATM    3  C4  UNL     1      17.513 -25.748  13.489  1.00  0.00     0.032 C 
HETATM    4  C3  UNL     1      18.834 -26.417  13.555  1.00  0.00     0.002 C 
HETATM    5  C2  UNL     1      19.404 -26.814  12.224  1.00  0.00     0.000 C 
HETATM    6  C1  UNL     1      18.605 -27.816  11.480  1.00  0.00     0.000 C 
HETATM    7  C11 UNL     1      17.130 -27.765  11.743  1.00  0.00     0.002 C 
HETATM    8  C10 UNL     1      16.510 -26.446  11.366  1.00  0.00     0.032 C 
ENDBRANCH   1   2
BRANCH   1   9
HETATM    9  C6  UNL     1      16.077 -23.433  11.284  1.00  0.00     0.243 C 
BRANCH   9  10
HETATM   10  C7  UNL     1      16.712 -22.188  11.791  1.00  0.00     0.097 C 
HETATM   11  N1  UNL     1      16.662 -21.009  11.274  1.00  0.00    -0.377 N 
HETATM   12  C8  UNL     1      17.405 -20.055  12.057  1.00  0.00     0.140 C 
ATOM     13  H1  UNL     1      16.159 -20.780  10.417  1.00  0.00     0.160 HD
HETATM   14  C9  UNL     1      17.666 -20.767  13.358  1.00  0.00     0.140 C 
HETATM   15  N2  UNL     1      17.494 -22.158  12.980  1.00  0.00    -0.377 N 
ATOM     16  H2  UNL     1      17.867 -22.968  13.477  1.00  0.00     0.160 HD
ENDBRANCH   9  10
ENDBRANCH   1   9
TORSDOF 3
ENDMDL
MODEL 3
REMARK VINA RESULT: -6.024274572      0.867      2.011
REMARK  3 active torsions:
REMARK  status: ('A' for Active; 'I' for Inactive)
REMARK    1  A    between atoms: C5_5  and  O1_6 
REMARK    2  A    between atoms: O1_6  and  C6_7 
REMARK    3  A    between atoms: C6_7  and  C7_8 
ROOT
HETATM    1  O1  UNL     1      16.870 -24.380  13.807  1.00  0.00    -0.379 OA
ENDROOT
BRANCH   1   2
HETATM    2  C5  UNL     1      17.669 -25.323  13.126  1.00  0.00     0.122 C 
HETATM    3  C4  UNL     1      18.071 -26.358  14.123  1.00  0.00     0.032 C 
HETATM    4  C3  UNL     1      19.212 -27.215  13.725  1.00  0.00     0.002 C 
HETATM    5  C2  UNL     1      19.584 -27.130  12.272  1.00  0.00     0.000 C 
HETATM    6  C1  UNL     1      18.533 -27.586  11.334  1.00  0.00     0.000 C 
HETATM    7  C11 UNL     1      17.128 -27.389  11.819  1.00  0.00     0.002 C 
HETATM    8  C10 UNL     1      16.791 -25.945  12.076  1.00  0.00     0.032 C 
ENDBRANCH   1   2
BRANCH   1   9
HETATM    9  C6  UNL     1      17.653 -23.295  14.173  1.00  0.00     0.243 C 
BRANCH   9  10
HETATM   10  C7  UNL     1      17.410 -22.191  13.208  1.00  0.00     0.097 C 
HETATM   11  N1  UNL     1      16.986 -22.282  11.995  1.00  0.00    -0.377 N 
HETATM   12  C8  UNL     1      16.877 -20.987  11.374  1.00  0.00     0.140 C 
ATOM     13  H1  UNL     1      16.758 -23.161  11.531  1.00  0.00     0.160 HD
HETATM   14  C9  UNL     1      16.987 -20.016  12.520  1.00  0.00     0.140 C 
HETATM   15  N2  UNL     1      17.632 -20.824  13.538  1.00  0.00    -0.377 N 
ATOM     16  H2  UNL     1      18.150 -20.476  14.345  1.00  0.00     0.160 HD
ENDBRANCH   9  10
ENDBRANCH   1   9
TORSDOF 3
ENDMDL
MODEL 4
REMARK VINA RESULT: -6.015613588      0.862      1.782
REMARK  3 active torsions:
REMARK  status: ('A' for Active; 'I' for Inactive)
REMARK    1  A    between atoms: C5_5  and  O1_6 
REMARK    2  A    between atoms: O1_6  and  C6_7 
REMARK    3  A    between atoms: C6_7  and  C7_8 
ROOT
HETATM    1  O1  UNL     1      16.919 -24.391  13.827  1.00  0.00    -0.379 OA
ENDROOT
BRANCH   1   2
HETATM    2  C5  UNL     1      17.668 -25.345  13.107  1.00  0.00     0.122 C 
HETATM    3  C4  UNL     1      18.073 -26.404  14.076  1.00  0.00     0.032 C 
HETATM    4  C3  UNL     1      19.177 -27.288  13.628  1.00  0.00     0.002 C 
HETATM    5  C2  UNL     1      19.502 -27.191  12.165  1.00  0.00     0.000 C 
HETATM    6  C1  UNL     1      18.408 -27.605  11.257  1.00  0.00     0.000 C 
HETATM    7  C11 UNL     1      17.026 -27.376  11.791  1.00  0.00     0.002 C 
HETATM    8  C10 UNL     1      16.738 -25.927  12.079  1.00  0.00     0.032 C 
ENDBRANCH   1   2
BRANCH   1   9
HETATM    9  C6  UNL     1      17.744 -23.334  14.183  1.00  0.00     0.243 C 
BRANCH   9  10
HETATM   10  C7  UNL     1      17.405 -22.163  13.332  1.00  0.00     0.097 C 
HETATM   11  N1  UNL     1      17.538 -20.914  13.619  1.00  0.00    -0.377 N 
HETATM   12  C8  UNL     1      17.100 -20.072  12.535  1.00  0.00     0.140 C 
ATOM     13  H1  UNL     1      17.908 -20.565  14.503  1.00  0.00     0.160 HD
HETATM   14  C9  UNL     1      16.972 -21.011  11.365  1.00  0.00     0.140 C 
HETATM   15  N2  UNL     1      16.862 -22.300  12.024  1.00  0.00    -0.377 N 
ATOM     16  H2  UNL     1      16.467 -23.150  11.621  1.00  0.00     0.160 HD
ENDBRANCH   9  10
ENDBRANCH   1   9
TORSDOF 3
ENDMDL
MODEL 5
REMARK VINA RESULT: -5.994464841      0.814      1.248
REMARK  3 active torsions:
REMARK  status: ('A' for Active; 'I' for Inactive)
REMARK    1  A    between atoms: C5_5  and  O1_6 
REMARK    2  A    between atoms: O1_6  and  C6_7 
REMARK    3  A    between atoms: C6_7  and  C7_8 
ROOT
HETATM    1  O1  UNL     1      16.774 -24.376  13.802  1.00  0.00    -0.379 OA
ENDROOT
BRANCH   1   2
HETATM    2  C5  UNL     1      17.425 -25.575  13.444  1.00  0.00     0.122 C 
HETATM    3  C4  UNL     1      17.077 -25.852  12.020  1.00  0.00     0.032 C 
HETATM    4  C3  UNL     1      17.328 -27.240  11.562  1.00  0.00     0.002 C 
HETATM    5  C2  UNL     1      18.176 -28.063  12.490  1.00  0.00     0.000 C 
HETATM    6  C1  UNL     1      19.557 -27.561  12.678  1.00  0.00     0.000 C 
HETATM    7  C11 UNL     1      19.710 -26.075  12.551  1.00  0.00     0.002 C 
HETATM    8  C10 UNL     1      18.900 -25.312  13.564  1.00  0.00     0.032 C 
ENDBRANCH   1   2
BRANCH   1   9
HETATM    9  C6  UNL     1      17.719 -23.377  13.979  1.00  0.00     0.243 C 
BRANCH   9  10
HETATM   10  C7  UNL     1      17.401 -22.256  13.055  1.00  0.00     0.097 C 
HETATM   11  N1  UNL     1      16.857 -22.324  11.889  1.00  0.00    -0.377 N 
HETATM   12  C8  UNL     1      16.708 -21.020  11.297  1.00  0.00     0.140 C 
ATOM     13  H1  UNL     1      16.567 -23.194  11.442  1.00  0.00     0.160 HD
HETATM   14  C9  UNL     1      16.950 -20.066  12.437  1.00  0.00     0.140 C 
HETATM   15  N2  UNL     1      17.679 -20.898  13.377  1.00  0.00    -0.377 N 
ATOM     16  H2  UNL     1      18.282 -20.569  14.131  1.00  0.00     0.160 HD
ENDBRANCH   9  10
ENDBRANCH   1   9
TORSDOF 3
ENDMDL
