MODEL 1
REMARK VINA RESULT: -5.040192525      0.000      0.000
REMARK  3 active torsions:
REMARK  status: ('A' for Active; 'I' for Inactive)
REMARK    1  A    between atoms: C6_6  and  N1_7 
REMARK    2  A    between atoms: N1_7  and  O1_8 
REMARK    3  A    between atoms: N1_7  and  C7_10 
ROOT
HETATM    1  C1  UNL     1     -16.160  16.296 -11.582  1.00  0.00     0.012 C 
HETATM    2  C2  UNL     1     -16.547  16.784 -12.974  1.00  0.00     0.006 C 
HETATM    3  C3  UNL     1     -17.173  15.644 -13.793  1.00  0.00     0.006 C 
HETATM    4  C4  UNL     1     -18.084  16.383 -14.769  1.00  0.00     0.002 C 
HETATM    5  C5  UNL     1     -18.033  17.840 -14.360  1.00  0.00     0.028 C 
HETATM    6  C6  UNL     1     -17.764  17.669 -12.860  1.00  0.00     0.112 C 
ENDROOT
BRANCH   6   7
HETATM    7  N1  UNL     1     -17.653  18.872 -12.182  1.00  0.00    -0.288 N 
BRANCH   7   8
HETATM    8  O1  UNL     1     -18.804  19.537 -12.130  1.00  0.00    -0.291 OA
ATOM      9  H1  UNL     1     -18.948  19.951 -11.286  1.00  0.00     0.244 HD
ENDBRANCH   7   8
BRANCH   7  10
HETATM   10  C7  UNL     1     -16.525  19.706 -12.333  1.00  0.00     0.101 C 
HETATM   11  C8  UNL     1     -15.873  19.897 -10.986  1.00  0.00     0.034 C 
HETATM   12  C9  UNL     1     -17.017  21.139 -12.726  1.00  0.00     0.034 C 
ENDBRANCH   7  10
ENDBRANCH   6   7
TORSDOF 3
ENDMDL
MODEL 2
REMARK VINA RESULT: -4.970962306      1.465      2.405
REMARK  3 active torsions:
REMARK  status: ('A' for Active; 'I' for Inactive)
REMARK    1  A    between atoms: C6_6  and  N1_7 
REMARK    2  A    between atoms: N1_7  and  O1_8 
REMARK    3  A    between atoms: N1_7  and  C7_10 
ROOT
HETATM    1  C1  UNL     1     -18.723  15.939 -13.949  1.00  0.00     0.012 C 
HETATM    2  C2  UNL     1     -17.905  16.264 -12.703  1.00  0.00     0.006 C 
HETATM    3  C3  UNL     1     -16.867  15.163 -12.434  1.00  0.00     0.006 C 
HETATM    4  C4  UNL     1     -15.762  15.907 -11.690  1.00  0.00     0.002 C 
HETATM    5  C5  UNL     1     -16.160  17.368 -11.713  1.00  0.00     0.028 C 
HETATM    6  C6  UNL     1     -16.954  17.391 -13.024  1.00  0.00     0.112 C 
ENDROOT
BRANCH   6   7
HETATM    7  N1  UNL     1     -17.475  18.638 -13.329  1.00  0.00    -0.288 N 
BRANCH   7   8
HETATM    8  O1  UNL     1     -17.351  18.943 -14.618  1.00  0.00    -0.291 OA
ATOM      9  H1  UNL     1     -18.107  18.679 -15.130  1.00  0.00     0.244 HD
ENDBRANCH   7   8
BRANCH   7  10
HETATM   10  C7  UNL     1     -17.304  19.743 -12.468  1.00  0.00     0.101 C 
HETATM   11  C8  UNL     1     -18.660  20.289 -12.096  1.00  0.00     0.034 C 
HETATM   12  C9  UNL     1     -16.633  20.902 -13.277  1.00  0.00     0.034 C 
ENDBRANCH   7  10
ENDBRANCH   6   7
TORSDOF 3
ENDMDL
MODEL 3
REMARK VINA RESULT: -4.957874548      2.003      2.830
REMARK  3 active torsions:
REMARK  status: ('A' for Active; 'I' for Inactive)
REMARK    1  A    between atoms: C6_6  and  N1_7 
REMARK    2  A    between atoms: N1_7  and  O1_8 
REMARK    3  A    between atoms: N1_7  and  C7_10 
ROOT
HETATM    1  C1  UNL     1     -15.314  16.218 -11.206  1.00  0.00     0.012 C 
HETATM    2  C2  UNL     1     -16.182  15.251 -12.005  1.00  0.00     0.006 C 
HETATM    3  C3  UNL     1     -16.770  14.167 -11.087  1.00  0.00     0.006 C 
HETATM    4  C4  UNL     1     -18.058  13.772 -11.804  1.00  0.00     0.002 C 
HETATM    5  C5  UNL     1     -18.191  14.728 -12.971  1.00  0.00     0.028 C 
HETATM    6  C6  UNL     1     -17.468  15.944 -12.380  1.00  0.00     0.112 C 
ENDROOT
BRANCH   6   7
HETATM    7  N1  UNL     1     -17.415  17.025 -13.246  1.00  0.00    -0.288 N 
BRANCH   7   8
HETATM    8  O1  UNL     1     -16.305  17.039 -13.979  1.00  0.00    -0.291 OA
ATOM      9  H1  UNL     1     -15.517  17.056 -13.448  1.00  0.00     0.244 HD
ENDBRANCH   7   8
BRANCH   7  10
HETATM   10  C7  UNL     1     -17.850  18.309 -12.855  1.00  0.00     0.101 C 
HETATM   11  C8  UNL     1     -17.732  19.245 -14.032  1.00  0.00     0.034 C 
HETATM   12  C9  UNL     1     -16.834  18.878 -11.810  1.00  0.00     0.034 C 
ENDBRANCH   7  10
ENDBRANCH   6   7
TORSDOF 3
ENDMDL
MODEL 4
REMARK VINA RESULT: -4.942864685      1.857      3.785
REMARK  3 active torsions:
REMARK  status: ('A' for Active; 'I' for Inactive)
REMARK    1  A    between atoms: C6_6  and  N1_7 
REMARK    2  A    between atoms: N1_7  and  O1_8 
REMARK    3  A    between atoms: N1_7  and  C7_10 
ROOT
HETATM    1  C1  UNL     1     -15.523  19.106 -10.827  1.00  0.00     0.012 C 
HETATM    2  C2  UNL     1     -16.817  19.232 -11.625  1.00  0.00     0.006 C 
HETATM    3  C3  UNL     1     -16.999  20.669 -12.140  1.00  0.00     0.006 C 
HETATM    4  C4  UNL     1     -17.845  20.478 -13.396  1.00  0.00     0.002 C 
HETATM    5  C5  UNL     1     -17.964  18.981 -13.592  1.00  0.00     0.028 C 
HETATM    6  C6  UNL     1     -16.641  18.541 -12.955  1.00  0.00     0.112 C 
ENDROOT
BRANCH   6   7
HETATM    7  N1  UNL     1     -16.453  17.168 -12.973  1.00  0.00    -0.288 N 
BRANCH   7   8
HETATM    8  O1  UNL     1     -16.389  16.677 -14.208  1.00  0.00    -0.291 OA
ATOM      9  H1  UNL     1     -17.244  16.448 -14.554  1.00  0.00     0.244 HD
ENDBRANCH   7   8
BRANCH   7  10
HETATM   10  C7  UNL     1     -17.114  16.318 -12.061  1.00  0.00     0.101 C 
HETATM   11  C8  UNL     1     -16.093  15.440 -11.382  1.00  0.00     0.034 C 
HETATM   12  C9  UNL     1     -18.002  15.316 -12.872  1.00  0.00     0.034 C 
ENDBRANCH   7  10
ENDBRANCH   6   7
TORSDOF 3
ENDMDL
MODEL 5
REMARK VINA RESULT: -4.835881147      1.887      4.285
REMARK  3 active torsions:
REMARK  status: ('A' for Active; 'I' for Inactive)
REMARK    1  A    between atoms: C6_6  and  N1_7 
REMARK    2  A    between atoms: N1_7  and  O1_8 
REMARK    3  A    between atoms: N1_7  and  C7_10 
ROOT
HETATM    1  C1  UNL     1     -17.984  19.284 -12.492  1.00  0.00     0.012 C 
HETATM    2  C2  UNL     1     -16.938  18.186 -12.652  1.00  0.00     0.006 C 
HETATM    3  C3  UNL     1     -16.080  18.065 -11.383  1.00  0.00     0.006 C 
HETATM    4  C4  UNL     1     -15.634  16.606 -11.407  1.00  0.00     0.002 C 
HETATM    5  C5  UNL     1     -16.363  15.971 -12.573  1.00  0.00     0.028 C 
HETATM    6  C6  UNL     1     -17.623  16.844 -12.585  1.00  0.00     0.112 C 
ENDROOT
BRANCH   6   7
HETATM    7  N1  UNL     1     -18.519  16.501 -13.585  1.00  0.00    -0.288 N 
BRANCH   7   8
HETATM    8  O1  UNL     1     -19.768  16.395 -13.139  1.00  0.00    -0.291 OA
ATOM      9  H1  UNL     1     -20.022  15.495 -12.975  1.00  0.00     0.244 HD
ENDBRANCH   7   8
BRANCH   7  10
HETATM   10  C7  UNL     1     -18.192  15.554 -14.580  1.00  0.00     0.101 C 
HETATM   11  C8  UNL     1     -18.698  16.049 -15.912  1.00  0.00     0.034 C 
HETATM   12  C9  UNL     1     -19.020  14.253 -14.315  1.00  0.00     0.034 C 
ENDBRANCH   7  10
ENDBRANCH   6   7
TORSDOF 3
ENDMDL
