MODEL 1
REMARK VINA RESULT: -4.826260580      0.000      0.000
REMARK  2 active torsions:
REMARK  status: ('A' for Active; 'I' for Inactive)
REMARK    1  A    between atoms: C2_2  and  C4_4 
REMARK    2  A    between atoms: C8_9  and  N1_10 
ROOT
HETATM    1  C4  UNL     1     -17.350  17.735 -12.790  1.00  0.00     0.035 C 
HETATM    2  C5  UNL     1     -18.791  17.380 -12.642  1.00  0.00     0.030 C 
HETATM    3  S1  UNL     1     -16.859  19.032 -11.579  1.00  0.00    -0.157 SA
HETATM    4  C6  UNL     1     -16.854  20.453 -12.749  1.00  0.00     0.077 C 
HETATM    5  C7  UNL     1     -17.758  19.856 -13.838  1.00  0.00     0.044 C 
HETATM    6  C8  UNL     1     -17.098  18.507 -14.086  1.00  0.00     0.202 C 
ENDROOT
BRANCH   1   7
HETATM    7  C2  UNL     1     -16.413  16.572 -12.711  1.00  0.00    -0.002 C 
HETATM    8  C1  UNL     1     -17.180  15.276 -12.737  1.00  0.00     0.011 C 
HETATM    9  C3  UNL     1     -15.614  16.712 -11.423  1.00  0.00     0.011 C 
ENDBRANCH   1   7
BRANCH   6  10
HETATM   10  N1  UNL     1     -17.681  17.828 -15.214  1.00  0.00    -0.073 N 
ATOM     11  H13 UNL     1     -17.159  16.987 -15.458  1.00  0.00     0.274 HD
ATOM     12  H12 UNL     1     -18.572  17.394 -14.972  1.00  0.00     0.274 HD
ATOM     13  H11 UNL     1     -17.774  18.457 -16.013  1.00  0.00     0.274 HD
ENDBRANCH   6  10
TORSDOF 2
ENDMDL
MODEL 2
REMARK VINA RESULT: -4.396471827      1.593      1.961
REMARK  2 active torsions:
REMARK  status: ('A' for Active; 'I' for Inactive)
REMARK    1  A    between atoms: C2_2  and  C4_4 
REMARK    2  A    between atoms: C8_9  and  N1_10 
ROOT
HETATM    1  C4  UNL     1     -17.552  16.088 -12.915  1.00  0.00     0.035 C 
HETATM    2  C5  UNL     1     -18.934  15.579 -12.677  1.00  0.00     0.030 C 
HETATM    3  S1  UNL     1     -17.390  17.841 -12.376  1.00  0.00    -0.157 SA
HETATM    4  C6  UNL     1     -17.464  18.606 -14.049  1.00  0.00     0.077 C 
HETATM    5  C7  UNL     1     -18.147  17.452 -14.798  1.00  0.00     0.044 C 
HETATM    6  C8  UNL     1     -17.275  16.268 -14.409  1.00  0.00     0.202 C 
ENDROOT
BRANCH   1   7
HETATM    7  C2  UNL     1     -16.470  15.256 -12.303  1.00  0.00    -0.002 C 
HETATM    8  C1  UNL     1     -17.065  14.147 -11.475  1.00  0.00     0.011 C 
HETATM    9  C3  UNL     1     -15.609  16.179 -11.450  1.00  0.00     0.011 C 
ENDBRANCH   1   7
BRANCH   6  10
HETATM   10  N1  UNL     1     -17.627  15.082 -15.146  1.00  0.00    -0.073 N 
ATOM     11  H13 UNL     1     -17.115  14.265 -14.811  1.00  0.00     0.274 HD
ATOM     12  H12 UNL     1     -18.574  14.772 -14.929  1.00  0.00     0.274 HD
ATOM     13  H11 UNL     1     -17.497  15.221 -16.148  1.00  0.00     0.274 HD
ENDBRANCH   6  10
TORSDOF 2
ENDMDL
MODEL 3
REMARK VINA RESULT: -4.002859442      2.141      3.187
REMARK  2 active torsions:
REMARK  status: ('A' for Active; 'I' for Inactive)
REMARK    1  A    between atoms: C2_2  and  C4_4 
REMARK    2  A    between atoms: C8_9  and  N1_10 
ROOT
HETATM    1  C4  UNL     1     -17.884  15.990 -13.484  1.00  0.00     0.035 C 
HETATM    2  C5  UNL     1     -19.153  16.631 -13.035  1.00  0.00     0.030 C 
HETATM    3  S1  UNL     1     -17.128  14.995 -12.132  1.00  0.00    -0.157 SA
HETATM    4  C6  UNL     1     -15.815  16.198 -11.666  1.00  0.00     0.077 C 
HETATM    5  C7  UNL     1     -16.448  17.468 -12.254  1.00  0.00     0.044 C 
HETATM    6  C8  UNL     1     -16.774  17.025 -13.673  1.00  0.00     0.202 C 
ENDROOT
BRANCH   1   7
HETATM    7  C2  UNL     1     -18.012  15.163 -14.725  1.00  0.00    -0.002 C 
HETATM    8  C1  UNL     1     -18.861  15.876 -15.745  1.00  0.00     0.011 C 
HETATM    9  C3  UNL     1     -18.633  13.831 -14.327  1.00  0.00     0.011 C 
ENDBRANCH   1   7
BRANCH   6  10
HETATM   10  N1  UNL     1     -17.226  18.126 -14.484  1.00  0.00    -0.073 N 
ATOM     11  H13 UNL     1     -17.235  19.001 -13.959  1.00  0.00     0.274 HD
ATOM     12  H12 UNL     1     -16.537  18.378 -15.193  1.00  0.00     0.274 HD
ATOM     13  H11 UNL     1     -18.137  17.926 -14.898  1.00  0.00     0.274 HD
ENDBRANCH   6  10
TORSDOF 2
ENDMDL
MODEL 4
REMARK VINA RESULT: -3.881021821      1.774      3.561
REMARK  2 active torsions:
REMARK  status: ('A' for Active; 'I' for Inactive)
REMARK    1  A    between atoms: C2_2  and  C4_4 
REMARK    2  A    between atoms: C8_9  and  N1_10 
ROOT
HETATM    1  C4  UNL     1     -17.184  16.941 -12.899  1.00  0.00     0.035 C 
HETATM    2  C5  UNL     1     -16.810  16.838 -14.339  1.00  0.00     0.030 C 
HETATM    3  S1  UNL     1     -15.843  16.292 -11.817  1.00  0.00    -0.157 SA
HETATM    4  C6  UNL     1     -16.623  14.671 -11.429  1.00  0.00     0.077 C 
HETATM    5  C7  UNL     1     -17.595  14.593 -12.616  1.00  0.00     0.044 C 
HETATM    6  C8  UNL     1     -18.288  15.946 -12.539  1.00  0.00     0.202 C 
ENDROOT
BRANCH   1   7
HETATM    7  C2  UNL     1     -17.586  18.313 -12.459  1.00  0.00    -0.002 C 
HETATM    8  C1  UNL     1     -17.769  19.215 -13.651  1.00  0.00     0.011 C 
HETATM    9  C3  UNL     1     -16.494  18.837 -11.535  1.00  0.00     0.011 C 
ENDBRANCH   1   7
BRANCH   6  10
HETATM   10  N1  UNL     1     -19.387  16.034 -13.466  1.00  0.00    -0.073 N 
ATOM     11  H13 UNL     1     -19.154  16.618 -14.270  1.00  0.00     0.274 HD
ATOM     12  H12 UNL     1     -19.539  15.151 -13.954  1.00  0.00     0.274 HD
ATOM     13  H11 UNL     1     -20.235  16.358 -13.000  1.00  0.00     0.274 HD
ENDBRANCH   6  10
TORSDOF 2
ENDMDL
MODEL 5
REMARK VINA RESULT: -3.796795118      2.601      4.300
REMARK  2 active torsions:
REMARK  status: ('A' for Active; 'I' for Inactive)
REMARK    1  A    between atoms: C2_2  and  C4_4 
REMARK    2  A    between atoms: C8_9  and  N1_10 
ROOT
HETATM    1  C4  UNL     1     -18.167  15.477 -13.352  1.00  0.00     0.035 C 
HETATM    2  C5  UNL     1     -18.037  15.106 -14.790  1.00  0.00     0.030 C 
HETATM    3  S1  UNL     1     -17.131  14.387 -12.290  1.00  0.00    -0.157 SA
HETATM    4  C6  UNL     1     -18.489  13.316 -11.661  1.00  0.00     0.077 C 
HETATM    5  C7  UNL     1     -19.523  13.586 -12.764  1.00  0.00     0.044 C 
HETATM    6  C8  UNL     1     -19.547  15.107 -12.804  1.00  0.00     0.202 C 
ENDROOT
BRANCH   1   7
HETATM    7  C2  UNL     1     -17.880  16.915 -13.053  1.00  0.00    -0.002 C 
HETATM    8  C1  UNL     1     -17.761  17.702 -14.330  1.00  0.00     0.011 C 
HETATM    9  C3  UNL     1     -16.587  16.967 -12.250  1.00  0.00     0.011 C 
ENDBRANCH   1   7
BRANCH   6  10
HETATM   10  N1  UNL     1     -20.593  15.601 -13.662  1.00  0.00    -0.073 N 
ATOM     11  H13 UNL     1     -20.215  16.087 -14.475  1.00  0.00     0.274 HD
ATOM     12  H12 UNL     1     -21.073  14.841 -14.144  1.00  0.00     0.274 HD
ATOM     13  H11 UNL     1     -21.245  16.189 -13.142  1.00  0.00     0.274 HD
ENDBRANCH   6  10
TORSDOF 2
ENDMDL
