MODEL 1
REMARK VINA RESULT: -5.000251617      0.000      0.000
REMARK  1 active torsions:
REMARK  status: ('A' for Active; 'I' for Inactive)
REMARK    1  A    between atoms: S1_2  and  C2_3 
ROOT
HETATM    1  C2  UNL     1     -17.009  16.965 -13.634  1.00  0.00     0.246 C 
HETATM    2  C3  UNL     1     -17.161  17.213 -12.137  1.00  0.00     0.044 C 
HETATM    3  C4  UNL     1     -15.997  17.913 -11.536  1.00  0.00     0.003 C 
HETATM    4  C5  UNL     1     -16.065  19.380 -11.395  1.00  0.00     0.000 C 
HETATM    5  C6  UNL     1     -17.303  20.062 -11.861  1.00  0.00     0.002 C 
HETATM    6  C7  UNL     1     -17.190  20.298 -13.347  1.00  0.00     0.027 C 
HETATM    7  C8  UNL     1     -17.912  19.162 -14.047  1.00  0.00     0.233 C 
HETATM    8  N1  UNL     1     -16.918  18.182 -14.392  1.00  0.00    -0.062 N 
ATOM      9  H11 UNL     1     -16.942  17.984 -15.392  1.00  0.00     0.278 HD
ATOM     10  H12 UNL     1     -15.981  18.580 -14.317  1.00  0.00     0.278 HD
ENDROOT
BRANCH   1  11
HETATM   11  S1  UNL     1     -18.386  16.002 -14.264  1.00  0.00    -0.141 SA
HETATM   12  C1  UNL     1     -18.614  16.105 -16.037  1.00  0.00     0.092 C 
ENDBRANCH   1  11
TORSDOF 1
ENDMDL
MODEL 2
REMARK VINA RESULT: -4.708424434      1.948      3.224
REMARK  1 active torsions:
REMARK  status: ('A' for Active; 'I' for Inactive)
REMARK    1  A    between atoms: S1_2  and  C2_3 
ROOT
HETATM    1  C2  UNL     1     -18.395  16.575 -13.795  1.00  0.00     0.246 C 
HETATM    2  C3  UNL     1     -17.063  17.316 -13.727  1.00  0.00     0.044 C 
HETATM    3  C4  UNL     1     -16.821  17.971 -12.416  1.00  0.00     0.003 C 
HETATM    4  C5  UNL     1     -16.027  17.241 -11.410  1.00  0.00     0.000 C 
HETATM    5  C6  UNL     1     -15.514  15.894 -11.780  1.00  0.00     0.002 C 
HETATM    6  C7  UNL     1     -16.603  14.880 -11.528  1.00  0.00     0.027 C 
HETATM    7  C8  UNL     1     -17.319  14.639 -12.843  1.00  0.00     0.233 C 
HETATM    8  N1  UNL     1     -18.476  15.493 -12.855  1.00  0.00    -0.062 N 
ATOM      9  H11 UNL     1     -19.323  14.945 -13.011  1.00  0.00     0.278 HD
ATOM     10  H12 UNL     1     -18.670  15.846 -11.917  1.00  0.00     0.278 HD
ENDROOT
BRANCH   1  11
HETATM   11  S1  UNL     1     -18.680  15.924 -15.442  1.00  0.00    -0.141 SA
HETATM   12  C1  UNL     1     -20.217  15.025 -15.629  1.00  0.00     0.092 C 
ENDBRANCH   1  11
TORSDOF 1
ENDMDL
MODEL 3
REMARK VINA RESULT: -4.594906301      2.377      4.070
REMARK  1 active torsions:
REMARK  status: ('A' for Active; 'I' for Inactive)
REMARK    1  A    between atoms: S1_2  and  C2_3 
ROOT
HETATM    1  C2  UNL     1     -17.597  17.524 -12.721  1.00  0.00     0.246 C 
HETATM    2  C3  UNL     1     -16.451  16.525 -12.846  1.00  0.00     0.044 C 
HETATM    3  C4  UNL     1     -16.365  15.582 -11.702  1.00  0.00     0.003 C 
HETATM    4  C5  UNL     1     -17.017  14.265 -11.836  1.00  0.00     0.000 C 
HETATM    5  C6  UNL     1     -17.713  13.967 -13.117  1.00  0.00     0.002 C 
HETATM    6  C7  UNL     1     -19.104  14.550 -13.054  1.00  0.00     0.027 C 
HETATM    7  C8  UNL     1     -19.065  15.903 -13.737  1.00  0.00     0.233 C 
HETATM    8  N1  UNL     1     -18.886  16.890 -12.707  1.00  0.00    -0.062 N 
ATOM      9  H11 UNL     1     -19.629  17.588 -12.747  1.00  0.00     0.278 HD
ATOM     10  H12 UNL     1     -19.077  16.487 -11.789  1.00  0.00     0.278 HD
ENDROOT
BRANCH   1  11
HETATM   11  S1  UNL     1     -17.559  18.711 -14.065  1.00  0.00    -0.141 SA
HETATM   12  C1  UNL     1     -17.711  20.419 -13.551  1.00  0.00     0.092 C 
ENDBRANCH   1  11
TORSDOF 1
ENDMDL
MODEL 4
REMARK VINA RESULT: -4.542882817      1.975      2.573
REMARK  1 active torsions:
REMARK  status: ('A' for Active; 'I' for Inactive)
REMARK    1  A    between atoms: S1_2  and  C2_3 
ROOT
HETATM    1  C2  UNL     1     -18.125  14.701 -14.091  1.00  0.00     0.246 C 
HETATM    2  C3  UNL     1     -17.980  14.800 -12.576  1.00  0.00     0.044 C 
HETATM    3  C4  UNL     1     -16.567  14.872 -12.124  1.00  0.00     0.003 C 
HETATM    4  C5  UNL     1     -15.982  16.205 -11.880  1.00  0.00     0.000 C 
HETATM    5  C6  UNL     1     -16.853  17.391 -12.098  1.00  0.00     0.002 C 
HETATM    6  C7  UNL     1     -16.825  17.744 -13.565  1.00  0.00     0.027 C 
HETATM    7  C8  UNL     1     -18.039  17.108 -14.213  1.00  0.00     0.233 C 
HETATM    8  N1  UNL     1     -17.609  15.855 -14.774  1.00  0.00    -0.062 N 
ATOM      9  H11 UNL     1     -17.833  15.813 -15.768  1.00  0.00     0.278 HD
ATOM     10  H12 UNL     1     -16.591  15.816 -14.824  1.00  0.00     0.278 HD
ENDROOT
BRANCH   1  11
HETATM   11  S1  UNL     1     -19.845  14.484 -14.555  1.00  0.00    -0.141 SA
HETATM   12  C1  UNL     1     -20.249  15.069 -16.198  1.00  0.00     0.092 C 
ENDBRANCH   1  11
TORSDOF 1
ENDMDL
MODEL 5
REMARK VINA RESULT: -4.539643779      2.285      4.303
REMARK  1 active torsions:
REMARK  status: ('A' for Active; 'I' for Inactive)
REMARK    1  A    between atoms: S1_2  and  C2_3 
ROOT
HETATM    1  C2  UNL     1     -17.779  17.589 -13.372  1.00  0.00     0.246 C 
HETATM    2  C3  UNL     1     -18.899  16.596 -13.076  1.00  0.00     0.044 C 
HETATM    3  C4  UNL     1     -18.835  15.371 -13.913  1.00  0.00     0.003 C 
HETATM    4  C5  UNL     1     -18.158  14.184 -13.357  1.00  0.00     0.000 C 
HETATM    5  C6  UNL     1     -17.589  14.292 -11.986  1.00  0.00     0.002 C 
HETATM    6  C7  UNL     1     -16.219  14.918 -12.083  1.00  0.00     0.027 C 
HETATM    7  C8  UNL     1     -16.373  16.402 -11.813  1.00  0.00     0.233 C 
HETATM    8  N1  UNL     1     -16.476  17.054 -13.091  1.00  0.00    -0.062 N 
ATOM      9  H11 UNL     1     -15.764  17.780 -13.180  1.00  0.00     0.278 HD
ATOM     10  H12 UNL     1     -16.177  16.427 -13.838  1.00  0.00     0.278 HD
ENDROOT
BRANCH   1  11
HETATM   11  S1  UNL     1     -17.996  19.096 -12.423  1.00  0.00    -0.141 SA
HETATM   12  C1  UNL     1     -17.702  20.602 -13.346  1.00  0.00     0.092 C 
ENDBRANCH   1  11
TORSDOF 1
ENDMDL
