MODEL 1
REMARK VINA RESULT: -4.474466412      0.000      0.000
REMARK  2 active torsions:
REMARK  status: ('A' for Active; 'I' for Inactive)
REMARK    1  A    between atoms: C2_2  and  N1_3 
REMARK    2  A    between atoms: C2_2  and  C3_7 
ROOT
HETATM    1  C3  UNL     1     -17.820  13.038   1.932  1.00  0.00    -0.008 C 
HETATM    2  C4  UNL     1     -19.304  13.051   2.042  1.00  0.00     0.016 C 
HETATM    3  C5  UNL     1     -19.526  12.160   3.268  1.00  0.00    -0.013 C 
HETATM    4  C6  UNL     1     -18.947  10.822   2.951  1.00  0.00     0.010 C 
HETATM    5  C7  UNL     1     -17.479  11.150   2.751  1.00  0.00    -0.009 C 
HETATM    6  C8  UNL     1     -17.307  11.721   1.339  1.00  0.00     0.017 C 
HETATM    7  C9  UNL     1     -17.279  12.567   3.239  1.00  0.00     0.001 C 
HETATM    8  C10 UNL     1     -18.442  12.737   4.192  1.00  0.00     0.010 C 
ENDROOT
BRANCH   1   9
HETATM    9  C2  UNL     1     -17.147  14.185   1.277  1.00  0.00     0.188 C 
HETATM   10  C1  UNL     1     -16.198  14.947   2.159  1.00  0.00     0.040 C 
BRANCH   9  11
HETATM   11  N1  UNL     1     -18.037  15.121   0.658  1.00  0.00    -0.075 N 
ATOM     12  H13 UNL     1     -18.003  16.042   1.094  1.00  0.00     0.274 HD
ATOM     13  H12 UNL     1     -17.729  15.397  -0.274  1.00  0.00     0.274 HD
ATOM     14  H11 UNL     1     -18.975  14.720   0.659  1.00  0.00     0.274 HD
ENDBRANCH   9  11
ENDBRANCH   1   9
TORSDOF 2
ENDMDL
MODEL 2
REMARK VINA RESULT: -4.464076450      2.726      4.938
REMARK  2 active torsions:
REMARK  status: ('A' for Active; 'I' for Inactive)
REMARK    1  A    between atoms: C2_2  and  N1_3 
REMARK    2  A    between atoms: C2_2  and  C3_7 
ROOT
HETATM    1  C3  UNL     1     -17.560  15.490   0.511  1.00  0.00    -0.008 C 
HETATM    2  C4  UNL     1     -16.417  16.368   0.880  1.00  0.00     0.016 C 
HETATM    3  C5  UNL     1     -16.955  17.748   0.490  1.00  0.00    -0.013 C 
HETATM    4  C6  UNL     1     -17.251  17.708  -0.972  1.00  0.00     0.010 C 
HETATM    5  C7  UNL     1     -18.326  16.641  -1.050  1.00  0.00    -0.009 C 
HETATM    6  C8  UNL     1     -17.641  15.271  -1.003  1.00  0.00     0.017 C 
HETATM    7  C9  UNL     1     -18.764  16.359   0.369  1.00  0.00     0.001 C 
HETATM    8  C10 UNL     1     -18.371  17.637   1.077  1.00  0.00     0.010 C 
ENDROOT
BRANCH   1   9
HETATM    9  C2  UNL     1     -17.719  14.198   1.219  1.00  0.00     0.188 C 
HETATM   10  C1  UNL     1     -16.772  13.985   2.366  1.00  0.00     0.040 C 
BRANCH   9  11
HETATM   11  N1  UNL     1     -17.665  13.045   0.370  1.00  0.00    -0.075 N 
ATOM     12  H13 UNL     1     -18.562  12.566   0.301  1.00  0.00     0.274 HD
ATOM     13  H12 UNL     1     -17.561  13.288  -0.615  1.00  0.00     0.274 HD
ATOM     14  H11 UNL     1     -16.919  12.435   0.706  1.00  0.00     0.274 HD
ENDBRANCH   9  11
ENDBRANCH   1   9
TORSDOF 2
ENDMDL
MODEL 3
REMARK VINA RESULT: -4.439015171      2.808      3.997
REMARK  2 active torsions:
REMARK  status: ('A' for Active; 'I' for Inactive)
REMARK    1  A    between atoms: C2_2  and  N1_3 
REMARK    2  A    between atoms: C2_2  and  C3_7 
ROOT
HETATM    1  C3  UNL     1     -17.669  15.865  -0.067  1.00  0.00    -0.008 C 
HETATM    2  C4  UNL     1     -17.872  15.217  -1.391  1.00  0.00     0.016 C 
HETATM    3  C5  UNL     1     -19.054  14.288  -1.098  1.00  0.00    -0.013 C 
HETATM    4  C6  UNL     1     -18.623  13.354  -0.017  1.00  0.00     0.010 C 
HETATM    5  C7  UNL     1     -18.351  14.303   1.135  1.00  0.00    -0.009 C 
HETATM    6  C8  UNL     1     -16.968  14.927   0.922  1.00  0.00     0.017 C 
HETATM    7  C9  UNL     1     -18.909  15.649   0.731  1.00  0.00     0.001 C 
HETATM    8  C10 UNL     1     -19.941  15.262  -0.305  1.00  0.00     0.010 C 
ENDROOT
BRANCH   1   9
HETATM    9  C2  UNL     1     -17.043  17.208  -0.022  1.00  0.00     0.188 C 
HETATM   10  C1  UNL     1     -17.375  18.019   1.198  1.00  0.00     0.040 C 
BRANCH   9  11
HETATM   11  N1  UNL     1     -17.287  18.015  -1.180  1.00  0.00    -0.075 N 
ATOM     12  H13 UNL     1     -16.746  18.879  -1.177  1.00  0.00     0.274 HD
ATOM     13  H12 UNL     1     -16.896  17.610  -2.031  1.00  0.00     0.274 HD
ATOM     14  H11 UNL     1     -18.291  18.181  -1.249  1.00  0.00     0.274 HD
ENDBRANCH   9  11
ENDBRANCH   1   9
TORSDOF 2
ENDMDL
MODEL 4
REMARK VINA RESULT: -4.408801134      3.904      5.425
REMARK  2 active torsions:
REMARK  status: ('A' for Active; 'I' for Inactive)
REMARK    1  A    between atoms: C2_2  and  N1_3 
REMARK    2  A    between atoms: C2_2  and  C3_7 
ROOT
HETATM    1  C3  UNL     1     -17.687  17.879   0.749  1.00  0.00    -0.008 C 
HETATM    2  C4  UNL     1     -18.912  17.055   0.936  1.00  0.00     0.016 C 
HETATM    3  C5  UNL     1     -18.431  15.682   0.457  1.00  0.00    -0.013 C 
HETATM    4  C6  UNL     1     -18.007  15.835  -0.965  1.00  0.00     0.010 C 
HETATM    5  C7  UNL     1     -16.863  16.825  -0.851  1.00  0.00    -0.009 C 
HETATM    6  C8  UNL     1     -17.461  18.231  -0.725  1.00  0.00     0.017 C 
HETATM    7  C9  UNL     1     -16.534  16.943   0.621  1.00  0.00     0.001 C 
HETATM    8  C10 UNL     1     -17.068  15.636   1.165  1.00  0.00     0.010 C 
ENDROOT
BRANCH   1   9
HETATM    9  C2  UNL     1     -17.509  19.085   1.591  1.00  0.00     0.188 C 
HETATM   10  C1  UNL     1     -17.852  20.383   0.917  1.00  0.00     0.040 C 
BRANCH   9  11
HETATM   11  N1  UNL     1     -16.207  19.213   2.177  1.00  0.00    -0.075 N 
ATOM     12  H13 UNL     1     -16.045  20.137   2.575  1.00  0.00     0.274 HD
ATOM     13  H12 UNL     1     -16.108  18.672   3.036  1.00  0.00     0.274 HD
ATOM     14  H11 UNL     1     -15.513  18.962   1.472  1.00  0.00     0.274 HD
ENDBRANCH   9  11
ENDBRANCH   1   9
TORSDOF 2
ENDMDL
MODEL 5
REMARK VINA RESULT: -4.381183517      4.243      5.565
REMARK  2 active torsions:
REMARK  status: ('A' for Active; 'I' for Inactive)
REMARK    1  A    between atoms: C2_2  and  N1_3 
REMARK    2  A    between atoms: C2_2  and  C3_7 
ROOT
HETATM    1  C3  UNL     1     -17.293  18.040   0.841  1.00  0.00    -0.008 C 
HETATM    2  C4  UNL     1     -17.283  17.938  -0.644  1.00  0.00     0.016 C 
HETATM    3  C5  UNL     1     -17.812  16.515  -0.854  1.00  0.00    -0.013 C 
HETATM    4  C6  UNL     1     -16.866  15.588  -0.168  1.00  0.00     0.010 C 
HETATM    5  C7  UNL     1     -16.983  16.025   1.279  1.00  0.00    -0.009 C 
HETATM    6  C8  UNL     1     -16.121  17.278   1.470  1.00  0.00     0.017 C 
HETATM    7  C9  UNL     1     -18.173  16.954   1.359  1.00  0.00     0.001 C 
HETATM    8  C10 UNL     1     -18.978  16.535   0.148  1.00  0.00     0.010 C 
ENDROOT
BRANCH   1   9
HETATM    9  C2  UNL     1     -17.413  19.382   1.459  1.00  0.00     0.188 C 
HETATM   10  C1  UNL     1     -17.722  20.494   0.497  1.00  0.00     0.040 C 
BRANCH   9  11
HETATM   11  N1  UNL     1     -16.287  19.773   2.253  1.00  0.00    -0.075 N 
ATOM     12  H13 UNL     1     -16.297  19.353   3.182  1.00  0.00     0.274 HD
ATOM     13  H12 UNL     1     -15.413  19.363   1.924  1.00  0.00     0.274 HD
ATOM     14  H11 UNL     1     -16.256  20.793   2.284  1.00  0.00     0.274 HD
ENDBRANCH   9  11
ENDBRANCH   1   9
TORSDOF 2
ENDMDL
