MODEL 1
REMARK VINA RESULT: -4.705089068      0.000      0.000
REMARK  3 active torsions:
REMARK  status: ('A' for Active; 'I' for Inactive)
REMARK    1  A    between atoms: C1_4  and  C2_5 
REMARK    2  A    between atoms: C2_5  and  C3_6 
REMARK    3  A    between atoms: C10_13  and  N2_14 
ROOT
HETATM    1  C3  UNL     1     -18.688  13.569   1.444  1.00  0.00    -0.005 C 
HETATM    2  C4  UNL     1     -17.344  13.585   2.139  1.00  0.00     0.012 C 
HETATM    3  C5  UNL     1     -17.367  12.471   3.169  1.00  0.00     0.016 C 
HETATM    4  C6  UNL     1     -18.574  12.711   4.046  1.00  0.00     0.007 C 
HETATM    5  C7  UNL     1     -19.860  12.469   3.307  1.00  0.00     0.005 C 
HETATM    6  C8  UNL     1     -19.513  12.376   1.824  1.00  0.00    -0.008 C 
HETATM    7  C9  UNL     1     -18.742  11.072   1.672  1.00  0.00     0.038 C 
HETATM    8  C10 UNL     1     -17.427  11.175   2.422  1.00  0.00     0.188 C 
ENDROOT
BRANCH   1   9
HETATM    9  C2  UNL     1     -18.518  13.602  -0.074  1.00  0.00     0.049 C 
BRANCH   9  10
HETATM   10  C1  UNL     1     -17.894  14.906  -0.425  1.00  0.00     0.053 C 
HETATM   11  N1  UNL     1     -17.617  15.165  -1.644  1.00  0.00    -0.411 N 
ATOM     12  H12 UNL     1     -17.829  14.470  -2.362  1.00  0.00     0.155 HD
ATOM     13  H11 UNL     1     -17.190  16.059  -1.886  1.00  0.00     0.155 HD
ENDBRANCH   9  10
ENDBRANCH   1   9
BRANCH   8  14
HETATM   14  N2  UNL     1     -17.196  10.024   3.259  1.00  0.00    -0.075 N 
ATOM     15  H23 UNL     1     -17.096  10.301   4.236  1.00  0.00     0.274 HD
ATOM     16  H22 UNL     1     -18.037   9.453   3.331  1.00  0.00     0.274 HD
ATOM     17  H21 UNL     1     -16.400   9.462   2.959  1.00  0.00     0.274 HD
ENDBRANCH   8  14
TORSDOF 3
ENDMDL
MODEL 2
REMARK VINA RESULT: -4.619880953      1.785      2.083
REMARK  3 active torsions:
REMARK  status: ('A' for Active; 'I' for Inactive)
REMARK    1  A    between atoms: C1_4  and  C2_5 
REMARK    2  A    between atoms: C2_5  and  C3_6 
REMARK    3  A    between atoms: C10_13  and  N2_14 
ROOT
HETATM    1  C3  UNL     1     -17.464  13.936   2.211  1.00  0.00    -0.005 C 
HETATM    2  C4  UNL     1     -17.002  13.446   3.566  1.00  0.00     0.012 C 
HETATM    3  C5  UNL     1     -17.618  12.074   3.772  1.00  0.00     0.016 C 
HETATM    4  C6  UNL     1     -19.110  12.234   3.595  1.00  0.00     0.007 C 
HETATM    5  C7  UNL     1     -19.477  12.521   2.166  1.00  0.00     0.005 C 
HETATM    6  C8  UNL     1     -18.185  12.874   1.435  1.00  0.00    -0.008 C 
HETATM    7  C9  UNL     1     -17.393  11.576   1.367  1.00  0.00     0.038 C 
HETATM    8  C10 UNL     1     -16.999  11.152   2.769  1.00  0.00     0.188 C 
ENDROOT
BRANCH   1   9
HETATM    9  C2  UNL     1     -16.287  14.453   1.386  1.00  0.00     0.049 C 
BRANCH   9  10
HETATM   10  C1  UNL     1     -16.100  15.889   1.725  1.00  0.00     0.053 C 
HETATM   11  N1  UNL     1     -15.027  16.265   2.305  1.00  0.00    -0.411 N 
ATOM     12  H12 UNL     1     -14.312  15.573   2.529  1.00  0.00     0.155 HD
ATOM     13  H11 UNL     1     -14.899  17.251   2.538  1.00  0.00     0.155 HD
ENDBRANCH   9  10
ENDBRANCH   1   9
BRANCH   8  14
HETATM   14  N2  UNL     1     -17.297   9.763   3.013  1.00  0.00    -0.075 N 
ATOM     15  H23 UNL     1     -16.607   9.349   3.639  1.00  0.00     0.274 HD
ATOM     16  H22 UNL     1     -18.130   9.667   3.595  1.00  0.00     0.274 HD
ATOM     17  H21 UNL     1     -17.387   9.214   2.158  1.00  0.00     0.274 HD
ENDBRANCH   8  14
TORSDOF 3
ENDMDL
MODEL 3
REMARK VINA RESULT: -4.507776860      1.161      2.225
REMARK  3 active torsions:
REMARK  status: ('A' for Active; 'I' for Inactive)
REMARK    1  A    between atoms: C1_4  and  C2_5 
REMARK    2  A    between atoms: C2_5  and  C3_6 
REMARK    3  A    between atoms: C10_13  and  N2_14 
ROOT
HETATM    1  C3  UNL     1     -18.681  12.961   1.056  1.00  0.00    -0.005 C 
HETATM    2  C4  UNL     1     -19.841  12.649   1.976  1.00  0.00     0.012 C 
HETATM    3  C5  UNL     1     -19.275  11.867   3.147  1.00  0.00     0.016 C 
HETATM    4  C6  UNL     1     -18.546  10.677   2.568  1.00  0.00     0.007 C 
HETATM    5  C7  UNL     1     -17.295  11.087   1.843  1.00  0.00     0.005 C 
HETATM    6  C8  UNL     1     -17.358  12.600   1.662  1.00  0.00    -0.008 C 
HETATM    7  C9  UNL     1     -17.189  13.181   3.059  1.00  0.00     0.038 C 
HETATM    8  C10 UNL     1     -18.382  12.794   3.912  1.00  0.00     0.188 C 
ENDROOT
BRANCH   1   9
HETATM    9  C2  UNL     1     -18.674  14.439   0.668  1.00  0.00     0.049 C 
BRANCH   9  10
HETATM   10  C1  UNL     1     -18.610  14.512  -0.816  1.00  0.00     0.053 C 
HETATM   11  N1  UNL     1     -17.609  15.070  -1.377  1.00  0.00    -0.411 N 
ATOM     12  H12 UNL     1     -16.865  15.459  -0.797  1.00  0.00     0.155 HD
ATOM     13  H11 UNL     1     -17.565  15.120  -2.395  1.00  0.00     0.155 HD
ENDBRANCH   9  10
ENDBRANCH   1   9
BRANCH   8  14
HETATM   14  N2  UNL     1     -17.978  12.267   5.192  1.00  0.00    -0.075 N 
ATOM     15  H23 UNL     1     -16.984  12.429   5.353  1.00  0.00     0.274 HD
ATOM     16  H22 UNL     1     -18.365  12.826   5.952  1.00  0.00     0.274 HD
ATOM     17  H21 UNL     1     -18.209  11.281   5.312  1.00  0.00     0.274 HD
ENDBRANCH   8  14
TORSDOF 3
ENDMDL
MODEL 4
REMARK VINA RESULT: -4.385889461      2.462      3.569
REMARK  3 active torsions:
REMARK  status: ('A' for Active; 'I' for Inactive)
REMARK    1  A    between atoms: C1_4  and  C2_5 
REMARK    2  A    between atoms: C2_5  and  C3_6 
REMARK    3  A    between atoms: C10_13  and  N2_14 
ROOT
HETATM    1  C3  UNL     1     -16.987  10.886   1.496  1.00  0.00    -0.005 C 
HETATM    2  C4  UNL     1     -17.323  10.686   2.957  1.00  0.00     0.012 C 
HETATM    3  C5  UNL     1     -18.124  11.898   3.395  1.00  0.00     0.016 C 
HETATM    4  C6  UNL     1     -17.293  13.115   3.063  1.00  0.00     0.007 C 
HETATM    5  C7  UNL     1     -17.191  13.337   1.580  1.00  0.00     0.005 C 
HETATM    6  C8  UNL     1     -17.697  12.066   0.903  1.00  0.00    -0.008 C 
HETATM    7  C9  UNL     1     -19.194  12.032   1.176  1.00  0.00     0.038 C 
HETATM    8  C10 UNL     1     -19.430  11.857   2.664  1.00  0.00     0.188 C 
ENDROOT
BRANCH   1   9
HETATM    9  C2  UNL     1     -17.320   9.636   0.683  1.00  0.00     0.049 C 
BRANCH   9  10
HETATM   10  C1  UNL     1     -16.043   9.108   0.132  1.00  0.00     0.053 C 
HETATM   11  N1  UNL     1     -15.595   9.566  -0.971  1.00  0.00    -0.411 N 
ATOM     12  H12 UNL     1     -16.121  10.291  -1.461  1.00  0.00     0.155 HD
ATOM     13  H11 UNL     1     -14.719   9.205  -1.349  1.00  0.00     0.155 HD
ENDBRANCH   9  10
ENDBRANCH   1   9
BRANCH   8  14
HETATM   14  N2  UNL     1     -20.395  12.801   3.169  1.00  0.00    -0.075 N 
ATOM     15  H23 UNL     1     -19.954  13.466   3.804  1.00  0.00     0.274 HD
ATOM     16  H22 UNL     1     -20.694  13.442   2.435  1.00  0.00     0.274 HD
ATOM     17  H21 UNL     1     -21.199  12.356   3.612  1.00  0.00     0.274 HD
ENDBRANCH   8  14
TORSDOF 3
ENDMDL
MODEL 5
REMARK VINA RESULT: -4.372398207      2.116      3.051
REMARK  3 active torsions:
REMARK  status: ('A' for Active; 'I' for Inactive)
REMARK    1  A    between atoms: C1_4  and  C2_5 
REMARK    2  A    between atoms: C2_5  and  C3_6 
REMARK    3  A    between atoms: C10_13  and  N2_14 
ROOT
HETATM    1  C3  UNL     1     -17.023  13.812   1.179  1.00  0.00    -0.005 C 
HETATM    2  C4  UNL     1     -18.373  14.253   0.656  1.00  0.00     0.012 C 
HETATM    3  C5  UNL     1     -19.356  13.144   0.984  1.00  0.00     0.016 C 
HETATM    4  C6  UNL     1     -18.795  11.873   0.391  1.00  0.00     0.007 C 
HETATM    5  C7  UNL     1     -17.563  11.412   1.119  1.00  0.00     0.005 C 
HETATM    6  C8  UNL     1     -17.112  12.566   2.009  1.00  0.00    -0.008 C 
HETATM    7  C9  UNL     1     -18.172  12.675   3.096  1.00  0.00     0.038 C 
HETATM    8  C10 UNL     1     -19.490  13.094   2.474  1.00  0.00     0.188 C 
ENDROOT
BRANCH   1   9
HETATM    9  C2  UNL     1     -16.367  14.921   2.000  1.00  0.00     0.049 C 
BRANCH   9  10
HETATM   10  C1  UNL     1     -16.547  16.195   1.255  1.00  0.00     0.053 C 
HETATM   11  N1  UNL     1     -16.190  17.296   1.793  1.00  0.00    -0.411 N 
ATOM     12  H12 UNL     1     -15.787  17.285   2.730  1.00  0.00     0.155 HD
ATOM     13  H11 UNL     1     -16.313  18.171   1.282  1.00  0.00     0.155 HD
ENDBRANCH   9  10
ENDBRANCH   1   9
BRANCH   8  14
HETATM   14  N2  UNL     1     -20.581  12.264   2.919  1.00  0.00    -0.075 N 
ATOM     15  H23 UNL     1     -20.238  11.368   3.265  1.00  0.00     0.274 HD
ATOM     16  H22 UNL     1     -20.989  12.631   3.779  1.00  0.00     0.274 HD
ATOM     17  H21 UNL     1     -21.299  12.128   2.207  1.00  0.00     0.274 HD
ENDBRANCH   8  14
TORSDOF 3
ENDMDL
