MODEL 1
REMARK VINA RESULT: -3.803755700      0.000      0.000
REMARK  3 active torsions:
REMARK  status: ('A' for Active; 'I' for Inactive)
REMARK    1  A    between atoms: S1_2  and  C2_3 
REMARK    2  A    between atoms: C2_3  and  N1_5 
REMARK    3  A    between atoms: N1_5  and  O1_7 
ROOT
HETATM    1  O1  UNL     1      29.640 -19.403   2.987  1.00  0.00    -0.158 OA
HETATM    2  C3  UNL     1      30.637 -18.773   2.260  1.00  0.00     0.253 C 
HETATM    3  N2  UNL     1      31.467 -18.260   1.640  1.00  0.00    -0.162 NA
ENDROOT
BRANCH   1   4
HETATM    4  N1  UNL     1      28.393 -19.387   2.446  1.00  0.00    -0.232 N 
ATOM      5  H1  UNL     1      27.876 -18.509   2.410  1.00  0.00     0.197 HD
BRANCH   4   6
HETATM    6  C2  UNL     1      27.799 -20.559   1.935  1.00  0.00     0.159 C 
HETATM    7  S2  UNL     1      26.223 -20.504   1.507  1.00  0.00    -0.051 SA
BRANCH   6   8
HETATM    8  S1  UNL     1      28.771 -22.039   1.776  1.00  0.00    -0.103 SA
HETATM    9  C1  UNL     1      27.631 -23.439   1.660  1.00  0.00     0.098 C 
ENDBRANCH   6   8
ENDBRANCH   4   6
ENDBRANCH   1   4
TORSDOF 3
ENDMDL
MODEL 2
REMARK VINA RESULT: -3.507794116      4.048      5.756
REMARK  3 active torsions:
REMARK  status: ('A' for Active; 'I' for Inactive)
REMARK    1  A    between atoms: S1_2  and  C2_3 
REMARK    2  A    between atoms: C2_3  and  N1_5 
REMARK    3  A    between atoms: N1_5  and  O1_7 
ROOT
HETATM    1  O1  UNL     1      26.794 -24.393   1.186  1.00  0.00    -0.158 OA
HETATM    2  C3  UNL     1      26.487 -25.736   1.320  1.00  0.00     0.253 C 
HETATM    3  N2  UNL     1      26.248 -26.863   1.423  1.00  0.00    -0.162 NA
ENDROOT
BRANCH   1   4
HETATM    4  N1  UNL     1      27.812 -23.924   1.956  1.00  0.00    -0.232 N 
ATOM      5  H1  UNL     1      28.181 -24.509   2.706  1.00  0.00     0.197 HD
BRANCH   4   6
HETATM    6  C2  UNL     1      28.367 -22.646   1.741  1.00  0.00     0.159 C 
HETATM    7  S2  UNL     1      29.993 -22.516   1.640  1.00  0.00    -0.051 SA
BRANCH   6   8
HETATM    8  S1  UNL     1      27.295 -21.236   1.589  1.00  0.00    -0.103 SA
HETATM    9  C1  UNL     1      28.218 -19.779   2.133  1.00  0.00     0.098 C 
ENDBRANCH   6   8
ENDBRANCH   4   6
ENDBRANCH   1   4
TORSDOF 3
ENDMDL
MODEL 3
REMARK VINA RESULT: -3.483512394      2.649      3.801
REMARK  3 active torsions:
REMARK  status: ('A' for Active; 'I' for Inactive)
REMARK    1  A    between atoms: S1_2  and  C2_3 
REMARK    2  A    between atoms: C2_3  and  N1_5 
REMARK    3  A    between atoms: N1_5  and  O1_7 
ROOT
HETATM    1  O1  UNL     1      27.610 -19.545   1.260  1.00  0.00    -0.158 OA
HETATM    2  C3  UNL     1      26.716 -20.566   1.538  1.00  0.00     0.253 C 
HETATM    3  N2  UNL     1      25.984 -21.431   1.764  1.00  0.00    -0.162 NA
ENDROOT
BRANCH   1   4
HETATM    4  N1  UNL     1      28.704 -19.461   2.062  1.00  0.00    -0.232 N 
ATOM      5  H1  UNL     1      28.616 -19.029   2.982  1.00  0.00     0.197 HD
BRANCH   4   6
HETATM    6  C2  UNL     1      29.957 -19.959   1.649  1.00  0.00     0.159 C 
HETATM    7  S2  UNL     1      31.122 -20.154   2.778  1.00  0.00    -0.051 SA
BRANCH   6   8
HETATM    8  S1  UNL     1      30.225 -20.352  -0.064  1.00  0.00    -0.103 SA
HETATM    9  C1  UNL     1      29.507 -21.983  -0.375  1.00  0.00     0.098 C 
ENDBRANCH   6   8
ENDBRANCH   4   6
ENDBRANCH   1   4
TORSDOF 3
ENDMDL
MODEL 4
REMARK VINA RESULT: -3.479185496      4.684      5.443
REMARK  3 active torsions:
REMARK  status: ('A' for Active; 'I' for Inactive)
REMARK    1  A    between atoms: S1_2  and  C2_3 
REMARK    2  A    between atoms: C2_3  and  N1_5 
REMARK    3  A    between atoms: N1_5  and  O1_7 
ROOT
HETATM    1  O1  UNL     1      30.293 -20.030  -0.311  1.00  0.00    -0.158 OA
HETATM    2  C3  UNL     1      28.991 -20.495  -0.237  1.00  0.00     0.253 C 
HETATM    3  N2  UNL     1      27.898 -20.865  -0.179  1.00  0.00    -0.162 NA
ENDROOT
BRANCH   1   4
HETATM    4  N1  UNL     1      30.734 -19.656  -1.540  1.00  0.00    -0.232 N 
ATOM      5  H1  UNL     1      30.073 -19.260  -2.209  1.00  0.00     0.197 HD
BRANCH   4   6
HETATM    6  C2  UNL     1      32.086 -19.802  -1.912  1.00  0.00     0.159 C 
HETATM    7  S2  UNL     1      33.201 -18.878  -1.154  1.00  0.00    -0.051 SA
BRANCH   6   8
HETATM    8  S1  UNL     1      32.529 -20.971  -3.176  1.00  0.00    -0.103 SA
HETATM    9  C1  UNL     1      31.532 -22.460  -2.924  1.00  0.00     0.098 C 
ENDBRANCH   6   8
ENDBRANCH   4   6
ENDBRANCH   1   4
TORSDOF 3
ENDMDL
MODEL 5
REMARK VINA RESULT: -3.438821680      2.779      4.183
REMARK  3 active torsions:
REMARK  status: ('A' for Active; 'I' for Inactive)
REMARK    1  A    between atoms: S1_2  and  C2_3 
REMARK    2  A    between atoms: C2_3  and  N1_5 
REMARK    3  A    between atoms: N1_5  and  O1_7 
ROOT
HETATM    1  O1  UNL     1      29.502 -23.179   1.923  1.00  0.00    -0.158 OA
HETATM    2  C3  UNL     1      28.167 -23.492   1.733  1.00  0.00     0.253 C 
HETATM    3  N2  UNL     1      27.049 -23.750   1.594  1.00  0.00    -0.162 NA
ENDROOT
BRANCH   1   4
HETATM    4  N1  UNL     1      29.780 -21.897   2.276  1.00  0.00    -0.232 N 
ATOM      5  H1  UNL     1      30.304 -21.717   3.133  1.00  0.00     0.197 HD
BRANCH   4   6
HETATM    6  C2  UNL     1      29.362 -20.809   1.483  1.00  0.00     0.159 C 
HETATM    7  S2  UNL     1      30.149 -20.526   0.079  1.00  0.00    -0.051 SA
BRANCH   6   8
HETATM    8  S1  UNL     1      28.008 -19.793   2.029  1.00  0.00    -0.103 SA
HETATM    9  C1  UNL     1      26.573 -20.187   1.000  1.00  0.00     0.098 C 
ENDBRANCH   6   8
ENDBRANCH   4   6
ENDBRANCH   1   4
TORSDOF 3
ENDMDL
