MODEL 1
REMARK VINA RESULT: -4.649253028      0.000      0.000
REMARK  1 active torsions:
REMARK  status: ('A' for Active; 'I' for Inactive)
REMARK    1  A    between atoms: C3_5  and  O2_6 
ROOT
HETATM    1  O1  UNL     1      25.882 -21.061   1.954  1.00  0.00    -0.263 OA
HETATM    2  C1  UNL     1      26.917 -20.573   1.382  1.00  0.00     0.286 C 
HETATM    3  C2  UNL     1      27.910 -20.076   2.336  1.00  0.00     0.189 C 
HETATM    4  S1  UNL     1      29.473 -19.628   1.647  1.00  0.00    -0.126 SA
HETATM    5  C3  UNL     1      30.118 -20.693   0.393  1.00  0.00     0.196 C 
HETATM    6  C4  UNL     1      29.070 -21.548  -0.259  1.00  0.00     0.185 C 
HETATM    7  N1  UNL     1      28.059 -20.657  -0.820  1.00  0.00    -0.088 NA
HETATM    8  O3  UNL     1      26.957 -20.580   0.012  1.00  0.00    -0.206 OA
ENDROOT
BRANCH   5   9
HETATM    9  O2  UNL     1      30.772 -19.894  -0.571  1.00  0.00    -0.384 OA
ATOM     10  H2  UNL     1      30.114 -19.537  -1.155  1.00  0.00     0.211 HD
ENDBRANCH   5   9
TORSDOF 1
ENDMDL
MODEL 2
REMARK VINA RESULT: -4.575914480      2.451      2.749
REMARK  1 active torsions:
REMARK  status: ('A' for Active; 'I' for Inactive)
REMARK    1  A    between atoms: C3_5  and  O2_6 
ROOT
HETATM    1  O1  UNL     1      27.227 -24.207   1.173  1.00  0.00    -0.263 OA
HETATM    2  C1  UNL     1      27.609 -23.080   1.641  1.00  0.00     0.286 C 
HETATM    3  C2  UNL     1      29.063 -22.990   1.787  1.00  0.00     0.189 C 
HETATM    4  S1  UNL     1      29.694 -21.388   2.178  1.00  0.00    -0.126 SA
HETATM    5  C3  UNL     1      28.948 -20.020   1.343  1.00  0.00     0.196 C 
HETATM    6  C4  UNL     1      27.587 -20.331   0.790  1.00  0.00     0.185 C 
HETATM    7  N1  UNL     1      26.747 -20.767   1.903  1.00  0.00    -0.088 NA
HETATM    8  O3  UNL     1      26.648 -22.146   1.931  1.00  0.00    -0.206 OA
ENDROOT
BRANCH   5   9
HETATM    9  O2  UNL     1      28.877 -18.937   2.246  1.00  0.00    -0.384 OA
ATOM     10  H2  UNL     1      28.120 -18.410   2.019  1.00  0.00     0.211 HD
ENDBRANCH   5   9
TORSDOF 1
ENDMDL
MODEL 3
REMARK VINA RESULT: -4.527517800      2.478      3.080
REMARK  1 active torsions:
REMARK  status: ('A' for Active; 'I' for Inactive)
REMARK    1  A    between atoms: C3_5  and  O2_6 
ROOT
HETATM    1  O1  UNL     1      31.030 -22.794   3.020  1.00  0.00    -0.263 OA
HETATM    2  C1  UNL     1      30.049 -22.232   2.423  1.00  0.00     0.286 C 
HETATM    3  C2  UNL     1      30.085 -20.771   2.528  1.00  0.00     0.189 C 
HETATM    4  S1  UNL     1      28.922 -19.905   1.520  1.00  0.00    -0.126 SA
HETATM    5  C3  UNL     1      28.679 -20.525  -0.117  1.00  0.00     0.196 C 
HETATM    6  C4  UNL     1      29.110 -21.953  -0.283  1.00  0.00     0.185 C 
HETATM    7  N1  UNL     1      28.361 -22.755   0.681  1.00  0.00    -0.088 NA
HETATM    8  O3  UNL     1      29.134 -23.034   1.793  1.00  0.00    -0.206 OA
ENDROOT
BRANCH   5   9
HETATM    9  O2  UNL     1      27.313 -20.381  -0.445  1.00  0.00    -0.384 OA
ATOM     10  H2  UNL     1      27.217 -20.513  -1.381  1.00  0.00     0.211 HD
ENDBRANCH   5   9
TORSDOF 1
ENDMDL
MODEL 4
REMARK VINA RESULT: -4.414298326      1.840      1.966
REMARK  1 active torsions:
REMARK  status: ('A' for Active; 'I' for Inactive)
REMARK    1  A    between atoms: C3_5  and  O2_6 
ROOT
HETATM    1  O1  UNL     1      28.144 -23.543   2.174  1.00  0.00    -0.263 OA
HETATM    2  C1  UNL     1      28.610 -22.511   1.580  1.00  0.00     0.286 C 
HETATM    3  C2  UNL     1      29.825 -21.994   2.212  1.00  0.00     0.189 C 
HETATM    4  S1  UNL     1      30.679 -20.737   1.312  1.00  0.00    -0.126 SA
HETATM    5  C3  UNL     1      30.790 -20.956  -0.438  1.00  0.00     0.196 C 
HETATM    6  C4  UNL     1      29.759 -21.898  -0.987  1.00  0.00     0.185 C 
HETATM    7  N1  UNL     1      28.444 -21.377  -0.622  1.00  0.00    -0.088 NA
HETATM    8  O3  UNL     1      27.940 -22.045   0.478  1.00  0.00    -0.206 OA
ENDROOT
BRANCH   5   9
HETATM    9  O2  UNL     1      30.673 -19.688  -1.049  1.00  0.00    -0.384 OA
ATOM     10  H2  UNL     1      30.919 -19.775  -1.963  1.00  0.00     0.211 HD
ENDBRANCH   5   9
TORSDOF 1
ENDMDL
MODEL 5
REMARK VINA RESULT: -4.298918585      1.374      3.503
REMARK  1 active torsions:
REMARK  status: ('A' for Active; 'I' for Inactive)
REMARK    1  A    between atoms: C3_5  and  O2_6 
ROOT
HETATM    1  O1  UNL     1      31.101 -19.667  -0.512  1.00  0.00    -0.263 OA
HETATM    2  C1  UNL     1      30.145 -20.401  -0.085  1.00  0.00     0.286 C 
HETATM    3  C2  UNL     1      30.458 -21.057   1.186  1.00  0.00     0.189 C 
HETATM    4  S1  UNL     1      29.108 -21.877   1.975  1.00  0.00    -0.126 SA
HETATM    5  C3  UNL     1      27.547 -21.047   1.934  1.00  0.00     0.196 C 
HETATM    6  C4  UNL     1      27.450 -20.015   0.849  1.00  0.00     0.185 C 
HETATM    7  N1  UNL     1      27.702 -20.686  -0.424  1.00  0.00    -0.088 NA
HETATM    8  O3  UNL     1      29.003 -20.473  -0.841  1.00  0.00    -0.206 OA
ENDROOT
BRANCH   5   9
HETATM    9  O2  UNL     1      26.535 -22.019   1.781  1.00  0.00    -0.384 OA
ATOM     10  H2  UNL     1      25.712 -21.570   1.631  1.00  0.00     0.211 HD
ENDBRANCH   5   9
TORSDOF 1
ENDMDL
