MODEL 1
REMARK VINA RESULT: -4.587050154      0.000      0.000
REMARK  1 active torsions:
REMARK  status: ('A' for Active; 'I' for Inactive)
REMARK    1  A    between atoms: C4_7  and  O2_8 
ROOT
HETATM    1  N1  UNL     1      30.522 -22.713   2.995  1.00  0.00    -0.196 NA
HETATM    2  C1  UNL     1      30.147 -21.902   2.236  1.00  0.00     0.081 C 
HETATM    3  C2  UNL     1      29.666 -20.883   1.309  1.00  0.00     0.234 C 
HETATM    4  S1  UNL     1      28.235 -19.988   2.046  1.00  0.00    -0.117 SA
HETATM    5  C3  UNL     1      27.098 -20.300   0.629  1.00  0.00     0.248 C 
HETATM    6  O1  UNL     1      28.037 -20.601  -0.356  1.00  0.00    -0.332 OA
HETATM    7  C4  UNL     1      28.917 -21.525   0.129  1.00  0.00     0.281 C 
HETATM    8  C5  UNL     1      29.853 -21.856  -0.946  1.00  0.00     0.130 C 
HETATM    9  N2  UNL     1      30.592 -22.104  -1.814  1.00  0.00    -0.191 NA
ENDROOT
BRANCH   7  10
HETATM   10  O2  UNL     1      28.309 -22.712   0.559  1.00  0.00    -0.352 OA
ATOM     11  H2  UNL     1      28.921 -23.431   0.461  1.00  0.00     0.214 HD
ENDBRANCH   7  10
TORSDOF 1
ENDMDL
MODEL 2
REMARK VINA RESULT: -4.518432502      2.570      3.480
REMARK  1 active torsions:
REMARK  status: ('A' for Active; 'I' for Inactive)
REMARK    1  A    between atoms: C4_7  and  O2_8 
ROOT
HETATM    1  N1  UNL     1      26.524 -19.660   0.799  1.00  0.00    -0.196 NA
HETATM    2  C1  UNL     1      27.334 -20.308   1.344  1.00  0.00     0.081 C 
HETATM    3  C2  UNL     1      28.357 -21.097   2.022  1.00  0.00     0.234 C 
HETATM    4  S1  UNL     1      29.987 -20.246   1.904  1.00  0.00    -0.117 SA
HETATM    5  C3  UNL     1      30.872 -21.687   1.167  1.00  0.00     0.248 C 
HETATM    6  O1  UNL     1      29.994 -22.706   1.535  1.00  0.00    -0.332 OA
HETATM    7  C4  UNL     1      28.721 -22.346   1.201  1.00  0.00     0.281 C 
HETATM    8  C5  UNL     1      27.837 -23.458   1.551  1.00  0.00     0.130 C 
HETATM    9  N2  UNL     1      27.148 -24.353   1.840  1.00  0.00    -0.191 NA
ENDROOT
BRANCH   7  10
HETATM   10  O2  UNL     1      28.553 -22.066  -0.162  1.00  0.00    -0.352 OA
ATOM     11  H2  UNL     1      28.730 -22.852  -0.667  1.00  0.00     0.214 HD
ENDBRANCH   7  10
TORSDOF 1
ENDMDL
MODEL 3
REMARK VINA RESULT: -4.323700088      2.350      2.658
REMARK  1 active torsions:
REMARK  status: ('A' for Active; 'I' for Inactive)
REMARK    1  A    between atoms: C4_7  and  O2_8 
ROOT
HETATM    1  N1  UNL     1      31.348 -22.329   3.425  1.00  0.00    -0.196 NA
HETATM    2  C1  UNL     1      30.795 -22.414   2.396  1.00  0.00     0.081 C 
HETATM    3  C2  UNL     1      30.121 -22.502   1.105  1.00  0.00     0.234 C 
HETATM    4  S1  UNL     1      30.684 -21.136   0.006  1.00  0.00    -0.117 SA
HETATM    5  C3  UNL     1      28.990 -20.500  -0.348  1.00  0.00     0.248 C 
HETATM    6  O1  UNL     1      28.246 -21.627  -0.002  1.00  0.00    -0.332 OA
HETATM    7  C4  UNL     1      28.649 -22.073   1.224  1.00  0.00     0.281 C 
HETATM    8  C5  UNL     1      27.813 -23.221   1.576  1.00  0.00     0.130 C 
HETATM    9  N2  UNL     1      27.139 -24.136   1.839  1.00  0.00    -0.191 NA
ENDROOT
BRANCH   7  10
HETATM   10  O2  UNL     1      28.528 -21.115   2.240  1.00  0.00    -0.352 OA
ATOM     11  H2  UNL     1      27.841 -20.501   2.011  1.00  0.00     0.214 HD
ENDBRANCH   7  10
TORSDOF 1
ENDMDL
MODEL 4
REMARK VINA RESULT: -4.286673160      3.034      3.672
REMARK  1 active torsions:
REMARK  status: ('A' for Active; 'I' for Inactive)
REMARK    1  A    between atoms: C4_7  and  O2_8 
ROOT
HETATM    1  N1  UNL     1      31.674 -18.446   1.574  1.00  0.00    -0.196 NA
HETATM    2  C1  UNL     1      31.397 -19.514   1.180  1.00  0.00     0.081 C 
HETATM    3  C2  UNL     1      31.076 -20.849   0.686  1.00  0.00     0.234 C 
HETATM    4  S1  UNL     1      32.579 -21.632  -0.035  1.00  0.00    -0.117 SA
HETATM    5  C3  UNL     1      31.807 -21.997  -1.669  1.00  0.00     0.248 C 
HETATM    6  O1  UNL     1      30.463 -21.922  -1.308  1.00  0.00    -0.332 OA
HETATM    7  C4  UNL     1      30.248 -20.771  -0.608  1.00  0.00     0.281 C 
HETATM    8  C5  UNL     1      28.821 -20.700  -0.294  1.00  0.00     0.130 C 
HETATM    9  N2  UNL     1      27.681 -20.663  -0.049  1.00  0.00    -0.191 NA
ENDROOT
BRANCH   7  10
HETATM   10  O2  UNL     1      30.599 -19.610  -1.310  1.00  0.00    -0.352 OA
ATOM     11  H2  UNL     1      30.928 -18.962  -0.699  1.00  0.00     0.214 HD
ENDBRANCH   7  10
TORSDOF 1
ENDMDL
MODEL 5
REMARK VINA RESULT: -4.251875780      2.606      3.258
REMARK  1 active torsions:
REMARK  status: ('A' for Active; 'I' for Inactive)
REMARK    1  A    between atoms: C4_7  and  O2_8 
ROOT
HETATM    1  N1  UNL     1      30.042 -18.893   3.176  1.00  0.00    -0.196 NA
HETATM    2  C1  UNL     1      29.726 -19.904   2.674  1.00  0.00     0.081 C 
HETATM    3  C2  UNL     1      29.356 -21.166   2.043  1.00  0.00     0.234 C 
HETATM    4  S1  UNL     1      30.739 -21.770   0.985  1.00  0.00    -0.117 SA
HETATM    5  C3  UNL     1      29.720 -21.928  -0.544  1.00  0.00     0.248 C 
HETATM    6  O1  UNL     1      28.451 -21.965   0.031  1.00  0.00    -0.332 OA
HETATM    7  C4  UNL     1      28.329 -20.938   0.921  1.00  0.00     0.281 C 
HETATM    8  C5  UNL     1      26.970 -20.977   1.462  1.00  0.00     0.130 C 
HETATM    9  N2  UNL     1      25.884 -21.025   1.885  1.00  0.00    -0.191 NA
ENDROOT
BRANCH   7  10
HETATM   10  O2  UNL     1      28.538 -19.673   0.354  1.00  0.00    -0.352 OA
ATOM     11  H2  UNL     1      29.369 -19.328   0.658  1.00  0.00     0.214 HD
ENDBRANCH   7  10
TORSDOF 1
ENDMDL
