MODEL 1
REMARK VINA RESULT: -4.860753476      0.000      0.000
REMARK  0 active torsions:
REMARK  status: ('A' for Active; 'I' for Inactive)
ROOT
HETATM    1  C1  UNL     1      27.905 -23.407   1.857  1.00  0.00     0.042 C 
HETATM    2  C2  UNL     1      28.283 -22.033   1.442  1.00  0.00     0.147 C 
HETATM    3  C3  UNL     1      27.185 -21.003   1.739  1.00  0.00     0.205 C 
HETATM    4  O1  UNL     1      27.930 -19.828   1.629  1.00  0.00    -0.332 OA
HETATM    5  C4  UNL     1      29.248 -20.144   1.821  1.00  0.00     0.322 C 
HETATM    6  S1  UNL     1      29.950 -19.011   3.032  1.00  0.00    -0.007 SA
HETATM    7  C5  UNL     1      30.036 -20.091   0.568  1.00  0.00     0.141 C 
HETATM    8  N1  UNL     1      30.643 -20.062  -0.418  1.00  0.00    -0.190 NA
HETATM    9  O2  UNL     1      29.308 -21.478   2.243  1.00  0.00    -0.327 OA
ENDROOT
TORSDOF 0
ENDMDL
MODEL 2
REMARK VINA RESULT: -4.425159644      2.131      2.939
REMARK  0 active torsions:
REMARK  status: ('A' for Active; 'I' for Inactive)
ROOT
HETATM    1  C1  UNL     1      30.459 -21.759  -1.123  1.00  0.00     0.042 C 
HETATM    2  C2  UNL     1      29.824 -21.626   0.211  1.00  0.00     0.147 C 
HETATM    3  C3  UNL     1      30.752 -22.058   1.355  1.00  0.00     0.205 C 
HETATM    4  O1  UNL     1      30.084 -21.476   2.433  1.00  0.00    -0.332 OA
HETATM    5  C4  UNL     1      29.305 -20.460   1.948  1.00  0.00     0.322 C 
HETATM    6  S1  UNL     1      29.600 -18.979   2.929  1.00  0.00    -0.007 SA
HETATM    7  C5  UNL     1      27.861 -20.790   1.961  1.00  0.00     0.141 C 
HETATM    8  N1  UNL     1      26.735 -21.061   1.961  1.00  0.00    -0.190 NA
HETATM    9  O2  UNL     1      29.633 -20.279   0.598  1.00  0.00    -0.327 OA
ENDROOT
TORSDOF 0
ENDMDL
MODEL 3
REMARK VINA RESULT: -4.331304858      2.534      3.223
REMARK  0 active torsions:
REMARK  status: ('A' for Active; 'I' for Inactive)
ROOT
HETATM    1  C1  UNL     1      29.877 -18.502   3.131  1.00  0.00     0.042 C 
HETATM    2  C2  UNL     1      29.637 -19.871   2.611  1.00  0.00     0.147 C 
HETATM    3  C3  UNL     1      28.202 -20.068   2.102  1.00  0.00     0.205 C 
HETATM    4  O1  UNL     1      28.377 -21.231   1.351  1.00  0.00    -0.332 OA
HETATM    5  C4  UNL     1      29.703 -21.327   1.023  1.00  0.00     0.322 C 
HETATM    6  S1  UNL     1      29.846 -21.645  -0.743  1.00  0.00    -0.007 SA
HETATM    7  C5  UNL     1      30.404 -22.388   1.782  1.00  0.00     0.141 C 
HETATM    8  N1  UNL     1      30.948 -23.210   2.390  1.00  0.00    -0.190 NA
HETATM    9  O2  UNL     1      30.322 -20.128   1.400  1.00  0.00    -0.327 OA
ENDROOT
TORSDOF 0
ENDMDL
MODEL 4
REMARK VINA RESULT: -4.304086215      2.501      3.627
REMARK  0 active torsions:
REMARK  status: ('A' for Active; 'I' for Inactive)
ROOT
HETATM    1  C1  UNL     1      32.445 -18.519   1.649  1.00  0.00     0.042 C 
HETATM    2  C2  UNL     1      31.274 -19.315   2.091  1.00  0.00     0.147 C 
HETATM    3  C3  UNL     1      30.271 -18.489   2.908  1.00  0.00     0.205 C 
HETATM    4  O1  UNL     1      29.161 -19.332   2.839  1.00  0.00    -0.332 OA
HETATM    5  C4  UNL     1      29.314 -20.143   1.747  1.00  0.00     0.322 C 
HETATM    6  S1  UNL     1      27.798 -20.109   0.777  1.00  0.00    -0.007 SA
HETATM    7  C5  UNL     1      29.643 -21.540   2.114  1.00  0.00     0.141 C 
HETATM    8  N1  UNL     1      29.914 -22.626   2.409  1.00  0.00    -0.190 NA
HETATM    9  O2  UNL     1      30.420 -19.678   1.023  1.00  0.00    -0.327 OA
ENDROOT
TORSDOF 0
ENDMDL
MODEL 5
REMARK VINA RESULT: -4.213946250      2.559      3.010
REMARK  0 active torsions:
REMARK  status: ('A' for Active; 'I' for Inactive)
ROOT
HETATM    1  C1  UNL     1      31.656 -22.810   2.250  1.00  0.00     0.042 C 
HETATM    2  C2  UNL     1      31.073 -21.477   1.960  1.00  0.00     0.147 C 
HETATM    3  C3  UNL     1      31.191 -21.088   0.480  1.00  0.00     0.205 C 
HETATM    4  O1  UNL     1      30.260 -20.049   0.435  1.00  0.00    -0.332 OA
HETATM    5  C4  UNL     1      29.393 -20.213   1.483  1.00  0.00     0.322 C 
HETATM    6  S1  UNL     1      27.705 -20.097   0.867  1.00  0.00    -0.007 SA
HETATM    7  C5  UNL     1      29.605 -19.220   2.560  1.00  0.00     0.141 C 
HETATM    8  N1  UNL     1      29.785 -18.448   3.405  1.00  0.00    -0.190 NA
HETATM    9  O2  UNL     1      29.662 -21.459   2.066  1.00  0.00    -0.327 OA
ENDROOT
TORSDOF 0
ENDMDL
