MODEL 1
REMARK VINA RESULT: -4.529504531      0.000      0.000
REMARK  4 active torsions:
REMARK  status: ('A' for Active; 'I' for Inactive)
REMARK    1  A    between atoms: O1_2  and  C2_3 
REMARK    2  A    between atoms: C2_3  and  C3_5 
REMARK    3  A    between atoms: C3_5  and  O3_10 
REMARK    4  A    between atoms: N1_6  and  O2_8 
ROOT
HETATM    1  C3  UNL     1      28.691 -20.422   1.610  1.00  0.00     0.207 C 
HETATM    2  N1  UNL     1      27.580 -19.769   1.454  1.00  0.00    -0.244 N 
ATOM      3  H1  UNL     1      27.328 -19.021   2.100  1.00  0.00     0.196 HD
ENDROOT
BRANCH   1   4
HETATM    4  C2  UNL     1      29.056 -21.491   0.688  1.00  0.00     0.189 C 
HETATM    5  S1  UNL     1      30.277 -21.208  -0.357  1.00  0.00    -0.048 SA
BRANCH   4   6
HETATM    6  O1  UNL     1      28.422 -22.698   0.669  1.00  0.00    -0.342 OA
HETATM    7  C1  UNL     1      27.927 -23.393   1.784  1.00  0.00     0.211 C 
ENDBRANCH   4   6
ENDBRANCH   1   4
BRANCH   1   8
HETATM    8  O3  UNL     1      29.485 -20.055   2.671  1.00  0.00    -0.337 OA
HETATM    9  C4  UNL     1      29.839 -18.689   2.882  1.00  0.00     0.212 C 
ENDBRANCH   1   8
BRANCH   2  10
HETATM   10  O2  UNL     1      26.756 -20.089   0.424  1.00  0.00    -0.288 OA
ATOM     11  H2  UNL     1      25.875 -20.395   0.607  1.00  0.00     0.244 HD
ENDBRANCH   2  10
TORSDOF 4
ENDMDL
MODEL 2
REMARK VINA RESULT: -4.329775817      1.756      2.315
REMARK  4 active torsions:
REMARK  status: ('A' for Active; 'I' for Inactive)
REMARK    1  A    between atoms: O1_2  and  C2_3 
REMARK    2  A    between atoms: C2_3  and  C3_5 
REMARK    3  A    between atoms: C3_5  and  O3_10 
REMARK    4  A    between atoms: N1_6  and  O2_8 
ROOT
HETATM    1  C3  UNL     1      28.532 -19.900   1.432  1.00  0.00     0.207 C 
HETATM    2  N1  UNL     1      27.355 -19.749   0.906  1.00  0.00    -0.244 N 
ATOM      3  H1  UNL     1      26.612 -19.291   1.434  1.00  0.00     0.196 HD
ENDROOT
BRANCH   1   4
HETATM    4  C2  UNL     1      29.598 -20.554   0.682  1.00  0.00     0.189 C 
HETATM    5  S1  UNL     1      30.116 -22.009   1.212  1.00  0.00    -0.048 SA
BRANCH   4   6
HETATM    6  O1  UNL     1      30.168 -20.002  -0.426  1.00  0.00    -0.342 OA
HETATM    7  C1  UNL     1      31.491 -20.187  -0.858  1.00  0.00     0.211 C 
ENDBRANCH   4   6
ENDBRANCH   1   4
BRANCH   1   8
HETATM    8  O3  UNL     1      28.712 -19.417   2.707  1.00  0.00    -0.337 OA
HETATM    9  C4  UNL     1      29.876 -18.665   3.047  1.00  0.00     0.212 C 
ENDBRANCH   1   8
BRANCH   2  10
HETATM   10  O2  UNL     1      27.120 -20.207  -0.350  1.00  0.00    -0.288 OA
ATOM     11  H2  UNL     1      27.487 -21.041  -0.620  1.00  0.00     0.244 HD
ENDBRANCH   2  10
TORSDOF 4
ENDMDL
MODEL 3
REMARK VINA RESULT: -4.297005834      1.466      1.870
REMARK  4 active torsions:
REMARK  status: ('A' for Active; 'I' for Inactive)
REMARK    1  A    between atoms: O1_2  and  C2_3 
REMARK    2  A    between atoms: C2_3  and  C3_5 
REMARK    3  A    between atoms: C3_5  and  O3_10 
REMARK    4  A    between atoms: N1_6  and  O2_8 
ROOT
HETATM    1  C3  UNL     1      28.494 -20.547   1.653  1.00  0.00     0.207 C 
HETATM    2  N1  UNL     1      27.572 -19.702   1.308  1.00  0.00    -0.244 N 
ATOM      3  H1  UNL     1      27.503 -18.798   1.775  1.00  0.00     0.196 HD
ENDROOT
BRANCH   1   4
HETATM    4  C2  UNL     1      28.597 -21.841   0.988  1.00  0.00     0.189 C 
HETATM    5  S1  UNL     1      28.094 -23.160   1.809  1.00  0.00    -0.048 SA
BRANCH   4   6
HETATM    6  O1  UNL     1      29.091 -21.985  -0.275  1.00  0.00    -0.342 OA
HETATM    7  C1  UNL     1      30.308 -21.473  -0.752  1.00  0.00     0.211 C 
ENDBRANCH   4   6
ENDBRANCH   1   4
BRANCH   1   8
HETATM    8  O3  UNL     1      29.348 -20.162   2.659  1.00  0.00    -0.337 OA
HETATM    9  C4  UNL     1      29.817 -18.817   2.747  1.00  0.00     0.212 C 
ENDBRANCH   1   8
BRANCH   2  10
HETATM   10  O2  UNL     1      26.700 -20.029   0.321  1.00  0.00    -0.288 OA
ATOM     11  H2  UNL     1      26.069 -20.725   0.465  1.00  0.00     0.244 HD
ENDBRANCH   2  10
TORSDOF 4
ENDMDL
MODEL 4
REMARK VINA RESULT: -4.224476307      2.181      3.486
REMARK  4 active torsions:
REMARK  status: ('A' for Active; 'I' for Inactive)
REMARK    1  A    between atoms: O1_2  and  C2_3 
REMARK    2  A    between atoms: C2_3  and  C3_5 
REMARK    3  A    between atoms: C3_5  and  O3_10 
REMARK    4  A    between atoms: N1_6  and  O2_8 
ROOT
HETATM    1  C3  UNL     1      29.173 -20.553   0.376  1.00  0.00     0.207 C 
HETATM    2  N1  UNL     1      29.429 -20.232  -0.855  1.00  0.00    -0.244 N 
ATOM      3  H1  UNL     1      28.760 -20.453  -1.593  1.00  0.00     0.196 HD
ENDROOT
BRANCH   1   4
HETATM    4  C2  UNL     1      30.127 -20.240   1.435  1.00  0.00     0.189 C 
HETATM    5  S1  UNL     1      30.885 -21.487   2.167  1.00  0.00    -0.048 SA
BRANCH   4   6
HETATM    6  O1  UNL     1      30.401 -18.964   1.829  1.00  0.00    -0.342 OA
HETATM    7  C1  UNL     1      30.007 -18.366   3.037  1.00  0.00     0.211 C 
ENDBRANCH   4   6
ENDBRANCH   1   4
BRANCH   1   8
HETATM    8  O3  UNL     1      27.979 -21.189   0.620  1.00  0.00    -0.337 OA
HETATM    9  C4  UNL     1      27.176 -20.833   1.745  1.00  0.00     0.212 C 
ENDBRANCH   1   8
BRANCH   2  10
HETATM   10  O2  UNL     1      30.594 -19.603  -1.153  1.00  0.00    -0.288 OA
ATOM     11  H2  UNL     1      30.587 -18.672  -1.346  1.00  0.00     0.244 HD
ENDBRANCH   2  10
TORSDOF 4
ENDMDL
MODEL 5
REMARK VINA RESULT: -4.224133986      2.161      2.505
REMARK  4 active torsions:
REMARK  status: ('A' for Active; 'I' for Inactive)
REMARK    1  A    between atoms: O1_2  and  C2_3 
REMARK    2  A    between atoms: C2_3  and  C3_5 
REMARK    3  A    between atoms: C3_5  and  O3_10 
REMARK    4  A    between atoms: N1_6  and  O2_8 
ROOT
HETATM    1  C3  UNL     1      29.220 -20.250   0.079  1.00  0.00     0.207 C 
HETATM    2  N1  UNL     1      28.203 -20.180  -0.725  1.00  0.00    -0.244 N 
ATOM      3  H1  UNL     1      28.348 -20.052  -1.726  1.00  0.00     0.196 HD
ENDROOT
BRANCH   1   4
HETATM    4  C2  UNL     1      29.020 -20.435   1.511  1.00  0.00     0.189 C 
HETATM    5  S1  UNL     1      29.573 -19.270   2.512  1.00  0.00    -0.048 SA
BRANCH   4   6
HETATM    6  O1  UNL     1      28.397 -21.529   2.035  1.00  0.00    -0.342 OA
HETATM    7  C1  UNL     1      28.574 -22.860   1.625  1.00  0.00     0.211 C 
ENDBRANCH   4   6
ENDBRANCH   1   4
BRANCH   1   8
HETATM    8  O3  UNL     1      30.469 -20.144  -0.486  1.00  0.00    -0.337 OA
HETATM    9  C4  UNL     1      31.448 -21.166  -0.297  1.00  0.00     0.212 C 
ENDBRANCH   1   8
BRANCH   2  10
HETATM   10  O2  UNL     1      26.947 -20.279  -0.222  1.00  0.00    -0.288 OA
ATOM     11  H2  UNL     1      26.372 -19.523  -0.248  1.00  0.00     0.244 HD
ENDBRANCH   2  10
TORSDOF 4
ENDMDL
