MODEL 1
REMARK VINA RESULT: -5.603936005      0.000      0.000
REMARK  1 active torsions:
REMARK  status: ('A' for Active; 'I' for Inactive)
REMARK    1  A    between atoms: C3_7  and  N3_8 
ROOT
HETATM    1  N1  UNL     1      26.407 -21.368   1.934  1.00  0.00    -0.195 NA
HETATM    2  C1  UNL     1      27.328 -20.833   1.477  1.00  0.00     0.093 C 
HETATM    3  C2  UNL     1      28.497 -20.181   0.905  1.00  0.00     0.302 C 
HETATM    4  N2  UNL     1      29.026 -20.917  -0.241  1.00  0.00    -0.033 N 
ATOM      5  H21 UNL     1      28.560 -20.699  -1.122  1.00  0.00     0.281 HD
ATOM      6  H22 UNL     1      28.801 -21.912  -0.232  1.00  0.00     0.281 HD
HETATM    7  C3  UNL     1      30.446 -20.638  -0.245  1.00  0.00     0.329 C 
HETATM    8  C4  UNL     1      30.865 -20.401   1.174  1.00  0.00     0.181 A 
HETATM    9  O1  UNL     1      31.271 -19.098   1.421  1.00  0.00    -0.381 OA
HETATM   10  C5  UNL     1      30.161 -18.865   2.235  1.00  0.00     0.178 A 
HETATM   11  C6  UNL     1      29.589 -20.230   1.946  1.00  0.00     0.087 A 
ENDROOT
BRANCH   7  12
HETATM   12  N3  UNL     1      30.815 -19.600  -1.126  1.00  0.00    -0.310 N 
HETATM   13  N4  UNL     1      31.987 -19.312  -1.434  1.00  0.00    -0.347 N 
ATOM     14  H42 UNL     1      32.722 -19.878  -1.009  1.00  0.00     0.176 HD
ATOM     15  H41 UNL     1      32.253 -18.562  -2.071  1.00  0.00     0.176 HD
ATOM     16  H3  UNL     1      30.067 -19.045  -1.542  1.00  0.00     0.182 HD
ENDBRANCH   7  12
TORSDOF 1
ENDMDL
MODEL 2
REMARK VINA RESULT: -5.566062230      2.623      4.007
REMARK  1 active torsions:
REMARK  status: ('A' for Active; 'I' for Inactive)
REMARK    1  A    between atoms: C3_7  and  N3_8 
ROOT
HETATM    1  N1  UNL     1      32.445 -20.186   3.686  1.00  0.00    -0.195 NA
HETATM    2  C1  UNL     1      31.541 -20.202   2.961  1.00  0.00     0.093 C 
HETATM    3  C2  UNL     1      30.391 -20.232   2.067  1.00  0.00     0.302 C 
HETATM    4  N2  UNL     1      29.224 -19.585   2.659  1.00  0.00    -0.033 N 
ATOM      5  H21 UNL     1      29.206 -18.572   2.535  1.00  0.00     0.281 HD
ATOM      6  H22 UNL     1      29.229 -19.577   3.679  1.00  0.00     0.281 HD
HETATM    7  C3  UNL     1      28.084 -20.266   2.084  1.00  0.00     0.329 C 
HETATM    8  C4  UNL     1      28.502 -21.672   1.781  1.00  0.00     0.181 A 
HETATM    9  O1  UNL     1      28.534 -21.959   0.425  1.00  0.00    -0.381 OA
HETATM   10  C5  UNL     1      29.925 -22.080   0.444  1.00  0.00     0.178 A 
HETATM   11  C6  UNL     1      29.998 -21.680   1.896  1.00  0.00     0.087 A 
ENDROOT
BRANCH   7  12
HETATM   12  N3  UNL     1      27.521 -19.590   0.980  1.00  0.00    -0.310 N 
HETATM   13  N4  UNL     1      26.509 -19.965   0.359  1.00  0.00    -0.347 N 
ATOM     14  H42 UNL     1      26.066 -20.825   0.684  1.00  0.00     0.176 HD
ATOM     15  H41 UNL     1      26.102 -19.477  -0.439  1.00  0.00     0.176 HD
ATOM     16  H3  UNL     1      27.976 -18.733   0.668  1.00  0.00     0.182 HD
ENDBRANCH   7  12
TORSDOF 1
ENDMDL
MODEL 3
REMARK VINA RESULT: -5.543544503      1.347      1.368
REMARK  1 active torsions:
REMARK  status: ('A' for Active; 'I' for Inactive)
REMARK    1  A    between atoms: C3_7  and  N3_8 
ROOT
HETATM    1  N1  UNL     1      27.793 -23.829   2.033  1.00  0.00    -0.195 NA
HETATM    2  C1  UNL     1      28.240 -22.869   1.562  1.00  0.00     0.093 C 
HETATM    3  C2  UNL     1      28.824 -21.672   0.974  1.00  0.00     0.302 C 
HETATM    4  N2  UNL     1      29.747 -21.992  -0.112  1.00  0.00    -0.033 N 
ATOM      5  H21 UNL     1      29.291 -22.128  -1.014  1.00  0.00     0.281 HD
ATOM      6  H22 UNL     1      30.155 -22.925  -0.045  1.00  0.00     0.281 HD
HETATM    7  C3  UNL     1      30.723 -20.923  -0.104  1.00  0.00     0.329 C 
HETATM    8  C4  UNL     1      30.842 -20.430   1.305  1.00  0.00     0.181 A 
HETATM    9  O1  UNL     1      30.382 -19.132   1.478  1.00  0.00    -0.381 OA
HETATM   10  C5  UNL     1      29.309 -19.575   2.253  1.00  0.00     0.178 A 
HETATM   11  C6  UNL     1      29.674 -21.021   2.039  1.00  0.00     0.087 A 
ENDROOT
BRANCH   7  12
HETATM   12  N3  UNL     1      30.451 -19.904  -1.041  1.00  0.00    -0.310 N 
HETATM   13  N4  UNL     1      31.319 -19.246  -1.646  1.00  0.00    -0.347 N 
ATOM     14  H42 UNL     1      32.291 -19.471  -1.436  1.00  0.00     0.176 HD
ATOM     15  H41 UNL     1      31.122 -18.509  -2.323  1.00  0.00     0.176 HD
ATOM     16  H3  UNL     1      29.474 -19.692  -1.239  1.00  0.00     0.182 HD
ENDBRANCH   7  12
TORSDOF 1
ENDMDL
MODEL 4
REMARK VINA RESULT: -5.387490902      2.290      3.046
REMARK  1 active torsions:
REMARK  status: ('A' for Active; 'I' for Inactive)
REMARK    1  A    between atoms: C3_7  and  N3_8 
ROOT
HETATM    1  N1  UNL     1      27.579 -24.269   1.872  1.00  0.00    -0.195 NA
HETATM    2  C1  UNL     1      28.125 -23.251   1.775  1.00  0.00     0.093 C 
HETATM    3  C2  UNL     1      28.793 -21.965   1.639  1.00  0.00     0.302 C 
HETATM    4  N2  UNL     1      27.917 -20.855   2.005  1.00  0.00    -0.033 N 
ATOM      5  H21 UNL     1      27.895 -20.659   3.006  1.00  0.00     0.281 HD
ATOM      6  H22 UNL     1      26.923 -21.063   1.905  1.00  0.00     0.281 HD
HETATM    7  C3  UNL     1      28.366 -19.739   1.200  1.00  0.00     0.329 C 
HETATM    8  C4  UNL     1      28.930 -20.296  -0.071  1.00  0.00     0.181 A 
HETATM    9  O1  UNL     1      30.297 -20.100  -0.202  1.00  0.00    -0.381 OA
HETATM   10  C5  UNL     1      30.544 -21.468  -0.079  1.00  0.00     0.178 A 
HETATM   11  C6  UNL     1      29.089 -21.769   0.171  1.00  0.00     0.087 A 
ENDROOT
BRANCH   7  12
HETATM   12  N3  UNL     1      29.247 -18.871   1.880  1.00  0.00    -0.310 N 
HETATM   13  N4  UNL     1      29.273 -18.710   3.115  1.00  0.00    -0.347 N 
ATOM     14  H42 UNL     1      28.601 -19.252   3.660  1.00  0.00     0.176 HD
ATOM     15  H41 UNL     1      29.909 -18.083   3.606  1.00  0.00     0.176 HD
ATOM     16  H3  UNL     1      29.910 -18.338   1.320  1.00  0.00     0.182 HD
ENDBRANCH   7  12
TORSDOF 1
ENDMDL
MODEL 5
REMARK VINA RESULT: -5.377563320      1.707      1.793
REMARK  1 active torsions:
REMARK  status: ('A' for Active; 'I' for Inactive)
REMARK    1  A    between atoms: C3_7  and  N3_8 
ROOT
HETATM    1  N1  UNL     1      27.731 -23.887   1.973  1.00  0.00    -0.195 NA
HETATM    2  C1  UNL     1      28.381 -23.005   1.596  1.00  0.00     0.093 C 
HETATM    3  C2  UNL     1      29.211 -21.912   1.110  1.00  0.00     0.302 C 
HETATM    4  N2  UNL     1      29.310 -21.908  -0.347  1.00  0.00    -0.033 N 
ATOM      5  H21 UNL     1      28.535 -21.434  -0.811  1.00  0.00     0.281 HD
ATOM      6  H22 UNL     1      29.159 -22.823  -0.773  1.00  0.00     0.281 HD
HETATM    7  C3  UNL     1      30.607 -21.334  -0.636  1.00  0.00     0.329 C 
HETATM    8  C4  UNL     1      31.514 -21.669   0.508  1.00  0.00     0.181 A 
HETATM    9  O1  UNL     1      31.911 -20.561   1.242  1.00  0.00    -0.381 OA
HETATM   10  C5  UNL     1      31.179 -20.986   2.352  1.00  0.00     0.178 A 
HETATM   11  C6  UNL     1      30.616 -22.167   1.602  1.00  0.00     0.087 A 
ENDROOT
BRANCH   7  12
HETATM   12  N3  UNL     1      30.559 -19.957  -0.938  1.00  0.00    -0.310 N 
HETATM   13  N4  UNL     1      31.404 -19.350  -1.623  1.00  0.00    -0.347 N 
ATOM     14  H42 UNL     1      32.181 -19.905  -1.985  1.00  0.00     0.176 HD
ATOM     15  H41 UNL     1      31.369 -18.355  -1.842  1.00  0.00     0.176 HD
ATOM     16  H3  UNL     1      29.776 -19.419  -0.568  1.00  0.00     0.182 HD
ENDBRANCH   7  12
TORSDOF 1
ENDMDL
