MODEL 1
REMARK VINA RESULT: -5.986423492      0.000      0.000
REMARK  1 active torsions:
REMARK  status: ('A' for Active; 'I' for Inactive)
REMARK    1  A    between atoms: O1_1  and  N1_3 
ROOT
HETATM    1  N1  UNL     1      27.138 -20.156   2.122  1.00  0.00    -0.277 N 
ATOM      2  H1  UNL     1      26.881 -19.189   2.321  1.00  0.00     0.193 HD
HETATM    3  C1  UNL     1      28.366 -20.478   1.944  1.00  0.00     0.015 C 
HETATM    4  C2  UNL     1      28.705 -21.868   1.659  1.00  0.00     0.055 C 
HETATM    5  C3  UNL     1      30.116 -22.249   1.922  1.00  0.00     0.011 C 
HETATM    6  C4  UNL     1      31.017 -21.120   2.302  1.00  0.00     0.075 C 
HETATM    7  C5  UNL     1      30.665 -19.873   1.500  1.00  0.00     0.234 A 
HETATM    8  C6  UNL     1      29.355 -19.374   2.048  1.00  0.00     0.128 C 
HETATM    9  O2  UNL     1      31.662 -18.931   1.397  1.00  0.00    -0.194 OA
HETATM   10  O3  UNL     1      31.117 -19.621   0.300  1.00  0.00    -0.194 OA
ENDROOT
BRANCH   1  11
HETATM   11  O1  UNL     1      26.174 -21.124   2.041  1.00  0.00    -0.290 OA
ATOM     12  H1  UNL     1      25.405 -20.970   1.506  1.00  0.00     0.244 HD
ENDBRANCH   1  11
TORSDOF 1
ENDMDL
MODEL 2
REMARK VINA RESULT: -5.745098663      1.951      3.822
REMARK  1 active torsions:
REMARK  status: ('A' for Active; 'I' for Inactive)
REMARK    1  A    between atoms: O1_1  and  N1_3 
ROOT
HETATM    1  N1  UNL     1      30.300 -19.857  -0.865  1.00  0.00    -0.277 N 
ATOM      2  H1  UNL     1      29.718 -19.384  -1.557  1.00  0.00     0.193 HD
HETATM    3  C1  UNL     1      29.762 -20.554   0.067  1.00  0.00     0.015 C 
HETATM    4  C2  UNL     1      30.616 -21.219   1.044  1.00  0.00     0.055 C 
HETATM    5  C3  UNL     1      29.989 -22.346   1.780  1.00  0.00     0.011 C 
HETATM    6  C4  UNL     1      28.532 -22.542   1.517  1.00  0.00     0.075 C 
HETATM    7  C5  UNL     1      27.835 -21.194   1.382  1.00  0.00     0.234 A 
HETATM    8  C6  UNL     1      28.276 -20.620   0.062  1.00  0.00     0.128 C 
HETATM    9  O2  UNL     1      26.477 -21.201   1.600  1.00  0.00    -0.194 OA
HETATM   10  O3  UNL     1      27.396 -20.491   2.392  1.00  0.00    -0.194 OA
ENDROOT
BRANCH   1  11
HETATM   11  O1  UNL     1      31.663 -19.754  -0.921  1.00  0.00    -0.290 OA
ATOM     12  H1  UNL     1      32.156 -19.682  -0.112  1.00  0.00     0.244 HD
ENDBRANCH   1  11
TORSDOF 1
ENDMDL
MODEL 3
REMARK VINA RESULT: -5.636003962      2.336      3.666
REMARK  1 active torsions:
REMARK  status: ('A' for Active; 'I' for Inactive)
REMARK    1  A    between atoms: O1_1  and  N1_3 
ROOT
HETATM    1  N1  UNL     1      30.271 -23.246   2.208  1.00  0.00    -0.277 N 
ATOM      2  H1  UNL     1      29.717 -24.093   2.081  1.00  0.00     0.193 HD
HETATM    3  C1  UNL     1      29.746 -22.093   2.015  1.00  0.00     0.015 C 
HETATM    4  C2  UNL     1      30.561 -20.898   2.202  1.00  0.00     0.055 C 
HETATM    5  C3  UNL     1      29.807 -19.637   2.418  1.00  0.00     0.011 C 
HETATM    6  C4  UNL     1      28.326 -19.750   2.268  1.00  0.00     0.075 C 
HETATM    7  C5  UNL     1      27.984 -20.696   1.123  1.00  0.00     0.234 A 
HETATM    8  C6  UNL     1      28.317 -22.083   1.607  1.00  0.00     0.128 C 
HETATM    9  O2  UNL     1      26.730 -20.544   0.580  1.00  0.00    -0.194 OA
HETATM   10  O3  UNL     1      27.925 -20.338  -0.132  1.00  0.00    -0.194 OA
ENDROOT
BRANCH   1  11
HETATM   11  O1  UNL     1      31.583 -23.329   2.586  1.00  0.00    -0.290 OA
ATOM     12  H1  UNL     1      31.804 -23.760   3.403  1.00  0.00     0.244 HD
ENDBRANCH   1  11
TORSDOF 1
ENDMDL
MODEL 4
REMARK VINA RESULT: -5.632701118      2.054      2.665
REMARK  1 active torsions:
REMARK  status: ('A' for Active; 'I' for Inactive)
REMARK    1  A    between atoms: O1_1  and  N1_3 
ROOT
HETATM    1  N1  UNL     1      26.848 -21.761   1.843  1.00  0.00    -0.277 N 
ATOM      2  H1  UNL     1      26.486 -22.701   1.679  1.00  0.00     0.193 HD
HETATM    3  C1  UNL     1      28.111 -21.554   1.909  1.00  0.00     0.015 C 
HETATM    4  C2  UNL     1      28.601 -20.201   2.145  1.00  0.00     0.055 C 
HETATM    5  C3  UNL     1      30.013 -19.955   1.756  1.00  0.00     0.011 C 
HETATM    6  C4  UNL     1      30.769 -21.165   1.314  1.00  0.00     0.075 C 
HETATM    7  C5  UNL     1      30.375 -22.370   2.159  1.00  0.00     0.234 A 
HETATM    8  C6  UNL     1      28.981 -22.747   1.733  1.00  0.00     0.128 C 
HETATM    9  O2  UNL     1      31.285 -23.401   2.187  1.00  0.00    -0.194 OA
HETATM   10  O3  UNL     1      30.905 -22.658   3.319  1.00  0.00    -0.194 OA
ENDROOT
BRANCH   1  11
HETATM   11  O1  UNL     1      25.989 -20.707   1.994  1.00  0.00    -0.290 OA
ATOM     12  H1  UNL     1      25.069 -20.877   2.155  1.00  0.00     0.244 HD
ENDBRANCH   1  11
TORSDOF 1
ENDMDL
MODEL 5
REMARK VINA RESULT: -5.618999709      1.985      3.406
REMARK  1 active torsions:
REMARK  status: ('A' for Active; 'I' for Inactive)
REMARK    1  A    between atoms: O1_1  and  N1_3 
ROOT
HETATM    1  N1  UNL     1      28.848 -18.828   2.740  1.00  0.00    -0.277 N 
ATOM      2  H1  UNL     1      27.939 -18.752   3.197  1.00  0.00     0.193 HD
HETATM    3  C1  UNL     1      29.141 -19.868   2.049  1.00  0.00     0.015 C 
HETATM    4  C2  UNL     1      30.448 -19.952   1.407  1.00  0.00     0.055 C 
HETATM    5  C3  UNL     1      30.547 -20.918   0.283  1.00  0.00     0.011 C 
HETATM    6  C4  UNL     1      29.337 -21.766   0.067  1.00  0.00     0.075 C 
HETATM    7  C5  UNL     1      28.727 -22.163   1.406  1.00  0.00     0.234 A 
HETATM    8  C6  UNL     1      28.092 -20.918   1.967  1.00  0.00     0.128 C 
HETATM    9  O2  UNL     1      27.925 -23.279   1.387  1.00  0.00    -0.194 OA
HETATM   10  O3  UNL     1      29.122 -23.185   2.118  1.00  0.00    -0.194 OA
ENDROOT
BRANCH   1  11
HETATM   11  O1  UNL     1      29.767 -17.822   2.857  1.00  0.00    -0.290 OA
ATOM     12  H1  UNL     1      29.532 -17.030   3.325  1.00  0.00     0.244 HD
ENDBRANCH   1  11
TORSDOF 1
ENDMDL
