MODEL 1
REMARK VINA RESULT: -5.074703756      0.000      0.000
REMARK  1 active torsions:
REMARK  status: ('A' for Active; 'I' for Inactive)
REMARK       I    between atoms: C2_3  and  N2_5 
REMARK    1  A    between atoms: N2_5  and  C3_7 
ROOT
HETATM    1  N1  UNL     1      33.668 -20.884  -3.258  1.00  0.00    -0.186 NA
HETATM    2  C1  UNL     1      32.943 -20.464  -2.443  1.00  0.00     0.162 C 
HETATM    3  C2  UNL     1      32.035 -19.952  -1.461  1.00  0.00     0.340 C 
HETATM    4  O1  UNL     1      32.252 -18.862  -0.887  1.00  0.00    -0.255 OA
HETATM    5  N2  UNL     1      30.875 -20.674  -1.125  1.00  0.00    -0.147 N 
ATOM      6  H2  UNL     1      30.729 -21.560  -1.609  1.00  0.00     0.188 HD
ENDROOT
BRANCH   5   7
HETATM    7  C3  UNL     1      29.892 -20.293  -0.181  1.00  0.00     0.677 C 
HETATM    8  N3  UNL     1      28.626 -20.502  -0.476  1.00  0.00    -0.226 N 
HETATM    9  C4  UNL     1      27.712 -20.060   0.589  1.00  0.00     0.139 C 
ATOM     10  H3  UNL     1      28.312 -20.924  -1.350  1.00  0.00     0.177 HD
HETATM   11  C5  UNL     1      28.180 -20.750   1.859  1.00  0.00     0.040 C 
HETATM   12  C6  UNL     1      29.493 -20.114   2.302  1.00  0.00     0.139 C 
HETATM   13  N4  UNL     1      30.157 -19.690   1.074  1.00  0.00    -0.226 N 
ATOM     14  H4  UNL     1      30.836 -18.931   1.120  1.00  0.00     0.177 HD
ENDBRANCH   5   7
TORSDOF 1
ENDMDL
MODEL 2
REMARK VINA RESULT: -5.034866345      1.820      4.911
REMARK  1 active torsions:
REMARK  status: ('A' for Active; 'I' for Inactive)
REMARK       I    between atoms: C2_3  and  N2_5 
REMARK    1  A    between atoms: N2_5  and  C3_7 
ROOT
HETATM    1  N1  UNL     1      27.171 -20.385   0.555  1.00  0.00    -0.186 NA
HETATM    2  C1  UNL     1      28.288 -20.411   0.212  1.00  0.00     0.162 C 
HETATM    3  C2  UNL     1      29.658 -20.469  -0.200  1.00  0.00     0.340 C 
HETATM    4  O1  UNL     1      30.505 -19.671   0.260  1.00  0.00    -0.255 OA
HETATM    5  N2  UNL     1      30.075 -21.431  -1.137  1.00  0.00    -0.147 N 
ATOM      6  H2  UNL     1      29.360 -22.065  -1.495  1.00  0.00     0.188 HD
ENDROOT
BRANCH   5   7
HETATM    7  C3  UNL     1      31.389 -21.608  -1.633  1.00  0.00     0.677 C 
HETATM    8  N3  UNL     1      31.543 -21.914  -2.905  1.00  0.00    -0.226 N 
HETATM    9  C4  UNL     1      32.955 -22.069  -3.287  1.00  0.00     0.139 C 
ATOM     10  H3  UNL     1      30.766 -22.032  -3.555  1.00  0.00     0.177 HD
HETATM   11  C5  UNL     1      33.649 -20.786  -2.863  1.00  0.00     0.040 C 
HETATM   12  C6  UNL     1      33.746 -20.764  -1.343  1.00  0.00     0.139 C 
HETATM   13  N4  UNL     1      32.573 -21.489  -0.865  1.00  0.00    -0.226 N 
ATOM     14  H4  UNL     1      32.608 -21.925   0.057  1.00  0.00     0.177 HD
ENDBRANCH   5   7
TORSDOF 1
ENDMDL
MODEL 3
REMARK VINA RESULT: -5.023956182      1.858      5.081
REMARK  1 active torsions:
REMARK  status: ('A' for Active; 'I' for Inactive)
REMARK       I    between atoms: C2_3  and  N2_5 
REMARK    1  A    between atoms: N2_5  and  C3_7 
ROOT
HETATM    1  N1  UNL     1      27.915 -20.061   2.264  1.00  0.00    -0.186 NA
HETATM    2  C1  UNL     1      28.470 -20.281   1.259  1.00  0.00     0.162 C 
HETATM    3  C2  UNL     1      29.154 -20.525   0.024  1.00  0.00     0.340 C 
HETATM    4  O1  UNL     1      28.605 -21.160  -0.904  1.00  0.00    -0.255 OA
HETATM    5  N2  UNL     1      30.466 -20.051  -0.164  1.00  0.00    -0.147 N 
ATOM      6  H2  UNL     1      30.885 -19.540   0.613  1.00  0.00     0.188 HD
ENDROOT
BRANCH   5   7
HETATM    7  C3  UNL     1      31.260 -20.214  -1.324  1.00  0.00     0.677 C 
HETATM    8  N3  UNL     1      31.800 -19.143  -1.869  1.00  0.00    -0.226 N 
HETATM    9  C4  UNL     1      32.598 -19.454  -3.065  1.00  0.00     0.139 C 
ATOM     10  H3  UNL     1      31.678 -18.200  -1.501  1.00  0.00     0.177 HD
HETATM   11  C5  UNL     1      33.599 -20.513  -2.640  1.00  0.00     0.040 C 
HETATM   12  C6  UNL     1      32.857 -21.826  -2.422  1.00  0.00     0.139 C 
HETATM   13  N4  UNL     1      31.523 -21.449  -1.965  1.00  0.00    -0.226 N 
ATOM     14  H4  UNL     1      30.751 -22.100  -2.113  1.00  0.00     0.177 HD
ENDBRANCH   5   7
TORSDOF 1
ENDMDL
MODEL 4
REMARK VINA RESULT: -4.981947697      2.308      5.069
REMARK  1 active torsions:
REMARK  status: ('A' for Active; 'I' for Inactive)
REMARK       I    between atoms: C2_3  and  N2_5 
REMARK    1  A    between atoms: N2_5  and  C3_7 
ROOT
HETATM    1  N1  UNL     1      28.677 -23.115   2.052  1.00  0.00    -0.186 NA
HETATM    2  C1  UNL     1      29.001 -22.478   1.127  1.00  0.00     0.162 C 
HETATM    3  C2  UNL     1      29.416 -21.685   0.009  1.00  0.00     0.340 C 
HETATM    4  O1  UNL     1      28.606 -20.951  -0.598  1.00  0.00    -0.255 OA
HETATM    5  N2  UNL     1      30.753 -21.724  -0.428  1.00  0.00    -0.147 N 
ATOM      6  H2  UNL     1      31.387 -22.335   0.087  1.00  0.00     0.188 HD
ENDROOT
BRANCH   5   7
HETATM    7  C3  UNL     1      31.304 -20.998  -1.510  1.00  0.00     0.677 C 
HETATM    8  N3  UNL     1      31.543 -19.713  -1.347  1.00  0.00    -0.226 N 
HETATM    9  C4  UNL     1      32.114 -19.083  -2.548  1.00  0.00     0.139 C 
ATOM     10  H3  UNL     1      31.352 -19.209  -0.481  1.00  0.00     0.177 HD
HETATM   11  C5  UNL     1      33.337 -19.905  -2.914  1.00  0.00     0.040 C 
HETATM   12  C6  UNL     1      32.873 -21.247  -3.468  1.00  0.00     0.139 C 
HETATM   13  N4  UNL     1      31.621 -21.543  -2.780  1.00  0.00    -0.226 N 
ATOM     14  H4  UNL     1      30.949 -22.164  -3.229  1.00  0.00     0.177 HD
ENDBRANCH   5   7
TORSDOF 1
ENDMDL
MODEL 5
REMARK VINA RESULT: -4.951935284      1.732      5.129
REMARK  1 active torsions:
REMARK  status: ('A' for Active; 'I' for Inactive)
REMARK       I    between atoms: C2_3  and  N2_5 
REMARK    1  A    between atoms: N2_5  and  C3_7 
ROOT
HETATM    1  N1  UNL     1      27.254 -20.481   0.600  1.00  0.00    -0.186 NA
HETATM    2  C1  UNL     1      28.379 -20.425   0.291  1.00  0.00     0.162 C 
HETATM    3  C2  UNL     1      29.761 -20.382  -0.085  1.00  0.00     0.340 C 
HETATM    4  O1  UNL     1      30.570 -19.638   0.512  1.00  0.00    -0.255 OA
HETATM    5  N2  UNL     1      30.231 -21.184  -1.141  1.00  0.00    -0.147 N 
ATOM      6  H2  UNL     1      29.546 -21.777  -1.609  1.00  0.00     0.188 HD
ENDROOT
BRANCH   5   7
HETATM    7  C3  UNL     1      31.562 -21.248  -1.620  1.00  0.00     0.677 C 
HETATM    8  N3  UNL     1      32.505 -21.655  -0.796  1.00  0.00    -0.226 N 
HETATM    9  C4  UNL     1      33.838 -21.674  -1.419  1.00  0.00     0.139 C 
ATOM     10  H3  UNL     1      32.331 -21.927   0.172  1.00  0.00     0.177 HD
HETATM   11  C5  UNL     1      33.702 -22.512  -2.678  1.00  0.00     0.040 C 
HETATM   12  C6  UNL     1      32.897 -21.723  -3.704  1.00  0.00     0.139 C 
HETATM   13  N4  UNL     1      31.975 -20.900  -2.929  1.00  0.00    -0.226 N 
ATOM     14  H4  UNL     1      31.615 -20.041  -3.346  1.00  0.00     0.177 HD
ENDBRANCH   5   7
TORSDOF 1
ENDMDL
