MODEL 1
REMARK VINA RESULT: -7.006040198      0.000      0.000
REMARK  9 active torsions:
REMARK  status: ('A' for Active; 'I' for Inactive)
REMARK    1  A    between atoms: C2_2  and  C4_4 
REMARK    2  A    between atoms: C8_8  and  O1_9 
REMARK    3  A    between atoms: C9_11  and  O2_12 
REMARK    4  A    between atoms: N1_15  and  C11_16 
REMARK    5  A    between atoms: C11_16  and  C12_17 
REMARK    6  A    between atoms: C12_17  and  C13_18 
REMARK    7  A    between atoms: C13_18  and  C14_19 
REMARK    8  A    between atoms: C14_19  and  C15_20 
REMARK    9  A    between atoms: C15_20  and  C16_21 
ROOT
HETATM    1  C16 UNL     1      14.264 -10.167   4.591  1.00  0.00     0.124 C 
HETATM    2  C17 UNL     1      13.035  -9.735   5.286  1.00  0.00     0.059 C 
HETATM    3  N2  UNL     1      12.069  -9.417   5.825  1.00  0.00    -0.197 NA
ENDROOT
BRANCH   1   4
HETATM    4  C15 UNL     1      14.506  -9.294   3.402  1.00  0.00     0.014 C 
BRANCH   4   5
HETATM    5  C14 UNL     1      15.603  -8.304   3.702  1.00  0.00     0.001 C 
BRANCH   5   6
HETATM    6  C13 UNL     1      15.721  -7.270   2.625  1.00  0.00     0.002 C 
BRANCH   6   7
HETATM    7  C12 UNL     1      17.155  -7.167   2.115  1.00  0.00     0.030 C 
BRANCH   7   8
HETATM    8  C11 UNL     1      17.287  -7.554   0.695  1.00  0.00     0.275 C 
BRANCH   8   9
HETATM    9  N1  UNL     1      18.172  -6.717  -0.053  1.00  0.00     0.116 N 
HETATM   10  C10 UNL     1      19.385  -6.418   0.641  1.00  0.00     0.319 C 
HETATM   11  C7  UNL     1      20.632  -6.532  -0.100  1.00  0.00     0.039 A 
HETATM   12  C6  UNL     1      20.681  -7.230  -1.276  1.00  0.00     0.082 A 
HETATM   13  C8  UNL     1      21.818  -5.938   0.352  1.00  0.00     0.110 A 
HETATM   14  C5  UNL     1      21.867  -7.330  -1.972  1.00  0.00     0.048 A 
HETATM   15  O3  UNL     1      19.491  -7.805  -1.694  1.00  0.00    -0.321 OA
HETATM   16  C4  UNL     1      23.044  -6.755  -1.548  1.00  0.00    -0.016 A 
HETATM   17  C9  UNL     1      22.993  -6.054  -0.365  1.00  0.00     0.106 A 
HETATM   18  C18 UNL     1      18.284  -7.068  -1.400  1.00  0.00     0.447 C 
BRANCH  16  19
HETATM   19  C2  UNL     1      24.305  -6.879  -2.312  1.00  0.00     0.013 C 
HETATM   20  C1  UNL     1      24.280  -6.004  -3.545  1.00  0.00     0.015 C 
HETATM   21  C3  UNL     1      24.537  -8.292  -2.799  1.00  0.00     0.015 C 
ENDBRANCH  16  19
BRANCH  17  22
HETATM   22  O2  UNL     1      24.132  -5.440   0.141  1.00  0.00    -0.357 OA
ATOM     23  H2  UNL     1      24.186  -5.208   1.060  1.00  0.00     0.217 HD
ENDBRANCH  17  22
BRANCH  13  24
HETATM   24  O1  UNL     1      21.796  -5.227   1.543  1.00  0.00    -0.357 OA
ATOM     25  H1  UNL     1      22.574  -4.746   1.802  1.00  0.00     0.217 HD
ENDBRANCH  13  24
ENDBRANCH   8   9
ENDBRANCH   7   8
ENDBRANCH   6   7
ENDBRANCH   5   6
ENDBRANCH   4   5
ENDBRANCH   1   4
TORSDOF 9
ENDMDL
MODEL 2
REMARK VINA RESULT: -6.582740113      3.125      8.771
REMARK  9 active torsions:
REMARK  status: ('A' for Active; 'I' for Inactive)
REMARK    1  A    between atoms: C2_2  and  C4_4 
REMARK    2  A    between atoms: C8_8  and  O1_9 
REMARK    3  A    between atoms: C9_11  and  O2_12 
REMARK    4  A    between atoms: N1_15  and  C11_16 
REMARK    5  A    between atoms: C11_16  and  C12_17 
REMARK    6  A    between atoms: C12_17  and  C13_18 
REMARK    7  A    between atoms: C13_18  and  C14_19 
REMARK    8  A    between atoms: C14_19  and  C15_20 
REMARK    9  A    between atoms: C15_20  and  C16_21 
ROOT
HETATM    1  C16 UNL     1      21.262  -5.848   0.548  1.00  0.00     0.124 C 
HETATM    2  C17 UNL     1      22.328  -4.944   1.022  1.00  0.00     0.059 C 
HETATM    3  N2  UNL     1      23.148  -4.222   1.384  1.00  0.00    -0.197 NA
ENDROOT
BRANCH   1   4
HETATM    4  C15 UNL     1      21.811  -6.784  -0.480  1.00  0.00     0.014 C 
BRANCH   4   5
HETATM    5  C14 UNL     1      20.944  -8.013  -0.578  1.00  0.00     0.001 C 
BRANCH   5   6
HETATM    6  C13 UNL     1      19.978  -7.916  -1.719  1.00  0.00     0.002 C 
BRANCH   6   7
HETATM    7  C12 UNL     1      18.593  -8.405  -1.310  1.00  0.00     0.030 C 
BRANCH   7   8
HETATM    8  C11 UNL     1      17.523  -7.443  -1.649  1.00  0.00     0.275 C 
BRANCH   8   9
HETATM    9  N1  UNL     1      16.811  -6.947  -0.513  1.00  0.00     0.116 N 
HETATM   10  C10 UNL     1      15.555  -7.596  -0.307  1.00  0.00     0.319 C 
HETATM   11  C7  UNL     1      15.227  -8.017   1.046  1.00  0.00     0.039 A 
HETATM   12  C6  UNL     1      16.204  -8.118   2.000  1.00  0.00     0.082 A 
HETATM   13  C8  UNL     1      13.915  -8.331   1.426  1.00  0.00     0.110 A 
HETATM   14  C5  UNL     1      15.881  -8.514   3.281  1.00  0.00     0.048 A 
HETATM   15  O3  UNL     1      17.489  -7.801   1.591  1.00  0.00    -0.321 OA
HETATM   16  C4  UNL     1      14.600  -8.828   3.676  1.00  0.00    -0.016 A 
HETATM   17  C9  UNL     1      13.620  -8.726   2.716  1.00  0.00     0.106 A 
HETATM   18  C18 UNL     1      17.611  -6.744   0.615  1.00  0.00     0.447 C 
BRANCH  16  19
HETATM   19  C2  UNL     1      14.281  -9.254   5.056  1.00  0.00     0.013 C 
HETATM   20  C1  UNL     1      15.137  -8.518   6.063  1.00  0.00     0.015 C 
HETATM   21  C3  UNL     1      14.546 -10.728   5.271  1.00  0.00     0.015 C 
ENDBRANCH  16  19
BRANCH  17  22
HETATM   22  O2  UNL     1      12.298  -9.022   3.024  1.00  0.00    -0.357 OA
ATOM     23  H2  UNL     1      11.608  -8.859   2.392  1.00  0.00     0.217 HD
ENDBRANCH  17  22
BRANCH  13  24
HETATM   24  O1  UNL     1      12.906  -8.239   0.478  1.00  0.00    -0.357 OA
ATOM     25  H1  UNL     1      12.467  -7.406   0.357  1.00  0.00     0.217 HD
ENDBRANCH  13  24
ENDBRANCH   8   9
ENDBRANCH   7   8
ENDBRANCH   6   7
ENDBRANCH   5   6
ENDBRANCH   4   5
ENDBRANCH   1   4
TORSDOF 9
ENDMDL
MODEL 3
REMARK VINA RESULT: -6.453346757      3.925      7.702
REMARK  9 active torsions:
REMARK  status: ('A' for Active; 'I' for Inactive)
REMARK    1  A    between atoms: C2_2  and  C4_4 
REMARK    2  A    between atoms: C8_8  and  O1_9 
REMARK    3  A    between atoms: C9_11  and  O2_12 
REMARK    4  A    between atoms: N1_15  and  C11_16 
REMARK    5  A    between atoms: C11_16  and  C12_17 
REMARK    6  A    between atoms: C12_17  and  C13_18 
REMARK    7  A    between atoms: C13_18  and  C14_19 
REMARK    8  A    between atoms: C14_19  and  C15_20 
REMARK    9  A    between atoms: C15_20  and  C16_21 
ROOT
HETATM    1  C16 UNL     1      21.309  -5.303   1.336  1.00  0.00     0.124 C 
HETATM    2  C17 UNL     1      22.590  -4.586   1.187  1.00  0.00     0.059 C 
HETATM    3  N2  UNL     1      23.580  -4.009   1.073  1.00  0.00    -0.197 NA
ENDROOT
BRANCH   1   4
HETATM    4  C15 UNL     1      20.975  -6.014   0.066  1.00  0.00     0.014 C 
BRANCH   4   5
HETATM    5  C14 UNL     1      22.028  -7.049  -0.241  1.00  0.00     0.001 C 
BRANCH   5   6
HETATM    6  C13 UNL     1      22.015  -7.436  -1.688  1.00  0.00     0.002 C 
BRANCH   6   7
HETATM    7  C12 UNL     1      20.687  -7.071  -2.343  1.00  0.00     0.030 C 
BRANCH   7   8
HETATM    8  C11 UNL     1      19.915  -8.257  -2.770  1.00  0.00     0.275 C 
BRANCH   8   9
HETATM    9  N1  UNL     1      18.538  -8.219  -2.388  1.00  0.00     0.116 N 
HETATM   10  C10 UNL     1      18.347  -7.964  -0.995  1.00  0.00     0.319 C 
HETATM   11  C7  UNL     1      17.343  -6.979  -0.621  1.00  0.00     0.039 A 
HETATM   12  C6  UNL     1      16.867  -6.086  -1.542  1.00  0.00     0.082 A 
HETATM   13  C8  UNL     1      16.829  -6.905   0.681  1.00  0.00     0.110 A 
HETATM   14  C5  UNL     1      15.914  -5.159  -1.178  1.00  0.00     0.048 A 
HETATM   15  O3  UNL     1      17.398  -6.186  -2.819  1.00  0.00    -0.321 OA
HETATM   16  C4  UNL     1      15.394  -5.067   0.094  1.00  0.00    -0.016 A 
HETATM   17  C9  UNL     1      15.874  -5.965   1.019  1.00  0.00     0.106 A 
HETATM   18  C18 UNL     1      17.721  -7.517  -3.278  1.00  0.00     0.447 C 
BRANCH  16  19
HETATM   19  C2  UNL     1      14.374  -4.061   0.460  1.00  0.00     0.013 C 
HETATM   20  C1  UNL     1      13.197  -4.111  -0.489  1.00  0.00     0.015 C 
HETATM   21  C3  UNL     1      14.916  -2.650   0.389  1.00  0.00     0.015 C 
ENDBRANCH  16  19
BRANCH  17  22
HETATM   22  O2  UNL     1      15.408  -5.948   2.327  1.00  0.00    -0.357 OA
ATOM     23  H2  UNL     1      14.773  -5.298   2.604  1.00  0.00     0.217 HD
ENDBRANCH  17  22
BRANCH  13  24
HETATM   24  O1  UNL     1      17.297  -7.797   1.635  1.00  0.00    -0.357 OA
ATOM     25  H1  UNL     1      16.949  -8.681   1.643  1.00  0.00     0.217 HD
ENDBRANCH  13  24
ENDBRANCH   8   9
ENDBRANCH   7   8
ENDBRANCH   6   7
ENDBRANCH   5   6
ENDBRANCH   4   5
ENDBRANCH   1   4
TORSDOF 9
ENDMDL
MODEL 4
REMARK VINA RESULT: -6.446997262      1.237      1.513
REMARK  9 active torsions:
REMARK  status: ('A' for Active; 'I' for Inactive)
REMARK    1  A    between atoms: C2_2  and  C4_4 
REMARK    2  A    between atoms: C8_8  and  O1_9 
REMARK    3  A    between atoms: C9_11  and  O2_12 
REMARK    4  A    between atoms: N1_15  and  C11_16 
REMARK    5  A    between atoms: C11_16  and  C12_17 
REMARK    6  A    between atoms: C12_17  and  C13_18 
REMARK    7  A    between atoms: C13_18  and  C14_19 
REMARK    8  A    between atoms: C14_19  and  C15_20 
REMARK    9  A    between atoms: C15_20  and  C16_21 
ROOT
HETATM    1  C16 UNL     1      15.441  -8.349   3.970  1.00  0.00     0.124 C 
HETATM    2  C17 UNL     1      15.370  -8.317   5.444  1.00  0.00     0.059 C 
HETATM    3  N2  UNL     1      15.296  -8.285   6.592  1.00  0.00    -0.197 NA
ENDROOT
BRANCH   1   4
HETATM    4  C15 UNL     1      16.535  -7.449   3.496  1.00  0.00     0.014 C 
BRANCH   4   5
HETATM    5  C14 UNL     1      16.133  -6.778   2.207  1.00  0.00     0.001 C 
BRANCH   5   6
HETATM    6  C13 UNL     1      15.179  -7.623   1.421  1.00  0.00     0.002 C 
BRANCH   6   7
HETATM    7  C12 UNL     1      15.660  -7.803  -0.016  1.00  0.00     0.030 C 
BRANCH   7   8
HETATM    8  C11 UNL     1      17.058  -8.274  -0.097  1.00  0.00     0.275 C 
BRANCH   8   9
HETATM    9  N1  UNL     1      17.943  -7.352  -0.735  1.00  0.00     0.116 N 
HETATM   10  C10 UNL     1      19.042  -6.961   0.092  1.00  0.00     0.319 C 
HETATM   11  C7  UNL     1      20.368  -6.955  -0.507  1.00  0.00     0.039 A 
HETATM   12  C6  UNL     1      20.607  -7.626  -1.676  1.00  0.00     0.082 A 
HETATM   13  C8  UNL     1      21.441  -6.269   0.080  1.00  0.00     0.110 A 
HETATM   14  C5  UNL     1      21.867  -7.611  -2.236  1.00  0.00     0.048 A 
HETATM   15  O3  UNL     1      19.526  -8.293  -2.228  1.00  0.00    -0.321 OA
HETATM   16  C4  UNL     1      22.936  -6.945  -1.678  1.00  0.00    -0.016 A 
HETATM   17  C9  UNL     1      22.693  -6.271  -0.504  1.00  0.00     0.106 A 
HETATM   18  C18 UNL     1      18.234  -7.668  -2.065  1.00  0.00     0.447 C 
BRANCH  16  19
HETATM   19  C2  UNL     1      24.279  -6.947  -2.298  1.00  0.00     0.013 C 
HETATM   20  C1  UNL     1      24.325  -6.024  -3.497  1.00  0.00     0.015 C 
HETATM   21  C3  UNL     1      24.669  -8.318  -2.803  1.00  0.00     0.015 C 
ENDBRANCH  16  19
BRANCH  17  22
HETATM   22  O2  UNL     1      23.711  -5.571   0.131  1.00  0.00    -0.357 OA
ATOM     23  H2  UNL     1      24.253  -5.995   0.785  1.00  0.00     0.217 HD
ENDBRANCH  17  22
BRANCH  13  24
HETATM   24  O1  UNL     1      21.225  -5.583   1.266  1.00  0.00    -0.357 OA
ATOM     25  H1  UNL     1      20.877  -6.058   2.011  1.00  0.00     0.217 HD
ENDBRANCH  13  24
ENDBRANCH   8   9
ENDBRANCH   7   8
ENDBRANCH   6   7
ENDBRANCH   5   6
ENDBRANCH   4   5
ENDBRANCH   1   4
TORSDOF 9
ENDMDL
MODEL 5
REMARK VINA RESULT: -6.371726642      3.054      7.841
REMARK  9 active torsions:
REMARK  status: ('A' for Active; 'I' for Inactive)
REMARK    1  A    between atoms: C2_2  and  C4_4 
REMARK    2  A    between atoms: C8_8  and  O1_9 
REMARK    3  A    between atoms: C9_11  and  O2_12 
REMARK    4  A    between atoms: N1_15  and  C11_16 
REMARK    5  A    between atoms: C11_16  and  C12_17 
REMARK    6  A    between atoms: C12_17  and  C13_18 
REMARK    7  A    between atoms: C13_18  and  C14_19 
REMARK    8  A    between atoms: C14_19  and  C15_20 
REMARK    9  A    between atoms: C15_20  and  C16_21 
ROOT
HETATM    1  C16 UNL     1      22.787  -5.706   0.399  1.00  0.00     0.124 C 
HETATM    2  C17 UNL     1      21.890  -5.290   1.494  1.00  0.00     0.059 C 
HETATM    3  N2  UNL     1      21.204  -4.970   2.361  1.00  0.00    -0.197 NA
ENDROOT
BRANCH   1   4
HETATM    4  C15 UNL     1      22.166  -6.830  -0.366  1.00  0.00     0.014 C 
BRANCH   4   5
HETATM    5  C14 UNL     1      22.934  -7.077  -1.640  1.00  0.00     0.001 C 
BRANCH   5   6
HETATM    6  C13 UNL     1      22.038  -7.561  -2.738  1.00  0.00     0.002 C 
BRANCH   6   7
HETATM    7  C12 UNL     1      20.597  -7.115  -2.509  1.00  0.00     0.030 C 
BRANCH   7   8
HETATM    8  C11 UNL     1      19.618  -8.197  -2.746  1.00  0.00     0.275 C 
BRANCH   8   9
HETATM    9  N1  UNL     1      19.026  -8.713  -1.552  1.00  0.00     0.116 N 
HETATM   10  C10 UNL     1      18.869  -7.726  -0.529  1.00  0.00     0.319 C 
HETATM   11  C7  UNL     1      17.593  -7.675   0.167  1.00  0.00     0.039 A 
HETATM   12  C6  UNL     1      16.486  -8.283  -0.361  1.00  0.00     0.082 A 
HETATM   13  C8  UNL     1      17.446  -7.011   1.393  1.00  0.00     0.110 A 
HETATM   14  C5  UNL     1      15.282  -8.231   0.310  1.00  0.00     0.048 A 
HETATM   15  O3  UNL     1      16.666  -8.929  -1.573  1.00  0.00    -0.321 OA
HETATM   16  C4  UNL     1      15.114  -7.585   1.514  1.00  0.00    -0.016 A 
HETATM   17  C9  UNL     1      16.227  -6.974   2.043  1.00  0.00     0.106 A 
HETATM   18  C18 UNL     1      17.945  -9.569  -1.777  1.00  0.00     0.447 C 
BRANCH  16  19
HETATM   19  C2  UNL     1      13.811  -7.541   2.212  1.00  0.00     0.013 C 
HETATM   20  C1  UNL     1      13.409  -8.916   2.699  1.00  0.00     0.015 C 
HETATM   21  C3  UNL     1      12.696  -7.070   1.305  1.00  0.00     0.015 C 
ENDBRANCH  16  19
BRANCH  17  22
HETATM   22  O2  UNL     1      16.153  -6.299   3.255  1.00  0.00    -0.357 OA
ATOM     23  H2  UNL     1      16.857  -6.365   3.889  1.00  0.00     0.217 HD
ENDBRANCH  17  22
BRANCH  13  24
HETATM   24  O1  UNL     1      18.551  -6.384   1.949  1.00  0.00    -0.357 OA
ATOM     25  H1  UNL     1      18.412  -5.675   2.565  1.00  0.00     0.217 HD
ENDBRANCH  13  24
ENDBRANCH   8   9
ENDBRANCH   7   8
ENDBRANCH   6   7
ENDBRANCH   5   6
ENDBRANCH   4   5
ENDBRANCH   1   4
TORSDOF 9
ENDMDL
