MODEL 1
REMARK VINA RESULT: -6.711664079      0.000      0.000
REMARK  4 active torsions:
REMARK  status: ('A' for Active; 'I' for Inactive)
REMARK    1  A    between atoms: C7_10  and  C8_11 
REMARK    2  A    between atoms: C8_11  and  O2_12 
REMARK    3  A    between atoms: O2_12  and  C9_13 
REMARK    4  A    between atoms: C9_13  and  C10_14 
ROOT
HETATM    1  O1  UNL     1      14.377 -15.043   9.676  1.00  0.00    -0.273 OA
HETATM    2  C1  UNL     1      13.205 -15.426   9.433  1.00  0.00     0.222 C 
HETATM    3  N1  UNL     1      12.674 -16.661   9.961  1.00  0.00    -0.360 N 
ATOM      4  H1  UNL     1      13.138 -17.256  10.648  1.00  0.00     0.162 HD
HETATM    5  C2  UNL     1      11.376 -16.924   9.365  1.00  0.00     0.128 C 
HETATM    6  C3  UNL     1      11.485 -16.132   8.081  1.00  0.00     0.017 C 
HETATM    7  C4  UNL     1      10.181 -15.719   7.498  1.00  0.00     0.007 C 
HETATM    8  C5  UNL     1      10.513 -14.794   6.320  1.00  0.00     0.001 C 
HETATM    9  C6  UNL     1      11.260 -13.592   6.778  1.00  0.00     0.007 C 
HETATM   10  C7  UNL     1      12.509 -13.905   7.571  1.00  0.00     0.023 C 
HETATM   11  C14 UNL     1      12.120 -14.854   8.650  1.00  0.00     0.089 C 
ENDROOT
BRANCH  10  12
HETATM   12  C8  UNL     1      13.571 -14.385   6.659  1.00  0.00     0.173 C 
BRANCH  12  13
HETATM   13  O2  UNL     1      14.683 -13.569   6.701  1.00  0.00    -0.389 OA
BRANCH  13  14
HETATM   14  C9  UNL     1      15.192 -13.194   5.480  1.00  0.00     0.200 C 
BRANCH  14  15
HETATM   15  C10 UNL     1      15.298 -11.668   5.394  1.00  0.00     0.212 C 
HETATM   16  C11 UNL     1      13.885 -11.094   5.289  1.00  0.00     0.074 C 
HETATM   17  C12 UNL     1      13.931 -10.091   4.159  1.00  0.00     0.197 C 
HETATM   18  F1  UNL     1      13.562  -8.848   4.635  1.00  0.00    -0.248 F 
HETATM   19  C13 UNL     1      15.374 -10.059   3.730  1.00  0.00     0.269 C 
HETATM   20  N2  UNL     1      15.962 -11.309   4.176  1.00  0.00    -0.066 N 
ATOM     21  H22 UNL     1      16.976 -11.265   4.269  1.00  0.00     0.277 HD
ATOM     22  H21 UNL     1      15.929 -12.044   3.469  1.00  0.00     0.277 HD
ENDBRANCH  14  15
ENDBRANCH  13  14
ENDBRANCH  12  13
ENDBRANCH  10  12
TORSDOF 4
ENDMDL
MODEL 2
REMARK VINA RESULT: -6.555409057      2.061      3.219
REMARK  4 active torsions:
REMARK  status: ('A' for Active; 'I' for Inactive)
REMARK    1  A    between atoms: C7_10  and  C8_11 
REMARK    2  A    between atoms: C8_11  and  O2_12 
REMARK    3  A    between atoms: O2_12  and  C9_13 
REMARK    4  A    between atoms: C9_13  and  C10_14 
ROOT
HETATM    1  O1  UNL     1      11.368 -13.981   6.493  1.00  0.00    -0.273 OA
HETATM    2  C1  UNL     1      12.110 -14.199   7.484  1.00  0.00     0.222 C 
HETATM    3  N1  UNL     1      11.598 -14.248   8.833  1.00  0.00    -0.360 N 
ATOM      4  H1  UNL     1      10.610 -14.229   9.090  1.00  0.00     0.162 HD
HETATM    5  C2  UNL     1      12.705 -14.329   9.769  1.00  0.00     0.128 C 
HETATM    6  C3  UNL     1      13.822 -13.727   8.945  1.00  0.00     0.017 C 
HETATM    7  C4  UNL     1      15.187 -14.147   9.356  1.00  0.00     0.007 C 
HETATM    8  C5  UNL     1      16.145 -13.577   8.302  1.00  0.00     0.001 C 
HETATM    9  C6  UNL     1      15.840 -14.121   6.952  1.00  0.00     0.007 C 
HETATM   10  C7  UNL     1      14.404 -13.928   6.518  1.00  0.00     0.023 C 
HETATM   11  C14 UNL     1      13.539 -14.443   7.615  1.00  0.00     0.089 C 
ENDROOT
BRANCH  10  12
HETATM   12  C8  UNL     1      14.180 -12.513   6.148  1.00  0.00     0.173 C 
BRANCH  12  13
HETATM   13  O2  UNL     1      15.294 -11.963   5.548  1.00  0.00    -0.389 OA
BRANCH  13  14
HETATM   14  C9  UNL     1      15.131 -11.563   4.243  1.00  0.00     0.200 C 
BRANCH  14  15
HETATM   15  C10 UNL     1      14.964 -10.042   4.169  1.00  0.00     0.212 C 
HETATM   16  C11 UNL     1      13.850  -9.729   3.171  1.00  0.00     0.074 C 
HETATM   17  C12 UNL     1      14.393  -8.640   2.274  1.00  0.00     0.197 C 
HETATM   18  F1  UNL     1      13.572  -7.532   2.352  1.00  0.00    -0.248 F 
HETATM   19  C13 UNL     1      15.745  -8.307   2.847  1.00  0.00     0.269 C 
HETATM   20  N2  UNL     1      16.156  -9.463   3.624  1.00  0.00    -0.066 N 
ATOM     21  H22 UNL     1      16.856  -9.242   4.332  1.00  0.00     0.277 HD
ATOM     22  H21 UNL     1      16.718 -10.126   3.090  1.00  0.00     0.277 HD
ENDBRANCH  14  15
ENDBRANCH  13  14
ENDBRANCH  12  13
ENDBRANCH  10  12
TORSDOF 4
ENDMDL
MODEL 3
REMARK VINA RESULT: -6.188406743      0.943      1.178
REMARK  4 active torsions:
REMARK  status: ('A' for Active; 'I' for Inactive)
REMARK    1  A    between atoms: C7_10  and  C8_11 
REMARK    2  A    between atoms: C8_11  and  O2_12 
REMARK    3  A    between atoms: O2_12  and  C9_13 
REMARK    4  A    between atoms: C9_13  and  C10_14 
ROOT
HETATM    1  O1  UNL     1      14.986 -13.767   9.736  1.00  0.00    -0.273 OA
HETATM    2  C1  UNL     1      14.062 -14.600   9.914  1.00  0.00     0.222 C 
HETATM    3  N1  UNL     1      14.207 -15.734  10.797  1.00  0.00    -0.360 N 
ATOM      4  H1  UNL     1      14.996 -15.895  11.424  1.00  0.00     0.162 HD
HETATM    5  C2  UNL     1      13.057 -16.608  10.655  1.00  0.00     0.128 C 
HETATM    6  C3  UNL     1      12.585 -16.239   9.266  1.00  0.00     0.017 C 
HETATM    7  C4  UNL     1      11.147 -16.512   9.010  1.00  0.00     0.007 C 
HETATM    8  C5  UNL     1      10.836 -15.913   7.632  1.00  0.00     0.001 C 
HETATM    9  C6  UNL     1      11.076 -14.445   7.622  1.00  0.00     0.007 C 
HETATM   10  C7  UNL     1      12.462 -14.042   8.072  1.00  0.00     0.023 C 
HETATM   11  C14 UNL     1      12.714 -14.712   9.377  1.00  0.00     0.089 C 
ENDROOT
BRANCH  10  12
HETATM   12  C8  UNL     1      13.441 -14.347   7.005  1.00  0.00     0.173 C 
BRANCH  12  13
HETATM   13  O2  UNL     1      13.683 -13.247   6.208  1.00  0.00    -0.389 OA
BRANCH  13  14
HETATM   14  C9  UNL     1      14.998 -13.038   5.866  1.00  0.00     0.200 C 
BRANCH  14  15
HETATM   15  C10 UNL     1      15.228 -11.566   5.511  1.00  0.00     0.212 C 
HETATM   16  C11 UNL     1      13.866 -10.896   5.332  1.00  0.00     0.074 C 
HETATM   17  C12 UNL     1      13.958 -10.112   4.043  1.00  0.00     0.197 C 
HETATM   18  F1  UNL     1      13.710  -8.778   4.300  1.00  0.00    -0.248 F 
HETATM   19  C13 UNL     1      15.383 -10.283   3.589  1.00  0.00     0.269 C 
HETATM   20  N2  UNL     1      15.879 -11.483   4.237  1.00  0.00    -0.066 N 
ATOM     21  H22 UNL     1      16.897 -11.513   4.303  1.00  0.00     0.277 HD
ATOM     22  H21 UNL     1      15.762 -12.323   3.671  1.00  0.00     0.277 HD
ENDBRANCH  14  15
ENDBRANCH  13  14
ENDBRANCH  12  13
ENDBRANCH  10  12
TORSDOF 4
ENDMDL
MODEL 4
REMARK VINA RESULT: -6.119611998      2.264      3.473
REMARK  4 active torsions:
REMARK  status: ('A' for Active; 'I' for Inactive)
REMARK    1  A    between atoms: C7_10  and  C8_11 
REMARK    2  A    between atoms: C8_11  and  O2_12 
REMARK    3  A    between atoms: O2_12  and  C9_13 
REMARK    4  A    between atoms: C9_13  and  C10_14 
ROOT
HETATM    1  O1  UNL     1      11.405 -13.863   6.444  1.00  0.00    -0.273 OA
HETATM    2  C1  UNL     1      12.154 -14.105   7.423  1.00  0.00     0.222 C 
HETATM    3  N1  UNL     1      11.653 -14.186   8.775  1.00  0.00    -0.360 N 
ATOM      4  H1  UNL     1      10.667 -14.172   9.039  1.00  0.00     0.162 HD
HETATM    5  C2  UNL     1      12.767 -14.291   9.700  1.00  0.00     0.128 C 
HETATM    6  C3  UNL     1      13.878 -13.672   8.881  1.00  0.00     0.017 C 
HETATM    7  C4  UNL     1      15.246 -14.103   9.271  1.00  0.00     0.007 C 
HETATM    8  C5  UNL     1      16.197 -13.509   8.223  1.00  0.00     0.001 C 
HETATM    9  C6  UNL     1      15.879 -14.020   6.863  1.00  0.00     0.007 C 
HETATM   10  C7  UNL     1      14.441 -13.814   6.446  1.00  0.00     0.023 C 
HETATM   11  C14 UNL     1      13.584 -14.355   7.537  1.00  0.00     0.089 C 
ENDROOT
BRANCH  10  12
HETATM   12  C8  UNL     1      14.216 -12.391   6.112  1.00  0.00     0.173 C 
BRANCH  12  13
HETATM   13  O2  UNL     1      15.190 -11.909   5.261  1.00  0.00    -0.389 OA
BRANCH  13  14
HETATM   14  C9  UNL     1      15.051 -10.596   4.880  1.00  0.00     0.200 C 
BRANCH  14  15
HETATM   15  C10 UNL     1      13.692 -10.377   4.210  1.00  0.00     0.212 C 
HETATM   16  C11 UNL     1      13.930 -10.064   2.732  1.00  0.00     0.074 C 
HETATM   17  C12 UNL     1      13.075  -8.856   2.424  1.00  0.00     0.197 C 
HETATM   18  F1  UNL     1      12.189  -9.169   1.413  1.00  0.00    -0.248 F 
HETATM   19  C13 UNL     1      12.316  -8.586   3.696  1.00  0.00     0.269 C 
HETATM   20  N2  UNL     1      13.073  -9.210   4.766  1.00  0.00    -0.066 N 
ATOM     21  H22 UNL     1      12.510  -9.409   5.593  1.00  0.00     0.277 HD
ATOM     22  H21 UNL     1      13.737  -8.577   5.211  1.00  0.00     0.277 HD
ENDBRANCH  14  15
ENDBRANCH  13  14
ENDBRANCH  12  13
ENDBRANCH  10  12
TORSDOF 4
ENDMDL
MODEL 5
REMARK VINA RESULT: -6.110827346      1.149      1.269
REMARK  4 active torsions:
REMARK  status: ('A' for Active; 'I' for Inactive)
REMARK    1  A    between atoms: C7_10  and  C8_11 
REMARK    2  A    between atoms: C8_11  and  O2_12 
REMARK    3  A    between atoms: O2_12  and  C9_13 
REMARK    4  A    between atoms: C9_13  and  C10_14 
ROOT
HETATM    1  O1  UNL     1      14.879 -13.762   9.667  1.00  0.00    -0.273 OA
HETATM    2  C1  UNL     1      13.840 -14.451   9.512  1.00  0.00     0.222 C 
HETATM    3  N1  UNL     1      13.595 -15.657  10.268  1.00  0.00    -0.360 N 
ATOM      4  H1  UNL     1      14.163 -15.987  11.049  1.00  0.00     0.162 HD
HETATM    5  C2  UNL     1      12.418 -16.326   9.744  1.00  0.00     0.128 C 
HETATM    6  C3  UNL     1      12.382 -15.783   8.333  1.00  0.00     0.017 C 
HETATM    7  C4  UNL     1      11.040 -15.807   7.697  1.00  0.00     0.007 C 
HETATM    8  C5  UNL     1      11.185 -15.063   6.363  1.00  0.00     0.001 C 
HETATM    9  C6  UNL     1      11.611 -13.655   6.580  1.00  0.00     0.007 C 
HETATM   10  C7  UNL     1      12.871 -13.510   7.404  1.00  0.00     0.023 C 
HETATM   11  C14 UNL     1      12.678 -14.308   8.646  1.00  0.00     0.089 C 
ENDROOT
BRANCH  10  12
HETATM   12  C8  UNL     1      14.047 -13.883   6.589  1.00  0.00     0.173 C 
BRANCH  12  13
HETATM   13  O2  UNL     1      14.951 -12.844   6.495  1.00  0.00    -0.389 OA
BRANCH  13  14
HETATM   14  C9  UNL     1      15.137 -12.329   5.235  1.00  0.00     0.200 C 
BRANCH  14  15
HETATM   15  C10 UNL     1      14.488 -10.946   5.124  1.00  0.00     0.212 C 
HETATM   16  C11 UNL     1      14.484 -10.533   3.652  1.00  0.00     0.074 C 
HETATM   17  C12 UNL     1      15.001  -9.113   3.620  1.00  0.00     0.197 C 
HETATM   18  F1  UNL     1      14.049  -8.293   3.048  1.00  0.00    -0.248 F 
HETATM   19  C13 UNL     1      15.186  -8.738   5.067  1.00  0.00     0.269 C 
HETATM   20  N2  UNL     1      15.307  -9.984   5.801  1.00  0.00    -0.066 N 
ATOM     21  H22 UNL     1      15.081  -9.890   6.791  1.00  0.00     0.277 HD
ATOM     22  H21 UNL     1      16.273 -10.290   5.918  1.00  0.00     0.277 HD
ENDBRANCH  14  15
ENDBRANCH  13  14
ENDBRANCH  12  13
ENDBRANCH  10  12
TORSDOF 4
ENDMDL
