MODEL 1
REMARK VINA RESULT: -5.340954015      0.000      0.000
REMARK  8 active torsions:
REMARK  status: ('A' for Active; 'I' for Inactive)
REMARK    1  A    between atoms: C2_2  and  C3_3 
REMARK    2  A    between atoms: C3_3  and  C4_4 
REMARK    3  A    between atoms: C4_4  and  N1_5 
REMARK    4  A    between atoms: N1_5  and  C5_7 
REMARK    5  A    between atoms: C5_7  and  N2_8 
REMARK    6  A    between atoms: C5_7  and  S1_17 
REMARK    7  A    between atoms: N2_8  and  N3_10 
REMARK    8  A    between atoms: S1_17  and  C11_18 
ROOT
HETATM    1  C5  UNL     1      13.730 -14.732  10.024  1.00  0.00     0.156 C 
ENDROOT
BRANCH   1   2
HETATM    2  N1  UNL     1      14.920 -13.979   9.804  1.00  0.00    -0.370 N 
ATOM      3  H1  UNL     1      15.172 -13.235  10.455  1.00  0.00     0.161 HD
BRANCH   2   4
HETATM    4  C4  UNL     1      15.775 -14.255   8.673  1.00  0.00     0.121 C 
BRANCH   4   5
HETATM    5  C3  UNL     1      16.209 -12.966   8.049  1.00  0.00     0.019 C 
BRANCH   5   6
HETATM    6  C2  UNL     1      15.858 -12.914   6.567  1.00  0.00    -0.003 C 
HETATM    7  C1  UNL     1      15.679 -14.305   6.024  1.00  0.00     0.005 C 
ENDBRANCH   5   6
ENDBRANCH   4   5
ENDBRANCH   2   4
ENDBRANCH   1   2
BRANCH   1   8
HETATM    8  N2  UNL     1      12.501 -14.412   9.339  1.00  0.00    -0.275 N 
ATOM      9  H2  UNL     1      11.720 -14.073   9.900  1.00  0.00     0.189 HD
BRANCH   8  10
HETATM   10  N3  UNL     1      12.313 -14.532   8.010  1.00  0.00    -0.281 N 
HETATM   11  C6  UNL     1      12.143 -13.392   7.221  1.00  0.00     0.118 C 
HETATM   12  C7  UNL     1      10.782 -13.435   6.559  1.00  0.00     0.319 C 
HETATM   13  N4  UNL     1      10.487 -14.721   5.990  1.00  0.00     0.093 N 
HETATM   14  C8  UNL     1       9.212 -14.695   5.358  1.00  0.00     0.310 C 
HETATM   15  C9  UNL     1      10.636 -15.812   6.919  1.00  0.00     0.319 C 
HETATM   16  C10 UNL     1      12.057 -15.789   7.455  1.00  0.00     0.118 C 
ENDBRANCH   8  10
ENDBRANCH   1   8
BRANCH   1  17
HETATM   17  S1  UNL     1      13.710 -15.985  11.058  1.00  0.00    -0.078 SA
BRANCH  17  18
HETATM   18  C11 UNL     1      12.777 -17.483  10.592  1.00  0.00     0.197 C 
HETATM   19 CL1  UNL     1      11.276 -17.489  11.562  1.00  0.00    -0.119 Cl
ENDBRANCH  17  18
ENDBRANCH   1  17
TORSDOF 8
ENDMDL
MODEL 2
REMARK VINA RESULT: -5.138159253      2.486      4.066
REMARK  8 active torsions:
REMARK  status: ('A' for Active; 'I' for Inactive)
REMARK    1  A    between atoms: C2_2  and  C3_3 
REMARK    2  A    between atoms: C3_3  and  C4_4 
REMARK    3  A    between atoms: C4_4  and  N1_5 
REMARK    4  A    between atoms: N1_5  and  C5_7 
REMARK    5  A    between atoms: C5_7  and  N2_8 
REMARK    6  A    between atoms: C5_7  and  S1_17 
REMARK    7  A    between atoms: N2_8  and  N3_10 
REMARK    8  A    between atoms: S1_17  and  C11_18 
ROOT
HETATM    1  C5  UNL     1      14.514 -14.343   9.401  1.00  0.00     0.156 C 
ENDROOT
BRANCH   1   2
HETATM    2  N1  UNL     1      14.802 -15.194  10.508  1.00  0.00    -0.370 N 
ATOM      3  H1  UNL     1      15.503 -14.909  11.192  1.00  0.00     0.161 HD
BRANCH   2   4
HETATM    4  C4  UNL     1      14.114 -16.453  10.675  1.00  0.00     0.121 C 
BRANCH   4   5
HETATM    5  C3  UNL     1      13.163 -16.354  11.825  1.00  0.00     0.019 C 
BRANCH   5   6
HETATM    6  C2  UNL     1      11.966 -17.280  11.644  1.00  0.00    -0.003 C 
HETATM    7  C1  UNL     1      11.662 -17.460  10.182  1.00  0.00     0.005 C 
ENDBRANCH   5   6
ENDBRANCH   4   5
ENDBRANCH   2   4
ENDBRANCH   1   2
BRANCH   1   8
HETATM    8  N2  UNL     1      13.161 -14.124   8.953  1.00  0.00    -0.275 N 
ATOM      9  H2  UNL     1      12.466 -13.861   9.652  1.00  0.00     0.189 HD
BRANCH   8  10
HETATM   10  N3  UNL     1      12.750 -14.243   7.674  1.00  0.00    -0.281 N 
HETATM   11  C6  UNL     1      12.256 -13.130   6.991  1.00  0.00     0.118 C 
HETATM   12  C7  UNL     1      10.820 -13.384   6.583  1.00  0.00     0.319 C 
HETATM   13  N4  UNL     1      10.633 -14.687   6.009  1.00  0.00     0.093 N 
HETATM   14  C8  UNL     1       9.274 -14.860   5.620  1.00  0.00     0.310 C 
HETATM   15  C9  UNL     1      11.124 -15.760   6.837  1.00  0.00     0.319 C 
HETATM   16  C10 UNL     1      12.599 -15.512   7.109  1.00  0.00     0.118 C 
ENDBRANCH   8  10
ENDBRANCH   1   8
BRANCH   1  17
HETATM   17  S1  UNL     1      15.704 -13.582   8.598  1.00  0.00    -0.078 SA
BRANCH  17  18
HETATM   18  C11 UNL     1      16.063 -14.095   6.883  1.00  0.00     0.197 C 
HETATM   19 CL1  UNL     1      15.585 -12.742   5.819  1.00  0.00    -0.119 Cl
ENDBRANCH  17  18
ENDBRANCH   1  17
TORSDOF 8
ENDMDL
MODEL 3
REMARK VINA RESULT: -5.111146185      3.301      5.718
REMARK  8 active torsions:
REMARK  status: ('A' for Active; 'I' for Inactive)
REMARK    1  A    between atoms: C2_2  and  C3_3 
REMARK    2  A    between atoms: C3_3  and  C4_4 
REMARK    3  A    between atoms: C4_4  and  N1_5 
REMARK    4  A    between atoms: N1_5  and  C5_7 
REMARK    5  A    between atoms: C5_7  and  N2_8 
REMARK    6  A    between atoms: C5_7  and  S1_17 
REMARK    7  A    between atoms: N2_8  and  N3_10 
REMARK    8  A    between atoms: S1_17  and  C11_18 
ROOT
HETATM    1  C5  UNL     1      15.197 -14.016   7.234  1.00  0.00     0.156 C 
ENDROOT
BRANCH   1   2
HETATM    2  N1  UNL     1      14.185 -14.847   6.671  1.00  0.00    -0.370 N 
ATOM      3  H1  UNL     1      14.428 -15.781   6.339  1.00  0.00     0.161 HD
BRANCH   2   4
HETATM    4  C4  UNL     1      12.820 -14.387   6.565  1.00  0.00     0.121 C 
BRANCH   4   5
HETATM    5  C3  UNL     1      11.888 -15.546   6.725  1.00  0.00     0.019 C 
BRANCH   5   6
HETATM    6  C2  UNL     1      10.475 -15.087   7.066  1.00  0.00    -0.003 C 
HETATM    7  C1  UNL     1       9.739 -14.694   5.815  1.00  0.00     0.005 C 
ENDBRANCH   5   6
ENDBRANCH   4   5
ENDBRANCH   2   4
ENDBRANCH   1   2
BRANCH   1   8
HETATM    8  N2  UNL     1      15.897 -14.394   8.437  1.00  0.00    -0.275 N 
ATOM      9  H2  UNL     1      16.893 -14.601   8.362  1.00  0.00     0.189 HD
BRANCH   8  10
HETATM   10  N3  UNL     1      15.326 -14.493   9.655  1.00  0.00    -0.281 N 
HETATM   11  C6  UNL     1      15.787 -15.441  10.570  1.00  0.00     0.118 C 
HETATM   12  C7  UNL     1      14.668 -16.405  10.904  1.00  0.00     0.319 C 
HETATM   13  N4  UNL     1      13.425 -15.736  11.169  1.00  0.00     0.093 N 
HETATM   14  C8  UNL     1      12.419 -16.685  11.505  1.00  0.00     0.310 C 
HETATM   15  C9  UNL     1      13.021 -14.830  10.122  1.00  0.00     0.319 C 
HETATM   16  C10 UNL     1      14.133 -13.815   9.919  1.00  0.00     0.118 C 
ENDBRANCH   8  10
ENDBRANCH   1   8
BRANCH   1  17
HETATM   17  S1  UNL     1      15.606 -12.606   6.539  1.00  0.00    -0.078 SA
BRANCH  17  18
HETATM   18  C11 UNL     1      15.794 -12.552   4.723  1.00  0.00     0.197 C 
HETATM   19 CL1  UNL     1      17.333 -13.372   4.331  1.00  0.00    -0.119 Cl
ENDBRANCH  17  18
ENDBRANCH   1  17
TORSDOF 8
ENDMDL
MODEL 4
REMARK VINA RESULT: -5.092483942      1.381      4.191
REMARK  8 active torsions:
REMARK  status: ('A' for Active; 'I' for Inactive)
REMARK    1  A    between atoms: C2_2  and  C3_3 
REMARK    2  A    between atoms: C3_3  and  C4_4 
REMARK    3  A    between atoms: C4_4  and  N1_5 
REMARK    4  A    between atoms: N1_5  and  C5_7 
REMARK    5  A    between atoms: C5_7  and  N2_8 
REMARK    6  A    between atoms: C5_7  and  S1_17 
REMARK    7  A    between atoms: N2_8  and  N3_10 
REMARK    8  A    between atoms: S1_17  and  C11_18 
ROOT
HETATM    1  C5  UNL     1      13.392 -14.427   9.915  1.00  0.00     0.156 C 
ENDROOT
BRANCH   1   2
HETATM    2  N1  UNL     1      12.053 -14.053   9.603  1.00  0.00    -0.370 N 
ATOM      3  H1  UNL     1      11.396 -13.858  10.359  1.00  0.00     0.161 HD
BRANCH   2   4
HETATM    4  C4  UNL     1      11.611 -13.947   8.232  1.00  0.00     0.121 C 
BRANCH   4   5
HETATM    5  C3  UNL     1      11.123 -15.279   7.760  1.00  0.00     0.019 C 
BRANCH   5   6
HETATM    6  C2  UNL     1      10.996 -15.324   6.241  1.00  0.00    -0.003 C 
HETATM    7  C1  UNL     1       9.736 -14.631   5.803  1.00  0.00     0.005 C 
ENDBRANCH   5   6
ENDBRANCH   4   5
ENDBRANCH   2   4
ENDBRANCH   1   2
BRANCH   1   8
HETATM    8  N2  UNL     1      14.512 -13.607   9.522  1.00  0.00    -0.275 N 
ATOM      9  H2  UNL     1      14.707 -12.772  10.076  1.00  0.00     0.189 HD
BRANCH   8  10
HETATM   10  N3  UNL     1      15.320 -13.867   8.475  1.00  0.00    -0.281 N 
HETATM   11  C6  UNL     1      16.454 -13.082   8.253  1.00  0.00     0.118 C 
HETATM   12  C7  UNL     1      16.340 -12.399   6.907  1.00  0.00     0.319 C 
HETATM   13  N4  UNL     1      15.904 -13.294   5.870  1.00  0.00     0.093 N 
HETATM   14  C8  UNL     1      15.842 -12.607   4.625  1.00  0.00     0.310 C 
HETATM   15  C9  UNL     1      14.687 -13.999   6.188  1.00  0.00     0.319 C 
HETATM   16  C10 UNL     1      14.906 -14.761   7.484  1.00  0.00     0.118 C 
ENDBRANCH   8  10
ENDBRANCH   1   8
BRANCH   1  17
HETATM   17  S1  UNL     1      13.713 -15.796  10.729  1.00  0.00    -0.078 SA
BRANCH  17  18
HETATM   18  C11 UNL     1      12.735 -17.288  10.342  1.00  0.00     0.197 C 
HETATM   19 CL1  UNL     1      11.477 -17.433  11.603  1.00  0.00    -0.119 Cl
ENDBRANCH  17  18
ENDBRANCH   1  17
TORSDOF 8
ENDMDL
MODEL 5
REMARK VINA RESULT: -5.025725240      3.260      4.522
REMARK  8 active torsions:
REMARK  status: ('A' for Active; 'I' for Inactive)
REMARK    1  A    between atoms: C2_2  and  C3_3 
REMARK    2  A    between atoms: C3_3  and  C4_4 
REMARK    3  A    between atoms: C4_4  and  N1_5 
REMARK    4  A    between atoms: N1_5  and  C5_7 
REMARK    5  A    between atoms: C5_7  and  N2_8 
REMARK    6  A    between atoms: C5_7  and  S1_17 
REMARK    7  A    between atoms: N2_8  and  N3_10 
REMARK    8  A    between atoms: S1_17  and  C11_18 
ROOT
HETATM    1  C5  UNL     1      15.235 -13.957   6.979  1.00  0.00     0.156 C 
ENDROOT
BRANCH   1   2
HETATM    2  N1  UNL     1      15.806 -14.145   8.272  1.00  0.00    -0.370 N 
ATOM      3  H1  UNL     1      16.759 -14.500   8.354  1.00  0.00     0.161 HD
BRANCH   2   4
HETATM    4  C4  UNL     1      15.055 -13.841   9.467  1.00  0.00     0.121 C 
BRANCH   4   5
HETATM    5  C3  UNL     1      14.809 -15.099  10.237  1.00  0.00     0.019 C 
BRANCH   5   6
HETATM    6  C2  UNL     1      13.352 -15.219  10.667  1.00  0.00    -0.003 C 
HETATM    7  C1  UNL     1      13.135 -16.503  11.420  1.00  0.00     0.005 C 
ENDBRANCH   5   6
ENDBRANCH   4   5
ENDBRANCH   2   4
ENDBRANCH   1   2
BRANCH   1   8
HETATM    8  N2  UNL     1      13.927 -13.373   6.813  1.00  0.00    -0.275 N 
ATOM      9  H2  UNL     1      13.848 -12.358   6.886  1.00  0.00     0.189 HD
BRANCH   8  10
HETATM   10  N3  UNL     1      12.802 -14.073   6.569  1.00  0.00    -0.281 N 
HETATM   11  C6  UNL     1      11.555 -13.528   6.881  1.00  0.00     0.118 C 
HETATM   12  C7  UNL     1      10.863 -14.402   7.905  1.00  0.00     0.319 C 
HETATM   13  N4  UNL     1      10.945 -15.800   7.582  1.00  0.00     0.093 N 
HETATM   14  C8  UNL     1      10.256 -16.570   8.561  1.00  0.00     0.310 C 
HETATM   15  C9  UNL     1      12.290 -16.260   7.344  1.00  0.00     0.319 C 
HETATM   16  C10 UNL     1      12.887 -15.425   6.224  1.00  0.00     0.118 C 
ENDBRANCH   8  10
ENDBRANCH   1   8
BRANCH   1  17
HETATM   17  S1  UNL     1      16.038 -14.395   5.637  1.00  0.00    -0.078 SA
BRANCH  17  18
HETATM   18  C11 UNL     1      16.816 -13.090   4.623  1.00  0.00     0.197 C 
HETATM   19 CL1  UNL     1      15.563 -11.855   4.307  1.00  0.00    -0.119 Cl
ENDBRANCH  17  18
ENDBRANCH   1  17
TORSDOF 8
ENDMDL
