MODEL 1
REMARK VINA RESULT: -6.226068880      0.000      0.000
REMARK  4 active torsions:
REMARK  status: ('A' for Active; 'I' for Inactive)
REMARK    1  A    between atoms: C2_2  and  N1_3 
REMARK    2  A    between atoms: N1_3  and  C3_5 
REMARK    3  A    between atoms: C5_7  and  C6_8 
REMARK    4  A    between atoms: C6_8  and  N2_9 
ROOT
HETATM    1  C3  UNL     1      12.284 -15.467   7.588  1.00  0.00     0.090 C 
HETATM    2  C4  UNL     1      13.151 -14.629   6.715  1.00  0.00     0.032 C 
HETATM    3  C5  UNL     1      13.974 -13.755   7.701  1.00  0.00     0.022 C 
HETATM    4  C9  UNL     1      13.835 -14.395   9.006  1.00  0.00     0.020 C 
HETATM    5  C10 UNL     1      15.078 -14.659   9.805  1.00  0.00     0.125 C 
HETATM    6  N3  UNL     1      14.804 -15.686  10.824  1.00  0.00    -0.392 N 
ATOM      7  H3  UNL     1      15.562 -15.972  11.444  1.00  0.00     0.159 HD
HETATM    8  C11 UNL     1      13.527 -16.298  10.983  1.00  0.00     0.019 C 
HETATM    9  C12 UNL     1      13.091 -16.891  12.272  1.00  0.00     0.069 C 
HETATM   10  C13 UNL     1      12.736 -16.338   9.913  1.00  0.00     0.040 C 
HETATM   11 CL1  UNL     1      11.163 -17.078  10.064  1.00  0.00    -0.086 Cl
HETATM   12  C14 UNL     1      13.272 -15.764   8.693  1.00  0.00     0.061 C 
ENDROOT
BRANCH   1  13
HETATM   13  N1  UNL     1      11.032 -15.074   7.996  1.00  0.00    -0.397 N 
ATOM     14  H1  UNL     1      10.950 -14.656   8.923  1.00  0.00     0.159 HD
BRANCH  13  15
HETATM   15  C2  UNL     1       9.862 -15.203   7.241  1.00  0.00     0.051 C 
HETATM   16  C1  UNL     1       9.768 -14.782   5.836  1.00  0.00     0.054 C 
ENDBRANCH  13  15
ENDBRANCH   1  13
BRANCH   3  17
HETATM   17  C6  UNL     1      15.344 -13.554   7.150  1.00  0.00     0.276 C 
BRANCH  17  18
HETATM   18  N2  UNL     1      15.378 -13.276   5.762  1.00  0.00     0.080 N 
HETATM   19  C7  UNL     1      16.505 -13.805   5.054  1.00  0.00     0.309 C 
HETATM   20  C8  UNL     1      15.121 -11.886   5.445  1.00  0.00     0.309 C 
ENDBRANCH  17  18
ENDBRANCH   3  17
TORSDOF 4
ENDMDL
MODEL 2
REMARK VINA RESULT: -5.832765972      0.894      1.211
REMARK  4 active torsions:
REMARK  status: ('A' for Active; 'I' for Inactive)
REMARK    1  A    between atoms: C2_2  and  N1_3 
REMARK    2  A    between atoms: N1_3  and  C3_5 
REMARK    3  A    between atoms: C5_7  and  C6_8 
REMARK    4  A    between atoms: C6_8  and  N2_9 
ROOT
HETATM    1  C3  UNL     1      12.500 -15.634   6.991  1.00  0.00     0.090 C 
HETATM    2  C4  UNL     1      13.552 -14.935   6.202  1.00  0.00     0.032 C 
HETATM    3  C5  UNL     1      14.203 -13.945   7.207  1.00  0.00     0.022 C 
HETATM    4  C9  UNL     1      13.789 -14.398   8.532  1.00  0.00     0.020 C 
HETATM    5  C10 UNL     1      14.843 -14.566   9.588  1.00  0.00     0.125 C 
HETATM    6  N3  UNL     1      14.336 -15.439  10.660  1.00  0.00    -0.392 N 
ATOM      7  H3  UNL     1      14.948 -15.647  11.449  1.00  0.00     0.159 HD
HETATM    8  C11 UNL     1      13.030 -16.007  10.644  1.00  0.00     0.019 C 
HETATM    9  C12 UNL     1      12.329 -16.412  11.888  1.00  0.00     0.069 C 
HETATM   10  C13 UNL     1      12.459 -16.184   9.453  1.00  0.00     0.040 C 
HETATM   11 CL1  UNL     1      10.859 -16.875   9.389  1.00  0.00    -0.086 Cl
HETATM   12  C14 UNL     1      13.244 -15.789   8.298  1.00  0.00     0.061 C 
ENDROOT
BRANCH   1  13
HETATM   13  N1  UNL     1      11.209 -15.173   7.089  1.00  0.00    -0.397 N 
ATOM     14  H1  UNL     1      10.587 -15.654   7.739  1.00  0.00     0.159 HD
BRANCH  13  15
HETATM   15  C2  UNL     1      10.681 -14.098   6.368  1.00  0.00     0.051 C 
HETATM   16  C1  UNL     1      10.829 -12.699   6.798  1.00  0.00     0.054 C 
ENDBRANCH  13  15
ENDBRANCH   1  13
BRANCH   3  17
HETATM   17  C6  UNL     1      15.660 -13.839   6.915  1.00  0.00     0.276 C 
BRANCH  17  18
HETATM   18  N2  UNL     1      15.990 -12.856   5.951  1.00  0.00     0.080 N 
HETATM   19  C7  UNL     1      14.928 -11.964   5.593  1.00  0.00     0.309 C 
HETATM   20  C8  UNL     1      16.686 -13.388   4.798  1.00  0.00     0.309 C 
ENDBRANCH  17  18
ENDBRANCH   3  17
TORSDOF 4
ENDMDL
MODEL 3
REMARK VINA RESULT: -5.802792100      1.526      3.949
REMARK  4 active torsions:
REMARK  status: ('A' for Active; 'I' for Inactive)
REMARK    1  A    between atoms: C2_2  and  N1_3 
REMARK    2  A    between atoms: N1_3  and  C3_5 
REMARK    3  A    between atoms: C5_7  and  C6_8 
REMARK    4  A    between atoms: C6_8  and  N2_9 
ROOT
HETATM    1  C3  UNL     1      15.049 -14.378   9.591  1.00  0.00     0.090 C 
HETATM    2  C4  UNL     1      15.892 -13.465   8.769  1.00  0.00     0.032 C 
HETATM    3  C5  UNL     1      15.490 -13.776   7.301  1.00  0.00     0.022 C 
HETATM    4  C9  UNL     1      14.229 -14.507   7.383  1.00  0.00     0.020 C 
HETATM    5  C10 UNL     1      13.086 -14.054   6.523  1.00  0.00     0.125 C 
HETATM    6  N3  UNL     1      11.820 -14.580   7.061  1.00  0.00    -0.392 N 
ATOM      7  H3  UNL     1      10.952 -14.350   6.577  1.00  0.00     0.159 HD
HETATM    8  C11 UNL     1      11.755 -15.398   8.225  1.00  0.00     0.019 C 
HETATM    9  C12 UNL     1      10.637 -16.345   8.464  1.00  0.00     0.069 C 
HETATM   10  C13 UNL     1      12.737 -15.267   9.115  1.00  0.00     0.040 C 
HETATM   11 CL1  UNL     1      12.695 -16.251  10.556  1.00  0.00    -0.086 Cl
HETATM   12  C14 UNL     1      13.761 -14.288   8.804  1.00  0.00     0.061 C 
ENDROOT
BRANCH   1  13
HETATM   13  N1  UNL     1      15.446 -15.644   9.945  1.00  0.00    -0.397 N 
ATOM     14  H1  UNL     1      15.413 -16.365   9.224  1.00  0.00     0.159 HD
BRANCH  13  15
HETATM   15  C2  UNL     1      15.892 -16.023  11.215  1.00  0.00     0.051 C 
HETATM   16  C1  UNL     1      17.124 -16.797  11.431  1.00  0.00     0.054 C 
ENDBRANCH  13  15
ENDBRANCH   1  13
BRANCH   3  17
HETATM   17  C6  UNL     1      15.531 -12.517   6.505  1.00  0.00     0.276 C 
BRANCH  17  18
HETATM   18  N2  UNL     1      15.701 -12.714   5.113  1.00  0.00     0.080 N 
HETATM   19  C7  UNL     1      16.930 -13.340   4.725  1.00  0.00     0.309 C 
HETATM   20  C8  UNL     1      15.398 -11.539   4.322  1.00  0.00     0.309 C 
ENDBRANCH  17  18
ENDBRANCH   3  17
TORSDOF 4
ENDMDL
MODEL 4
REMARK VINA RESULT: -5.782425201      1.145      1.279
REMARK  4 active torsions:
REMARK  status: ('A' for Active; 'I' for Inactive)
REMARK    1  A    between atoms: C2_2  and  N1_3 
REMARK    2  A    between atoms: N1_3  and  C3_5 
REMARK    3  A    between atoms: C5_7  and  C6_8 
REMARK    4  A    between atoms: C6_8  and  N2_9 
ROOT
HETATM    1  C3  UNL     1      12.186 -15.394   7.418  1.00  0.00     0.090 C 
HETATM    2  C4  UNL     1      13.367 -14.628   6.933  1.00  0.00     0.032 C 
HETATM    3  C5  UNL     1      14.041 -14.087   8.225  1.00  0.00     0.022 C 
HETATM    4  C9  UNL     1      13.476 -14.868   9.321  1.00  0.00     0.020 C 
HETATM    5  C10 UNL     1      14.417 -15.486  10.314  1.00  0.00     0.125 C 
HETATM    6  N3  UNL     1      13.734 -16.574  11.034  1.00  0.00    -0.392 N 
ATOM      7  H3  UNL     1      14.255 -17.091  11.743  1.00  0.00     0.159 HD
HETATM    8  C11 UNL     1      12.379 -16.936  10.786  1.00  0.00     0.019 C 
HETATM    9  C12 UNL     1      11.541 -17.610  11.809  1.00  0.00     0.069 C 
HETATM   10  C13 UNL     1      11.889 -16.663   9.578  1.00  0.00     0.040 C 
HETATM   11 CL1  UNL     1      10.233 -17.089   9.233  1.00  0.00    -0.086 Cl
HETATM   12  C14 UNL     1      12.802 -16.037   8.639  1.00  0.00     0.061 C 
ENDROOT
BRANCH   1  13
HETATM   13  N1  UNL     1      10.950 -14.823   7.602  1.00  0.00    -0.397 N 
ATOM     14  H1  UNL     1      10.522 -14.918   8.523  1.00  0.00     0.159 HD
BRANCH  13  15
HETATM   15  C2  UNL     1      10.233 -14.122   6.627  1.00  0.00     0.051 C 
HETATM   16  C1  UNL     1       9.567 -14.784   5.496  1.00  0.00     0.054 C 
ENDBRANCH  13  15
ENDBRANCH   1  13
BRANCH   3  17
HETATM   17  C6  UNL     1      15.520 -14.085   8.041  1.00  0.00     0.276 C 
BRANCH  17  18
HETATM   18  N2  UNL     1      16.013 -12.982   7.305  1.00  0.00     0.080 N 
HETATM   19  C7  UNL     1      16.404 -13.266   5.956  1.00  0.00     0.309 C 
HETATM   20  C8  UNL     1      17.003 -12.204   8.022  1.00  0.00     0.309 C 
ENDBRANCH  17  18
ENDBRANCH   3  17
TORSDOF 4
ENDMDL
MODEL 5
REMARK VINA RESULT: -5.192918067      1.718      3.959
REMARK  4 active torsions:
REMARK  status: ('A' for Active; 'I' for Inactive)
REMARK    1  A    between atoms: C2_2  and  N1_3 
REMARK    2  A    between atoms: N1_3  and  C3_5 
REMARK    3  A    between atoms: C5_7  and  C6_8 
REMARK    4  A    between atoms: C6_8  and  N2_9 
ROOT
HETATM    1  C3  UNL     1      12.519 -15.688   9.735  1.00  0.00     0.090 C 
HETATM    2  C4  UNL     1      13.842 -15.069  10.027  1.00  0.00     0.032 C 
HETATM    3  C5  UNL     1      14.401 -14.664   8.636  1.00  0.00     0.022 C 
HETATM    4  C9  UNL     1      13.260 -14.698   7.726  1.00  0.00     0.020 C 
HETATM    5  C10 UNL     1      13.020 -13.511   6.840  1.00  0.00     0.125 C 
HETATM    6  N3  UNL     1      11.628 -13.523   6.361  1.00  0.00    -0.392 N 
ATOM      7  H3  UNL     1      11.317 -12.769   5.747  1.00  0.00     0.159 HD
HETATM    8  C11 UNL     1      10.695 -14.539   6.717  1.00  0.00     0.019 C 
HETATM    9  C12 UNL     1       9.523 -14.868   5.867  1.00  0.00     0.069 C 
HETATM   10  C13 UNL     1      10.903 -15.179   7.866  1.00  0.00     0.040 C 
HETATM   11 CL1  UNL     1       9.785 -16.432   8.339  1.00  0.00    -0.086 Cl
HETATM   12  C14 UNL     1      12.056 -14.756   8.639  1.00  0.00     0.061 C 
ENDROOT
BRANCH   1  13
HETATM   13  N1  UNL     1      12.361 -17.030   9.486  1.00  0.00    -0.397 N 
ATOM     14  H1  UNL     1      12.385 -17.332   8.512  1.00  0.00     0.159 HD
BRANCH  13  15
HETATM   15  C2  UNL     1      12.170 -18.014  10.461  1.00  0.00     0.051 C 
HETATM   16  C1  UNL     1      11.810 -17.700  11.852  1.00  0.00     0.054 C 
ENDBRANCH  13  15
ENDBRANCH   1  13
BRANCH   3  17
HETATM   17  C6  UNL     1      15.167 -13.392   8.768  1.00  0.00     0.276 C 
BRANCH  17  18
HETATM   18  N2  UNL     1      16.395 -13.376   8.063  1.00  0.00     0.080 N 
HETATM   19  C7  UNL     1      17.093 -12.125   8.069  1.00  0.00     0.309 C 
HETATM   20  C8  UNL     1      16.310 -13.963   6.741  1.00  0.00     0.309 C 
ENDBRANCH  17  18
ENDBRANCH   3  17
TORSDOF 4
ENDMDL
