MODEL 1
REMARK VINA RESULT: -6.399492209      0.000      0.000
REMARK  3 active torsions:
REMARK  status: ('A' for Active; 'I' for Inactive)
REMARK    1  A    between atoms: C2_2  and  O1_3 
REMARK    2  A    between atoms: O1_3  and  C3_4 
REMARK    3  A    between atoms: C11_12  and  N1_13 
ROOT
HETATM    1  C3  UNL     1      13.080 -14.116   7.148  1.00  0.00     0.148 C 
HETATM    2  C4  UNL     1      14.221 -14.073   6.146  1.00  0.00     0.017 C 
HETATM    3  C5  UNL     1      14.545 -12.653   5.750  1.00  0.00     0.007 C 
HETATM    4  C6  UNL     1      15.995 -12.390   6.081  1.00  0.00     0.001 C 
HETATM    5  C7  UNL     1      16.163 -12.651   7.561  1.00  0.00     0.005 C 
HETATM    6  C8  UNL     1      15.893 -14.088   7.845  1.00  0.00    -0.012 C 
HETATM    7  C9  UNL     1      15.367 -14.865   6.653  1.00  0.00     0.012 C 
HETATM    8  C10 UNL     1      14.865 -14.313   8.942  1.00  0.00     0.032 C 
HETATM    9  C11 UNL     1      13.482 -13.904   8.578  1.00  0.00     0.111 C 
ENDROOT
BRANCH   9  10
HETATM   10  N1  UNL     1      12.437 -14.374   9.342  1.00  0.00    -0.379 N 
HETATM   11  C12 UNL     1      12.163 -15.601   9.859  1.00  0.00     0.110 C 
HETATM   12  C13 UNL     1      11.961 -16.779   9.000  1.00  0.00     0.266 C 
HETATM   13  C15 UNL     1      12.960 -16.067  11.053  1.00  0.00     0.242 C 
HETATM   14  O2  UNL     1      11.407 -16.801   7.882  1.00  0.00    -0.266 OA
HETATM   15  N2  UNL     1      12.504 -17.924   9.655  1.00  0.00    -0.353 N 
HETATM   16  C14 UNL     1      13.493 -17.410  10.580  1.00  0.00     0.166 C 
ATOM     17  H2  UNL     1      12.250 -18.900   9.504  1.00  0.00     0.162 HD
HETATM   18  F1  UNL     1      13.917 -15.194  11.452  1.00  0.00    -0.241 F 
ATOM     19  H1  UNL     1      11.735 -13.668   9.560  1.00  0.00     0.160 HD
ENDBRANCH   9  10
BRANCH   1  20
HETATM   20  O1  UNL     1      12.190 -13.092   6.780  1.00  0.00    -0.384 OA
BRANCH  20  21
HETATM   21  C2  UNL     1      10.876 -13.381   6.794  1.00  0.00     0.163 C 
HETATM   22  C1  UNL     1      10.351 -14.493   5.942  1.00  0.00     0.033 C 
ENDBRANCH  20  21
ENDBRANCH   1  20
TORSDOF 3
ENDMDL
MODEL 2
REMARK VINA RESULT: -5.981867976      2.656      5.027
REMARK  3 active torsions:
REMARK  status: ('A' for Active; 'I' for Inactive)
REMARK    1  A    between atoms: C2_2  and  O1_3 
REMARK    2  A    between atoms: O1_3  and  C3_4 
REMARK    3  A    between atoms: C11_12  and  N1_13 
ROOT
HETATM    1  C3  UNL     1      12.807 -14.780   8.213  1.00  0.00     0.148 C 
HETATM    2  C4  UNL     1      12.768 -14.825   9.731  1.00  0.00     0.017 C 
HETATM    3  C5  UNL     1      13.081 -16.210  10.242  1.00  0.00     0.007 C 
HETATM    4  C6  UNL     1      14.281 -16.117  11.154  1.00  0.00     0.001 C 
HETATM    5  C7  UNL     1      15.404 -15.512  10.343  1.00  0.00     0.005 C 
HETATM    6  C8  UNL     1      15.038 -14.125   9.945  1.00  0.00    -0.012 C 
HETATM    7  C9  UNL     1      13.611 -13.741  10.289  1.00  0.00     0.012 C 
HETATM    8  C10 UNL     1      15.163 -13.863   8.452  1.00  0.00     0.032 C 
HETATM    9  C11 UNL     1      14.172 -14.595   7.617  1.00  0.00     0.111 C 
ENDROOT
BRANCH   9  10
HETATM   10  N1  UNL     1      13.969 -14.174   6.321  1.00  0.00    -0.379 N 
HETATM   11  C12 UNL     1      14.819 -13.706   5.369  1.00  0.00     0.110 C 
HETATM   12  C13 UNL     1      15.600 -12.473   5.564  1.00  0.00     0.266 C 
HETATM   13  C15 UNL     1      15.729 -14.691   4.676  1.00  0.00     0.242 C 
HETATM   14  O2  UNL     1      15.230 -11.442   6.160  1.00  0.00    -0.266 OA
HETATM   15  N2  UNL     1      16.876 -12.637   4.947  1.00  0.00    -0.353 N 
HETATM   16  C14 UNL     1      17.099 -14.066   4.887  1.00  0.00     0.166 C 
ATOM     17  H2  UNL     1      17.501 -11.901   4.618  1.00  0.00     0.162 HD
HETATM   18  F1  UNL     1      15.617 -15.961   5.136  1.00  0.00    -0.241 F 
ATOM     19  H1  UNL     1      12.996 -14.223   6.019  1.00  0.00     0.160 HD
ENDBRANCH   9  10
BRANCH   1  20
HETATM   20  O1  UNL     1      12.291 -16.009   7.765  1.00  0.00    -0.384 OA
BRANCH  20  21
HETATM   21  C2  UNL     1      10.996 -16.039   7.400  1.00  0.00     0.163 C 
HETATM   22  C1  UNL     1      10.513 -15.147   6.300  1.00  0.00     0.033 C 
ENDBRANCH  20  21
ENDBRANCH   1  20
TORSDOF 3
ENDMDL
MODEL 3
REMARK VINA RESULT: -5.946345184      2.386      4.985
REMARK  3 active torsions:
REMARK  status: ('A' for Active; 'I' for Inactive)
REMARK    1  A    between atoms: C2_2  and  O1_3 
REMARK    2  A    between atoms: O1_3  and  C3_4 
REMARK    3  A    between atoms: C11_12  and  N1_13 
ROOT
HETATM    1  C3  UNL     1      12.348 -15.107   8.567  1.00  0.00     0.148 C 
HETATM    2  C4  UNL     1      11.951 -15.910   9.794  1.00  0.00     0.017 C 
HETATM    3  C5  UNL     1      12.294 -17.370   9.622  1.00  0.00     0.007 C 
HETATM    4  C6  UNL     1      13.220 -17.772  10.746  1.00  0.00     0.001 C 
HETATM    5  C7  UNL     1      14.425 -16.863  10.670  1.00  0.00     0.005 C 
HETATM    6  C8  UNL     1      14.003 -15.457  10.921  1.00  0.00    -0.012 C 
HETATM    7  C9  UNL     1      12.500 -15.271  11.013  1.00  0.00     0.012 C 
HETATM    8  C10 UNL     1      14.451 -14.482   9.845  1.00  0.00     0.032 C 
HETATM    9  C11 UNL     1      13.784 -14.673   8.528  1.00  0.00     0.111 C 
ENDROOT
BRANCH   9  10
HETATM   10  N1  UNL     1      13.851 -13.653   7.606  1.00  0.00    -0.379 N 
HETATM   11  C12 UNL     1      14.787 -13.319   6.678  1.00  0.00     0.110 C 
HETATM   12  C13 UNL     1      16.162 -12.958   7.059  1.00  0.00     0.266 C 
HETATM   13  C15 UNL     1      14.890 -14.162   5.431  1.00  0.00     0.242 C 
HETATM   14  O2  UNL     1      16.513 -12.322   8.073  1.00  0.00    -0.266 OA
HETATM   15  N2  UNL     1      17.059 -13.453   6.065  1.00  0.00    -0.353 N 
HETATM   16  C14 UNL     1      16.361 -14.546   5.423  1.00  0.00     0.166 C 
ATOM     17  H2  UNL     1      17.995 -13.109   5.853  1.00  0.00     0.162 HD
HETATM   18  F1  UNL     1      14.036 -15.215   5.405  1.00  0.00    -0.241 F 
ATOM     19  H1  UNL     1      13.044 -13.030   7.621  1.00  0.00     0.160 HD
ENDBRANCH   9  10
BRANCH   1  20
HETATM   20  O1  UNL     1      12.104 -15.932   7.455  1.00  0.00    -0.384 OA
BRANCH  20  21
HETATM   21  C2  UNL     1      10.988 -15.696   6.743  1.00  0.00     0.163 C 
HETATM   22  C1  UNL     1      10.516 -14.289   6.546  1.00  0.00     0.033 C 
ENDBRANCH  20  21
ENDBRANCH   1  20
TORSDOF 3
ENDMDL
MODEL 4
REMARK VINA RESULT: -5.810002940      2.809      5.421
REMARK  3 active torsions:
REMARK  status: ('A' for Active; 'I' for Inactive)
REMARK    1  A    between atoms: C2_2  and  O1_3 
REMARK    2  A    between atoms: O1_3  and  C3_4 
REMARK    3  A    between atoms: C11_12  and  N1_13 
ROOT
HETATM    1  C3  UNL     1      13.254 -14.970   8.388  1.00  0.00     0.148 C 
HETATM    2  C4  UNL     1      12.279 -16.095   8.084  1.00  0.00     0.017 C 
HETATM    3  C5  UNL     1      10.949 -15.861   8.758  1.00  0.00     0.007 C 
HETATM    4  C6  UNL     1       9.879 -15.832   7.692  1.00  0.00     0.001 C 
HETATM    5  C7  UNL     1      10.257 -14.738   6.719  1.00  0.00     0.005 C 
HETATM    6  C8  UNL     1      11.541 -15.089   6.052  1.00  0.00    -0.012 C 
HETATM    7  C9  UNL     1      12.215 -16.323   6.621  1.00  0.00     0.012 C 
HETATM    8  C10 UNL     1      12.594 -13.996   6.138  1.00  0.00     0.032 C 
HETATM    9  C11 UNL     1      13.123 -13.761   7.509  1.00  0.00     0.111 C 
ENDROOT
BRANCH   9  10
HETATM   10  N1  UNL     1      14.300 -13.059   7.647  1.00  0.00    -0.379 N 
HETATM   11  C12 UNL     1      15.353 -12.867   6.808  1.00  0.00     0.110 C 
HETATM   12  C13 UNL     1      16.170 -13.989   6.319  1.00  0.00     0.266 C 
HETATM   13  C15 UNL     1      15.177 -11.919   5.647  1.00  0.00     0.242 C 
HETATM   14  O2  UNL     1      16.484 -15.016   6.953  1.00  0.00    -0.266 OA
HETATM   15  N2  UNL     1      16.565 -13.717   4.975  1.00  0.00    -0.353 N 
HETATM   16  C14 UNL     1      15.585 -12.782   4.463  1.00  0.00     0.166 C 
ATOM     17  H2  UNL     1      17.369 -14.101   4.479  1.00  0.00     0.162 HD
HETATM   18  F1  UNL     1      13.933 -11.390   5.550  1.00  0.00    -0.241 F 
ATOM     19  H1  UNL     1      14.401 -12.596   8.550  1.00  0.00     0.160 HD
ENDBRANCH   9  10
BRANCH   1  20
HETATM   20  O1  UNL     1      13.009 -14.581   9.717  1.00  0.00    -0.384 OA
BRANCH  20  21
HETATM   21  C2  UNL     1      13.827 -15.073  10.666  1.00  0.00     0.163 C 
HETATM   22  C1  UNL     1      15.285 -15.243  10.374  1.00  0.00     0.033 C 
ENDBRANCH  20  21
ENDBRANCH   1  20
TORSDOF 3
ENDMDL
MODEL 5
REMARK VINA RESULT: -5.622253382      2.271      3.959
REMARK  3 active torsions:
REMARK  status: ('A' for Active; 'I' for Inactive)
REMARK    1  A    between atoms: C2_2  and  O1_3 
REMARK    2  A    between atoms: O1_3  and  C3_4 
REMARK    3  A    between atoms: C11_12  and  N1_13 
ROOT
HETATM    1  C3  UNL     1      11.862 -16.051   8.668  1.00  0.00     0.148 C 
HETATM    2  C4  UNL     1      11.600 -16.111   7.173  1.00  0.00     0.017 C 
HETATM    3  C5  UNL     1      10.154 -15.809   6.861  1.00  0.00     0.007 C 
HETATM    4  C6  UNL     1      10.112 -14.622   5.928  1.00  0.00     0.001 C 
HETATM    5  C7  UNL     1      10.822 -13.486   6.628  1.00  0.00     0.005 C 
HETATM    6  C8  UNL     1      12.253 -13.844   6.829  1.00  0.00    -0.012 C 
HETATM    7  C9  UNL     1      12.590 -15.275   6.454  1.00  0.00     0.012 C 
HETATM    8  C10 UNL     1      12.726 -13.697   8.267  1.00  0.00     0.032 C 
HETATM    9  C11 UNL     1      12.125 -14.677   9.212  1.00  0.00     0.111 C 
ENDROOT
BRANCH   9  10
HETATM   10  N1  UNL     1      12.727 -14.860  10.437  1.00  0.00    -0.379 N 
HETATM   11  C12 UNL     1      13.997 -15.197  10.790  1.00  0.00     0.110 C 
HETATM   12  C13 UNL     1      14.599 -16.479  10.390  1.00  0.00     0.266 C 
HETATM   13  C15 UNL     1      15.076 -14.150  10.659  1.00  0.00     0.242 C 
HETATM   14  O2  UNL     1      14.019 -17.579  10.295  1.00  0.00    -0.266 OA
HETATM   15  N2  UNL     1      15.986 -16.271  10.124  1.00  0.00    -0.353 N 
HETATM   16  C14 UNL     1      16.114 -14.864   9.807  1.00  0.00     0.166 C 
ATOM     17  H2  UNL     1      16.730 -16.967  10.151  1.00  0.00     0.162 HD
HETATM   18  F1  UNL     1      14.643 -12.973  10.144  1.00  0.00    -0.241 F 
ATOM     19  H1  UNL     1      12.102 -14.716  11.230  1.00  0.00     0.160 HD
ENDBRANCH   9  10
BRANCH   1  20
HETATM   20  O1  UNL     1      10.712 -16.563   9.294  1.00  0.00    -0.384 OA
BRANCH  20  21
HETATM   21  C2  UNL     1      10.858 -17.667  10.048  1.00  0.00     0.163 C 
HETATM   22  C1  UNL     1      11.030 -17.539  11.529  1.00  0.00     0.033 C 
ENDBRANCH  20  21
ENDBRANCH   1  20
TORSDOF 3
ENDMDL
