MODEL 1
REMARK VINA RESULT: -5.934959486      0.000      0.000
REMARK  6 active torsions:
REMARK  status: ('A' for Active; 'I' for Inactive)
REMARK    1  A    between atoms: C2_2  and  O1_3 
REMARK    2  A    between atoms: O1_3  and  C3_4 
REMARK    3  A    between atoms: C3_4  and  C4_5 
REMARK    4  A    between atoms: C4_5  and  N1_6 
REMARK    5  A    between atoms: N1_6  and  C5_7 
REMARK    6  A    between atoms: N1_6  and  C9_14 
ROOT
HETATM    1  N1  UNL     1      14.061 -14.404   8.277  1.00  0.00    -0.364 N 
ENDROOT
BRANCH   1   2
HETATM    2  C4  UNL     1      14.098 -14.169   9.646  1.00  0.00     0.086 C 
BRANCH   2   3
HETATM    3  C3  UNL     1      15.267 -14.796  10.338  1.00  0.00     0.212 C 
BRANCH   3   4
HETATM    4  O1  UNL     1      14.940 -16.160  10.531  1.00  0.00    -0.387 OA
BRANCH   4   5
HETATM    5  C2  UNL     1      14.918 -16.493  11.864  1.00  0.00     0.163 C 
HETATM    6  C1  UNL     1      13.457 -16.625  12.278  1.00  0.00     0.033 C 
ENDBRANCH   4   5
ENDBRANCH   3   4
ENDBRANCH   2   3
ENDBRANCH   1   2
BRANCH   1   7
HETATM    7  C5  UNL     1      15.101 -14.143   7.420  1.00  0.00     0.112 C 
HETATM    8  C6  UNL     1      15.099 -14.594   6.001  1.00  0.00     0.054 C 
HETATM    9  C7  UNL     1      16.317 -13.844   5.436  1.00  0.00     0.234 C 
HETATM   10  N2  UNL     1      16.517 -12.701   6.244  1.00  0.00    -0.073 N 
HETATM   11  C8  UNL     1      15.422 -12.662   7.215  1.00  0.00     0.257 C 
ATOM     12  H22 UNL     1      17.439 -12.675   6.680  1.00  0.00     0.277 HD
ATOM     13  H21 UNL     1      16.603 -11.839   5.704  1.00  0.00     0.277 HD
ENDBRANCH   1   7
BRANCH   1  14
HETATM   14  C9  UNL     1      12.785 -14.752   7.731  1.00  0.00     0.188 C 
HETATM   15  C10 UNL     1      12.165 -15.838   8.629  1.00  0.00     0.120 C 
HETATM   16  S1  UNL     1      10.644 -16.338   7.770  1.00  0.00    -0.164 SA
HETATM   17  C11 UNL     1      10.534 -15.211   6.335  1.00  0.00     0.093 C 
HETATM   18  C12 UNL     1      10.739 -13.823   6.852  1.00  0.00     0.126 C 
HETATM   19  N3  UNL     1      11.947 -13.614   7.604  1.00  0.00    -0.400 N 
ATOM     20  H3  UNL     1      12.184 -12.712   8.016  1.00  0.00     0.155 HD
ENDBRANCH   1  14
TORSDOF 6
ENDMDL
MODEL 2
REMARK VINA RESULT: -5.912513632      1.269      1.779
REMARK  6 active torsions:
REMARK  status: ('A' for Active; 'I' for Inactive)
REMARK    1  A    between atoms: C2_2  and  O1_3 
REMARK    2  A    between atoms: O1_3  and  C3_4 
REMARK    3  A    between atoms: C3_4  and  C4_5 
REMARK    4  A    between atoms: C4_5  and  N1_6 
REMARK    5  A    between atoms: N1_6  and  C5_7 
REMARK    6  A    between atoms: N1_6  and  C9_14 
ROOT
HETATM    1  N1  UNL     1      13.988 -14.186   7.809  1.00  0.00    -0.364 N 
ENDROOT
BRANCH   1   2
HETATM    2  C4  UNL     1      14.514 -13.896   9.062  1.00  0.00     0.086 C 
BRANCH   2   3
HETATM    3  C3  UNL     1      13.831 -14.607  10.187  1.00  0.00     0.212 C 
BRANCH   3   4
HETATM    4  O1  UNL     1      14.506 -15.838  10.358  1.00  0.00    -0.387 OA
BRANCH   4   5
HETATM    5  C2  UNL     1      14.162 -16.446  11.542  1.00  0.00     0.163 C 
HETATM    6  C1  UNL     1      12.740 -16.014  11.882  1.00  0.00     0.033 C 
ENDBRANCH   4   5
ENDBRANCH   3   4
ENDBRANCH   2   3
ENDBRANCH   1   2
BRANCH   1   7
HETATM    7  C5  UNL     1      14.562 -13.802   6.622  1.00  0.00     0.112 C 
HETATM    8  C6  UNL     1      15.130 -12.442   6.414  1.00  0.00     0.054 C 
HETATM    9  C7  UNL     1      15.856 -12.613   5.069  1.00  0.00     0.234 C 
HETATM   10  N2  UNL     1      16.166 -13.986   4.931  1.00  0.00    -0.073 N 
HETATM   11  C8  UNL     1      15.753 -14.647   6.170  1.00  0.00     0.257 C 
ATOM     12  H22 UNL     1      15.756 -14.407   4.097  1.00  0.00     0.277 HD
ATOM     13  H21 UNL     1      17.145 -14.154   4.695  1.00  0.00     0.277 HD
ENDBRANCH   1   7
BRANCH   1  14
HETATM   14  C9  UNL     1      12.672 -14.747   7.792  1.00  0.00     0.188 C 
HETATM   15  C10 UNL     1      11.880 -14.064   6.661  1.00  0.00     0.120 C 
HETATM   16  S1  UNL     1      10.188 -14.706   6.827  1.00  0.00    -0.164 SA
HETATM   17  C11 UNL     1      10.295 -15.944   8.168  1.00  0.00     0.093 C 
HETATM   18  C12 UNL     1      11.457 -16.830   7.854  1.00  0.00     0.126 C 
HETATM   19  N3  UNL     1      12.711 -16.158   7.647  1.00  0.00    -0.400 N 
ATOM     20  H3  UNL     1      13.568 -16.660   7.414  1.00  0.00     0.155 HD
ENDBRANCH   1  14
TORSDOF 6
ENDMDL
MODEL 3
REMARK VINA RESULT: -5.838377312      2.207      3.715
REMARK  6 active torsions:
REMARK  status: ('A' for Active; 'I' for Inactive)
REMARK    1  A    between atoms: C2_2  and  O1_3 
REMARK    2  A    between atoms: O1_3  and  C3_4 
REMARK    3  A    between atoms: C3_4  and  C4_5 
REMARK    4  A    between atoms: C4_5  and  N1_6 
REMARK    5  A    between atoms: N1_6  and  C5_7 
REMARK    6  A    between atoms: N1_6  and  C9_14 
ROOT
HETATM    1  N1  UNL     1      13.683 -14.034   7.975  1.00  0.00    -0.364 N 
ENDROOT
BRANCH   1   2
HETATM    2  C4  UNL     1      12.363 -13.802   7.604  1.00  0.00     0.086 C 
BRANCH   2   3
HETATM    3  C3  UNL     1      11.618 -15.037   7.209  1.00  0.00     0.212 C 
BRANCH   3   4
HETATM    4  O1  UNL     1      10.620 -15.240   8.192  1.00  0.00    -0.387 OA
BRANCH   4   5
HETATM    5  C2  UNL     1      10.282 -16.567   8.305  1.00  0.00     0.163 C 
HETATM    6  C1  UNL     1      11.579 -17.365   8.392  1.00  0.00     0.033 C 
ENDBRANCH   4   5
ENDBRANCH   3   4
ENDBRANCH   2   3
ENDBRANCH   1   2
BRANCH   1   7
HETATM    7  C5  UNL     1      14.769 -13.746   7.185  1.00  0.00     0.112 C 
HETATM    8  C6  UNL     1      15.215 -14.643   6.084  1.00  0.00     0.054 C 
HETATM    9  C7  UNL     1      16.260 -13.765   5.374  1.00  0.00     0.234 C 
HETATM   10  N2  UNL     1      15.935 -12.417   5.655  1.00  0.00    -0.073 N 
HETATM   11  C8  UNL     1      14.687 -12.425   6.419  1.00  0.00     0.257 C 
ATOM     12  H22 UNL     1      16.688 -11.914   6.124  1.00  0.00     0.277 HD
ATOM     13  H21 UNL     1      15.888 -11.834   4.819  1.00  0.00     0.277 HD
ENDBRANCH   1   7
BRANCH   1  14
HETATM   14  C9  UNL     1      13.878 -14.797   9.168  1.00  0.00     0.188 C 
HETATM   15  C10 UNL     1      15.309 -14.533   9.672  1.00  0.00     0.120 C 
HETATM   16  S1  UNL     1      15.523 -15.666  11.076  1.00  0.00    -0.164 SA
HETATM   17  C11 UNL     1      13.890 -16.461  11.280  1.00  0.00     0.093 C 
HETATM   18  C12 UNL     1      12.869 -15.368  11.284  1.00  0.00     0.126 C 
HETATM   19  N3  UNL     1      12.897 -14.490  10.147  1.00  0.00    -0.400 N 
ATOM     20  H3  UNL     1      12.257 -13.702  10.050  1.00  0.00     0.155 HD
ENDBRANCH   1  14
TORSDOF 6
ENDMDL
MODEL 4
REMARK VINA RESULT: -5.557160369      1.900      4.062
REMARK  6 active torsions:
REMARK  status: ('A' for Active; 'I' for Inactive)
REMARK    1  A    between atoms: C2_2  and  O1_3 
REMARK    2  A    between atoms: O1_3  and  C3_4 
REMARK    3  A    between atoms: C3_4  and  C4_5 
REMARK    4  A    between atoms: C4_5  and  N1_6 
REMARK    5  A    between atoms: N1_6  and  C5_7 
REMARK    6  A    between atoms: N1_6  and  C9_14 
ROOT
HETATM    1  N1  UNL     1      13.415 -14.371   8.411  1.00  0.00    -0.364 N 
ENDROOT
BRANCH   1   2
HETATM    2  C4  UNL     1      13.744 -14.052   9.724  1.00  0.00     0.086 C 
BRANCH   2   3
HETATM    3  C3  UNL     1      15.134 -14.444  10.114  1.00  0.00     0.212 C 
BRANCH   3   4
HETATM    4  O1  UNL     1      15.146 -15.856  10.207  1.00  0.00    -0.387 OA
BRANCH   4   5
HETATM    5  C2  UNL     1      15.182 -16.278  11.515  1.00  0.00     0.163 C 
HETATM    6  C1  UNL     1      16.639 -16.552  11.867  1.00  0.00     0.033 C 
ENDBRANCH   4   5
ENDBRANCH   3   4
ENDBRANCH   2   3
ENDBRANCH   1   2
BRANCH   1   7
HETATM    7  C5  UNL     1      12.337 -15.140   8.050  1.00  0.00     0.112 C 
HETATM    8  C6  UNL     1      11.845 -16.269   8.887  1.00  0.00     0.054 C 
HETATM    9  C7  UNL     1      10.514 -16.608   8.196  1.00  0.00     0.234 C 
HETATM   10  N2  UNL     1      10.077 -15.440   7.529  1.00  0.00    -0.073 N 
HETATM   11  C8  UNL     1      11.026 -14.376   7.859  1.00  0.00     0.257 C 
ATOM     12  H22 UNL     1       9.960 -15.574   6.524  1.00  0.00     0.277 HD
ATOM     13  H21 UNL     1       9.110 -15.195   7.743  1.00  0.00     0.277 HD
ENDBRANCH   1   7
BRANCH   1  14
HETATM   14  C9  UNL     1      14.385 -14.028   7.417  1.00  0.00     0.188 C 
HETATM   15  C10 UNL     1      14.489 -15.206   6.430  1.00  0.00     0.120 C 
HETATM   16  S1  UNL     1      15.855 -14.759   5.318  1.00  0.00    -0.164 SA
HETATM   17  C11 UNL     1      16.341 -13.076   5.838  1.00  0.00     0.093 C 
HETATM   18  C12 UNL     1      15.087 -12.266   5.927  1.00  0.00     0.126 C 
HETATM   19  N3  UNL     1      14.057 -12.809   6.770  1.00  0.00    -0.400 N 
ATOM     20  H3  UNL     1      13.155 -12.350   6.895  1.00  0.00     0.155 HD
ENDBRANCH   1  14
TORSDOF 6
ENDMDL
MODEL 5
REMARK VINA RESULT: -5.539692599      2.259      4.192
REMARK  6 active torsions:
REMARK  status: ('A' for Active; 'I' for Inactive)
REMARK    1  A    between atoms: C2_2  and  O1_3 
REMARK    2  A    between atoms: O1_3  and  C3_4 
REMARK    3  A    between atoms: C3_4  and  C4_5 
REMARK    4  A    between atoms: C4_5  and  N1_6 
REMARK    5  A    between atoms: N1_6  and  C5_7 
REMARK    6  A    between atoms: N1_6  and  C9_14 
ROOT
HETATM    1  N1  UNL     1      13.338 -14.507   8.424  1.00  0.00    -0.364 N 
ENDROOT
BRANCH   1   2
HETATM    2  C4  UNL     1      13.746 -15.188   9.565  1.00  0.00     0.086 C 
BRANCH   2   3
HETATM    3  C3  UNL     1      12.939 -14.868  10.783  1.00  0.00     0.212 C 
BRANCH   3   4
HETATM    4  O1  UNL     1      12.153 -16.012  11.061  1.00  0.00    -0.387 OA
BRANCH   4   5
HETATM    5  C2  UNL     1      12.933 -17.105  11.355  1.00  0.00     0.163 C 
HETATM    6  C1  UNL     1      13.411 -16.952  12.795  1.00  0.00     0.033 C 
ENDBRANCH   4   5
ENDBRANCH   3   4
ENDBRANCH   2   3
ENDBRANCH   1   2
BRANCH   1   7
HETATM    7  C5  UNL     1      12.057 -14.525   7.930  1.00  0.00     0.112 C 
HETATM    8  C6  UNL     1      11.579 -13.543   6.918  1.00  0.00     0.054 C 
HETATM    9  C7  UNL     1      10.219 -14.144   6.524  1.00  0.00     0.234 C 
HETATM   10  N2  UNL     1      10.279 -15.531   6.793  1.00  0.00    -0.073 N 
HETATM   11  C8  UNL     1      11.642 -15.824   7.240  1.00  0.00     0.257 C 
ATOM     12  H22 UNL     1       9.566 -15.842   7.453  1.00  0.00     0.277 HD
ATOM     13  H21 UNL     1       9.985 -16.106   6.003  1.00  0.00     0.277 HD
ENDBRANCH   1   7
BRANCH   1  14
HETATM   14  C9  UNL     1      14.377 -13.925   7.632  1.00  0.00     0.188 C 
HETATM   15  C10 UNL     1      15.477 -13.424   8.586  1.00  0.00     0.120 C 
HETATM   16  S1  UNL     1      16.659 -12.553   7.515  1.00  0.00    -0.164 SA
HETATM   17  C11 UNL     1      16.027 -12.818   5.820  1.00  0.00     0.093 C 
HETATM   18  C12 UNL     1      15.751 -14.281   5.680  1.00  0.00     0.126 C 
HETATM   19  N3  UNL     1      14.874 -14.844   6.671  1.00  0.00    -0.400 N 
ATOM     20  H3  UNL     1      14.627 -15.833   6.682  1.00  0.00     0.155 HD
ENDBRANCH   1  14
TORSDOF 6
ENDMDL
