MODEL 1
REMARK VINA RESULT: -6.649553241      0.000      0.000
REMARK  8 active torsions:
REMARK  status: ('A' for Active; 'I' for Inactive)
REMARK    1  A    between atoms: N1_4  and  C4_5 
REMARK    2  A    between atoms: C4_5  and  C5_6 
REMARK    3  A    between atoms: C5_6  and  C6_7 
REMARK    4  A    between atoms: C6_7  and  O1_8 
REMARK    5  A    between atoms: C8_11  and  N2_12 
REMARK    6  A    between atoms: N2_12  and  C9_13 
REMARK    7  A    between atoms: N2_12  and  C12_17 
REMARK    8  A    between atoms: C9_13  and  C10_14 
ROOT
HETATM    1  C10 UNL     1      11.319 -16.941   9.003  1.00  0.00     0.168 C 
HETATM    2  C11 UNL     1      12.320 -17.729   9.723  1.00  0.00     0.064 C 
HETATM    3  N3  UNL     1      13.125 -18.338  10.312  1.00  0.00    -0.197 NA
ENDROOT
BRANCH   1   4
HETATM    4  C9  UNL     1      11.857 -16.692   7.615  1.00  0.00     0.073 C 
BRANCH   4   5
HETATM    5  N2  UNL     1      12.304 -15.401   7.411  1.00  0.00    -0.381 N 
BRANCH   5   6
HETATM    6  C8  UNL     1      13.434 -14.807   7.828  1.00  0.00     0.107 C 
HETATM    7  C2  UNL     1      13.585 -13.949   9.021  1.00  0.00     0.024 C 
HETATM    8  C1  UNL     1      13.297 -14.527  10.350  1.00  0.00     0.014 C 
HETATM    9  C3  UNL     1      15.117 -13.683   8.881  1.00  0.00     0.128 C 
HETATM   10  N1  UNL     1      15.234 -13.479   7.520  1.00  0.00    -0.391 N 
HETATM   11  C7  UNL     1      14.094 -13.838   6.795  1.00  0.00     0.147 C 
BRANCH  10  12
HETATM   12  C4  UNL     1      16.443 -13.243   6.891  1.00  0.00     0.060 C 
BRANCH  12  13
HETATM   13  C5  UNL     1      16.604 -13.826   5.501  1.00  0.00     0.070 C 
BRANCH  13  14
HETATM   14  C6  UNL     1      17.159 -12.783   4.541  1.00  0.00     0.169 C 
BRANCH  14  15
HETATM   15  O1  UNL     1      16.194 -11.808   4.258  1.00  0.00    -0.401 OA
ATOM     16  H1  UNL     1      16.573 -11.096   3.755  1.00  0.00     0.209 HD
ENDBRANCH  14  15
ENDBRANCH  13  14
ENDBRANCH  12  13
ENDBRANCH  10  12
ENDBRANCH   5   6
BRANCH   5  17
HETATM   17  C12 UNL     1      11.422 -14.615   6.591  1.00  0.00     0.084 A 
HETATM   18  C13 UNL     1      10.047 -14.996   6.265  1.00  0.00     0.027 A 
HETATM   19  C14 UNL     1      10.386 -13.711   7.078  1.00  0.00     0.027 A 
ENDBRANCH   5  17
ENDBRANCH   4   5
ENDBRANCH   1   4
TORSDOF 8
ENDMDL
MODEL 2
REMARK VINA RESULT: -6.318519074      1.546      2.821
REMARK  8 active torsions:
REMARK  status: ('A' for Active; 'I' for Inactive)
REMARK    1  A    between atoms: N1_4  and  C4_5 
REMARK    2  A    between atoms: C4_5  and  C5_6 
REMARK    3  A    between atoms: C5_6  and  C6_7 
REMARK    4  A    between atoms: C6_7  and  O1_8 
REMARK    5  A    between atoms: C8_11  and  N2_12 
REMARK    6  A    between atoms: N2_12  and  C9_13 
REMARK    7  A    between atoms: N2_12  and  C12_17 
REMARK    8  A    between atoms: C9_13  and  C10_14 
ROOT
HETATM    1  C10 UNL     1      14.335 -14.776  10.569  1.00  0.00     0.168 C 
HETATM    2  C11 UNL     1      15.192 -15.884  10.991  1.00  0.00     0.064 C 
HETATM    3  N3  UNL     1      15.889 -16.767  11.308  1.00  0.00    -0.197 NA
ENDROOT
BRANCH   1   4
HETATM    4  C9  UNL     1      13.014 -15.367  10.140  1.00  0.00     0.073 C 
BRANCH   4   5
HETATM    5  N2  UNL     1      12.767 -15.262   8.785  1.00  0.00    -0.381 N 
BRANCH   5   6
HETATM    6  C8  UNL     1      12.995 -14.239   7.947  1.00  0.00     0.107 C 
HETATM    7  C2  UNL     1      12.127 -13.807   6.834  1.00  0.00     0.024 C 
HETATM    8  C1  UNL     1      10.751 -13.361   7.139  1.00  0.00     0.014 C 
HETATM    9  C3  UNL     1      12.987 -12.588   6.372  1.00  0.00     0.128 C 
HETATM   10  N1  UNL     1      14.263 -13.109   6.460  1.00  0.00    -0.391 N 
HETATM   11  C7  UNL     1      14.331 -14.327   7.141  1.00  0.00     0.147 C 
BRANCH  10  12
HETATM   12  C4  UNL     1      15.401 -12.372   6.185  1.00  0.00     0.060 C 
BRANCH  12  13
HETATM   13  C5  UNL     1      15.858 -12.353   4.740  1.00  0.00     0.070 C 
BRANCH  13  14
HETATM   14  C6  UNL     1      17.166 -13.115   4.579  1.00  0.00     0.169 C 
BRANCH  14  15
HETATM   15  O1  UNL     1      16.965 -14.489   4.761  1.00  0.00    -0.401 OA
ATOM     16  H1  UNL     1      17.734 -14.979   4.494  1.00  0.00     0.209 HD
ENDBRANCH  14  15
ENDBRANCH  13  14
ENDBRANCH  12  13
ENDBRANCH  10  12
ENDBRANCH   5   6
BRANCH   5  17
HETATM   17  C12 UNL     1      12.220 -16.462   8.212  1.00  0.00     0.084 A 
HETATM   18  C13 UNL     1      12.008 -17.705   8.955  1.00  0.00     0.027 A 
HETATM   19  C14 UNL     1      10.834 -16.903   8.318  1.00  0.00     0.027 A 
ENDBRANCH   5  17
ENDBRANCH   4   5
ENDBRANCH   1   4
TORSDOF 8
ENDMDL
MODEL 3
REMARK VINA RESULT: -6.313982482      2.792      4.950
REMARK  8 active torsions:
REMARK  status: ('A' for Active; 'I' for Inactive)
REMARK    1  A    between atoms: N1_4  and  C4_5 
REMARK    2  A    between atoms: C4_5  and  C5_6 
REMARK    3  A    between atoms: C5_6  and  C6_7 
REMARK    4  A    between atoms: C6_7  and  O1_8 
REMARK    5  A    between atoms: C8_11  and  N2_12 
REMARK    6  A    between atoms: N2_12  and  C9_13 
REMARK    7  A    between atoms: N2_12  and  C12_17 
REMARK    8  A    between atoms: C9_13  and  C10_14 
ROOT
HETATM    1  C10 UNL     1      14.249 -15.169   6.113  1.00  0.00     0.168 C 
HETATM    2  C11 UNL     1      15.554 -14.627   5.737  1.00  0.00     0.064 C 
HETATM    3  N3  UNL     1      16.608 -14.207   5.453  1.00  0.00    -0.197 NA
ENDROOT
BRANCH   1   4
HETATM    4  C9  UNL     1      13.505 -14.082   6.851  1.00  0.00     0.073 C 
BRANCH   4   5
HETATM    5  N2  UNL     1      12.590 -14.554   7.771  1.00  0.00    -0.381 N 
BRANCH   5   6
HETATM    6  C8  UNL     1      12.737 -15.483   8.729  1.00  0.00     0.107 C 
HETATM    7  C2  UNL     1      11.680 -16.361   9.269  1.00  0.00     0.024 C 
HETATM    8  C1  UNL     1      10.996 -17.294   8.350  1.00  0.00     0.014 C 
HETATM    9  C3  UNL     1      12.576 -17.162  10.266  1.00  0.00     0.128 C 
HETATM   10  N1  UNL     1      13.362 -16.155  10.792  1.00  0.00    -0.391 N 
HETATM   11  C7  UNL     1      13.274 -14.947  10.095  1.00  0.00     0.147 C 
BRANCH  10  12
HETATM   12  C4  UNL     1      14.368 -16.385  11.714  1.00  0.00     0.060 C 
BRANCH  12  13
HETATM   13  C5  UNL     1      15.763 -15.951  11.310  1.00  0.00     0.070 C 
BRANCH  13  14
HETATM   14  C6  UNL     1      16.814 -16.702  12.115  1.00  0.00     0.169 C 
BRANCH  14  15
HETATM   15  O1  UNL     1      17.860 -17.129  11.287  1.00  0.00    -0.401 OA
ATOM     16  H1  UNL     1      18.566 -16.493  11.282  1.00  0.00     0.209 HD
ENDBRANCH  14  15
ENDBRANCH  13  14
ENDBRANCH  12  13
ENDBRANCH  10  12
ENDBRANCH   5   6
BRANCH   5  17
HETATM   17  C12 UNL     1      11.311 -13.903   7.689  1.00  0.00     0.084 A 
HETATM   18  C13 UNL     1      11.040 -12.729   6.858  1.00  0.00     0.027 A 
HETATM   19  C14 UNL     1      10.324 -14.094   6.632  1.00  0.00     0.027 A 
ENDBRANCH   5  17
ENDBRANCH   4   5
ENDBRANCH   1   4
TORSDOF 8
ENDMDL
MODEL 4
REMARK VINA RESULT: -6.275492437      3.436      6.300
REMARK  8 active torsions:
REMARK  status: ('A' for Active; 'I' for Inactive)
REMARK    1  A    between atoms: N1_4  and  C4_5 
REMARK    2  A    between atoms: C4_5  and  C5_6 
REMARK    3  A    between atoms: C5_6  and  C6_7 
REMARK    4  A    between atoms: C6_7  and  O1_8 
REMARK    5  A    between atoms: C8_11  and  N2_12 
REMARK    6  A    between atoms: N2_12  and  C9_13 
REMARK    7  A    between atoms: N2_12  and  C12_17 
REMARK    8  A    between atoms: C9_13  and  C10_14 
ROOT
HETATM    1  C10 UNL     1      13.675 -11.395   5.757  1.00  0.00     0.168 C 
HETATM    2  C11 UNL     1      12.930 -10.138   5.702  1.00  0.00     0.064 C 
HETATM    3  N3  UNL     1      12.349  -9.123   5.675  1.00  0.00    -0.197 NA
ENDROOT
BRANCH   1   4
HETATM    4  C9  UNL     1      12.812 -12.398   6.484  1.00  0.00     0.073 C 
BRANCH   4   5
HETATM    5  N2  UNL     1      13.487 -13.539   6.874  1.00  0.00    -0.381 N 
BRANCH   5   6
HETATM    6  C8  UNL     1      13.095 -14.533   7.686  1.00  0.00     0.107 C 
HETATM    7  C2  UNL     1      11.713 -15.015   7.880  1.00  0.00     0.024 C 
HETATM    8  C1  UNL     1      10.985 -15.564   6.716  1.00  0.00     0.014 C 
HETATM    9  C3  UNL     1      12.041 -16.162   8.887  1.00  0.00     0.128 C 
HETATM   10  N1  UNL     1      12.977 -15.550   9.699  1.00  0.00    -0.391 N 
HETATM   11  C7  UNL     1      13.456 -14.338   9.194  1.00  0.00     0.147 C 
BRANCH  10  12
HETATM   12  C4  UNL     1      13.612 -16.198  10.743  1.00  0.00     0.060 C 
BRANCH  12  13
HETATM   13  C5  UNL     1      12.935 -16.117  12.097  1.00  0.00     0.070 C 
BRANCH  13  14
HETATM   14  C6  UNL     1      12.087 -17.356  12.349  1.00  0.00     0.169 C 
BRANCH  14  15
HETATM   15  O1  UNL     1      10.726 -17.066  12.188  1.00  0.00    -0.401 OA
ATOM     16  H1  UNL     1      10.228 -17.364  12.940  1.00  0.00     0.209 HD
ENDBRANCH  14  15
ENDBRANCH  13  14
ENDBRANCH  12  13
ENDBRANCH  10  12
ENDBRANCH   5   6
BRANCH   5  17
HETATM   17  C12 UNL     1      14.784 -13.669   6.268  1.00  0.00     0.084 A 
HETATM   18  C13 UNL     1      15.981 -14.122   6.977  1.00  0.00     0.027 A 
HETATM   19  C14 UNL     1      15.375 -14.908   5.775  1.00  0.00     0.027 A 
ENDBRANCH   5  17
ENDBRANCH   4   5
ENDBRANCH   1   4
TORSDOF 8
ENDMDL
MODEL 5
REMARK VINA RESULT: -6.257008987      1.218      1.381
REMARK  8 active torsions:
REMARK  status: ('A' for Active; 'I' for Inactive)
REMARK    1  A    between atoms: N1_4  and  C4_5 
REMARK    2  A    between atoms: C4_5  and  C5_6 
REMARK    3  A    between atoms: C5_6  and  C6_7 
REMARK    4  A    between atoms: C6_7  and  O1_8 
REMARK    5  A    between atoms: C8_11  and  N2_12 
REMARK    6  A    between atoms: N2_12  and  C9_13 
REMARK    7  A    between atoms: N2_12  and  C12_17 
REMARK    8  A    between atoms: C9_13  and  C10_14 
ROOT
HETATM    1  C10 UNL     1      12.650 -17.383  10.018  1.00  0.00     0.168 C 
HETATM    2  C11 UNL     1      11.770 -17.221  11.175  1.00  0.00     0.064 C 
HETATM    3  N3  UNL     1      11.065 -17.115  12.101  1.00  0.00    -0.197 NA
ENDROOT
BRANCH   1   4
HETATM    4  C9  UNL     1      11.854 -17.011   8.791  1.00  0.00     0.073 C 
BRANCH   4   5
HETATM    5  N2  UNL     1      12.225 -15.805   8.227  1.00  0.00    -0.381 N 
BRANCH   5   6
HETATM    6  C8  UNL     1      13.447 -15.280   8.049  1.00  0.00     0.107 C 
HETATM    7  C2  UNL     1      14.004 -14.100   8.740  1.00  0.00     0.024 C 
HETATM    8  C1  UNL     1      14.142 -14.140  10.211  1.00  0.00     0.014 C 
HETATM    9  C3  UNL     1      15.417 -14.129   8.076  1.00  0.00     0.128 C 
HETATM   10  N1  UNL     1      15.094 -14.421   6.765  1.00  0.00    -0.391 N 
HETATM   11  C7  UNL     1      13.770 -14.831   6.588  1.00  0.00     0.147 C 
BRANCH  10  12
HETATM   12  C4  UNL     1      16.042 -14.597   5.773  1.00  0.00     0.060 C 
BRANCH  12  13
HETATM   13  C5  UNL     1      16.679 -13.337   5.221  1.00  0.00     0.070 C 
BRANCH  13  14
HETATM   14  C6  UNL     1      15.615 -12.311   4.856  1.00  0.00     0.169 C 
BRANCH  14  15
HETATM   15  O1  UNL     1      16.176 -11.250   4.135  1.00  0.00    -0.401 OA
ATOM     16  H1  UNL     1      15.834 -10.418   4.440  1.00  0.00     0.209 HD
ENDBRANCH  14  15
ENDBRANCH  13  14
ENDBRANCH  12  13
ENDBRANCH  10  12
ENDBRANCH   5   6
BRANCH   5  17
HETATM   17  C12 UNL     1      11.112 -15.043   7.730  1.00  0.00     0.084 A 
HETATM   18  C13 UNL     1      10.530 -15.211   6.398  1.00  0.00     0.027 A 
HETATM   19  C14 UNL     1       9.721 -15.483   7.702  1.00  0.00     0.027 A 
ENDBRANCH   5  17
ENDBRANCH   4   5
ENDBRANCH   1   4
TORSDOF 8
ENDMDL
