MODEL 1
REMARK VINA RESULT: -6.239399521      0.000      0.000
REMARK  7 active torsions:
REMARK  status: ('A' for Active; 'I' for Inactive)
REMARK    1  A    between atoms: N1_1  and  C1_4 
REMARK    2  A    between atoms: N2_7  and  C4_8 
REMARK    3  A    between atoms: C4_8  and  C5_9 
REMARK    4  A    between atoms: C5_9  and  C6_10 
REMARK    5  A    between atoms: C6_10  and  C7_11 
REMARK    6  A    between atoms: C7_11  and  C8_12 
REMARK    7  A    between atoms: C8_12  and  N3_13 
ROOT
HETATM    1  C5  UNL     1      13.354 -14.367   9.443  1.00  0.00     0.030 C 
ENDROOT
BRANCH   1   2
HETATM    2  C4  UNL     1      12.831 -15.711   9.868  1.00  0.00     0.272 C 
BRANCH   2   3
HETATM    3  N2  UNL     1      12.399 -16.346   8.586  1.00  0.00     0.089 N 
HETATM    4  C3  UNL     1      11.005 -16.735   8.754  1.00  0.00     0.278 C 
HETATM    5  C2  UNL     1      10.016 -15.983   7.931  1.00  0.00     0.082 C 
HETATM    6  C1  UNL     1      10.376 -14.628   7.624  1.00  0.00    -0.017 C 
HETATM    7  C14 UNL     1      11.650 -15.261   6.446  1.00  0.00     0.082 C 
HETATM    8  C13 UNL     1      12.638 -15.435   7.511  1.00  0.00     0.278 C 
BRANCH   6   9
HETATM    9  N1  UNL     1      10.665 -13.572   7.377  1.00  0.00    -0.405 N 
ATOM     10  H12 UNL     1      11.021 -13.443   8.324  1.00  0.00     0.155 HD
ATOM     11  H11 UNL     1      10.931 -12.611   7.161  1.00  0.00     0.155 HD
ENDBRANCH   6   9
ENDBRANCH   2   3
ENDBRANCH   1   2
BRANCH   1  12
HETATM   12  C6  UNL     1      14.715 -14.072  10.093  1.00  0.00     0.003 C 
BRANCH  12  13
HETATM   13  C7  UNL     1      15.675 -14.118   8.934  1.00  0.00     0.030 C 
BRANCH  13  14
HETATM   14  C8  UNL     1      15.684 -12.984   8.005  1.00  0.00     0.272 C 
BRANCH  14  15
HETATM   15  N3  UNL     1      15.337 -13.376   6.638  1.00  0.00     0.091 N 
HETATM   16  C9  UNL     1      16.570 -13.136   5.889  1.00  0.00     0.300 C 
HETATM   17  C10 UNL     1      16.391 -12.618   4.511  1.00  0.00     0.262 C 
HETATM   18  N4  UNL     1      15.541 -11.447   4.478  1.00  0.00    -0.072 N 
HETATM   19  C11 UNL     1      14.903 -11.192   5.743  1.00  0.00     0.262 C 
ATOM     20  H42 UNL     1      16.057 -10.628   4.156  1.00  0.00     0.277 HD
ATOM     21  H41 UNL     1      14.854 -11.513   3.727  1.00  0.00     0.277 HD
HETATM   22  C12 UNL     1      14.276 -12.493   6.193  1.00  0.00     0.300 C 
ENDBRANCH  14  15
ENDBRANCH  13  14
ENDBRANCH  12  13
ENDBRANCH   1  12
TORSDOF 7
ENDMDL
MODEL 2
REMARK VINA RESULT: -6.134493545      1.943      6.174
REMARK  7 active torsions:
REMARK  status: ('A' for Active; 'I' for Inactive)
REMARK    1  A    between atoms: N1_1  and  C1_4 
REMARK    2  A    between atoms: N2_7  and  C4_8 
REMARK    3  A    between atoms: C4_8  and  C5_9 
REMARK    4  A    between atoms: C5_9  and  C6_10 
REMARK    5  A    between atoms: C6_10  and  C7_11 
REMARK    6  A    between atoms: C7_11  and  C8_12 
REMARK    7  A    between atoms: C8_12  and  N3_13 
ROOT
HETATM    1  C5  UNL     1      11.768 -15.343   6.733  1.00  0.00     0.030 C 
ENDROOT
BRANCH   1   2
HETATM    2  C4  UNL     1      12.608 -14.131   7.024  1.00  0.00     0.272 C 
BRANCH   2   3
HETATM    3  N2  UNL     1      13.948 -14.700   7.362  1.00  0.00     0.089 N 
HETATM    4  C3  UNL     1      14.626 -14.966   6.100  1.00  0.00     0.278 C 
HETATM    5  C2  UNL     1      15.812 -14.113   5.806  1.00  0.00     0.082 C 
HETATM    6  C1  UNL     1      15.770 -12.790   6.362  1.00  0.00    -0.017 C 
HETATM    7  C14 UNL     1      16.057 -13.512   8.037  1.00  0.00     0.082 C 
HETATM    8  C13 UNL     1      14.634 -13.794   8.228  1.00  0.00     0.278 C 
BRANCH   6   9
HETATM    9  N1  UNL     1      15.738 -11.759   6.806  1.00  0.00    -0.405 N 
ATOM     10  H12 UNL     1      16.757 -11.724   6.807  1.00  0.00     0.155 HD
ATOM     11  H11 UNL     1      15.719 -10.823   7.209  1.00  0.00     0.155 HD
ENDBRANCH   6   9
ENDBRANCH   2   3
ENDBRANCH   1   2
BRANCH   1  12
HETATM   12  C6  UNL     1      10.677 -15.530   7.800  1.00  0.00     0.003 C 
BRANCH  12  13
HETATM   13  C7  UNL     1      10.853 -16.962   8.233  1.00  0.00     0.030 C 
BRANCH  13  14
HETATM   14  C8  UNL     1      12.000 -17.284   9.088  1.00  0.00     0.272 C 
BRANCH  14  15
HETATM   15  N3  UNL     1      12.116 -16.380  10.233  1.00  0.00     0.091 N 
HETATM   16  C9  UNL     1      13.539 -16.430  10.567  1.00  0.00     0.300 C 
HETATM   17  C10 UNL     1      13.860 -16.377  12.014  1.00  0.00     0.262 C 
HETATM   18  N4  UNL     1      13.127 -17.372  12.768  1.00  0.00    -0.072 N 
HETATM   19  C11 UNL     1      12.113 -18.024  11.982  1.00  0.00     0.262 C 
ATOM     20  H42 UNL     1      13.760 -18.053  13.189  1.00  0.00     0.277 HD
ATOM     21  H41 UNL     1      12.731 -16.970  13.618  1.00  0.00     0.277 HD
HETATM   22  C12 UNL     1      11.310 -16.935  11.304  1.00  0.00     0.300 C 
ENDBRANCH  14  15
ENDBRANCH  13  14
ENDBRANCH  12  13
ENDBRANCH   1  12
TORSDOF 7
ENDMDL
MODEL 3
REMARK VINA RESULT: -6.076328145      1.921      6.229
REMARK  7 active torsions:
REMARK  status: ('A' for Active; 'I' for Inactive)
REMARK    1  A    between atoms: N1_1  and  C1_4 
REMARK    2  A    between atoms: N2_7  and  C4_8 
REMARK    3  A    between atoms: C4_8  and  C5_9 
REMARK    4  A    between atoms: C5_9  and  C6_10 
REMARK    5  A    between atoms: C6_10  and  C7_11 
REMARK    6  A    between atoms: C7_11  and  C8_12 
REMARK    7  A    between atoms: C8_12  and  N3_13 
ROOT
HETATM    1  C5  UNL     1      14.551 -12.313   6.081  1.00  0.00     0.030 C 
ENDROOT
BRANCH   1   2
HETATM    2  C4  UNL     1      15.412 -11.840   4.943  1.00  0.00     0.272 C 
BRANCH   2   3
HETATM    3  N2  UNL     1      14.562 -10.819   4.256  1.00  0.00     0.089 N 
HETATM    4  C3  UNL     1      13.454 -10.517   5.153  1.00  0.00     0.278 C 
HETATM    5  C2  UNL     1      13.445  -9.147   5.738  1.00  0.00     0.082 C 
HETATM    6  C1  UNL     1      14.738  -8.552   5.929  1.00  0.00    -0.017 C 
HETATM    7  C14 UNL     1      14.878  -8.331   4.101  1.00  0.00     0.082 C 
HETATM    8  C13 UNL     1      15.373  -9.694   3.911  1.00  0.00     0.278 C 
BRANCH   6   9
HETATM    9  N1  UNL     1      15.750  -8.086   6.068  1.00  0.00    -0.405 N 
ATOM     10  H12 UNL     1      15.314  -7.238   6.429  1.00  0.00     0.155 HD
ATOM     11  H11 UNL     1      16.665  -7.654   6.197  1.00  0.00     0.155 HD
ENDBRANCH   6   9
ENDBRANCH   2   3
ENDBRANCH   1   2
BRANCH   1  12
HETATM   12  C6  UNL     1      15.403 -12.952   7.190  1.00  0.00     0.003 C 
BRANCH  12  13
HETATM   13  C7  UNL     1      15.054 -14.414   7.101  1.00  0.00     0.030 C 
BRANCH  13  14
HETATM   14  C8  UNL     1      13.659 -14.771   6.822  1.00  0.00     0.272 C 
BRANCH  14  15
HETATM   15  N3  UNL     1      12.945 -15.219   8.018  1.00  0.00     0.091 N 
HETATM   16  C9  UNL     1      12.255 -16.429   7.573  1.00  0.00     0.300 C 
HETATM   17  C10 UNL     1      10.902 -16.641   8.143  1.00  0.00     0.262 C 
HETATM   18  N4  UNL     1      10.053 -15.480   7.970  1.00  0.00    -0.072 N 
HETATM   19  C11 UNL     1      10.778 -14.333   7.488  1.00  0.00     0.262 C 
ATOM     20  H42 UNL     1       9.259 -15.693   7.366  1.00  0.00     0.277 HD
ATOM     21  H41 UNL     1       9.551 -15.261   8.831  1.00  0.00     0.277 HD
HETATM   22  C12 UNL     1      11.998 -14.178   8.370  1.00  0.00     0.300 C 
ENDBRANCH  14  15
ENDBRANCH  13  14
ENDBRANCH  12  13
ENDBRANCH   1  12
TORSDOF 7
ENDMDL
MODEL 4
REMARK VINA RESULT: -6.043596134      2.099      5.144
REMARK  7 active torsions:
REMARK  status: ('A' for Active; 'I' for Inactive)
REMARK    1  A    between atoms: N1_1  and  C1_4 
REMARK    2  A    between atoms: N2_7  and  C4_8 
REMARK    3  A    between atoms: C4_8  and  C5_9 
REMARK    4  A    between atoms: C5_9  and  C6_10 
REMARK    5  A    between atoms: C6_10  and  C7_11 
REMARK    6  A    between atoms: C7_11  and  C8_12 
REMARK    7  A    between atoms: C8_12  and  N3_13 
ROOT
HETATM    1  C5  UNL     1      15.153 -13.374   8.258  1.00  0.00     0.030 C 
ENDROOT
BRANCH   1   2
HETATM    2  C4  UNL     1      15.022 -14.677   7.520  1.00  0.00     0.272 C 
BRANCH   2   3
HETATM    3  N2  UNL     1      13.953 -14.408   6.511  1.00  0.00     0.089 N 
HETATM    4  C3  UNL     1      13.160 -15.626   6.399  1.00  0.00     0.278 C 
HETATM    5  C2  UNL     1      11.762 -15.541   6.908  1.00  0.00     0.082 C 
HETATM    6  C1  UNL     1      11.557 -14.618   7.988  1.00  0.00    -0.017 C 
HETATM    7  C14 UNL     1      11.757 -13.220   6.798  1.00  0.00     0.082 C 
HETATM    8  C13 UNL     1      13.215 -13.251   6.910  1.00  0.00     0.278 C 
BRANCH   6   9
HETATM    9  N1  UNL     1      11.397 -13.888   8.826  1.00  0.00    -0.405 N 
ATOM     10  H12 UNL     1      12.206 -14.269   9.317  1.00  0.00     0.155 HD
ATOM     11  H11 UNL     1      11.259 -13.229   9.592  1.00  0.00     0.155 HD
ENDBRANCH   6   9
ENDBRANCH   2   3
ENDBRANCH   1   2
BRANCH   1  12
HETATM   12  C6  UNL     1      15.230 -13.602   9.776  1.00  0.00     0.003 C 
BRANCH  12  13
HETATM   13  C7  UNL     1      14.655 -14.982   9.952  1.00  0.00     0.030 C 
BRANCH  13  14
HETATM   14  C8  UNL     1      14.940 -15.689  11.205  1.00  0.00     0.272 C 
BRANCH  14  15
HETATM   15  N3  UNL     1      14.171 -16.927  11.338  1.00  0.00     0.091 N 
HETATM   16  C9  UNL     1      13.197 -16.845  10.250  1.00  0.00     0.300 C 
HETATM   17  C10 UNL     1      11.849 -17.382  10.556  1.00  0.00     0.262 C 
HETATM   18  N4  UNL     1      11.302 -16.815  11.770  1.00  0.00    -0.072 N 
HETATM   19  C11 UNL     1      12.269 -16.038  12.502  1.00  0.00     0.262 C 
ATOM     20  H42 UNL     1      10.464 -16.267  11.575  1.00  0.00     0.277 HD
ATOM     21  H41 UNL     1      10.891 -17.538  12.361  1.00  0.00     0.277 HD
HETATM   22  C12 UNL     1      13.514 -16.889  12.630  1.00  0.00     0.300 C 
ENDBRANCH  14  15
ENDBRANCH  13  14
ENDBRANCH  12  13
ENDBRANCH   1  12
TORSDOF 7
ENDMDL
MODEL 5
REMARK VINA RESULT: -6.042187693      1.892      3.104
REMARK  7 active torsions:
REMARK  status: ('A' for Active; 'I' for Inactive)
REMARK    1  A    between atoms: N1_1  and  C1_4 
REMARK    2  A    between atoms: N2_7  and  C4_8 
REMARK    3  A    between atoms: C4_8  and  C5_9 
REMARK    4  A    between atoms: C5_9  and  C6_10 
REMARK    5  A    between atoms: C6_10  and  C7_11 
REMARK    6  A    between atoms: C7_11  and  C8_12 
REMARK    7  A    between atoms: C8_12  and  N3_13 
ROOT
HETATM    1  C5  UNL     1      14.561 -13.891   6.701  1.00  0.00     0.030 C 
ENDROOT
BRANCH   1   2
HETATM    2  C4  UNL     1      13.850 -15.195   6.469  1.00  0.00     0.272 C 
BRANCH   2   3
HETATM    3  N2  UNL     1      12.890 -15.284   7.611  1.00  0.00     0.089 N 
HETATM    4  C3  UNL     1      12.402 -13.935   7.862  1.00  0.00     0.278 C 
HETATM    5  C2  UNL     1      10.964 -13.695   7.552  1.00  0.00     0.082 C 
HETATM    6  C1  UNL     1      10.423 -14.495   6.491  1.00  0.00    -0.017 C 
HETATM    7  C14 UNL     1      10.471 -15.965   7.608  1.00  0.00     0.082 C 
HETATM    8  C13 UNL     1      11.873 -16.237   7.293  1.00  0.00     0.278 C 
BRANCH   6   9
HETATM    9  N1  UNL     1      10.000 -15.130   5.666  1.00  0.00    -0.405 N 
ATOM     10  H12 UNL     1      10.174 -14.382   4.995  1.00  0.00     0.155 HD
ATOM     11  H11 UNL     1       9.617 -15.699   4.912  1.00  0.00     0.155 HD
ENDBRANCH   6   9
ENDBRANCH   2   3
ENDBRANCH   1   2
BRANCH   1  12
HETATM   12  C6  UNL     1      15.711 -13.701   5.699  1.00  0.00     0.003 C 
BRANCH  12  13
HETATM   13  C7  UNL     1      15.483 -12.313   5.161  1.00  0.00     0.030 C 
BRANCH  13  14
HETATM   14  C8  UNL     1      14.407 -11.515   5.758  1.00  0.00     0.272 C 
BRANCH  14  15
HETATM   15  N3  UNL     1      13.973 -10.421   4.888  1.00  0.00     0.091 N 
HETATM   16  C9  UNL     1      15.098 -10.245   3.970  1.00  0.00     0.300 C 
HETATM   17  C10 UNL     1      15.393  -8.844   3.581  1.00  0.00     0.262 C 
HETATM   18  N4  UNL     1      15.538  -7.980   4.733  1.00  0.00    -0.072 N 
HETATM   19  C11 UNL     1      15.154  -8.627   5.961  1.00  0.00     0.262 C 
ATOM     20  H42 UNL     1      16.486  -7.609   4.796  1.00  0.00     0.277 HD
ATOM     21  H41 UNL     1      15.028  -7.106   4.604  1.00  0.00     0.277 HD
HETATM   22  C12 UNL     1      13.795  -9.250   5.726  1.00  0.00     0.300 C 
ENDBRANCH  14  15
ENDBRANCH  13  14
ENDBRANCH  12  13
ENDBRANCH   1  12
TORSDOF 7
ENDMDL
