MODEL 1
REMARK VINA RESULT: -5.743681298      0.000      0.000
REMARK  6 active torsions:
REMARK  status: ('A' for Active; 'I' for Inactive)
REMARK    1  A    between atoms: C3_3  and  C4_4 
REMARK    2  A    between atoms: C3_3  and  C17_23 
REMARK    3  A    between atoms: C12_12  and  O1_14 
REMARK    4  A    between atoms: C15_17  and  C16_18 
REMARK    5  A    between atoms: C16_18  and  O2_19 
REMARK    6  A    between atoms: O2_19  and  N1_20 
ROOT
HETATM    1  C4  UNL     1      23.725  -7.313  -1.785  1.00  0.00     0.021 C 
HETATM    2  C5  UNL     1      24.470  -6.916  -2.950  1.00  0.00    -0.071 C 
HETATM    3  C6  UNL     1      24.416  -5.443  -3.305  1.00  0.00     0.044 C 
HETATM    4  C7  UNL     1      24.705  -5.381  -4.789  1.00  0.00    -0.033 C 
HETATM    5  C8  UNL     1      23.435  -5.288  -5.541  1.00  0.00     0.016 C 
HETATM    6  C9  UNL     1      25.635  -4.278  -5.170  1.00  0.00     0.010 C 
HETATM    7  C10 UNL     1      25.930  -4.467  -6.642  1.00  0.00     0.004 C 
HETATM    8  C11 UNL     1      26.469  -5.786  -6.989  1.00  0.00     0.038 C 
HETATM    9  C12 UNL     1      25.850  -6.993  -6.328  1.00  0.00     0.059 C 
HETATM   10  C13 UNL     1      26.986  -8.037  -6.359  1.00  0.00     0.046 C 
HETATM   11  C14 UNL     1      25.458  -6.707  -4.967  1.00  0.00     0.038 C 
HETATM   12  C15 UNL     1      24.454  -7.587  -4.270  1.00  0.00     0.048 C 
ENDROOT
BRANCH   1  13
HETATM   13  C3  UNL     1      22.320  -7.126  -1.590  1.00  0.00     0.036 C 
HETATM   14  C2  UNL     1      21.906  -6.378  -0.524  1.00  0.00    -0.013 C 
HETATM   15  C1  UNL     1      22.892  -5.770   0.414  1.00  0.00     0.037 C 
BRANCH  13  16
HETATM   16  C17 UNL     1      21.250  -7.679  -2.362  1.00  0.00     0.209 C 
HETATM   17  O3  UNL     1      20.313  -8.374  -1.791  1.00  0.00    -0.644 OA
HETATM   18  O4  UNL     1      21.133  -7.532  -3.728  1.00  0.00    -0.644 OA
ENDBRANCH  13  16
ENDBRANCH   1  13
BRANCH  12  19
HETATM   19  C16 UNL     1      24.873  -9.013  -4.122  1.00  0.00     0.210 C 
BRANCH  19  20
HETATM   20  O2  UNL     1      24.298  -9.868  -5.059  1.00  0.00    -0.287 OA
BRANCH  20  21
HETATM   21  N1  UNL     1      23.117  -9.317  -5.426  1.00  0.00    -0.311 N 
ATOM     22  H12 UNL     1      22.870  -8.331  -5.348  1.00  0.00     0.184 HD
ATOM     23  H11 UNL     1      22.535 -10.073  -5.788  1.00  0.00     0.184 HD
ENDBRANCH  20  21
ENDBRANCH  19  20
ENDBRANCH  12  19
BRANCH   9  24
HETATM   24  O1  UNL     1      24.862  -7.569  -7.135  1.00  0.00    -0.390 OA
ATOM     25  H1  UNL     1      24.086  -7.023  -7.179  1.00  0.00     0.210 HD
ENDBRANCH   9  24
TORSDOF 6
ENDMDL
MODEL 2
REMARK VINA RESULT: -5.663836506      1.108      1.261
REMARK  6 active torsions:
REMARK  status: ('A' for Active; 'I' for Inactive)
REMARK    1  A    between atoms: C3_3  and  C4_4 
REMARK    2  A    between atoms: C3_3  and  C17_23 
REMARK    3  A    between atoms: C12_12  and  O1_14 
REMARK    4  A    between atoms: C15_17  and  C16_18 
REMARK    5  A    between atoms: C16_18  and  O2_19 
REMARK    6  A    between atoms: O2_19  and  N1_20 
ROOT
HETATM    1  C4  UNL     1      23.528  -7.559  -2.618  1.00  0.00     0.021 C 
HETATM    2  C5  UNL     1      24.501  -7.251  -3.632  1.00  0.00    -0.071 C 
HETATM    3  C6  UNL     1      24.522  -5.816  -4.120  1.00  0.00     0.044 C 
HETATM    4  C7  UNL     1      25.117  -5.879  -5.511  1.00  0.00    -0.033 C 
HETATM    5  C8  UNL     1      24.033  -5.876  -6.517  1.00  0.00     0.016 C 
HETATM    6  C9  UNL     1      26.106  -4.796  -5.786  1.00  0.00     0.010 C 
HETATM    7  C10 UNL     1      26.704  -5.107  -7.141  1.00  0.00     0.004 C 
HETATM    8  C11 UNL     1      27.303  -6.442  -7.248  1.00  0.00     0.038 C 
HETATM    9  C12 UNL     1      26.560  -7.598  -6.626  1.00  0.00     0.059 C 
HETATM   10  C13 UNL     1      27.677  -8.619  -6.325  1.00  0.00     0.046 C 
HETATM   11  C14 UNL     1      25.890  -7.202  -5.408  1.00  0.00     0.038 C 
HETATM   12  C15 UNL     1      24.762  -8.036  -4.861  1.00  0.00     0.048 C 
ENDROOT
BRANCH   1  13
HETATM   13  C3  UNL     1      22.113  -7.383  -2.739  1.00  0.00     0.036 C 
HETATM   14  C2  UNL     1      21.406  -7.026  -1.625  1.00  0.00    -0.013 C 
HETATM   15  C1  UNL     1      22.089  -6.825  -0.315  1.00  0.00     0.037 C 
BRANCH  13  16
HETATM   16  C17 UNL     1      21.304  -7.586  -3.901  1.00  0.00     0.209 C 
HETATM   17  O3  UNL     1      20.649  -6.596  -4.431  1.00  0.00    -0.644 OA
HETATM   18  O4  UNL     1      21.152  -8.803  -4.528  1.00  0.00    -0.644 OA
ENDBRANCH  13  16
ENDBRANCH   1  13
BRANCH  12  19
HETATM   19  C16 UNL     1      25.141  -9.435  -4.501  1.00  0.00     0.210 C 
BRANCH  19  20
HETATM   20  O2  UNL     1      24.720 -10.387  -5.427  1.00  0.00    -0.287 OA
BRANCH  20  21
HETATM   21  N1  UNL     1      23.591  -9.908  -6.002  1.00  0.00    -0.311 N 
ATOM     22  H12 UNL     1      23.201  -8.976  -5.864  1.00  0.00     0.184 HD
ATOM     23  H11 UNL     1      23.216 -10.654  -6.589  1.00  0.00     0.184 HD
ENDBRANCH  20  21
ENDBRANCH  19  20
ENDBRANCH  12  19
BRANCH   9  24
HETATM   24  O1  UNL     1      25.763  -8.261  -7.566  1.00  0.00    -0.390 OA
ATOM     25  H1  UNL     1      25.874  -9.203  -7.515  1.00  0.00     0.210 HD
ENDBRANCH   9  24
TORSDOF 6
ENDMDL
MODEL 3
REMARK VINA RESULT: -5.444035635      2.636      3.954
REMARK  6 active torsions:
REMARK  status: ('A' for Active; 'I' for Inactive)
REMARK    1  A    between atoms: C3_3  and  C4_4 
REMARK    2  A    between atoms: C3_3  and  C17_23 
REMARK    3  A    between atoms: C12_12  and  O1_14 
REMARK    4  A    between atoms: C15_17  and  C16_18 
REMARK    5  A    between atoms: C16_18  and  O2_19 
REMARK    6  A    between atoms: O2_19  and  N1_20 
ROOT
HETATM    1  C4  UNL     1      22.158  -7.155  -0.265  1.00  0.00     0.021 C 
HETATM    2  C5  UNL     1      22.534  -7.519  -1.605  1.00  0.00    -0.071 C 
HETATM    3  C6  UNL     1      23.950  -7.169  -2.018  1.00  0.00     0.044 C 
HETATM    4  C7  UNL     1      23.908  -7.064  -3.528  1.00  0.00    -0.033 C 
HETATM    5  C8  UNL     1      23.775  -5.646  -3.926  1.00  0.00     0.016 C 
HETATM    6  C9  UNL     1      25.076  -7.702  -4.202  1.00  0.00     0.010 C 
HETATM    7  C10 UNL     1      24.789  -7.641  -5.687  1.00  0.00     0.004 C 
HETATM    8  C11 UNL     1      23.519  -8.257  -6.085  1.00  0.00     0.038 C 
HETATM    9  C12 UNL     1      22.312  -8.003  -5.216  1.00  0.00     0.059 C 
HETATM   10  C13 UNL     1      21.417  -9.230  -5.483  1.00  0.00     0.046 C 
HETATM   11  C14 UNL     1      22.673  -7.928  -3.819  1.00  0.00     0.038 C 
HETATM   12  C15 UNL     1      21.746  -7.268  -2.834  1.00  0.00     0.048 C 
ENDROOT
BRANCH   1  13
HETATM   13  C3  UNL     1      22.189  -5.833   0.280  1.00  0.00     0.036 C 
HETATM   14  C2  UNL     1      21.000  -5.206   0.529  1.00  0.00    -0.013 C 
HETATM   15  C1  UNL     1      19.702  -5.880   0.240  1.00  0.00     0.037 C 
BRANCH  13  16
HETATM   16  C17 UNL     1      23.339  -5.032   0.563  1.00  0.00     0.209 C 
HETATM   17  O3  UNL     1      23.308  -4.142   1.510  1.00  0.00    -0.644 OA
HETATM   18  O4  UNL     1      24.532  -5.130  -0.122  1.00  0.00    -0.644 OA
ENDBRANCH  13  16
ENDBRANCH   1  13
BRANCH  12  19
HETATM   19  C16 UNL     1      20.402  -7.908  -2.718  1.00  0.00     0.210 C 
BRANCH  19  20
HETATM   20  O2  UNL     1      19.396  -7.235  -3.407  1.00  0.00    -0.287 OA
BRANCH  20  21
HETATM   21  N1  UNL     1      18.244  -7.440  -2.726  1.00  0.00    -0.311 N 
ATOM     22  H12 UNL     1      18.133  -7.391  -1.713  1.00  0.00     0.184 HD
ATOM     23  H11 UNL     1      17.522  -7.650  -3.416  1.00  0.00     0.184 HD
ENDBRANCH  20  21
ENDBRANCH  19  20
ENDBRANCH  12  19
BRANCH   9  24
HETATM   24  O1  UNL     1      21.547  -6.936  -5.701  1.00  0.00    -0.390 OA
ATOM     25  H1  UNL     1      20.745  -6.827  -5.204  1.00  0.00     0.210 HD
ENDBRANCH   9  24
TORSDOF 6
ENDMDL
MODEL 4
REMARK VINA RESULT: -5.318767765     14.145     17.944
REMARK  6 active torsions:
REMARK  status: ('A' for Active; 'I' for Inactive)
REMARK    1  A    between atoms: C3_3  and  C4_4 
REMARK    2  A    between atoms: C3_3  and  C17_23 
REMARK    3  A    between atoms: C12_12  and  O1_14 
REMARK    4  A    between atoms: C15_17  and  C16_18 
REMARK    5  A    between atoms: C16_18  and  O2_19 
REMARK    6  A    between atoms: O2_19  and  N1_20 
ROOT
HETATM    1  C4  UNL     1      15.870 -13.835   6.327  1.00  0.00     0.021 C 
HETATM    2  C5  UNL     1      14.807 -14.524   7.009  1.00  0.00    -0.071 C 
HETATM    3  C6  UNL     1      13.624 -14.934   6.154  1.00  0.00     0.044 C 
HETATM    4  C7  UNL     1      12.460 -15.044   7.115  1.00  0.00    -0.033 C 
HETATM    5  C8  UNL     1      11.659 -13.801   7.074  1.00  0.00     0.016 C 
HETATM    6  C9  UNL     1      11.602 -16.242   6.877  1.00  0.00     0.010 C 
HETATM    7  C10 UNL     1      10.600 -16.273   8.011  1.00  0.00     0.004 C 
HETATM    8  C11 UNL     1      11.200 -16.282   9.350  1.00  0.00     0.038 C 
HETATM    9  C12 UNL     1      12.379 -15.373   9.598  1.00  0.00     0.059 C 
HETATM   10  C13 UNL     1      13.129 -16.071  10.751  1.00  0.00     0.046 C 
HETATM   11  C14 UNL     1      13.222 -15.270   8.428  1.00  0.00     0.038 C 
HETATM   12  C15 UNL     1      14.182 -14.119   8.289  1.00  0.00     0.048 C 
ENDROOT
BRANCH   1  13
HETATM   13  C3  UNL     1      15.738 -12.613   5.595  1.00  0.00     0.036 C 
HETATM   14  C2  UNL     1      16.547 -12.416   4.511  1.00  0.00    -0.013 C 
HETATM   15  C1  UNL     1      17.544 -13.445   4.100  1.00  0.00     0.037 C 
BRANCH  13  16
HETATM   16  C17 UNL     1      14.875 -11.511   5.885  1.00  0.00     0.209 C 
HETATM   17  O3  UNL     1      15.353 -10.411   6.385  1.00  0.00    -0.644 OA
HETATM   18  O4  UNL     1      13.513 -11.524   5.672  1.00  0.00    -0.644 OA
ENDBRANCH  13  16
ENDBRANCH   1  13
BRANCH  12  19
HETATM   19  C16 UNL     1      15.219 -14.040   9.360  1.00  0.00     0.210 C 
BRANCH  19  20
HETATM   20  O2  UNL     1      16.001 -15.188   9.472  1.00  0.00    -0.287 OA
BRANCH  20  21
HETATM   21  N1  UNL     1      16.157 -15.432  10.795  1.00  0.00    -0.311 N 
ATOM     22  H12 UNL     1      17.015 -15.752  11.244  1.00  0.00     0.184 HD
ATOM     23  H11 UNL     1      15.262 -15.235  11.243  1.00  0.00     0.184 HD
ENDBRANCH  20  21
ENDBRANCH  19  20
ENDBRANCH  12  19
BRANCH   9  24
HETATM   24  O1  UNL     1      11.979 -14.157  10.164  1.00  0.00    -0.390 OA
ATOM     25  H1  UNL     1      12.726 -13.623  10.404  1.00  0.00     0.210 HD
ENDBRANCH   9  24
TORSDOF 6
ENDMDL
MODEL 5
REMARK VINA RESULT: -5.310137176     14.951     18.772
REMARK  6 active torsions:
REMARK  status: ('A' for Active; 'I' for Inactive)
REMARK    1  A    between atoms: C3_3  and  C4_4 
REMARK    2  A    between atoms: C3_3  and  C17_23 
REMARK    3  A    between atoms: C12_12  and  O1_14 
REMARK    4  A    between atoms: C15_17  and  C16_18 
REMARK    5  A    between atoms: C16_18  and  O2_19 
REMARK    6  A    between atoms: O2_19  and  N1_20 
ROOT
HETATM    1  C4  UNL     1      13.568 -13.018   6.602  1.00  0.00     0.021 C 
HETATM    2  C5  UNL     1      13.068 -13.853   7.661  1.00  0.00    -0.071 C 
HETATM    3  C6  UNL     1      13.765 -13.717   9.000  1.00  0.00     0.044 C 
HETATM    4  C7  UNL     1      13.524 -15.034   9.708  1.00  0.00    -0.033 C 
HETATM    5  C8  UNL     1      14.700 -15.914   9.537  1.00  0.00     0.016 C 
HETATM    6  C9  UNL     1      13.174 -14.880  11.150  1.00  0.00     0.010 C 
HETATM    7  C10 UNL     1      12.818 -16.265  11.646  1.00  0.00     0.004 C 
HETATM    8  C11 UNL     1      11.750 -16.925  10.887  1.00  0.00     0.038 C 
HETATM    9  C12 UNL     1      11.776 -16.800   9.384  1.00  0.00     0.059 C 
HETATM   10  C13 UNL     1      10.296 -16.978   8.987  1.00  0.00     0.046 C 
HETATM   11  C14 UNL     1      12.262 -15.503   8.970  1.00  0.00     0.038 C 
HETATM   12  C15 UNL     1      12.778 -15.302   7.570  1.00  0.00     0.048 C 
ENDROOT
BRANCH   1  13
HETATM   13  C3  UNL     1      14.912 -13.007   6.111  1.00  0.00     0.036 C 
HETATM   14  C2  UNL     1      15.370 -11.874   5.498  1.00  0.00    -0.013 C 
HETATM   15  C1  UNL     1      14.494 -10.679   5.343  1.00  0.00     0.037 C 
BRANCH  13  16
HETATM   16  C17 UNL     1      15.858 -14.079   6.135  1.00  0.00     0.209 C 
HETATM   17  O3  UNL     1      16.164 -14.715   5.044  1.00  0.00    -0.644 OA
HETATM   18  O4  UNL     1      16.497 -14.516   7.276  1.00  0.00    -0.644 OA
ENDBRANCH  13  16
ENDBRANCH   1  13
BRANCH  12  19
HETATM   19  C16 UNL     1      11.774 -15.555   6.494  1.00  0.00     0.210 C 
BRANCH  19  20
HETATM   20  O2  UNL     1      10.602 -14.815   6.634  1.00  0.00    -0.287 OA
BRANCH  20  21
HETATM   21  N1  UNL     1      10.089 -14.647   5.391  1.00  0.00    -0.311 N 
ATOM     22  H12 UNL     1      10.131 -13.790   4.840  1.00  0.00     0.184 HD
ATOM     23  H11 UNL     1       9.661 -15.534   5.124  1.00  0.00     0.184 HD
ENDBRANCH  20  21
ENDBRANCH  19  20
ENDBRANCH  12  19
BRANCH   9  24
HETATM   24  O1  UNL     1      12.403 -17.900   8.788  1.00  0.00    -0.390 OA
ATOM     25  H1  UNL     1      12.325 -17.875   7.842  1.00  0.00     0.210 HD
ENDBRANCH   9  24
TORSDOF 6
ENDMDL
