MODEL 1
REMARK VINA RESULT: -6.481626778      0.000      0.000
REMARK  8 active torsions:
REMARK  status: ('A' for Active; 'I' for Inactive)
REMARK    1  A    between atoms: C2_2  and  O1_3 
REMARK    2  A    between atoms: C2_2  and  C3_5 
REMARK    3  A    between atoms: C3_5  and  N1_6 
REMARK    4  A    between atoms: C3_5  and  C16_21 
REMARK    5  A    between atoms: N1_6  and  C4_8 
REMARK    6  A    between atoms: C4_8  and  O2_9 
REMARK    7  A    between atoms: C4_8  and  C9_14 
REMARK    8  A    between atoms: O2_9  and  C5_10 
ROOT
HETATM    1  C4  UNL     1      14.189 -13.943   7.910  1.00  0.00     0.226 C 
ENDROOT
BRANCH   1   2
HETATM    2  N1  UNL     1      13.062 -14.576   7.283  1.00  0.00    -0.380 N 
ATOM      3  H1  UNL     1      13.184 -14.890   6.321  1.00  0.00     0.156 HD
BRANCH   2   4
HETATM    4  C3  UNL     1      11.842 -14.796   7.858  1.00  0.00     0.209 C 
BRANCH   4   5
HETATM    5  C2  UNL     1      10.766 -14.274   6.859  1.00  0.00     0.147 C 
HETATM    6  C1  UNL     1      10.953 -12.808   6.639  1.00  0.00     0.042 C 
BRANCH   5   7
HETATM    7  O1  UNL     1      10.837 -14.931   5.649  1.00  0.00    -0.393 OA
ATOM      8  H1  UNL     1      10.297 -14.479   5.012  1.00  0.00     0.210 HD
ENDBRANCH   5   7
ENDBRANCH   4   5
BRANCH   4   9
HETATM    9  C16 UNL     1      11.477 -16.266   8.001  1.00  0.00     0.199 C 
HETATM   10  O3  UNL     1      10.235 -16.525   8.160  1.00  0.00    -0.646 OA
HETATM   11  O4  UNL     1      12.390 -17.288   7.960  1.00  0.00    -0.646 OA
ENDBRANCH   4   9
ENDBRANCH   2   4
ENDBRANCH   1   2
BRANCH   1  12
HETATM   12  O2  UNL     1      14.738 -15.009   8.639  1.00  0.00    -0.357 OA
BRANCH  12  13
HETATM   13  C5  UNL     1      14.714 -15.034   9.956  1.00  0.00     0.052 C 
HETATM   14  C6  UNL     1      13.659 -15.869  10.630  1.00  0.00     0.045 C 
HETATM   15  C7  UNL     1      14.599 -13.619  10.506  1.00  0.00     0.045 C 
HETATM   16  C8  UNL     1      16.026 -15.566  10.574  1.00  0.00     0.045 C 
ENDBRANCH  12  13
ENDBRANCH   1  12
BRANCH   1  17
HETATM   17  C9  UNL     1      15.292 -13.497   7.012  1.00  0.00     0.001 C 
HETATM   18  C10 UNL     1      16.384 -12.904   7.871  1.00  0.00     0.020 C 
HETATM   19  C11 UNL     1      14.883 -12.452   6.013  1.00  0.00     0.018 C 
HETATM   20  C12 UNL     1      15.789 -12.557   4.812  1.00  0.00    -0.009 A 
HETATM   21  C13 UNL     1      17.215 -12.783   4.831  1.00  0.00     0.010 A 
HETATM   22  C14 UNL     1      16.293 -13.936   4.816  1.00  0.00    -0.009 A 
HETATM   23  C15 UNL     1      15.811 -14.566   6.089  1.00  0.00     0.018 C 
ENDBRANCH   1  17
TORSDOF 8
ENDMDL
MODEL 2
REMARK VINA RESULT: -6.431883353      1.863      5.338
REMARK  8 active torsions:
REMARK  status: ('A' for Active; 'I' for Inactive)
REMARK    1  A    between atoms: C2_2  and  O1_3 
REMARK    2  A    between atoms: C2_2  and  C3_5 
REMARK    3  A    between atoms: C3_5  and  N1_6 
REMARK    4  A    between atoms: C3_5  and  C16_21 
REMARK    5  A    between atoms: N1_6  and  C4_8 
REMARK    6  A    between atoms: C4_8  and  O2_9 
REMARK    7  A    between atoms: C4_8  and  C9_14 
REMARK    8  A    between atoms: O2_9  and  C5_10 
ROOT
HETATM    1  C4  UNL     1      13.451 -14.133   8.384  1.00  0.00     0.226 C 
ENDROOT
BRANCH   1   2
HETATM    2  N1  UNL     1      14.618 -13.957   7.564  1.00  0.00    -0.380 N 
ATOM      3  H1  UNL     1      15.521 -13.957   8.039  1.00  0.00     0.156 HD
BRANCH   2   4
HETATM    4  C3  UNL     1      14.629 -13.789   6.208  1.00  0.00     0.209 C 
BRANCH   4   5
HETATM    5  C2  UNL     1      15.514 -12.540   5.910  1.00  0.00     0.147 C 
HETATM    6  C1  UNL     1      14.644 -11.341   5.722  1.00  0.00     0.042 C 
BRANCH   5   7
HETATM    7  O1  UNL     1      16.411 -12.301   6.929  1.00  0.00    -0.393 OA
ATOM      8  H1  UNL     1      17.253 -12.066   6.559  1.00  0.00     0.210 HD
ENDBRANCH   5   7
ENDBRANCH   4   5
BRANCH   4   9
HETATM    9  C16 UNL     1      15.348 -14.894   5.450  1.00  0.00     0.199 C 
HETATM   10  O3  UNL     1      14.703 -15.988   5.301  1.00  0.00    -0.646 OA
HETATM   11  O4  UNL     1      16.611 -14.767   4.931  1.00  0.00    -0.646 OA
ENDBRANCH   4   9
ENDBRANCH   2   4
ENDBRANCH   1   2
BRANCH   1  12
HETATM   12  O2  UNL     1      12.663 -14.963   7.571  1.00  0.00    -0.357 OA
BRANCH  12  13
HETATM   13  C5  UNL     1      11.425 -14.647   7.252  1.00  0.00     0.052 C 
HETATM   14  C6  UNL     1      10.933 -13.267   7.597  1.00  0.00     0.045 C 
HETATM   15  C7  UNL     1      10.453 -15.647   7.864  1.00  0.00     0.045 C 
HETATM   16  C8  UNL     1      11.148 -14.745   5.735  1.00  0.00     0.045 C 
ENDBRANCH  12  13
ENDBRANCH   1  12
BRANCH   1  17
HETATM   17  C9  UNL     1      13.630 -14.906   9.646  1.00  0.00     0.001 C 
HETATM   18  C10 UNL     1      15.052 -14.712  10.115  1.00  0.00     0.020 C 
HETATM   19  C11 UNL     1      13.399 -16.383   9.496  1.00  0.00     0.018 C 
HETATM   20  C12 UNL     1      12.961 -16.937  10.828  1.00  0.00    -0.009 A 
HETATM   21  C13 UNL     1      13.498 -16.584  12.121  1.00  0.00     0.010 A 
HETATM   22  C14 UNL     1      12.381 -15.802  11.557  1.00  0.00    -0.009 A 
HETATM   23  C15 UNL     1      12.627 -14.582  10.720  1.00  0.00     0.018 C 
ENDBRANCH   1  17
TORSDOF 8
ENDMDL
MODEL 3
REMARK VINA RESULT: -6.203208864      0.819      1.348
REMARK  8 active torsions:
REMARK  status: ('A' for Active; 'I' for Inactive)
REMARK    1  A    between atoms: C2_2  and  O1_3 
REMARK    2  A    between atoms: C2_2  and  C3_5 
REMARK    3  A    between atoms: C3_5  and  N1_6 
REMARK    4  A    between atoms: C3_5  and  C16_21 
REMARK    5  A    between atoms: N1_6  and  C4_8 
REMARK    6  A    between atoms: C4_8  and  O2_9 
REMARK    7  A    between atoms: C4_8  and  C9_14 
REMARK    8  A    between atoms: O2_9  and  C5_10 
ROOT
HETATM    1  C4  UNL     1      13.896 -14.327   7.926  1.00  0.00     0.226 C 
ENDROOT
BRANCH   1   2
HETATM    2  N1  UNL     1      12.759 -15.155   7.635  1.00  0.00    -0.380 N 
ATOM      3  H1  UNL     1      12.917 -15.966   7.037  1.00  0.00     0.156 HD
BRANCH   2   4
HETATM    4  C3  UNL     1      11.484 -14.955   8.086  1.00  0.00     0.209 C 
BRANCH   4   5
HETATM    5  C2  UNL     1      10.645 -14.447   6.874  1.00  0.00     0.147 C 
HETATM    6  C1  UNL     1      10.760 -12.962   6.770  1.00  0.00     0.042 C 
BRANCH   5   7
HETATM    7  O1  UNL     1      11.064 -15.023   5.692  1.00  0.00    -0.393 OA
ATOM      8  H1  UNL     1      10.781 -15.929   5.665  1.00  0.00     0.210 HD
ENDBRANCH   5   7
ENDBRANCH   4   5
BRANCH   4   9
HETATM    9  C16 UNL     1      10.757 -16.231   8.482  1.00  0.00     0.199 C 
HETATM   10  O3  UNL     1       9.995 -16.745   7.592  1.00  0.00    -0.646 OA
HETATM   11  O4  UNL     1      10.885 -16.835   9.706  1.00  0.00    -0.646 OA
ENDBRANCH   4   9
ENDBRANCH   2   4
ENDBRANCH   1   2
BRANCH   1  12
HETATM   12  O2  UNL     1      14.669 -15.186   8.723  1.00  0.00    -0.357 OA
BRANCH  12  13
HETATM   13  C5  UNL     1      14.726 -15.053  10.032  1.00  0.00     0.052 C 
HETATM   14  C6  UNL     1      13.574 -15.573  10.849  1.00  0.00     0.045 C 
HETATM   15  C7  UNL     1      14.928 -13.590  10.403  1.00  0.00     0.045 C 
HETATM   16  C8  UNL     1      15.946 -15.765  10.659  1.00  0.00     0.045 C 
ENDBRANCH  12  13
ENDBRANCH   1  12
BRANCH   1  17
HETATM   17  C9  UNL     1      14.784 -13.982   6.779  1.00  0.00     0.001 C 
HETATM   18  C10 UNL     1      14.803 -15.159   5.832  1.00  0.00     0.020 C 
HETATM   19  C11 UNL     1      16.205 -13.693   7.170  1.00  0.00     0.018 C 
HETATM   20  C12 UNL     1      16.807 -12.768   6.143  1.00  0.00    -0.009 A 
HETATM   21  C13 UNL     1      16.626 -12.842   4.713  1.00  0.00     0.010 A 
HETATM   22  C14 UNL     1      15.671 -12.068   5.529  1.00  0.00    -0.009 A 
HETATM   23  C15 UNL     1      14.428 -12.697   6.082  1.00  0.00     0.018 C 
ENDBRANCH   1  17
TORSDOF 8
ENDMDL
MODEL 4
REMARK VINA RESULT: -5.881062857      1.674      4.041
REMARK  8 active torsions:
REMARK  status: ('A' for Active; 'I' for Inactive)
REMARK    1  A    between atoms: C2_2  and  O1_3 
REMARK    2  A    between atoms: C2_2  and  C3_5 
REMARK    3  A    between atoms: C3_5  and  N1_6 
REMARK    4  A    between atoms: C3_5  and  C16_21 
REMARK    5  A    between atoms: N1_6  and  C4_8 
REMARK    6  A    between atoms: C4_8  and  O2_9 
REMARK    7  A    between atoms: C4_8  and  C9_14 
REMARK    8  A    between atoms: O2_9  and  C5_10 
ROOT
HETATM    1  C4  UNL     1      13.449 -14.834   7.469  1.00  0.00     0.226 C 
ENDROOT
BRANCH   1   2
HETATM    2  N1  UNL     1      13.707 -14.980   8.875  1.00  0.00    -0.380 N 
ATOM      3  H1  UNL     1      13.714 -14.128   9.436  1.00  0.00     0.156 HD
BRANCH   2   4
HETATM    4  C3  UNL     1      13.945 -16.156   9.530  1.00  0.00     0.209 C 
BRANCH   4   5
HETATM    5  C2  UNL     1      15.102 -15.889  10.540  1.00  0.00     0.147 C 
HETATM    6  C1  UNL     1      15.325 -14.418  10.672  1.00  0.00     0.042 C 
BRANCH   5   7
HETATM    7  O1  UNL     1      14.824 -16.422  11.781  1.00  0.00    -0.393 OA
ATOM      8  H1  UNL     1      14.454 -15.749  12.339  1.00  0.00     0.210 HD
ENDBRANCH   5   7
ENDBRANCH   4   5
BRANCH   4   9
HETATM    9  C16 UNL     1      12.810 -16.605  10.436  1.00  0.00     0.199 C 
HETATM   10  O3  UNL     1      12.591 -17.864  10.484  1.00  0.00    -0.646 OA
HETATM   11  O4  UNL     1      12.044 -15.747  11.184  1.00  0.00    -0.646 OA
ENDBRANCH   4   9
ENDBRANCH   2   4
ENDBRANCH   1   2
BRANCH   1  12
HETATM   12  O2  UNL     1      12.466 -13.831   7.470  1.00  0.00    -0.357 OA
BRANCH  12  13
HETATM   13  C5  UNL     1      11.260 -14.042   6.985  1.00  0.00     0.052 C 
HETATM   14  C6  UNL     1      11.139 -14.781   5.680  1.00  0.00     0.045 C 
HETATM   15  C7  UNL     1      10.516 -12.722   6.836  1.00  0.00     0.045 C 
HETATM   16  C8  UNL     1      10.363 -14.866   7.937  1.00  0.00     0.045 C 
ENDBRANCH  12  13
ENDBRANCH   1  12
BRANCH   1  17
HETATM   17  C9  UNL     1      14.554 -14.274   6.640  1.00  0.00     0.001 C 
HETATM   18  C10 UNL     1      14.861 -15.264   5.542  1.00  0.00     0.020 C 
HETATM   19  C11 UNL     1      15.827 -14.031   7.400  1.00  0.00     0.018 C 
HETATM   20  C12 UNL     1      16.591 -12.927   6.715  1.00  0.00    -0.009 A 
HETATM   21  C13 UNL     1      16.749 -12.751   5.290  1.00  0.00     0.010 A 
HETATM   22  C14 UNL     1      15.587 -12.152   5.975  1.00  0.00    -0.009 A 
HETATM   23  C15 UNL     1      14.290 -12.893   6.104  1.00  0.00     0.018 C 
ENDBRANCH   1  17
TORSDOF 8
ENDMDL
MODEL 5
REMARK VINA RESULT: -5.715445048      1.812      5.071
REMARK  8 active torsions:
REMARK  status: ('A' for Active; 'I' for Inactive)
REMARK    1  A    between atoms: C2_2  and  O1_3 
REMARK    2  A    between atoms: C2_2  and  C3_5 
REMARK    3  A    between atoms: C3_5  and  N1_6 
REMARK    4  A    between atoms: C3_5  and  C16_21 
REMARK    5  A    between atoms: N1_6  and  C4_8 
REMARK    6  A    between atoms: C4_8  and  O2_9 
REMARK    7  A    between atoms: C4_8  and  C9_14 
REMARK    8  A    between atoms: O2_9  and  C5_10 
ROOT
HETATM    1  C4  UNL     1      13.296 -14.783   8.229  1.00  0.00     0.226 C 
ENDROOT
BRANCH   1   2
HETATM    2  N1  UNL     1      13.631 -15.796   9.190  1.00  0.00    -0.380 N 
ATOM      3  H1  UNL     1      13.633 -16.763   8.863  1.00  0.00     0.156 HD
BRANCH   2   4
HETATM    4  C3  UNL     1      13.948 -15.585  10.503  1.00  0.00     0.209 C 
BRANCH   4   5
HETATM    5  C2  UNL     1      13.432 -16.820  11.302  1.00  0.00     0.147 C 
HETATM    6  C1  UNL     1      12.165 -16.467  12.010  1.00  0.00     0.042 C 
BRANCH   5   7
HETATM    7  O1  UNL     1      13.208 -17.900  10.474  1.00  0.00    -0.393 OA
ATOM      8  H1  UNL     1      12.518 -17.688   9.857  1.00  0.00     0.210 HD
ENDBRANCH   5   7
ENDBRANCH   4   5
BRANCH   4   9
HETATM    9  C16 UNL     1      15.441 -15.602  10.794  1.00  0.00     0.199 C 
HETATM   10  O3  UNL     1      16.003 -14.461  10.929  1.00  0.00    -0.646 OA
HETATM   11  O4  UNL     1      16.181 -16.750  10.921  1.00  0.00    -0.646 OA
ENDBRANCH   4   9
ENDBRANCH   2   4
ENDBRANCH   1   2
BRANCH   1  12
HETATM   12  O2  UNL     1      14.160 -15.106   7.171  1.00  0.00    -0.357 OA
BRANCH  12  13
HETATM   13  C5  UNL     1      15.010 -14.230   6.678  1.00  0.00     0.052 C 
HETATM   14  C6  UNL     1      15.670 -14.544   5.362  1.00  0.00     0.045 C 
HETATM   15  C7  UNL     1      16.113 -13.943   7.688  1.00  0.00     0.045 C 
HETATM   16  C8  UNL     1      14.372 -12.845   6.425  1.00  0.00     0.045 C 
ENDBRANCH  12  13
ENDBRANCH   1  12
BRANCH   1  17
HETATM   17  C9  UNL     1      11.931 -14.852   7.632  1.00  0.00     0.001 C 
HETATM   18  C10 UNL     1      11.177 -15.965   8.318  1.00  0.00     0.020 C 
HETATM   19  C11 UNL     1      11.922 -15.139   6.158  1.00  0.00     0.018 C 
HETATM   20  C12 UNL     1      10.664 -14.558   5.564  1.00  0.00    -0.009 A 
HETATM   21  C13 UNL     1       9.344 -14.596   6.148  1.00  0.00     0.010 A 
HETATM   22  C14 UNL     1      10.256 -13.483   6.477  1.00  0.00    -0.009 A 
HETATM   23  C15 UNL     1      11.176 -13.551   7.660  1.00  0.00     0.018 C 
ENDBRANCH   1  17
TORSDOF 8
ENDMDL
