MODEL 1
REMARK VINA RESULT: -5.825241213      0.000      0.000
REMARK  8 active torsions:
REMARK  status: ('A' for Active; 'I' for Inactive)
REMARK    1  A    between atoms: S1_2  and  C2_3 
REMARK    2  A    between atoms: C2_3  and  C3_4 
REMARK    3  A    between atoms: C3_4  and  C4_5 
REMARK    4  A    between atoms: C4_5  and  N3_13 
REMARK    5  A    between atoms: N1_6  and  N2_8 
REMARK    6  A    between atoms: N2_8  and  C5_10 
REMARK    7  A    between atoms: N3_13  and  C8_15 
REMARK    8  A    between atoms: C15_22  and  O1_23 
ROOT
HETATM    1  C4  UNL     1      13.241 -14.773   9.224  1.00  0.00     0.092 C 
HETATM    2  N1  UNL     1      12.006 -14.450   9.402  1.00  0.00    -0.293 N 
ATOM      3  H1  UNL     1      11.603 -14.524  10.336  1.00  0.00     0.188 HD
ENDROOT
BRANCH   1   4
HETATM    4  C3  UNL     1      14.104 -15.251  10.334  1.00  0.00     0.087 C 
BRANCH   4   5
HETATM    5  C2  UNL     1      13.273 -15.819  11.472  1.00  0.00     0.081 C 
BRANCH   5   6
HETATM    6  S1  UNL     1      12.564 -17.414  11.044  1.00  0.00    -0.173 SA
HETATM    7  C1  UNL     1      10.780 -17.467  11.367  1.00  0.00     0.089 C 
ENDBRANCH   5   6
ENDBRANCH   4   5
ENDBRANCH   1   4
BRANCH   1   8
HETATM    8  N3  UNL     1      13.868 -14.692   7.940  1.00  0.00    -0.371 N 
ATOM      9  H3  UNL     1      13.877 -15.506   7.325  1.00  0.00     0.161 HD
BRANCH   8  10
HETATM   10  C8  UNL     1      14.483 -13.470   7.518  1.00  0.00     0.116 C 
HETATM   11  C9  UNL     1      15.992 -13.710   7.441  1.00  0.00     0.011 C 
HETATM   12  C10 UNL     1      16.236 -14.449   6.143  1.00  0.00     0.007 C 
HETATM   13  C14 UNL     1      16.644 -12.342   7.427  1.00  0.00     0.007 C 
HETATM   14  C11 UNL     1      16.150 -13.457   4.992  1.00  0.00     0.007 C 
HETATM   15  C12 UNL     1      15.210 -12.359   5.432  1.00  0.00     0.016 C 
HETATM   16  C13 UNL     1      15.853 -11.471   6.477  1.00  0.00     0.007 C 
HETATM   17  C15 UNL     1      14.034 -13.045   6.144  1.00  0.00     0.145 C 
BRANCH  17  18
HETATM   18  O1  UNL     1      13.014 -12.096   6.212  1.00  0.00    -0.393 OA
ATOM     19  H1  UNL     1      12.286 -12.329   5.648  1.00  0.00     0.210 HD
ENDBRANCH  17  18
ENDBRANCH   8  10
ENDBRANCH   1   8
BRANCH   2  20
HETATM   20  N2  UNL     1      11.204 -14.002   8.350  1.00  0.00    -0.331 N 
ATOM     21  H2  UNL     1      11.212 -13.011   8.110  1.00  0.00     0.180 HD
BRANCH  20  22
HETATM   22  C5  UNL     1      10.369 -14.891   7.596  1.00  0.00     0.091 C 
HETATM   23  C6  UNL     1      10.693 -16.353   7.883  1.00  0.00     0.033 C 
HETATM   24  C7  UNL     1      10.561 -14.685   6.109  1.00  0.00     0.033 C 
ENDBRANCH  20  22
ENDBRANCH   2  20
TORSDOF 8
ENDMDL
MODEL 2
REMARK VINA RESULT: -5.795240936      2.492      5.050
REMARK  8 active torsions:
REMARK  status: ('A' for Active; 'I' for Inactive)
REMARK    1  A    between atoms: S1_2  and  C2_3 
REMARK    2  A    between atoms: C2_3  and  C3_4 
REMARK    3  A    between atoms: C3_4  and  C4_5 
REMARK    4  A    between atoms: C4_5  and  N3_13 
REMARK    5  A    between atoms: N1_6  and  N2_8 
REMARK    6  A    between atoms: N2_8  and  C5_10 
REMARK    7  A    between atoms: N3_13  and  C8_15 
REMARK    8  A    between atoms: C15_22  and  O1_23 
ROOT
HETATM    1  C4  UNL     1      15.196 -13.023   6.715  1.00  0.00     0.092 C 
HETATM    2  N1  UNL     1      15.792 -11.968   6.274  1.00  0.00    -0.293 N 
ATOM      3  H1  UNL     1      16.725 -11.745   6.620  1.00  0.00     0.188 HD
ENDROOT
BRANCH   1   4
HETATM    4  C3  UNL     1      15.820 -13.929   7.712  1.00  0.00     0.087 C 
BRANCH   4   5
HETATM    5  C2  UNL     1      15.297 -13.654   9.111  1.00  0.00     0.081 C 
BRANCH   5   6
HETATM    6  S1  UNL     1      15.474 -15.089  10.180  1.00  0.00    -0.173 SA
HETATM    7  C1  UNL     1      13.883 -15.605  10.883  1.00  0.00     0.089 C 
ENDBRANCH   5   6
ENDBRANCH   4   5
ENDBRANCH   1   4
BRANCH   1   8
HETATM    8  N3  UNL     1      13.887 -13.395   6.271  1.00  0.00    -0.371 N 
ATOM      9  H3  UNL     1      13.516 -13.011   5.402  1.00  0.00     0.161 HD
BRANCH   8  10
HETATM   10  C8  UNL     1      13.097 -14.304   7.047  1.00  0.00     0.116 C 
HETATM   11  C9  UNL     1      11.904 -13.526   7.603  1.00  0.00     0.011 C 
HETATM   12  C10 UNL     1      10.911 -13.407   6.466  1.00  0.00     0.007 C 
HETATM   13  C14 UNL     1      11.343 -14.357   8.740  1.00  0.00     0.007 C 
HETATM   14  C11 UNL     1      10.198 -14.741   6.299  1.00  0.00     0.007 C 
HETATM   15  C12 UNL     1      11.157 -15.811   6.768  1.00  0.00     0.016 C 
HETATM   16  C13 UNL     1      11.303 -15.795   8.275  1.00  0.00     0.007 C 
HETATM   17  C15 UNL     1      12.540 -15.432   6.218  1.00  0.00     0.145 C 
BRANCH  17  18
HETATM   18  O1  UNL     1      13.328 -16.579   6.324  1.00  0.00    -0.393 OA
ATOM     19  H1  UNL     1      13.418 -17.016   5.486  1.00  0.00     0.210 HD
ENDBRANCH  17  18
ENDBRANCH   8  10
ENDBRANCH   1   8
BRANCH   2  20
HETATM   20  N2  UNL     1      15.194 -11.123   5.336  1.00  0.00    -0.331 N 
ATOM     21  H2  UNL     1      15.244 -11.369   4.348  1.00  0.00     0.180 HD
BRANCH  20  22
HETATM   22  C5  UNL     1      14.513  -9.921   5.719  1.00  0.00     0.091 C 
HETATM   23  C6  UNL     1      13.005 -10.041   5.533  1.00  0.00     0.033 C 
HETATM   24  C7  UNL     1      14.965  -8.749   4.875  1.00  0.00     0.033 C 
ENDBRANCH  20  22
ENDBRANCH   2  20
TORSDOF 8
ENDMDL
MODEL 3
REMARK VINA RESULT: -5.611010528      9.314     11.930
REMARK  8 active torsions:
REMARK  status: ('A' for Active; 'I' for Inactive)
REMARK    1  A    between atoms: S1_2  and  C2_3 
REMARK    2  A    between atoms: C2_3  and  C3_4 
REMARK    3  A    between atoms: C3_4  and  C4_5 
REMARK    4  A    between atoms: C4_5  and  N3_13 
REMARK    5  A    between atoms: N1_6  and  N2_8 
REMARK    6  A    between atoms: N2_8  and  C5_10 
REMARK    7  A    between atoms: N3_13  and  C8_15 
REMARK    8  A    between atoms: C15_22  and  O1_23 
ROOT
HETATM    1  C4  UNL     1      16.789  -6.779   1.316  1.00  0.00     0.092 C 
HETATM    2  N1  UNL     1      18.065  -6.965   1.298  1.00  0.00    -0.293 N 
ATOM      3  H1  UNL     1      18.438  -7.868   1.590  1.00  0.00     0.188 HD
ENDROOT
BRANCH   1   4
HETATM    4  C3  UNL     1      15.839  -7.834   1.750  1.00  0.00     0.087 C 
BRANCH   4   5
HETATM    5  C2  UNL     1      16.087  -8.240   3.192  1.00  0.00     0.081 C 
BRANCH   5   6
HETATM    6  S1  UNL     1      14.789  -9.320   3.810  1.00  0.00    -0.173 SA
HETATM    7  C1  UNL     1      14.491  -9.069   5.581  1.00  0.00     0.089 C 
ENDBRANCH   5   6
ENDBRANCH   4   5
ENDBRANCH   1   4
BRANCH   1   8
HETATM    8  N3  UNL     1      16.200  -5.537   0.918  1.00  0.00    -0.371 N 
ATOM      9  H3  UNL     1      16.794  -4.766   0.612  1.00  0.00     0.161 HD
BRANCH   8  10
HETATM   10  C8  UNL     1      14.777  -5.375   0.949  1.00  0.00     0.116 C 
HETATM   11  C9  UNL     1      14.475  -4.044   1.639  1.00  0.00     0.011 C 
HETATM   12  C10 UNL     1      14.720  -2.967   0.604  1.00  0.00     0.007 C 
HETATM   13  C14 UNL     1      13.017  -4.094   2.048  1.00  0.00     0.007 C 
HETATM   14  C11 UNL     1      13.544  -2.943  -0.363  1.00  0.00     0.007 C 
HETATM   15  C12 UNL     1      12.978  -4.343  -0.396  1.00  0.00     0.016 C 
HETATM   16  C13 UNL     1      12.238  -4.667   0.885  1.00  0.00     0.007 C 
HETATM   17  C15 UNL     1      14.177  -5.302  -0.431  1.00  0.00     0.145 C 
BRANCH  17  18
HETATM   18  O1  UNL     1      13.674  -6.539  -0.834  1.00  0.00    -0.393 OA
ATOM     19  H1  UNL     1      14.186  -6.907  -1.544  1.00  0.00     0.210 HD
ENDBRANCH  17  18
ENDBRANCH   8  10
ENDBRANCH   1   8
BRANCH   2  20
HETATM   20  N2  UNL     1      18.950  -5.965   0.888  1.00  0.00    -0.331 N 
ATOM     21  H2  UNL     1      18.845  -5.026   1.273  1.00  0.00     0.180 HD
BRANCH  20  22
HETATM   22  C5  UNL     1      19.999  -6.215  -0.055  1.00  0.00     0.091 C 
HETATM   23  C6  UNL     1      20.164  -7.704  -0.338  1.00  0.00     0.033 C 
HETATM   24  C7  UNL     1      21.330  -5.721   0.469  1.00  0.00     0.033 C 
ENDBRANCH  20  22
ENDBRANCH   2  20
TORSDOF 8
ENDMDL
MODEL 4
REMARK VINA RESULT: -5.527626209      8.870     11.447
REMARK  8 active torsions:
REMARK  status: ('A' for Active; 'I' for Inactive)
REMARK    1  A    between atoms: S1_2  and  C2_3 
REMARK    2  A    between atoms: C2_3  and  C3_4 
REMARK    3  A    between atoms: C3_4  and  C4_5 
REMARK    4  A    between atoms: C4_5  and  N3_13 
REMARK    5  A    between atoms: N1_6  and  N2_8 
REMARK    6  A    between atoms: N2_8  and  C5_10 
REMARK    7  A    between atoms: N3_13  and  C8_15 
REMARK    8  A    between atoms: C15_22  and  O1_23 
ROOT
HETATM    1  C4  UNL     1      16.806  -6.875   2.090  1.00  0.00     0.092 C 
HETATM    2  N1  UNL     1      18.008  -6.553   1.752  1.00  0.00    -0.293 N 
ATOM      3  H1  UNL     1      18.760  -6.661   2.433  1.00  0.00     0.188 HD
ENDROOT
BRANCH   1   4
HETATM    4  C3  UNL     1      16.474  -7.400   3.437  1.00  0.00     0.087 C 
BRANCH   4   5
HETATM    5  C2  UNL     1      16.029  -8.851   3.369  1.00  0.00     0.081 C 
BRANCH   5   6
HETATM    6  S1  UNL     1      14.289  -9.032   3.783  1.00  0.00    -0.173 SA
HETATM    7  C1  UNL     1      14.043  -9.287   5.562  1.00  0.00     0.089 C 
ENDBRANCH   5   6
ENDBRANCH   4   5
ENDBRANCH   1   4
BRANCH   1   8
HETATM    8  N3  UNL     1      15.706  -6.748   1.183  1.00  0.00    -0.371 N 
ATOM      9  H3  UNL     1      15.705  -7.270   0.307  1.00  0.00     0.161 HD
BRANCH   8  10
HETATM   10  C8  UNL     1      14.606  -5.888   1.505  1.00  0.00     0.116 C 
HETATM   11  C9  UNL     1      15.029  -4.453   1.184  1.00  0.00     0.011 C 
HETATM   12  C10 UNL     1      14.896  -4.300  -0.316  1.00  0.00     0.007 C 
HETATM   13  C14 UNL     1      14.060  -3.548   1.919  1.00  0.00     0.007 C 
HETATM   14  C11 UNL     1      13.423  -4.139  -0.662  1.00  0.00     0.007 C 
HETATM   15  C12 UNL     1      12.641  -4.866   0.407  1.00  0.00     0.016 C 
HETATM   16  C13 UNL     1      12.671  -4.111   1.719  1.00  0.00     0.007 C 
HETATM   17  C15 UNL     1      13.384  -6.184   0.675  1.00  0.00     0.145 C 
BRANCH  17  18
HETATM   18  O1  UNL     1      12.488  -7.002   1.362  1.00  0.00    -0.393 OA
ATOM     19  H1  UNL     1      11.638  -7.019   0.938  1.00  0.00     0.210 HD
ENDBRANCH  17  18
ENDBRANCH   8  10
ENDBRANCH   1   8
BRANCH   2  20
HETATM   20  N2  UNL     1      18.309  -6.059   0.481  1.00  0.00    -0.331 N 
ATOM     21  H2  UNL     1      17.563  -5.645  -0.077  1.00  0.00     0.180 HD
BRANCH  20  22
HETATM   22  C5  UNL     1      19.633  -6.115  -0.064  1.00  0.00     0.091 C 
HETATM   23  C6  UNL     1      20.088  -7.550  -0.304  1.00  0.00     0.033 C 
HETATM   24  C7  UNL     1      20.637  -5.492   0.883  1.00  0.00     0.033 C 
ENDBRANCH  20  22
ENDBRANCH   2  20
TORSDOF 8
ENDMDL
MODEL 5
REMARK VINA RESULT: -5.500642452      9.057     11.637
REMARK  8 active torsions:
REMARK  status: ('A' for Active; 'I' for Inactive)
REMARK    1  A    between atoms: S1_2  and  C2_3 
REMARK    2  A    between atoms: C2_3  and  C3_4 
REMARK    3  A    between atoms: C3_4  and  C4_5 
REMARK    4  A    between atoms: C4_5  and  N3_13 
REMARK    5  A    between atoms: N1_6  and  N2_8 
REMARK    6  A    between atoms: N2_8  and  C5_10 
REMARK    7  A    between atoms: N3_13  and  C8_15 
REMARK    8  A    between atoms: C15_22  and  O1_23 
ROOT
HETATM    1  C4  UNL     1      16.821  -6.626   2.403  1.00  0.00     0.092 C 
HETATM    2  N1  UNL     1      17.899  -6.839   1.727  1.00  0.00    -0.293 N 
ATOM      3  H1  UNL     1      18.507  -7.612   1.995  1.00  0.00     0.188 HD
ENDROOT
BRANCH   1   4
HETATM    4  C3  UNL     1      16.431  -7.470   3.561  1.00  0.00     0.087 C 
BRANCH   4   5
HETATM    5  C2  UNL     1      15.841  -8.793   3.105  1.00  0.00     0.081 C 
BRANCH   5   6
HETATM    6  S1  UNL     1      14.150  -8.998   3.680  1.00  0.00    -0.173 SA
HETATM    7  C1  UNL     1      14.077  -9.283   5.470  1.00  0.00     0.089 C 
ENDBRANCH   5   6
ENDBRANCH   4   5
ENDBRANCH   1   4
BRANCH   1   8
HETATM    8  N3  UNL     1      15.923  -5.560   2.081  1.00  0.00    -0.371 N 
ATOM      9  H3  UNL     1      15.959  -4.687   2.607  1.00  0.00     0.161 HD
BRANCH   8  10
HETATM   10  C8  UNL     1      14.975  -5.716   1.019  1.00  0.00     0.116 C 
HETATM   11  C9  UNL     1      13.583  -5.452   1.596  1.00  0.00     0.011 C 
HETATM   12  C10 UNL     1      13.444  -3.948   1.691  1.00  0.00     0.007 C 
HETATM   13  C14 UNL     1      12.592  -6.035   0.608  1.00  0.00     0.007 C 
HETATM   14  C11 UNL     1      13.174  -3.393   0.300  1.00  0.00     0.007 C 
HETATM   15  C12 UNL     1      13.820  -4.343  -0.682  1.00  0.00     0.016 C 
HETATM   16  C13 UNL     1      13.047  -5.641  -0.779  1.00  0.00     0.007 C 
HETATM   17  C15 UNL     1      15.187  -4.721  -0.093  1.00  0.00     0.145 C 
BRANCH  17  18
HETATM   18  O1  UNL     1      15.921  -5.278  -1.141  1.00  0.00    -0.393 OA
ATOM     19  H1  UNL     1      15.486  -5.149  -1.975  1.00  0.00     0.210 HD
ENDBRANCH  17  18
ENDBRANCH   8  10
ENDBRANCH   1   8
BRANCH   2  20
HETATM   20  N2  UNL     1      18.256  -6.039   0.640  1.00  0.00    -0.331 N 
ATOM     21  H2  UNL     1      17.584  -5.356   0.288  1.00  0.00     0.180 HD
BRANCH  20  22
HETATM   22  C5  UNL     1      19.534  -6.146   0.002  1.00  0.00     0.091 C 
HETATM   23  C6  UNL     1      19.926  -7.599  -0.243  1.00  0.00     0.033 C 
HETATM   24  C7  UNL     1      20.623  -5.540   0.861  1.00  0.00     0.033 C 
ENDBRANCH  20  22
ENDBRANCH   2  20
TORSDOF 8
ENDMDL
