MODEL 1
REMARK VINA RESULT: -7.593808862      0.000      0.000
REMARK  7 active torsions:
REMARK  status: ('A' for Active; 'I' for Inactive)
REMARK    1  A    between atoms: O1_1  and  C1_3 
REMARK    2  A    between atoms: C4_6  and  C5_7 
REMARK    3  A    between atoms: C5_7  and  O2_8 
REMARK    4  A    between atoms: C5_7  and  N1_10 
REMARK    5  A    between atoms: N2_13  and  C8_14 
REMARK    6  A    between atoms: C8_14  and  C9_15 
REMARK    7  A    between atoms: C9_15  and  C10_16 
ROOT
HETATM    1  N1  UNL     1      15.471  -8.709   3.194  1.00  0.00     0.126 N 
HETATM    2  C6  UNL     1      16.326  -7.640   3.620  1.00  0.00     0.306 C 
HETATM    3  C7  UNL     1      16.257  -6.452   2.699  1.00  0.00     0.302 C 
HETATM    4  N2  UNL     1      16.622  -6.775   1.334  1.00  0.00     0.091 N 
HETATM    5  C16 UNL     1      15.897  -7.971   0.957  1.00  0.00     0.302 C 
HETATM    6  C17 UNL     1      14.815  -8.323   1.979  1.00  0.00     0.306 C 
ENDROOT
BRANCH   1   7
HETATM    7  C5  UNL     1      14.581  -9.173   4.214  1.00  0.00     0.408 C 
BRANCH   7   8
HETATM    8  C4  UNL     1      15.022 -10.543   4.642  1.00  0.00     0.070 A 
HETATM    9  C3  UNL     1      14.551 -11.304   5.683  1.00  0.00     0.034 A 
HETATM   10  C2  UNL     1      15.233 -12.507   5.729  1.00  0.00     0.058 A 
HETATM   11  C1  UNL     1      16.136 -12.465   4.686  1.00  0.00     0.140 A 
HETATM   12  N3  UNL     1      15.996 -11.290   4.052  1.00  0.00    -0.337 N 
ATOM     13  H3  UNL     1      16.543 -10.997   3.241  1.00  0.00     0.168 HD
BRANCH  11  14
HETATM   14  O1  UNL     1      17.026 -13.502   4.385  1.00  0.00    -0.346 OA
ATOM     15  H1  UNL     1      17.470 -13.592   3.549  1.00  0.00     0.219 HD
ENDBRANCH  11  14
ENDBRANCH   7   8
BRANCH   7  16
HETATM   16  O2  UNL     1      13.281  -9.278   3.765  1.00  0.00    -0.363 OA
ATOM     17  H2  UNL     1      12.975  -8.400   3.571  1.00  0.00     0.212 HD
ENDBRANCH   7  16
ENDBRANCH   1   7
BRANCH   4  18
HETATM   18  C8  UNL     1      18.041  -6.935   1.283  1.00  0.00     0.273 C 
BRANCH  18  19
HETATM   19  C9  UNL     1      18.669  -6.375   0.036  1.00  0.00     0.034 C 
BRANCH  19  20
HETATM   20  C10 UNL     1      20.037  -5.828   0.240  1.00  0.00    -0.013 C 
HETATM   21  C11 UNL     1      20.429  -5.656   1.676  1.00  0.00     0.005 C 
HETATM   22  C12 UNL     1      21.741  -4.919   1.745  1.00  0.00     0.000 C 
HETATM   23  C13 UNL     1      22.539  -5.103   0.477  1.00  0.00     0.000 C 
HETATM   24  C14 UNL     1      22.429  -6.584   0.098  1.00  0.00     0.000 C 
HETATM   25  C15 UNL     1      21.021  -6.809  -0.383  1.00  0.00     0.005 C 
ENDBRANCH  19  20
ENDBRANCH  18  19
ENDBRANCH   4  18
TORSDOF 7
ENDMDL
MODEL 2
REMARK VINA RESULT: -7.551681145      0.575      1.286
REMARK  7 active torsions:
REMARK  status: ('A' for Active; 'I' for Inactive)
REMARK    1  A    between atoms: O1_1  and  C1_3 
REMARK    2  A    between atoms: C4_6  and  C5_7 
REMARK    3  A    between atoms: C5_7  and  O2_8 
REMARK    4  A    between atoms: C5_7  and  N1_10 
REMARK    5  A    between atoms: N2_13  and  C8_14 
REMARK    6  A    between atoms: C8_14  and  C9_15 
REMARK    7  A    between atoms: C9_15  and  C10_16 
ROOT
HETATM    1  N1  UNL     1      15.409  -8.849   3.247  1.00  0.00     0.126 N 
HETATM    2  C6  UNL     1      16.200  -7.743   3.700  1.00  0.00     0.306 C 
HETATM    3  C7  UNL     1      16.091  -6.551   2.788  1.00  0.00     0.302 C 
HETATM    4  N2  UNL     1      16.502  -6.843   1.428  1.00  0.00     0.091 N 
HETATM    5  C16 UNL     1      15.847  -8.070   1.026  1.00  0.00     0.302 C 
HETATM    6  C17 UNL     1      14.762  -8.485   2.021  1.00  0.00     0.306 C 
ENDROOT
BRANCH   1   7
HETATM    7  C5  UNL     1      14.521  -9.366   4.243  1.00  0.00     0.408 C 
BRANCH   7   8
HETATM    8  C4  UNL     1      15.020 -10.717   4.668  1.00  0.00     0.070 A 
HETATM    9  C3  UNL     1      14.590 -11.493   5.716  1.00  0.00     0.034 A 
HETATM   10  C2  UNL     1      15.319 -12.668   5.757  1.00  0.00     0.058 A 
HETATM   11  C1  UNL     1      16.209 -12.594   4.705  1.00  0.00     0.140 A 
HETATM   12  N3  UNL     1      16.016 -11.426   4.070  1.00  0.00    -0.337 N 
ATOM     13  H3  UNL     1      16.543 -11.114   3.253  1.00  0.00     0.168 HD
BRANCH  11  14
HETATM   14  O1  UNL     1      17.136 -13.595   4.396  1.00  0.00    -0.346 OA
ATOM     15  H1  UNL     1      18.069 -13.520   4.558  1.00  0.00     0.219 HD
ENDBRANCH  11  14
ENDBRANCH   7   8
BRANCH   7  16
HETATM   16  O2  UNL     1      13.238  -9.531   3.764  1.00  0.00    -0.363 OA
ATOM     17  H2  UNL     1      13.298  -9.655   2.824  1.00  0.00     0.212 HD
ENDBRANCH   7  16
ENDBRANCH   1   7
BRANCH   4  18
HETATM   18  C8  UNL     1      17.929  -6.931   1.408  1.00  0.00     0.273 C 
BRANCH  18  19
HETATM   19  C9  UNL     1      18.495  -7.276   0.059  1.00  0.00     0.034 C 
BRANCH  19  20
HETATM   20  C10 UNL     1      19.967  -7.093  -0.046  1.00  0.00    -0.013 C 
HETATM   21  C11 UNL     1      20.484  -7.010  -1.450  1.00  0.00     0.005 C 
HETATM   22  C12 UNL     1      21.990  -7.024  -1.424  1.00  0.00     0.000 C 
HETATM   23  C13 UNL     1      22.519  -6.520  -0.103  1.00  0.00     0.000 C 
HETATM   24  C14 UNL     1      21.686  -5.287   0.263  1.00  0.00     0.000 C 
HETATM   25  C15 UNL     1      20.317  -5.781   0.643  1.00  0.00     0.005 C 
ENDBRANCH  19  20
ENDBRANCH  18  19
ENDBRANCH   4  18
TORSDOF 7
ENDMDL
MODEL 3
REMARK VINA RESULT: -7.362616313      1.082      1.484
REMARK  7 active torsions:
REMARK  status: ('A' for Active; 'I' for Inactive)
REMARK    1  A    between atoms: O1_1  and  C1_3 
REMARK    2  A    between atoms: C4_6  and  C5_7 
REMARK    3  A    between atoms: C5_7  and  O2_8 
REMARK    4  A    between atoms: C5_7  and  N1_10 
REMARK    5  A    between atoms: N2_13  and  C8_14 
REMARK    6  A    between atoms: C8_14  and  C9_15 
REMARK    7  A    between atoms: C9_15  and  C10_16 
ROOT
HETATM    1  N1  UNL     1      15.050  -9.341   3.380  1.00  0.00     0.126 N 
HETATM    2  C6  UNL     1      16.039  -8.306   3.443  1.00  0.00     0.306 C 
HETATM    3  C7  UNL     1      15.645  -7.090   2.650  1.00  0.00     0.302 C 
HETATM    4  N2  UNL     1      15.419  -7.381   1.247  1.00  0.00     0.091 N 
HETATM    5  C16 UNL     1      14.563  -8.548   1.174  1.00  0.00     0.302 C 
HETATM    6  C17 UNL     1      13.974  -8.904   2.540  1.00  0.00     0.306 C 
ENDROOT
BRANCH   1   7
HETATM    7  C5  UNL     1      14.630  -9.814   4.664  1.00  0.00     0.408 C 
BRANCH   7   8
HETATM    8  C4  UNL     1      15.247 -11.163   4.898  1.00  0.00     0.070 A 
HETATM    9  C3  UNL     1      14.941 -12.083   5.870  1.00  0.00     0.034 A 
HETATM   10  C2  UNL     1      15.749 -13.197   5.730  1.00  0.00     0.058 A 
HETATM   11  C1  UNL     1      16.560 -12.937   4.644  1.00  0.00     0.140 A 
HETATM   12  N3  UNL     1      16.247 -11.722   4.163  1.00  0.00    -0.337 N 
ATOM     13  H3  UNL     1      16.697 -11.281   3.360  1.00  0.00     0.168 HD
BRANCH  11  14
HETATM   14  O1  UNL     1      17.531 -13.824   4.167  1.00  0.00    -0.346 OA
ATOM     15  H1  UNL     1      18.399 -13.558   3.887  1.00  0.00     0.219 HD
ENDBRANCH  11  14
ENDBRANCH   7   8
BRANCH   7  16
HETATM   16  O2  UNL     1      13.262  -9.964   4.744  1.00  0.00    -0.363 OA
ATOM     17  H2  UNL     1      13.057 -10.246   5.628  1.00  0.00     0.212 HD
ENDBRANCH   7  16
ENDBRANCH   1   7
BRANCH   4  18
HETATM   18  C8  UNL     1      16.692  -7.573   0.625  1.00  0.00     0.273 C 
BRANCH  18  19
HETATM   19  C9  UNL     1      17.289  -6.312   0.067  1.00  0.00     0.034 C 
BRANCH  19  20
HETATM   20  C10 UNL     1      18.696  -6.459  -0.393  1.00  0.00    -0.013 C 
HETATM   21  C11 UNL     1      19.725  -6.080   0.628  1.00  0.00     0.005 C 
HETATM   22  C12 UNL     1      21.086  -6.083  -0.018  1.00  0.00     0.000 C 
HETATM   23  C13 UNL     1      21.118  -6.996  -1.220  1.00  0.00     0.000 C 
HETATM   24  C14 UNL     1      20.377  -8.276  -0.821  1.00  0.00     0.000 C 
HETATM   25  C15 UNL     1      18.916  -7.927  -0.734  1.00  0.00     0.005 C 
ENDBRANCH  19  20
ENDBRANCH  18  19
ENDBRANCH   4  18
TORSDOF 7
ENDMDL
MODEL 4
REMARK VINA RESULT: -7.243275543      5.287      7.913
REMARK  7 active torsions:
REMARK  status: ('A' for Active; 'I' for Inactive)
REMARK    1  A    between atoms: O1_1  and  C1_3 
REMARK    2  A    between atoms: C4_6  and  C5_7 
REMARK    3  A    between atoms: C5_7  and  O2_8 
REMARK    4  A    between atoms: C5_7  and  N1_10 
REMARK    5  A    between atoms: N2_13  and  C8_14 
REMARK    6  A    between atoms: C8_14  and  C9_15 
REMARK    7  A    between atoms: C9_15  and  C10_16 
ROOT
HETATM    1  N1  UNL     1      14.590 -13.915   8.031  1.00  0.00     0.126 N 
HETATM    2  C6  UNL     1      14.518 -14.404   6.685  1.00  0.00     0.306 C 
HETATM    3  C7  UNL     1      15.851 -14.362   5.989  1.00  0.00     0.302 C 
HETATM    4  N2  UNL     1      16.415 -13.027   5.931  1.00  0.00     0.091 N 
HETATM    5  C16 UNL     1      16.321 -12.453   7.257  1.00  0.00     0.302 C 
HETATM    6  C17 UNL     1      15.936 -13.502   8.302  1.00  0.00     0.306 C 
ENDROOT
BRANCH   1   7
HETATM    7  C5  UNL     1      14.053 -14.820   9.000  1.00  0.00     0.408 C 
BRANCH   7   8
HETATM    8  C4  UNL     1      12.682 -15.239   8.550  1.00  0.00     0.070 A 
HETATM    9  C3  UNL     1      12.082 -16.467   8.678  1.00  0.00     0.034 A 
HETATM   10  C2  UNL     1      10.813 -16.425   8.128  1.00  0.00     0.058 A 
HETATM   11  C1  UNL     1      10.650 -15.137   7.660  1.00  0.00     0.140 A 
HETATM   12  N3  UNL     1      11.772 -14.447   7.920  1.00  0.00    -0.337 N 
ATOM     13  H3  UNL     1      11.921 -13.467   7.678  1.00  0.00     0.168 HD
BRANCH  11  14
HETATM   14  O1  UNL     1       9.489 -14.680   7.027  1.00  0.00    -0.346 OA
ATOM     15  H1  UNL     1       9.301 -14.813   6.105  1.00  0.00     0.219 HD
ENDBRANCH  11  14
ENDBRANCH   7   8
BRANCH   7  16
HETATM   16  O2  UNL     1      13.922 -14.238  10.243  1.00  0.00    -0.363 OA
ATOM     17  H2  UNL     1      13.881 -13.298  10.114  1.00  0.00     0.212 HD
ENDBRANCH   7  16
ENDBRANCH   1   7
BRANCH   4  18
HETATM   18  C8  UNL     1      15.695 -12.288   4.942  1.00  0.00     0.273 C 
BRANCH  18  19
HETATM   19  C9  UNL     1      14.951 -11.104   5.494  1.00  0.00     0.034 C 
BRANCH  19  20
HETATM   20  C10 UNL     1      14.219 -10.315   4.467  1.00  0.00    -0.013 C 
HETATM   21  C11 UNL     1      13.202  -9.366   5.024  1.00  0.00     0.005 C 
HETATM   22  C12 UNL     1      12.401  -8.780   3.890  1.00  0.00     0.000 C 
HETATM   23  C13 UNL     1      13.179  -8.810   2.598  1.00  0.00     0.000 C 
HETATM   24  C14 UNL     1      14.607  -8.365   2.933  1.00  0.00     0.000 C 
HETATM   25  C15 UNL     1      15.244  -9.485   3.708  1.00  0.00     0.005 C 
ENDBRANCH  19  20
ENDBRANCH  18  19
ENDBRANCH   4  18
TORSDOF 7
ENDMDL
MODEL 5
REMARK VINA RESULT: -7.101048678      5.288     10.845
REMARK  7 active torsions:
REMARK  status: ('A' for Active; 'I' for Inactive)
REMARK    1  A    between atoms: O1_1  and  C1_3 
REMARK    2  A    between atoms: C4_6  and  C5_7 
REMARK    3  A    between atoms: C5_7  and  O2_8 
REMARK    4  A    between atoms: C5_7  and  N1_10 
REMARK    5  A    between atoms: N2_13  and  C8_14 
REMARK    6  A    between atoms: C8_14  and  C9_15 
REMARK    7  A    between atoms: C9_15  and  C10_16 
ROOT
HETATM    1  N1  UNL     1      15.244 -12.449   6.006  1.00  0.00     0.126 N 
HETATM    2  C6  UNL     1      15.937 -12.287   7.251  1.00  0.00     0.306 C 
HETATM    3  C7  UNL     1      16.468 -13.590   7.783  1.00  0.00     0.302 C 
HETATM    4  N2  UNL     1      15.428 -14.577   7.997  1.00  0.00     0.091 N 
HETATM    5  C16 UNL     1      14.606 -14.613   6.805  1.00  0.00     0.302 C 
HETATM    6  C17 UNL     1      15.246 -13.838   5.652  1.00  0.00     0.306 C 
ENDROOT
BRANCH   1   7
HETATM    7  C5  UNL     1      15.717 -11.584   4.969  1.00  0.00     0.408 C 
BRANCH   7   8
HETATM    8  C4  UNL     1      14.626 -10.609   4.630  1.00  0.00     0.070 A 
HETATM    9  C3  UNL     1      14.511  -9.812   3.518  1.00  0.00     0.034 A 
HETATM   10  C2  UNL     1      13.352  -9.061   3.599  1.00  0.00     0.058 A 
HETATM   11  C1  UNL     1      12.756  -9.420   4.791  1.00  0.00     0.140 A 
HETATM   12  N3  UNL     1      13.529 -10.341   5.390  1.00  0.00    -0.337 N 
ATOM     13  H3  UNL     1      13.323 -10.778   6.289  1.00  0.00     0.168 HD
BRANCH  11  14
HETATM   14  O1  UNL     1      11.549  -8.883   5.252  1.00  0.00    -0.346 OA
ATOM     15  H1  UNL     1      11.301  -7.972   5.146  1.00  0.00     0.219 HD
ENDBRANCH  11  14
ENDBRANCH   7   8
BRANCH   7  16
HETATM   16  O2  UNL     1      16.031 -12.272   3.816  1.00  0.00    -0.363 OA
ATOM     17  H2  UNL     1      15.265 -12.778   3.569  1.00  0.00     0.212 HD
ENDBRANCH   7  16
ENDBRANCH   1   7
BRANCH   4  18
HETATM   18  C8  UNL     1      14.704 -14.207   9.172  1.00  0.00     0.273 C 
BRANCH  18  19
HETATM   19  C9  UNL     1      13.211 -14.266   9.007  1.00  0.00     0.034 C 
BRANCH  19  20
HETATM   20  C10 UNL     1      12.543 -15.267   9.880  1.00  0.00    -0.013 C 
HETATM   21  C11 UNL     1      12.276 -16.586   9.221  1.00  0.00     0.005 C 
HETATM   22  C12 UNL     1      11.430 -17.434  10.134  1.00  0.00     0.000 C 
HETATM   23  C13 UNL     1      11.602 -17.022  11.576  1.00  0.00     0.000 C 
HETATM   24  C14 UNL     1      13.101 -16.796  11.794  1.00  0.00     0.000 C 
HETATM   25  C15 UNL     1      13.464 -15.532  11.063  1.00  0.00     0.005 C 
ENDBRANCH  19  20
ENDBRANCH  18  19
ENDBRANCH   4  18
TORSDOF 7
ENDMDL
