MODEL 1
REMARK VINA RESULT: -7.571593730      0.000      0.000
REMARK  3 active torsions:
REMARK  status: ('A' for Active; 'I' for Inactive)
REMARK    1  A    between atoms: C2_2  and  C3_3 
REMARK    2  A    between atoms: C2_2  and  C11_11 
REMARK    3  A    between atoms: C4_4  and  C5_5 
REMARK       I    between atoms: C11_11  and  N1_13 
ROOT
HETATM    1  C11 UNL     1      -2.525 -35.678 -32.874  1.00  0.00     0.265 C 
HETATM    2  O1  UNL     1      -1.746 -34.968 -32.192  1.00  0.00    -0.267 OA
HETATM    3  N1  UNL     1      -2.323 -35.806 -34.276  1.00  0.00    -0.299 N 
ATOM      4  H1  UNL     1      -2.343 -36.743 -34.678  1.00  0.00     0.171 HD
HETATM    5  C12 UNL     1      -2.118 -34.825 -35.060  1.00  0.00     0.205 C 
HETATM    6  N2  UNL     1      -2.039 -33.446 -34.802  1.00  0.00    -0.346 N 
ATOM      7  H2  UNL     1      -1.920 -33.086 -33.855  1.00  0.00     0.167 HD
HETATM    8  C13 UNL     1      -2.129 -32.596 -35.902  1.00  0.00     0.078 C 
HETATM    9  C14 UNL     1      -1.738 -33.257 -37.164  1.00  0.00     0.193 C 
HETATM   10  S1  UNL     1      -1.869 -34.993 -36.792  1.00  0.00     0.211 S 
HETATM   11  O2  UNL     1      -0.598 -35.712 -37.096  1.00  0.00    -0.219 OA
HETATM   12  O3  UNL     1      -3.035 -35.619 -37.464  1.00  0.00    -0.219 OA
ENDROOT
BRANCH   1  13
HETATM   13  C2  UNL     1      -3.616 -36.347 -32.183  1.00  0.00     0.076 C 
HETATM   14  C1  UNL     1      -4.346 -37.205 -32.877  1.00  0.00     0.039 C 
BRANCH  13  15
HETATM   15  C3  UNL     1      -3.894 -36.092 -30.803  1.00  0.00    -0.057 C 
HETATM   16  C4  UNL     1      -4.128 -35.876 -29.639  1.00  0.00    -0.061 C 
BRANCH  16  17
HETATM   17  C5  UNL     1      -4.404 -35.602 -28.252  1.00  0.00     0.018 A 
HETATM   18  C6  UNL     1      -3.807 -34.511 -27.646  1.00  0.00     0.020 A 
HETATM   19  C7  UNL     1      -4.092 -34.276 -26.314  1.00  0.00     0.001 A 
HETATM   20  C8  UNL     1      -4.939 -35.088 -25.598  1.00  0.00     0.000 A 
HETATM   21  C9  UNL     1      -5.538 -36.178 -26.194  1.00  0.00     0.001 A 
HETATM   22  C10 UNL     1      -5.262 -36.426 -27.524  1.00  0.00     0.020 A 
ENDBRANCH  16  17
ENDBRANCH  13  15
ENDBRANCH   1  13
TORSDOF 3
ENDMDL
MODEL 2
REMARK VINA RESULT: -7.563921079      0.025      1.074
REMARK  3 active torsions:
REMARK  status: ('A' for Active; 'I' for Inactive)
REMARK    1  A    between atoms: C2_2  and  C3_3 
REMARK    2  A    between atoms: C2_2  and  C11_11 
REMARK    3  A    between atoms: C4_4  and  C5_5 
REMARK       I    between atoms: C11_11  and  N1_13 
ROOT
HETATM    1  C11 UNL     1      -2.533 -35.683 -32.864  1.00  0.00     0.265 C 
HETATM    2  O1  UNL     1      -1.753 -34.976 -32.181  1.00  0.00    -0.267 OA
HETATM    3  N1  UNL     1      -2.329 -35.809 -34.266  1.00  0.00    -0.299 N 
ATOM      4  H1  UNL     1      -2.350 -36.746 -34.669  1.00  0.00     0.171 HD
HETATM    5  C12 UNL     1      -2.121 -34.828 -35.048  1.00  0.00     0.205 C 
HETATM    6  N2  UNL     1      -2.038 -33.450 -34.788  1.00  0.00    -0.346 N 
ATOM      7  H2  UNL     1      -1.921 -33.091 -33.841  1.00  0.00     0.167 HD
HETATM    8  C13 UNL     1      -2.125 -32.597 -35.887  1.00  0.00     0.078 C 
HETATM    9  C14 UNL     1      -1.734 -33.257 -37.150  1.00  0.00     0.193 C 
HETATM   10  S1  UNL     1      -1.870 -34.994 -36.781  1.00  0.00     0.211 S 
HETATM   11  O2  UNL     1      -0.600 -35.716 -37.083  1.00  0.00    -0.219 OA
HETATM   12  O3  UNL     1      -3.036 -35.616 -37.455  1.00  0.00    -0.219 OA
ENDROOT
BRANCH   1  13
HETATM   13  C2  UNL     1      -3.627 -36.351 -32.176  1.00  0.00     0.076 C 
HETATM   14  C1  UNL     1      -4.361 -37.201 -32.874  1.00  0.00     0.039 C 
BRANCH  13  15
HETATM   15  C3  UNL     1      -3.902 -36.102 -30.795  1.00  0.00    -0.057 C 
HETATM   16  C4  UNL     1      -4.134 -35.891 -29.629  1.00  0.00    -0.061 C 
BRANCH  16  17
HETATM   17  C5  UNL     1      -4.408 -35.623 -28.240  1.00  0.00     0.018 A 
HETATM   18  C6  UNL     1      -5.273 -36.451 -27.549  1.00  0.00     0.020 A 
HETATM   19  C7  UNL     1      -5.515 -36.165 -26.218  1.00  0.00     0.001 A 
HETATM   20  C8  UNL     1      -4.924 -35.098 -25.585  1.00  0.00     0.000 A 
HETATM   21  C9  UNL     1      -4.060 -34.266 -26.267  1.00  0.00     0.001 A 
HETATM   22  C10 UNL     1      -3.809 -34.539 -27.597  1.00  0.00     0.020 A 
ENDBRANCH  16  17
ENDBRANCH  13  15
ENDBRANCH   1  13
TORSDOF 3
ENDMDL
MODEL 3
REMARK VINA RESULT: -7.232311668      5.329      7.998
REMARK  3 active torsions:
REMARK  status: ('A' for Active; 'I' for Inactive)
REMARK    1  A    between atoms: C2_2  and  C3_3 
REMARK    2  A    between atoms: C2_2  and  C11_11 
REMARK    3  A    between atoms: C4_4  and  C5_5 
REMARK       I    between atoms: C11_11  and  N1_13 
ROOT
HETATM    1  C11 UNL     1      -5.487 -34.950 -26.220  1.00  0.00     0.265 C 
HETATM    2  O1  UNL     1      -6.199 -35.072 -25.194  1.00  0.00    -0.267 OA
HETATM    3  N1  UNL     1      -5.080 -33.656 -26.648  1.00  0.00    -0.299 N 
ATOM      4  H1  UNL     1      -4.096 -33.518 -26.880  1.00  0.00     0.171 HD
HETATM    5  C12 UNL     1      -5.864 -32.661 -26.760  1.00  0.00     0.205 C 
HETATM    6  N2  UNL     1      -7.243 -32.549 -26.518  1.00  0.00    -0.346 N 
ATOM      7  H2  UNL     1      -7.752 -33.257 -25.987  1.00  0.00     0.167 HD
HETATM    8  C13 UNL     1      -7.883 -31.425 -27.037  1.00  0.00     0.078 C 
HETATM    9  C14 UNL     1      -6.956 -30.296 -27.258  1.00  0.00     0.193 C 
HETATM   10  S1  UNL     1      -5.351 -31.065 -27.291  1.00  0.00     0.211 S 
HETATM   11  O2  UNL     1      -4.424 -30.433 -26.307  1.00  0.00    -0.219 OA
HETATM   12  O3  UNL     1      -4.774 -31.092 -28.658  1.00  0.00    -0.219 OA
ENDROOT
BRANCH   1  13
HETATM   13  C2  UNL     1      -5.108 -36.159 -26.934  1.00  0.00     0.076 C 
HETATM   14  C1  UNL     1      -5.230 -37.311 -26.296  1.00  0.00     0.039 C 
BRANCH  13  15
HETATM   15  C3  UNL     1      -4.620 -36.110 -28.278  1.00  0.00    -0.057 C 
HETATM   16  C4  UNL     1      -4.208 -36.069 -29.411  1.00  0.00    -0.061 C 
BRANCH  16  17
HETATM   17  C5  UNL     1      -3.710 -36.036 -30.763  1.00  0.00     0.018 A 
HETATM   18  C6  UNL     1      -2.752 -35.101 -31.110  1.00  0.00     0.020 A 
HETATM   19  C7  UNL     1      -2.296 -35.096 -32.414  1.00  0.00     0.001 A 
HETATM   20  C8  UNL     1      -2.768 -35.984 -33.353  1.00  0.00     0.000 A 
HETATM   21  C9  UNL     1      -3.725 -36.919 -33.016  1.00  0.00     0.001 A 
HETATM   22  C10 UNL     1      -4.190 -36.936 -31.716  1.00  0.00     0.020 A 
ENDBRANCH  16  17
ENDBRANCH  13  15
ENDBRANCH   1  13
TORSDOF 3
ENDMDL
MODEL 4
REMARK VINA RESULT: -7.177552322      5.330      8.067
REMARK  3 active torsions:
REMARK  status: ('A' for Active; 'I' for Inactive)
REMARK    1  A    between atoms: C2_2  and  C3_3 
REMARK    2  A    between atoms: C2_2  and  C11_11 
REMARK    3  A    between atoms: C4_4  and  C5_5 
REMARK       I    between atoms: C11_11  and  N1_13 
ROOT
HETATM    1  C11 UNL     1      -5.490 -34.965 -26.220  1.00  0.00     0.265 C 
HETATM    2  O1  UNL     1      -6.217 -35.092 -25.204  1.00  0.00    -0.267 OA
HETATM    3  N1  UNL     1      -5.078 -33.670 -26.637  1.00  0.00    -0.299 N 
ATOM      4  H1  UNL     1      -4.092 -33.529 -26.854  1.00  0.00     0.171 HD
HETATM    5  C12 UNL     1      -5.862 -32.675 -26.757  1.00  0.00     0.205 C 
HETATM    6  N2  UNL     1      -7.245 -32.566 -26.534  1.00  0.00    -0.346 N 
ATOM      7  H2  UNL     1      -7.760 -33.276 -26.014  1.00  0.00     0.167 HD
HETATM    8  C13 UNL     1      -7.878 -31.441 -27.059  1.00  0.00     0.078 C 
HETATM    9  C14 UNL     1      -6.950 -30.309 -27.262  1.00  0.00     0.193 C 
HETATM   10  S1  UNL     1      -5.343 -31.077 -27.274  1.00  0.00     0.211 S 
HETATM   11  O2  UNL     1      -4.432 -30.447 -26.275  1.00  0.00    -0.219 OA
HETATM   12  O3  UNL     1      -4.746 -31.097 -28.633  1.00  0.00    -0.219 OA
ENDROOT
BRANCH   1  13
HETATM   13  C2  UNL     1      -5.099 -36.171 -26.932  1.00  0.00     0.076 C 
HETATM   14  C1  UNL     1      -5.198 -37.323 -26.289  1.00  0.00     0.039 C 
BRANCH  13  15
HETATM   15  C3  UNL     1      -4.623 -36.120 -28.280  1.00  0.00    -0.057 C 
HETATM   16  C4  UNL     1      -4.221 -36.077 -29.417  1.00  0.00    -0.061 C 
BRANCH  16  17
HETATM   17  C5  UNL     1      -3.731 -36.039 -30.772  1.00  0.00     0.018 A 
HETATM   18  C6  UNL     1      -4.197 -36.966 -31.687  1.00  0.00     0.020 A 
HETATM   19  C7  UNL     1      -3.706 -36.903 -32.977  1.00  0.00     0.001 A 
HETATM   20  C8  UNL     1      -2.784 -35.957 -33.359  1.00  0.00     0.000 A 
HETATM   21  C9  UNL     1      -2.313 -35.030 -32.453  1.00  0.00     0.001 A 
HETATM   22  C10 UNL     1      -2.794 -35.080 -31.159  1.00  0.00     0.020 A 
ENDBRANCH  16  17
ENDBRANCH  13  15
ENDBRANCH   1  13
TORSDOF 3
ENDMDL
MODEL 5
REMARK VINA RESULT: -5.142409473      1.543      1.952
REMARK  3 active torsions:
REMARK  status: ('A' for Active; 'I' for Inactive)
REMARK    1  A    between atoms: C2_2  and  C3_3 
REMARK    2  A    between atoms: C2_2  and  C11_11 
REMARK    3  A    between atoms: C4_4  and  C5_5 
REMARK       I    between atoms: C11_11  and  N1_13 
ROOT
HETATM    1  C11 UNL     1      -2.590 -36.019 -32.843  1.00  0.00     0.265 C 
HETATM    2  O1  UNL     1      -2.218 -34.837 -32.644  1.00  0.00    -0.267 OA
HETATM    3  N1  UNL     1      -1.936 -36.811 -33.826  1.00  0.00    -0.299 N 
ATOM      4  H1  UNL     1      -1.647 -37.753 -33.566  1.00  0.00     0.171 HD
HETATM    5  C12 UNL     1      -1.690 -36.418 -35.011  1.00  0.00     0.205 C 
HETATM    6  N2  UNL     1      -1.964 -35.195 -35.647  1.00  0.00    -0.346 N 
ATOM      7  H2  UNL     1      -2.221 -34.363 -35.116  1.00  0.00     0.167 HD
HETATM    8  C13 UNL     1      -1.866 -35.175 -37.037  1.00  0.00     0.078 C 
HETATM    9  C14 UNL     1      -0.978 -36.234 -37.559  1.00  0.00     0.193 C 
HETATM   10  S1  UNL     1      -0.881 -37.404 -36.221  1.00  0.00     0.211 S 
HETATM   11  O2  UNL     1       0.535 -37.683 -35.844  1.00  0.00    -0.219 OA
HETATM   12  O3  UNL     1      -1.633 -38.650 -36.516  1.00  0.00    -0.219 OA
ENDROOT
BRANCH   1  13
HETATM   13  C2  UNL     1      -3.691 -36.530 -32.042  1.00  0.00     0.076 C 
HETATM   14  C1  UNL     1      -4.532 -37.371 -32.621  1.00  0.00     0.039 C 
BRANCH  13  15
HETATM   15  C3  UNL     1      -3.865 -36.140 -30.676  1.00  0.00    -0.057 C 
HETATM   16  C4  UNL     1      -4.012 -35.810 -29.525  1.00  0.00    -0.061 C 
BRANCH  16  17
HETATM   17  C5  UNL     1      -4.196 -35.433 -28.146  1.00  0.00     0.018 A 
HETATM   18  C6  UNL     1      -4.872 -36.287 -27.294  1.00  0.00     0.020 A 
HETATM   19  C7  UNL     1      -5.032 -35.895 -25.979  1.00  0.00     0.001 A 
HETATM   20  C8  UNL     1      -4.541 -34.698 -25.513  1.00  0.00     0.000 A 
HETATM   21  C9  UNL     1      -3.867 -33.839 -26.355  1.00  0.00     0.001 A 
HETATM   22  C10 UNL     1      -3.700 -34.217 -27.673  1.00  0.00     0.020 A 
ENDBRANCH  16  17
ENDBRANCH  13  15
ENDBRANCH   1  13
TORSDOF 3
ENDMDL
