MODEL 1
REMARK VINA RESULT: -6.294132627      0.000      0.000
REMARK  4 active torsions:
REMARK  status: ('A' for Active; 'I' for Inactive)
REMARK    1  A    between atoms: O1_2  and  C2_3 
REMARK    2  A    between atoms: C3_4  and  O2_5 
REMARK    3  A    between atoms: C4_7  and  O3_8 
REMARK    4  A    between atoms: C8_12  and  N1_13 
ROOT
HETATM    1  C2  UNL     1      18.759  80.540   2.126  1.00  0.00     0.138 A 
HETATM    2  C3  UNL     1      17.772  79.874   1.454  1.00  0.00     0.136 A 
HETATM    3  C4  UNL     1      17.660  80.000   0.055  1.00  0.00     0.112 A 
HETATM    4  C6  UNL     1      18.534  80.791  -0.630  1.00  0.00     0.008 A 
HETATM    5  C7  UNL     1      19.552  81.470   0.060  1.00  0.00     0.012 A 
HETATM    6  C8  UNL     1      19.647  81.335   1.431  1.00  0.00     0.148 A 
HETATM    7  C9  UNL     1      20.619  82.266  -0.625  1.00  0.00     0.220 C 
HETATM    8  O6  UNL     1      20.767  81.859  -1.999  1.00  0.00    -0.316 OA
HETATM    9  C10 UNL     1      19.904  80.847  -2.501  1.00  0.00     0.273 C 
HETATM   10  O7  UNL     1      20.298  79.906  -3.213  1.00  0.00    -0.264 OA
HETATM   11  C11 UNL     1      18.490  81.069  -2.058  1.00  0.00     0.082 C 
HETATM   12  C12 UNL     1      18.281  82.591  -2.266  1.00  0.00     0.030 C 
HETATM   13  C13 UNL     1      17.585  82.729  -3.619  1.00  0.00    -0.013 C 
HETATM   14  C14 UNL     1      16.091  82.578  -3.418  1.00  0.00     0.005 C 
HETATM   15  C15 UNL     1      16.115  81.247  -2.638  1.00  0.00     0.006 C 
HETATM   16  C16 UNL     1      17.436  80.573  -2.928  1.00  0.00     0.009 C 
HETATM   17  C17 UNL     1      17.825  81.360  -4.222  1.00  0.00     0.011 C 
ENDROOT
BRANCH   3  18
HETATM   18  O3  UNL     1      16.614  79.249  -0.468  1.00  0.00    -0.352 OA
HETATM   19  C5  UNL     1      16.950  77.884  -0.763  1.00  0.00     0.210 C 
ENDBRANCH   3  18
BRANCH   2  20
HETATM   20  O2  UNL     1      16.886  79.077   2.167  1.00  0.00    -0.356 OA
ATOM     21  H2  UNL     1      16.286  78.513   1.694  1.00  0.00     0.218 HD
ENDBRANCH   2  20
BRANCH   6  22
HETATM   22  N1  UNL     1      20.689  82.043   2.095  1.00  0.00    -0.112 N 
HETATM   23  O4  UNL     1      20.459  83.156   2.546  1.00  0.00    -0.532 OA
HETATM   24  O5  UNL     1      21.911  81.455   2.203  1.00  0.00    -0.532 OA
ENDBRANCH   6  22
BRANCH   1  25
HETATM   25  O1  UNL     1      18.882  80.430   3.501  1.00  0.00    -0.351 OA
HETATM   26  C1  UNL     1      18.220  81.358   4.375  1.00  0.00     0.210 C 
ENDBRANCH   1  25
TORSDOF 4
ENDMDL
MODEL 2
REMARK VINA RESULT: -6.176717667      4.370      8.513
REMARK  4 active torsions:
REMARK  status: ('A' for Active; 'I' for Inactive)
REMARK    1  A    between atoms: O1_2  and  C2_3 
REMARK    2  A    between atoms: C3_4  and  O2_5 
REMARK    3  A    between atoms: C4_7  and  O3_8 
REMARK    4  A    between atoms: C8_12  and  N1_13 
ROOT
HETATM    1  C2  UNL     1      18.286  81.731   4.501  1.00  0.00     0.138 A 
HETATM    2  C3  UNL     1      18.130  81.644   5.857  1.00  0.00     0.136 A 
HETATM    3  C4  UNL     1      18.749  82.587   6.701  1.00  0.00     0.112 A 
HETATM    4  C6  UNL     1      19.509  83.585   6.168  1.00  0.00     0.008 A 
HETATM    5  C7  UNL     1      19.663  83.678   4.774  1.00  0.00     0.012 A 
HETATM    6  C8  UNL     1      19.050  82.745   3.962  1.00  0.00     0.148 A 
HETATM    7  C9  UNL     1      20.385  84.803   4.101  1.00  0.00     0.220 C 
HETATM    8  O6  UNL     1      20.450  85.962   4.955  1.00  0.00    -0.316 OA
HETATM    9  C10 UNL     1      19.892  85.871   6.260  1.00  0.00     0.273 C 
HETATM   10  O7  UNL     1      19.189  86.764   6.766  1.00  0.00    -0.264 OA
HETATM   11  C11 UNL     1      20.261  84.578   6.921  1.00  0.00     0.082 C 
HETATM   12  C12 UNL     1      21.767  84.421   6.591  1.00  0.00     0.030 C 
HETATM   13  C13 UNL     1      22.513  84.939   7.820  1.00  0.00    -0.013 C 
HETATM   14  C14 UNL     1      22.643  83.813   8.825  1.00  0.00     0.005 C 
HETATM   15  C15 UNL     1      21.156  83.403   8.878  1.00  0.00     0.006 C 
HETATM   16  C16 UNL     1      20.344  84.573   8.372  1.00  0.00     0.009 C 
HETATM   17  C17 UNL     1      21.417  85.698   8.540  1.00  0.00     0.011 C 
ENDROOT
BRANCH   3  18
HETATM   18  O3  UNL     1      18.478  82.361   8.046  1.00  0.00    -0.352 OA
HETATM   19  C5  UNL     1      17.551  83.289   8.632  1.00  0.00     0.210 C 
ENDBRANCH   3  18
BRANCH   2  20
HETATM   20  O2  UNL     1      17.358  80.618   6.386  1.00  0.00    -0.356 OA
ATOM     21  H2  UNL     1      17.705  80.098   7.100  1.00  0.00     0.218 HD
ENDBRANCH   2  20
BRANCH   6  22
HETATM   22  N1  UNL     1      19.234  82.870   2.555  1.00  0.00    -0.112 N 
HETATM   23  O4  UNL     1      18.322  83.311   1.872  1.00  0.00    -0.532 OA
HETATM   24  O5  UNL     1      20.425  82.490   2.017  1.00  0.00    -0.532 OA
ENDBRANCH   6  22
BRANCH   1  25
HETATM   25  O1  UNL     1      17.687  80.811   3.657  1.00  0.00    -0.351 OA
HETATM   26  C1  UNL     1      18.479  79.981   2.794  1.00  0.00     0.210 C 
ENDBRANCH   1  25
TORSDOF 4
ENDMDL
MODEL 3
REMARK VINA RESULT: -5.874066098      2.545      3.836
REMARK  4 active torsions:
REMARK  status: ('A' for Active; 'I' for Inactive)
REMARK    1  A    between atoms: O1_2  and  C2_3 
REMARK    2  A    between atoms: C3_4  and  O2_5 
REMARK    3  A    between atoms: C4_7  and  O3_8 
REMARK    4  A    between atoms: C8_12  and  N1_13 
ROOT
HETATM    1  C2  UNL     1      17.480  79.740  -1.012  1.00  0.00     0.138 A 
HETATM    2  C3  UNL     1      16.712  79.071  -1.925  1.00  0.00     0.136 A 
HETATM    3  C4  UNL     1      16.074  79.778  -2.964  1.00  0.00     0.112 A 
HETATM    4  C6  UNL     1      16.217  81.130  -3.058  1.00  0.00     0.008 A 
HETATM    5  C7  UNL     1      17.011  81.816  -2.123  1.00  0.00     0.012 A 
HETATM    6  C8  UNL     1      17.629  81.108  -1.111  1.00  0.00     0.148 A 
HETATM    7  C9  UNL     1      17.311  83.279  -2.217  1.00  0.00     0.220 C 
HETATM    8  O6  UNL     1      17.129  83.759  -3.563  1.00  0.00    -0.316 OA
HETATM    9  C10 UNL     1      16.674  82.845  -4.552  1.00  0.00     0.273 C 
HETATM   10  O7  UNL     1      17.158  82.779  -5.696  1.00  0.00    -0.264 OA
HETATM   11  C11 UNL     1      15.559  81.990  -4.030  1.00  0.00     0.082 C 
HETATM   12  C12 UNL     1      14.654  82.998  -3.276  1.00  0.00     0.030 C 
HETATM   13  C13 UNL     1      13.541  83.364  -4.257  1.00  0.00    -0.013 C 
HETATM   14  C14 UNL     1      12.436  82.333  -4.151  1.00  0.00     0.005 C 
HETATM   15  C15 UNL     1      13.306  81.071  -4.328  1.00  0.00     0.006 C 
HETATM   16  C16 UNL     1      14.592  81.495  -4.997  1.00  0.00     0.009 C 
HETATM   17  C17 UNL     1      14.121  82.872  -5.568  1.00  0.00     0.011 C 
ENDROOT
BRANCH   3  18
HETATM   18  O3  UNL     1      15.347  78.946  -3.808  1.00  0.00    -0.352 OA
HETATM   19  C5  UNL     1      16.111  78.368  -4.879  1.00  0.00     0.210 C 
ENDBRANCH   3  18
BRANCH   2  20
HETATM   20  O2  UNL     1      16.572  77.695  -1.813  1.00  0.00    -0.356 OA
ATOM     21  H2  UNL     1      17.338  77.142  -1.907  1.00  0.00     0.218 HD
ENDBRANCH   2  20
BRANCH   6  22
HETATM   22  N1  UNL     1      18.421  81.840  -0.181  1.00  0.00    -0.112 N 
HETATM   23  O4  UNL     1      19.618  81.967  -0.389  1.00  0.00    -0.532 OA
HETATM   24  O5  UNL     1      17.814  82.372   0.915  1.00  0.00    -0.532 OA
ENDBRANCH   6  22
BRANCH   1  25
HETATM   25  O1  UNL     1      18.112  79.063   0.017  1.00  0.00    -0.351 OA
HETATM   26  C1  UNL     1      17.436  78.818   1.261  1.00  0.00     0.210 C 
ENDBRANCH   1  25
TORSDOF 4
ENDMDL
MODEL 4
REMARK VINA RESULT: -5.771122926      1.874      3.751
REMARK  4 active torsions:
REMARK  status: ('A' for Active; 'I' for Inactive)
REMARK    1  A    between atoms: O1_2  and  C2_3 
REMARK    2  A    between atoms: C3_4  and  O2_5 
REMARK    3  A    between atoms: C4_7  and  O3_8 
REMARK    4  A    between atoms: C8_12  and  N1_13 
ROOT
HETATM    1  C2  UNL     1      21.460  81.752   0.926  1.00  0.00     0.138 A 
HETATM    2  C3  UNL     1      21.761  81.528  -0.389  1.00  0.00     0.136 A 
HETATM    3  C4  UNL     1      20.740  81.541  -1.360  1.00  0.00     0.112 A 
HETATM    4  C6  UNL     1      19.449  81.770  -0.988  1.00  0.00     0.008 A 
HETATM    5  C7  UNL     1      19.140  82.006   0.363  1.00  0.00     0.012 A 
HETATM    6  C8  UNL     1      20.154  81.990   1.300  1.00  0.00     0.148 A 
HETATM    7  C9  UNL     1      17.771  82.376   0.840  1.00  0.00     0.220 C 
HETATM    8  O6  UNL     1      16.980  82.927  -0.231  1.00  0.00    -0.316 OA
HETATM    9  C10 UNL     1      17.557  83.000  -1.528  1.00  0.00     0.273 C 
HETATM   10  O7  UNL     1      17.454  83.996  -2.267  1.00  0.00    -0.264 OA
HETATM   11  C11 UNL     1      18.291  81.739  -1.870  1.00  0.00     0.082 C 
HETATM   12  C12 UNL     1      17.329  80.621  -1.393  1.00  0.00     0.030 C 
HETATM   13  C13 UNL     1      16.561  80.181  -2.638  1.00  0.00    -0.013 C 
HETATM   14  C14 UNL     1      17.374  79.132  -3.370  1.00  0.00     0.005 C 
HETATM   15  C15 UNL     1      18.701  79.915  -3.455  1.00  0.00     0.006 C 
HETATM   16  C16 UNL     1      18.378  81.380  -3.276  1.00  0.00     0.009 C 
HETATM   17  C17 UNL     1      16.846  81.326  -3.589  1.00  0.00     0.011 C 
ENDROOT
BRANCH   3  18
HETATM   18  O3  UNL     1      21.220  81.310  -2.644  1.00  0.00    -0.352 OA
HETATM   19  C5  UNL     1      21.656  82.490  -3.338  1.00  0.00     0.210 C 
ENDBRANCH   3  18
BRANCH   2  20
HETATM   20  O2  UNL     1      23.081  81.291  -0.750  1.00  0.00    -0.356 OA
ATOM     21  H2  UNL     1      23.285  81.102  -1.658  1.00  0.00     0.218 HD
ENDBRANCH   2  20
BRANCH   6  22
HETATM   22  N1  UNL     1      19.801  82.228   2.659  1.00  0.00    -0.112 N 
HETATM   23  O4  UNL     1      19.457  81.286   3.359  1.00  0.00    -0.532 OA
HETATM   24  O5  UNL     1      19.856  83.502   3.134  1.00  0.00    -0.532 OA
ENDBRANCH   6  22
BRANCH   1  25
HETATM   25  O1  UNL     1      22.450  81.740   1.894  1.00  0.00    -0.351 OA
HETATM   26  C1  UNL     1      23.201  82.927   2.192  1.00  0.00     0.210 C 
ENDBRANCH   1  25
TORSDOF 4
ENDMDL
MODEL 5
REMARK VINA RESULT: -5.673675543      6.084      8.582
REMARK  4 active torsions:
REMARK  status: ('A' for Active; 'I' for Inactive)
REMARK    1  A    between atoms: O1_2  and  C2_3 
REMARK    2  A    between atoms: C3_4  and  O2_5 
REMARK    3  A    between atoms: C4_7  and  O3_8 
REMARK    4  A    between atoms: C8_12  and  N1_13 
ROOT
HETATM    1  C2  UNL     1      25.168  82.725   0.417  1.00  0.00     0.138 A 
HETATM    2  C3  UNL     1      26.502  82.580   0.150  1.00  0.00     0.136 A 
HETATM    3  C4  UNL     1      26.962  81.454  -0.560  1.00  0.00     0.112 A 
HETATM    4  C6  UNL     1      26.079  80.503  -0.978  1.00  0.00     0.008 A 
HETATM    5  C7  UNL     1      24.708  80.655  -0.709  1.00  0.00     0.012 A 
HETATM    6  C8  UNL     1      24.275  81.765  -0.012  1.00  0.00     0.148 A 
HETATM    7  C9  UNL     1      23.661  79.720  -1.227  1.00  0.00     0.220 C 
HETATM    8  O6  UNL     1      24.138  78.994  -2.376  1.00  0.00    -0.316 OA
HETATM    9  C10 UNL     1      25.473  79.218  -2.811  1.00  0.00     0.273 C 
HETATM   10  O7  UNL     1      25.787  79.359  -4.007  1.00  0.00    -0.264 OA
HETATM   11  C11 UNL     1      26.422  79.261  -1.653  1.00  0.00     0.082 C 
HETATM   12  C12 UNL     1      25.970  78.070  -0.770  1.00  0.00     0.030 C 
HETATM   13  C13 UNL     1      26.901  76.913  -1.132  1.00  0.00    -0.013 C 
HETATM   14  C14 UNL     1      28.160  77.019  -0.296  1.00  0.00     0.005 C 
HETATM   15  C15 UNL     1      28.507  78.487  -0.621  1.00  0.00     0.006 C 
HETATM   16  C16 UNL     1      27.795  78.850  -1.903  1.00  0.00     0.009 C 
HETATM   17  C17 UNL     1      27.504  77.407  -2.431  1.00  0.00     0.011 C 
ENDROOT
BRANCH   3  18
HETATM   18  O3  UNL     1      28.339  81.471  -0.756  1.00  0.00    -0.352 OA
HETATM   19  C5  UNL     1      28.765  82.176  -1.932  1.00  0.00     0.210 C 
ENDBRANCH   3  18
BRANCH   2  20
HETATM   20  O2  UNL     1      27.389  83.555   0.588  1.00  0.00    -0.356 OA
ATOM     21  H2  UNL     1      27.135  84.468   0.540  1.00  0.00     0.218 HD
ENDBRANCH   2  20
BRANCH   6  22
HETATM   22  N1  UNL     1      22.879  81.881   0.246  1.00  0.00    -0.112 N 
HETATM   23  O4  UNL     1      22.169  82.453  -0.568  1.00  0.00    -0.532 OA
HETATM   24  O5  UNL     1      22.382  81.350   1.396  1.00  0.00    -0.532 OA
ENDBRANCH   6  22
BRANCH   1  25
HETATM   25  O1  UNL     1      24.699  83.824   1.117  1.00  0.00    -0.351 OA
HETATM   26  C1  UNL     1      24.630  83.808   2.551  1.00  0.00     0.210 C 
ENDBRANCH   1  25
TORSDOF 4
ENDMDL
