MODEL 1
REMARK VINA RESULT: -8.092174393      0.000      0.000
REMARK  3 active torsions:
REMARK  status: ('A' for Active; 'I' for Inactive)
REMARK    1  A    between atoms: C2_2  and  C8_15 
REMARK    2  A    between atoms: N1_3  and  N2_5 
REMARK       I    between atoms: N2_5  and  C3_7 
REMARK    3  A    between atoms: C3_7  and  C4_9 
ROOT
HETATM    1  C8  UNL     1      18.566  10.822  42.110  1.00  0.00     0.051 A 
HETATM    2  S1  UNL     1      19.373   9.299  41.911  1.00  0.00    -0.074 SA
HETATM    3  C9  UNL     1      19.355   9.203  40.225  1.00  0.00     0.082 A 
HETATM    4 CL1  UNL     1      19.998   7.920  39.181  1.00  0.00    -0.076 Cl
HETATM    5  C10 UNL     1      18.723  10.353  39.837  1.00  0.00    -0.011 A 
HETATM    6  C11 UNL     1      18.510  10.636  38.345  1.00  0.00     0.052 C 
HETATM    7  C12 UNL     1      18.313  11.195  40.819  1.00  0.00     0.071 A 
HETATM    8  C13 UNL     1      17.618  12.470  40.518  1.00  0.00     0.101 C 
HETATM    9  N3  UNL     1      17.065  13.481  40.251  1.00  0.00    -0.191 NA
ENDROOT
BRANCH   1  10
HETATM   10  C2  UNL     1      18.269  11.477  43.384  1.00  0.00     0.040 C 
HETATM   11  C1  UNL     1      17.613  10.795  44.493  1.00  0.00     0.071 C 
HETATM   12  N1  UNL     1      18.610  12.711  43.508  1.00  0.00    -0.301 N 
ATOM     13  H1  UNL     1      19.068  13.171  42.721  1.00  0.00     0.186 HD
BRANCH  12  14
HETATM   14  N2  UNL     1      18.383  13.449  44.669  1.00  0.00    -0.264 N 
HETATM   15  C3  UNL     1      17.307  14.338  44.754  1.00  0.00     0.295 C 
HETATM   16  O1  UNL     1      16.527  14.473  43.752  1.00  0.00    -0.264 OA
ATOM     17  H2  UNL     1      19.009  13.339  45.466  1.00  0.00     0.190 HD
BRANCH  15  18
HETATM   18  C4  UNL     1      17.005  15.144  45.934  1.00  0.00     0.160 C 
HETATM   19  C5  UNL     1      16.482  14.631  47.036  1.00  0.00     0.177 C 
HETATM   20  O2  UNL     1      16.198  15.424  48.166  1.00  0.00    -0.358 OA
HETATM   21  C6  UNL     1      16.941  16.624  48.294  1.00  0.00     0.201 C 
HETATM   22  C7  UNL     1      16.743  17.372  46.970  1.00  0.00     0.202 C 
HETATM   23  O3  UNL     1      17.253  16.513  45.968  1.00  0.00    -0.342 OA
ENDBRANCH  15  18
ENDBRANCH  12  14
ENDBRANCH   1  10
TORSDOF 3
ENDMDL
MODEL 2
REMARK VINA RESULT: -7.860802765      1.154      1.552
REMARK  3 active torsions:
REMARK  status: ('A' for Active; 'I' for Inactive)
REMARK    1  A    between atoms: C2_2  and  C8_15 
REMARK    2  A    between atoms: N1_3  and  N2_5 
REMARK       I    between atoms: N2_5  and  C3_7 
REMARK    3  A    between atoms: C3_7  and  C4_9 
ROOT
HETATM    1  C8  UNL     1      19.073  10.559  41.890  1.00  0.00     0.051 A 
HETATM    2  S1  UNL     1      19.788   9.003  41.606  1.00  0.00    -0.074 SA
HETATM    3  C9  UNL     1      19.406   8.828  39.970  1.00  0.00     0.082 A 
HETATM    4 CL1  UNL     1      19.785   7.477  38.883  1.00  0.00    -0.076 Cl
HETATM    5  C10 UNL     1      18.728   9.977  39.665  1.00  0.00    -0.011 A 
HETATM    6  C11 UNL     1      18.205  10.194  38.240  1.00  0.00     0.052 C 
HETATM    7  C12 UNL     1      18.556  10.876  40.666  1.00  0.00     0.071 A 
HETATM    8  C13 UNL     1      17.837  12.156  40.452  1.00  0.00     0.101 C 
HETATM    9  N3  UNL     1      17.259  13.169  40.256  1.00  0.00    -0.191 NA
ENDROOT
BRANCH   1  10
HETATM   10  C2  UNL     1      19.069  11.282  43.162  1.00  0.00     0.040 C 
HETATM   11  C1  UNL     1      20.255  11.924  43.714  1.00  0.00     0.071 C 
HETATM   12  N1  UNL     1      17.955  11.341  43.804  1.00  0.00    -0.301 N 
ATOM     13  H1  UNL     1      17.136  10.886  43.402  1.00  0.00     0.186 HD
BRANCH  12  14
HETATM   14  N2  UNL     1      17.818  11.999  45.026  1.00  0.00    -0.264 N 
HETATM   15  C3  UNL     1      17.329  13.308  45.084  1.00  0.00     0.295 C 
HETATM   16  O1  UNL     1      17.007  13.904  44.001  1.00  0.00    -0.264 OA
ATOM     17  H2  UNL     1      18.077  11.519  45.888  1.00  0.00     0.190 HD
BRANCH  15  18
HETATM   18  C4  UNL     1      17.156  14.061  46.324  1.00  0.00     0.160 C 
HETATM   19  C5  UNL     1      16.978  15.372  46.347  1.00  0.00     0.177 C 
HETATM   20  O2  UNL     1      16.814  16.081  47.553  1.00  0.00    -0.358 OA
HETATM   21  C6  UNL     1      16.327  15.338  48.657  1.00  0.00     0.201 C 
HETATM   22  C7  UNL     1      17.271  14.137  48.791  1.00  0.00     0.202 C 
HETATM   23  O3  UNL     1      17.170  13.435  47.566  1.00  0.00    -0.342 OA
ENDBRANCH  15  18
ENDBRANCH  12  14
ENDBRANCH   1  10
TORSDOF 3
ENDMDL
MODEL 3
REMARK VINA RESULT: -7.801490886      1.779      2.393
REMARK  3 active torsions:
REMARK  status: ('A' for Active; 'I' for Inactive)
REMARK    1  A    between atoms: C2_2  and  C8_15 
REMARK    2  A    between atoms: N1_3  and  N2_5 
REMARK       I    between atoms: N2_5  and  C3_7 
REMARK    3  A    between atoms: C3_7  and  C4_9 
ROOT
HETATM    1  C8  UNL     1      18.587  10.742  40.952  1.00  0.00     0.051 A 
HETATM    2  S1  UNL     1      19.250   9.149  41.138  1.00  0.00    -0.074 SA
HETATM    3  C9  UNL     1      19.214   8.654  39.523  1.00  0.00     0.082 A 
HETATM    4 CL1  UNL     1      19.731   7.105  38.828  1.00  0.00    -0.076 Cl
HETATM    5  C10 UNL     1      18.687   9.730  38.861  1.00  0.00    -0.011 A 
HETATM    6  C11 UNL     1      18.493   9.664  37.341  1.00  0.00     0.052 C 
HETATM    7  C12 UNL     1      18.362  10.816  39.606  1.00  0.00     0.071 A 
HETATM    8  C13 UNL     1      17.784  12.038  38.997  1.00  0.00     0.101 C 
HETATM    9  N3  UNL     1      17.324  13.001  38.487  1.00  0.00    -0.191 NA
ENDROOT
BRANCH   1  10
HETATM   10  C2  UNL     1      18.357  11.708  42.028  1.00  0.00     0.040 C 
HETATM   11  C1  UNL     1      17.826  13.045  41.795  1.00  0.00     0.071 C 
HETATM   12  N1  UNL     1      18.645  11.337  43.226  1.00  0.00    -0.301 N 
ATOM     13  H1  UNL     1      19.016  10.397  43.368  1.00  0.00     0.186 HD
BRANCH  12  14
HETATM   14  N2  UNL     1      18.474  12.160  44.337  1.00  0.00    -0.264 N 
HETATM   15  C3  UNL     1      17.556  11.830  45.340  1.00  0.00     0.295 C 
HETATM   16  O1  UNL     1      16.868  10.760  45.229  1.00  0.00    -0.264 OA
ATOM     17  H2  UNL     1      19.025  13.014  44.421  1.00  0.00     0.190 HD
BRANCH  15  18
HETATM   18  C4  UNL     1      17.322  12.641  46.531  1.00  0.00     0.160 C 
HETATM   19  C5  UNL     1      17.360  13.964  46.516  1.00  0.00     0.177 C 
HETATM   20  O2  UNL     1      17.131  14.730  47.677  1.00  0.00    -0.358 OA
HETATM   21  C6  UNL     1      16.366  14.112  48.696  1.00  0.00     0.201 C 
HETATM   22  C7  UNL     1      17.068  12.779  48.985  1.00  0.00     0.202 C 
HETATM   23  O3  UNL     1      17.042  12.063  47.766  1.00  0.00    -0.342 OA
ENDBRANCH  15  18
ENDBRANCH  12  14
ENDBRANCH   1  10
TORSDOF 3
ENDMDL
MODEL 4
REMARK VINA RESULT: -7.682834399      1.795      2.180
REMARK  3 active torsions:
REMARK  status: ('A' for Active; 'I' for Inactive)
REMARK    1  A    between atoms: C2_2  and  C8_15 
REMARK    2  A    between atoms: N1_3  and  N2_5 
REMARK       I    between atoms: N2_5  and  C3_7 
REMARK    3  A    between atoms: C3_7  and  C4_9 
ROOT
HETATM    1  C8  UNL     1      18.569  10.786  41.030  1.00  0.00     0.051 A 
HETATM    2  S1  UNL     1      19.239   9.193  41.192  1.00  0.00    -0.074 SA
HETATM    3  C9  UNL     1      19.215   8.726  39.569  1.00  0.00     0.082 A 
HETATM    4 CL1  UNL     1      19.745   7.192  38.849  1.00  0.00    -0.076 Cl
HETATM    5  C10 UNL     1      18.687   9.810  38.922  1.00  0.00    -0.011 A 
HETATM    6  C11 UNL     1      18.501   9.771  37.400  1.00  0.00     0.052 C 
HETATM    7  C12 UNL     1      18.351  10.881  39.685  1.00  0.00     0.071 A 
HETATM    8  C13 UNL     1      17.770  12.111  39.093  1.00  0.00     0.101 C 
HETATM    9  N3  UNL     1      17.308  13.081  38.598  1.00  0.00    -0.191 NA
ENDROOT
BRANCH   1  10
HETATM   10  C2  UNL     1      18.328  11.731  42.121  1.00  0.00     0.040 C 
HETATM   11  C1  UNL     1      17.865  13.095  41.902  1.00  0.00     0.071 C 
HETATM   12  N1  UNL     1      18.542  11.316  43.320  1.00  0.00    -0.301 N 
ATOM     13  H1  UNL     1      18.865  10.357  43.453  1.00  0.00     0.186 HD
BRANCH  12  14
HETATM   14  N2  UNL     1      18.352  12.116  44.446  1.00  0.00    -0.264 N 
HETATM   15  C3  UNL     1      17.448  11.743  45.446  1.00  0.00     0.295 C 
HETATM   16  O1  UNL     1      16.791  10.655  45.320  1.00  0.00    -0.264 OA
ATOM     17  H2  UNL     1      18.878  12.984  44.541  1.00  0.00     0.190 HD
BRANCH  15  18
HETATM   18  C4  UNL     1      17.195  12.527  46.651  1.00  0.00     0.160 C 
HETATM   19  C5  UNL     1      17.100  11.982  47.854  1.00  0.00     0.177 C 
HETATM   20  O2  UNL     1      16.856  12.755  49.006  1.00  0.00    -0.358 OA
HETATM   21  C6  UNL     1      17.230  14.120  48.937  1.00  0.00     0.201 C 
HETATM   22  C7  UNL     1      16.538  14.673  47.686  1.00  0.00     0.202 C 
HETATM   23  O3  UNL     1      17.039  13.909  46.605  1.00  0.00    -0.342 OA
ENDBRANCH  15  18
ENDBRANCH  12  14
ENDBRANCH   1  10
TORSDOF 3
ENDMDL
MODEL 5
REMARK VINA RESULT: -7.452039065      4.191      8.162
REMARK  3 active torsions:
REMARK  status: ('A' for Active; 'I' for Inactive)
REMARK    1  A    between atoms: C2_2  and  C8_15 
REMARK    2  A    between atoms: N1_3  and  N2_5 
REMARK       I    between atoms: N2_5  and  C3_7 
REMARK    3  A    between atoms: C3_7  and  C4_9 
ROOT
HETATM    1  C8  UNL     1      17.208  13.612  45.487  1.00  0.00     0.051 A 
HETATM    2  S1  UNL     1      16.833  15.164  44.808  1.00  0.00    -0.074 SA
HETATM    3  C9  UNL     1      16.560  16.023  46.237  1.00  0.00     0.082 A 
HETATM    4 CL1  UNL     1      16.112  17.729  46.436  1.00  0.00    -0.076 Cl
HETATM    5  C10 UNL     1      16.761  15.095  47.223  1.00  0.00    -0.011 A 
HETATM    6  C11 UNL     1      16.603  15.502  48.692  1.00  0.00     0.052 C 
HETATM    7  C12 UNL     1      17.099  13.841  46.830  1.00  0.00     0.071 A 
HETATM    8  C13 UNL     1      17.342  12.754  47.809  1.00  0.00     0.101 C 
HETATM    9  N3  UNL     1      17.530  11.904  48.610  1.00  0.00    -0.191 NA
ENDROOT
BRANCH   1  10
HETATM   10  C2  UNL     1      17.547  12.404  44.734  1.00  0.00     0.040 C 
HETATM   11  C1  UNL     1      17.081  11.076  45.111  1.00  0.00     0.071 C 
HETATM   12  N1  UNL     1      18.291  12.547  43.694  1.00  0.00    -0.301 N 
ATOM     13  H1  UNL     1      18.606  13.484  43.445  1.00  0.00     0.186 HD
BRANCH  12  14
HETATM   14  N2  UNL     1      18.686  11.478  42.891  1.00  0.00    -0.264 N 
HETATM   15  C3  UNL     1      18.370  11.450  41.528  1.00  0.00     0.295 C 
HETATM   16  O1  UNL     1      17.711  12.418  41.019  1.00  0.00    -0.264 OA
ATOM     17  H2  UNL     1      19.211  10.706  43.302  1.00  0.00     0.190 HD
BRANCH  15  18
HETATM   18  C4  UNL     1      18.748  10.366  40.625  1.00  0.00     0.160 C 
HETATM   19  C5  UNL     1      19.463   9.324  41.017  1.00  0.00     0.177 C 
HETATM   20  O2  UNL     1      19.819   8.288  40.131  1.00  0.00    -0.358 OA
HETATM   21  C6  UNL     1      18.987   8.118  38.997  1.00  0.00     0.201 C 
HETATM   22  C7  UNL     1      18.929   9.493  38.320  1.00  0.00     0.202 C 
HETATM   23  O3  UNL     1      18.375  10.368  39.285  1.00  0.00    -0.342 OA
ENDBRANCH  15  18
ENDBRANCH  12  14
ENDBRANCH   1  10
TORSDOF 3
ENDMDL
