MODEL 1
REMARK VINA RESULT: -7.241079018      0.000      0.000
REMARK  5 active torsions:
REMARK  status: ('A' for Active; 'I' for Inactive)
REMARK    1  A    between atoms: O1_2  and  C2_3 
REMARK    2  A    between atoms: C2_3  and  C3_5 
REMARK    3  A    between atoms: C7_11  and  O3_12 
REMARK    4  A    between atoms: O3_12  and  C8_13 
REMARK       I    between atoms: C8_13  and  N1_15 
REMARK    5  A    between atoms: N1_15  and  C9_17 
ROOT
HETATM    1  C3  UNL     1      19.888   9.478  38.535  1.00  0.00     0.116 A 
HETATM    2  S1  UNL     1      21.436   9.294  37.869  1.00  0.00    -0.069 SA
HETATM    3  C4  UNL     1      22.279   8.781  39.253  1.00  0.00     0.084 A 
HETATM    4 CL1  UNL     1      23.996   8.363  39.419  1.00  0.00    -0.076 Cl
HETATM    5  C5  UNL     1      21.310   8.764  40.223  1.00  0.00     0.002 A 
HETATM    6  C6  UNL     1      21.671   8.349  41.647  1.00  0.00     0.054 C 
HETATM    7  C7  UNL     1      20.061   9.128  39.851  1.00  0.00     0.112 A 
ENDROOT
BRANCH   7   8
HETATM    8  O3  UNL     1      18.986   9.139  40.803  1.00  0.00    -0.259 OA
BRANCH   8   9
HETATM    9  C8  UNL     1      18.769  10.256  41.584  1.00  0.00     0.366 C 
HETATM   10  O4  UNL     1      18.099  11.188  41.070  1.00  0.00    -0.238 OA
HETATM   11  N1  UNL     1      19.261  10.390  42.917  1.00  0.00    -0.325 N 
ATOM     12  H1  UNL     1      19.800   9.619  43.309  1.00  0.00     0.165 HD
BRANCH  11  13
HETATM   13  C9  UNL     1      19.041  11.540  43.731  1.00  0.00     0.156 C 
HETATM   14  C10 UNL     1      20.144  11.735  44.781  1.00  0.00     0.040 C 
HETATM   15  C11 UNL     1      19.018  12.182  45.692  1.00  0.00     0.083 C 
HETATM   16  C12 UNL     1      18.096  11.364  44.864  1.00  0.00     0.149 C 
HETATM   17  O5  UNL     1      17.038  10.795  45.020  1.00  0.00    -0.296 OA
ENDBRANCH  11  13
ENDBRANCH   8   9
ENDBRANCH   7   8
BRANCH   1  18
HETATM   18  C2  UNL     1      18.642   9.908  37.873  1.00  0.00     0.302 C 
HETATM   19  O2  UNL     1      17.752   9.058  37.642  1.00  0.00    -0.259 OA
BRANCH  18  20
HETATM   20  O1  UNL     1      18.451  11.209  37.512  1.00  0.00    -0.322 OA
HETATM   21  C1  UNL     1      17.662  12.093  38.272  1.00  0.00     0.213 C 
ENDBRANCH  18  20
ENDBRANCH   1  18
TORSDOF 5
ENDMDL
MODEL 2
REMARK VINA RESULT: -7.085066533      3.061      4.836
REMARK  5 active torsions:
REMARK  status: ('A' for Active; 'I' for Inactive)
REMARK    1  A    between atoms: O1_2  and  C2_3 
REMARK    2  A    between atoms: C2_3  and  C3_5 
REMARK    3  A    between atoms: C7_11  and  O3_12 
REMARK    4  A    between atoms: O3_12  and  C8_13 
REMARK       I    between atoms: C8_13  and  N1_15 
REMARK    5  A    between atoms: N1_15  and  C9_17 
ROOT
HETATM    1  C3  UNL     1      18.241  10.930  39.227  1.00  0.00     0.116 A 
HETATM    2  S1  UNL     1      17.984  12.497  39.823  1.00  0.00    -0.069 SA
HETATM    3  C4  UNL     1      18.177  12.200  41.486  1.00  0.00     0.084 A 
HETATM    4 CL1  UNL     1      18.065  13.341  42.841  1.00  0.00    -0.076 Cl
HETATM    5  C5  UNL     1      18.442  10.856  41.536  1.00  0.00     0.002 A 
HETATM    6  C6  UNL     1      18.681  10.180  42.885  1.00  0.00     0.054 C 
HETATM    7  C7  UNL     1      18.476  10.190  40.358  1.00  0.00     0.112 A 
ENDROOT
BRANCH   7   8
HETATM    8  O3  UNL     1      18.746   8.781  40.319  1.00  0.00    -0.259 OA
BRANCH   8   9
HETATM    9  C8  UNL     1      20.050   8.330  40.297  1.00  0.00     0.366 C 
HETATM   10  O4  UNL     1      20.358   7.522  39.384  1.00  0.00    -0.238 OA
HETATM   11  N1  UNL     1      21.038   8.735  41.244  1.00  0.00    -0.325 N 
ATOM     12  H1  UNL     1      20.762   9.392  41.974  1.00  0.00     0.165 HD
BRANCH  11  13
HETATM   13  C9  UNL     1      22.387   8.275  41.229  1.00  0.00     0.156 C 
HETATM   14  C10 UNL     1      23.275   9.030  42.229  1.00  0.00     0.040 C 
HETATM   15  C11 UNL     1      24.343   8.929  41.158  1.00  0.00     0.083 C 
HETATM   16  C12 UNL     1      23.251   8.829  40.156  1.00  0.00     0.149 C 
HETATM   17  O5  UNL     1      23.106   9.082  38.980  1.00  0.00    -0.296 OA
ENDBRANCH  11  13
ENDBRANCH   8   9
ENDBRANCH   7   8
BRANCH   1  18
HETATM   18  C2  UNL     1      18.220  10.460  37.829  1.00  0.00     0.302 C 
HETATM   19  O2  UNL     1      17.203  10.675  37.131  1.00  0.00    -0.259 OA
BRANCH  18  20
HETATM   20  O1  UNL     1      19.285   9.797  37.295  1.00  0.00    -0.322 OA
HETATM   21  C1  UNL     1      20.593  10.315  37.340  1.00  0.00     0.213 C 
ENDBRANCH  18  20
ENDBRANCH   1  18
TORSDOF 5
ENDMDL
MODEL 3
REMARK VINA RESULT: -7.078870131      2.923      5.581
REMARK  5 active torsions:
REMARK  status: ('A' for Active; 'I' for Inactive)
REMARK    1  A    between atoms: O1_2  and  C2_3 
REMARK    2  A    between atoms: C2_3  and  C3_5 
REMARK    3  A    between atoms: C7_11  and  O3_12 
REMARK    4  A    between atoms: O3_12  and  C8_13 
REMARK       I    between atoms: C8_13  and  N1_15 
REMARK    5  A    between atoms: N1_15  and  C9_17 
ROOT
HETATM    1  C3  UNL     1      18.454  11.338  42.065  1.00  0.00     0.116 A 
HETATM    2  S1  UNL     1      18.097  12.853  41.392  1.00  0.00    -0.069 SA
HETATM    3  C4  UNL     1      17.964  12.409  39.757  1.00  0.00     0.084 A 
HETATM    4 CL1  UNL     1      17.600  13.432  38.352  1.00  0.00    -0.076 Cl
HETATM    5  C5  UNL     1      18.207  11.060  39.776  1.00  0.00     0.002 A 
HETATM    6  C6  UNL     1      18.180  10.267  38.471  1.00  0.00     0.054 C 
HETATM    7  C7  UNL     1      18.463  10.498  40.980  1.00  0.00     0.112 A 
ENDROOT
BRANCH   7   8
HETATM    8  O3  UNL     1      18.728   9.092  41.092  1.00  0.00    -0.259 OA
BRANCH   8   9
HETATM    9  C8  UNL     1      20.007   8.613  40.894  1.00  0.00     0.366 C 
HETATM   10  O4  UNL     1      20.188   7.867  39.898  1.00  0.00    -0.238 OA
HETATM   11  N1  UNL     1      21.104   8.925  41.752  1.00  0.00    -0.325 N 
ATOM     12  H1  UNL     1      20.930   9.533  42.553  1.00  0.00     0.165 HD
BRANCH  11  13
HETATM   13  C9  UNL     1      22.429   8.436  41.556  1.00  0.00     0.156 C 
HETATM   14  C10 UNL     1      23.463   9.183  42.410  1.00  0.00     0.040 C 
HETATM   15  C11 UNL     1      24.368   9.047  41.202  1.00  0.00     0.083 C 
HETATM   16  C12 UNL     1      23.145   8.959  40.364  1.00  0.00     0.149 C 
HETATM   17  O5  UNL     1      22.841   9.200  39.216  1.00  0.00    -0.296 OA
ENDBRANCH  11  13
ENDBRANCH   8   9
ENDBRANCH   7   8
BRANCH   1  18
HETATM   18  C2  UNL     1      18.698  10.989  43.477  1.00  0.00     0.302 C 
HETATM   19  O2  UNL     1      17.719  10.780  44.229  1.00  0.00    -0.259 OA
BRANCH  18  20
HETATM   20  O1  UNL     1      19.967  10.893  43.969  1.00  0.00    -0.322 OA
HETATM   21  C1  UNL     1      20.900  11.941  43.851  1.00  0.00     0.213 C 
ENDBRANCH  18  20
ENDBRANCH   1  18
TORSDOF 5
ENDMDL
MODEL 4
REMARK VINA RESULT: -7.025714896      3.400      5.027
REMARK  5 active torsions:
REMARK  status: ('A' for Active; 'I' for Inactive)
REMARK    1  A    between atoms: O1_2  and  C2_3 
REMARK    2  A    between atoms: C2_3  and  C3_5 
REMARK    3  A    between atoms: C7_11  and  O3_12 
REMARK    4  A    between atoms: O3_12  and  C8_13 
REMARK       I    between atoms: C8_13  and  N1_15 
REMARK    5  A    between atoms: N1_15  and  C9_17 
ROOT
HETATM    1  C3  UNL     1      19.360  10.130  41.350  1.00  0.00     0.116 A 
HETATM    2  S1  UNL     1      18.411  10.713  40.071  1.00  0.00    -0.069 SA
HETATM    3  C4  UNL     1      18.946   9.681  38.831  1.00  0.00     0.084 A 
HETATM    4 CL1  UNL     1      18.439   9.628  37.131  1.00  0.00    -0.076 Cl
HETATM    5  C5  UNL     1      19.873   8.889  39.459  1.00  0.00     0.002 A 
HETATM    6  C6  UNL     1      20.604   7.806  38.669  1.00  0.00     0.054 C 
HETATM    7  C7  UNL     1      20.091   9.122  40.774  1.00  0.00     0.112 A 
ENDROOT
BRANCH   7   8
HETATM    8  O3  UNL     1      21.044   8.339  41.510  1.00  0.00    -0.259 OA
BRANCH   8   9
HETATM    9  C8  UNL     1      22.331   8.806  41.683  1.00  0.00     0.366 C 
HETATM   10  O4  UNL     1      23.119   8.674  40.712  1.00  0.00    -0.238 OA
HETATM   11  N1  UNL     1      22.790   9.415  42.888  1.00  0.00    -0.325 N 
ATOM     12  H1  UNL     1      22.131   9.510  43.660  1.00  0.00     0.165 HD
BRANCH  11  13
HETATM   13  C9  UNL     1      24.118   9.900  43.076  1.00  0.00     0.156 C 
HETATM   14  C10 UNL     1      25.136   8.766  43.260  1.00  0.00     0.040 C 
HETATM   15  C11 UNL     1      25.789   9.690  44.270  1.00  0.00     0.083 C 
HETATM   16  C12 UNL     1      24.463  10.334  44.454  1.00  0.00     0.149 C 
HETATM   17  O5  UNL     1      23.894  10.947  45.331  1.00  0.00    -0.296 OA
ENDBRANCH  11  13
ENDBRANCH   8   9
ENDBRANCH   7   8
BRANCH   1  18
HETATM   18  C2  UNL     1      19.401  10.587  42.752  1.00  0.00     0.302 C 
HETATM   19  O2  UNL     1      18.379  10.454  43.464  1.00  0.00    -0.259 OA
BRANCH  18  20
HETATM   20  O1  UNL     1      20.529  11.147  43.276  1.00  0.00    -0.322 OA
HETATM   21  C1  UNL     1      20.492  12.015  44.384  1.00  0.00     0.213 C 
ENDBRANCH  18  20
ENDBRANCH   1  18
TORSDOF 5
ENDMDL
MODEL 5
REMARK VINA RESULT: -6.715897359      3.189      4.823
REMARK  5 active torsions:
REMARK  status: ('A' for Active; 'I' for Inactive)
REMARK    1  A    between atoms: O1_2  and  C2_3 
REMARK    2  A    between atoms: C2_3  and  C3_5 
REMARK    3  A    between atoms: C7_11  and  O3_12 
REMARK    4  A    between atoms: O3_12  and  C8_13 
REMARK       I    between atoms: C8_13  and  N1_15 
REMARK    5  A    between atoms: N1_15  and  C9_17 
ROOT
HETATM    1  C3  UNL     1      18.718   9.482  39.150  1.00  0.00     0.116 A 
HETATM    2  S1  UNL     1      18.167  10.676  38.078  1.00  0.00    -0.069 SA
HETATM    3  C4  UNL     1      17.867  11.930  39.186  1.00  0.00     0.084 A 
HETATM    4 CL1  UNL     1      17.256  13.568  38.874  1.00  0.00    -0.076 Cl
HETATM    5  C5  UNL     1      18.212  11.375  40.391  1.00  0.00     0.002 A 
HETATM    6  C6  UNL     1      18.082  12.200  41.670  1.00  0.00     0.054 C 
HETATM    7  C7  UNL     1      18.656  10.097  40.375  1.00  0.00     0.112 A 
ENDROOT
BRANCH   7   8
HETATM    8  O3  UNL     1      19.039   9.438  41.591  1.00  0.00    -0.259 OA
BRANCH   8   9
HETATM    9  C8  UNL     1      20.359   9.445  41.993  1.00  0.00     0.366 C 
HETATM   10  O4  UNL     1      20.700  10.339  42.809  1.00  0.00    -0.238 OA
HETATM   11  N1  UNL     1      21.326   8.503  41.531  1.00  0.00    -0.325 N 
ATOM     12  H1  UNL     1      21.023   7.788  40.870  1.00  0.00     0.165 HD
BRANCH  11  13
HETATM   13  C9  UNL     1      22.692   8.502  41.942  1.00  0.00     0.156 C 
HETATM   14  C10 UNL     1      23.089   9.799  42.659  1.00  0.00     0.040 C 
HETATM   15  C11 UNL     1      24.409   9.646  41.930  1.00  0.00     0.083 C 
HETATM   16  C12 UNL     1      23.684   8.863  40.897  1.00  0.00     0.149 C 
HETATM   17  O5  UNL     1      23.822   8.613  39.720  1.00  0.00    -0.296 OA
ENDBRANCH  11  13
ENDBRANCH   8   9
ENDBRANCH   7   8
BRANCH   1  18
HETATM   18  C2  UNL     1      19.162   8.108  38.851  1.00  0.00     0.302 C 
HETATM   19  O2  UNL     1      18.303   7.202  38.746  1.00  0.00    -0.259 OA
BRANCH  18  20
HETATM   20  O1  UNL     1      20.484   7.815  38.692  1.00  0.00    -0.322 OA
HETATM   21  C1  UNL     1      21.319   8.551  37.831  1.00  0.00     0.213 C 
ENDBRANCH  18  20
ENDBRANCH   1  18
TORSDOF 5
ENDMDL
