MODEL 1
REMARK VINA RESULT: -7.653125732      0.000      0.000
REMARK  6 active torsions:
REMARK  status: ('A' for Active; 'I' for Inactive)
REMARK    1  A    between atoms: C2_2  and  O1_4 
REMARK    2  A    between atoms: O1_4  and  C4_5 
REMARK    3  A    between atoms: C5_6  and  O2_7 
REMARK    4  A    between atoms: C8_12  and  O4_13 
REMARK    5  A    between atoms: O4_13  and  C9_14 
REMARK    6  A    between atoms: C9_14  and  C10_16 
ROOT
HETATM    1  C4  UNL     1      19.544  10.303  38.178  1.00  0.00     0.208 C 
HETATM    2  C5  UNL     1      18.430   9.987  37.217  1.00  0.00     0.288 C 
HETATM    3  O3  UNL     1      17.592  11.070  37.316  1.00  0.00    -0.351 OA
HETATM    4  C6  UNL     1      17.587  11.524  38.609  1.00  0.00     0.153 C 
HETATM    5  C7  UNL     1      17.618  13.052  38.563  1.00  0.00     0.042 C 
HETATM    6  C8  UNL     1      18.802  10.981  39.309  1.00  0.00     0.194 C 
ENDROOT
BRANCH   6   7
HETATM    7  O4  UNL     1      18.487  10.100  40.355  1.00  0.00    -0.306 OA
BRANCH   7   8
HETATM    8  C9  UNL     1      19.029  10.255  41.625  1.00  0.00     0.300 C 
HETATM    9  O5  UNL     1      19.961   9.512  42.017  1.00  0.00    -0.259 OA
BRANCH   8  10
HETATM   10  C10 UNL     1      18.533  11.284  42.546  1.00  0.00     0.081 A 
HETATM   11  C11 UNL     1      18.295  11.137  43.884  1.00  0.00     0.027 A 
HETATM   12  C12 UNL     1      17.839  12.213  44.551  1.00  0.00     0.033 A 
HETATM   13  C13 UNL     1      17.652  13.364  43.828  1.00  0.00     0.075 A 
HETATM   14 CL1  UNL     1      17.066  14.924  44.432  1.00  0.00    -0.076 Cl
HETATM   15  S1  UNL     1      18.117  12.906  42.257  1.00  0.00    -0.072 SA
ENDBRANCH   8  10
ENDBRANCH   7   8
ENDBRANCH   6   7
BRANCH   1  16
HETATM   16  O1  UNL     1      20.225   9.224  38.642  1.00  0.00    -0.374 OA
BRANCH  16  17
HETATM   17  C2  UNL     1      21.599   9.306  38.553  1.00  0.00     0.114 C 
HETATM   18  C1  UNL     1      22.009   8.707  37.221  1.00  0.00     0.039 C 
HETATM   19  C3  UNL     1      22.321   8.532  39.624  1.00  0.00     0.039 C 
ENDBRANCH  16  17
ENDBRANCH   1  16
BRANCH   2  20
HETATM   20  O2  UNL     1      17.723   8.849  37.579  1.00  0.00    -0.369 OA
ATOM     21  H2  UNL     1      17.815   8.147  36.946  1.00  0.00     0.212 HD
ENDBRANCH   2  20
TORSDOF 6
ENDMDL
MODEL 2
REMARK VINA RESULT: -6.781728336      4.038      7.420
REMARK  6 active torsions:
REMARK  status: ('A' for Active; 'I' for Inactive)
REMARK    1  A    between atoms: C2_2  and  O1_4 
REMARK    2  A    between atoms: O1_4  and  C4_5 
REMARK    3  A    between atoms: C5_6  and  O2_7 
REMARK    4  A    between atoms: C8_12  and  O4_13 
REMARK    5  A    between atoms: O4_13  and  C9_14 
REMARK    6  A    between atoms: C9_14  and  C10_16 
ROOT
HETATM    1  C4  UNL     1      17.381  12.261  46.545  1.00  0.00     0.208 C 
HETATM    2  C5  UNL     1      18.357  13.372  46.827  1.00  0.00     0.288 C 
HETATM    3  O3  UNL     1      18.010  14.351  45.929  1.00  0.00    -0.351 OA
HETATM    4  C6  UNL     1      17.595  13.769  44.760  1.00  0.00     0.153 C 
HETATM    5  C7  UNL     1      16.371  14.542  44.267  1.00  0.00     0.042 C 
HETATM    6  C8  UNL     1      17.248  12.332  45.040  1.00  0.00     0.194 C 
ENDROOT
BRANCH   6   7
HETATM    7  O4  UNL     1      18.088  11.425  44.378  1.00  0.00    -0.306 OA
BRANCH   7   8
HETATM    8  C9  UNL     1      18.945  11.833  43.363  1.00  0.00     0.300 C 
HETATM    9  O5  UNL     1      20.087  12.280  43.631  1.00  0.00    -0.259 OA
BRANCH   8  10
HETATM   10  C10 UNL     1      18.548  11.756  41.952  1.00  0.00     0.081 A 
HETATM   11  C11 UNL     1      17.891  12.716  41.235  1.00  0.00     0.027 A 
HETATM   12  C12 UNL     1      17.620  12.444  39.945  1.00  0.00     0.033 A 
HETATM   13  C13 UNL     1      18.028  11.227  39.463  1.00  0.00     0.075 A 
HETATM   14 CL1  UNL     1      17.811  10.598  37.820  1.00  0.00    -0.076 Cl
HETATM   15  S1  UNL     1      18.769  10.510  40.817  1.00  0.00    -0.072 SA
ENDBRANCH   8  10
ENDBRANCH   7   8
ENDBRANCH   6   7
BRANCH   1  16
HETATM   16  O1  UNL     1      17.796  11.024  46.923  1.00  0.00    -0.374 OA
BRANCH  16  17
HETATM   17  C2  UNL     1      17.594  10.711  48.250  1.00  0.00     0.114 C 
HETATM   18  C1  UNL     1      18.268   9.377  48.514  1.00  0.00     0.039 C 
HETATM   19  C3  UNL     1      16.143  10.551  48.620  1.00  0.00     0.039 C 
ENDBRANCH  16  17
ENDBRANCH   1  16
BRANCH   2  20
HETATM   20  O2  UNL     1      19.671  12.999  46.585  1.00  0.00    -0.369 OA
ATOM     21  H2  UNL     1      20.211  13.044  47.364  1.00  0.00     0.212 HD
ENDBRANCH   2  20
TORSDOF 6
ENDMDL
MODEL 3
REMARK VINA RESULT: -6.760637213      3.634      7.399
REMARK  6 active torsions:
REMARK  status: ('A' for Active; 'I' for Inactive)
REMARK    1  A    between atoms: C2_2  and  O1_4 
REMARK    2  A    between atoms: O1_4  and  C4_5 
REMARK    3  A    between atoms: C5_6  and  O2_7 
REMARK    4  A    between atoms: C8_12  and  O4_13 
REMARK    5  A    between atoms: O4_13  and  C9_14 
REMARK    6  A    between atoms: C9_14  and  C10_16 
ROOT
HETATM    1  C4  UNL     1      18.495  13.041  45.367  1.00  0.00     0.208 C 
HETATM    2  C5  UNL     1      18.759  11.971  46.392  1.00  0.00     0.288 C 
HETATM    3  O3  UNL     1      19.992  11.477  46.044  1.00  0.00    -0.351 OA
HETATM    4  C6  UNL     1      20.118  11.492  44.680  1.00  0.00     0.153 C 
HETATM    5  C7  UNL     1      21.533  11.969  44.351  1.00  0.00     0.042 C 
HETATM    6  C8  UNL     1      19.088  12.432  44.116  1.00  0.00     0.194 C 
ENDROOT
BRANCH   6   7
HETATM    7  O4  UNL     1      18.130  11.785  43.321  1.00  0.00    -0.306 OA
BRANCH   7   8
HETATM    8  C9  UNL     1      18.051  12.004  41.951  1.00  0.00     0.300 C 
HETATM    9  O5  UNL     1      17.614  13.092  41.502  1.00  0.00    -0.259 OA
BRANCH   8  10
HETATM   10  C10 UNL     1      18.473  10.980  40.989  1.00  0.00     0.081 A 
HETATM   11  C11 UNL     1      18.240  10.977  39.643  1.00  0.00     0.027 A 
HETATM   12  C12 UNL     1      18.717   9.936  38.936  1.00  0.00     0.033 A 
HETATM   13  C13 UNL     1      19.396   8.968  39.631  1.00  0.00     0.075 A 
HETATM   14 CL1  UNL     1      20.129   7.494  38.973  1.00  0.00    -0.076 Cl
HETATM   15  S1  UNL     1      19.345   9.541  41.232  1.00  0.00    -0.072 SA
ENDBRANCH   8  10
ENDBRANCH   7   8
ENDBRANCH   6   7
BRANCH   1  16
HETATM   16  O1  UNL     1      17.184  13.336  45.172  1.00  0.00    -0.374 OA
BRANCH  16  17
HETATM   17  C2  UNL     1      16.890  14.677  45.046  1.00  0.00     0.114 C 
HETATM   18  C1  UNL     1      16.501  15.192  46.419  1.00  0.00     0.039 C 
HETATM   19  C3  UNL     1      15.732  14.959  44.126  1.00  0.00     0.039 C 
ENDBRANCH  16  17
ENDBRANCH   1  16
BRANCH   2  20
HETATM   20  O2  UNL     1      17.838  10.935  46.329  1.00  0.00    -0.369 OA
ATOM     21  H2  UNL     1      18.092  10.190  46.860  1.00  0.00     0.212 HD
ENDBRANCH   2  20
TORSDOF 6
ENDMDL
MODEL 4
REMARK VINA RESULT: -6.744575243      4.161      7.809
REMARK  6 active torsions:
REMARK  status: ('A' for Active; 'I' for Inactive)
REMARK    1  A    between atoms: C2_2  and  O1_4 
REMARK    2  A    between atoms: O1_4  and  C4_5 
REMARK    3  A    between atoms: C5_6  and  O2_7 
REMARK    4  A    between atoms: C8_12  and  O4_13 
REMARK    5  A    between atoms: O4_13  and  C9_14 
REMARK    6  A    between atoms: C9_14  and  C10_16 
ROOT
HETATM    1  C4  UNL     1      17.822  12.395  46.676  1.00  0.00     0.208 C 
HETATM    2  C5  UNL     1      17.182  11.341  47.539  1.00  0.00     0.288 C 
HETATM    3  O3  UNL     1      18.242  10.599  47.996  1.00  0.00    -0.351 OA
HETATM    4  C6  UNL     1      19.201  10.528  47.019  1.00  0.00     0.153 C 
HETATM    5  C7  UNL     1      20.563  10.701  47.693  1.00  0.00     0.042 C 
HETATM    6  C8  UNL     1      18.949  11.626  46.023  1.00  0.00     0.194 C 
ENDROOT
BRANCH   6   7
HETATM    7  O4  UNL     1      18.610  11.146  44.749  1.00  0.00    -0.306 OA
BRANCH   7   8
HETATM    8  C9  UNL     1      19.379  11.443  43.630  1.00  0.00     0.300 C 
HETATM    9  O5  UNL     1      20.316  12.274  43.702  1.00  0.00    -0.259 OA
BRANCH   8  10
HETATM   10  C10 UNL     1      19.123  10.800  42.336  1.00  0.00     0.081 A 
HETATM   11  C11 UNL     1      18.497  11.358  41.256  1.00  0.00     0.027 A 
HETATM   12  C12 UNL     1      18.364  10.591  40.158  1.00  0.00     0.033 A 
HETATM   13  C13 UNL     1      18.869   9.318  40.219  1.00  0.00     0.075 A 
HETATM   14 CL1  UNL     1      18.838   8.091  38.939  1.00  0.00    -0.076 Cl
HETATM   15  S1  UNL     1      19.506   9.235  41.795  1.00  0.00    -0.072 SA
ENDBRANCH   8  10
ENDBRANCH   7   8
ENDBRANCH   6   7
BRANCH   1  16
HETATM   16  O1  UNL     1      17.010  12.934  45.731  1.00  0.00    -0.374 OA
BRANCH  16  17
HETATM   17  C2  UNL     1      17.211  14.273  45.469  1.00  0.00     0.114 C 
HETATM   18  C1  UNL     1      16.510  15.064  46.558  1.00  0.00     0.039 C 
HETATM   19  C3  UNL     1      16.632  14.726  44.155  1.00  0.00     0.039 C 
ENDBRANCH  16  17
ENDBRANCH   1  16
BRANCH   2  20
HETATM   20  O2  UNL     1      16.339  10.506  46.819  1.00  0.00    -0.369 OA
ATOM     21  H2  UNL     1      16.519   9.586  46.974  1.00  0.00     0.212 HD
ENDBRANCH   2  20
TORSDOF 6
ENDMDL
MODEL 5
REMARK VINA RESULT: -6.650624403      1.955      2.421
REMARK  6 active torsions:
REMARK  status: ('A' for Active; 'I' for Inactive)
REMARK    1  A    between atoms: C2_2  and  O1_4 
REMARK    2  A    between atoms: O1_4  and  C4_5 
REMARK    3  A    between atoms: C5_6  and  O2_7 
REMARK    4  A    between atoms: C8_12  and  O4_13 
REMARK    5  A    between atoms: O4_13  and  C9_14 
REMARK    6  A    between atoms: C9_14  and  C10_16 
ROOT
HETATM    1  C4  UNL     1      20.050   8.978  39.275  1.00  0.00     0.208 C 
HETATM    2  C5  UNL     1      19.051   8.124  38.542  1.00  0.00     0.288 C 
HETATM    3  O3  UNL     1      18.315   9.026  37.815  1.00  0.00    -0.351 OA
HETATM    4  C6  UNL     1      18.179  10.185  38.533  1.00  0.00     0.153 C 
HETATM    5  C7  UNL     1      18.363  11.354  37.565  1.00  0.00     0.042 C 
HETATM    6  C8  UNL     1      19.230  10.205  39.609  1.00  0.00     0.194 C 
ENDROOT
BRANCH   6   7
HETATM    7  O4  UNL     1      18.692  10.162  40.904  1.00  0.00    -0.306 OA
BRANCH   7   8
HETATM    8  C9  UNL     1      18.409  11.323  41.614  1.00  0.00     0.300 C 
HETATM    9  O5  UNL     1      17.821  12.283  41.059  1.00  0.00    -0.259 OA
BRANCH   8  10
HETATM   10  C10 UNL     1      18.784  11.465  43.025  1.00  0.00     0.081 A 
HETATM   11  C11 UNL     1      17.991  11.219  44.110  1.00  0.00     0.027 A 
HETATM   12  C12 UNL     1      18.533  11.413  45.327  1.00  0.00     0.033 A 
HETATM   13  C13 UNL     1      19.836  11.841  45.370  1.00  0.00     0.075 A 
HETATM   14 CL1  UNL     1      20.805  12.178  46.816  1.00  0.00    -0.076 Cl
HETATM   15  S1  UNL     1      20.254  11.956  43.725  1.00  0.00    -0.072 SA
ENDBRANCH   8  10
ENDBRANCH   7   8
ENDBRANCH   6   7
BRANCH   1  16
HETATM   16  O1  UNL     1      20.554   8.427  40.409  1.00  0.00    -0.374 OA
BRANCH  16  17
HETATM   17  C2  UNL     1      21.908   8.166  40.390  1.00  0.00     0.114 C 
HETATM   18  C1  UNL     1      22.501   8.731  41.668  1.00  0.00     0.039 C 
HETATM   19  C3  UNL     1      22.633   8.819  39.243  1.00  0.00     0.039 C 
ENDBRANCH  16  17
ENDBRANCH   1  16
BRANCH   2  20
HETATM   20  O2  UNL     1      18.195   7.451  39.403  1.00  0.00    -0.369 OA
ATOM     21  H2  UNL     1      17.592   6.880  38.942  1.00  0.00     0.212 HD
ENDBRANCH   2  20
TORSDOF 6
ENDMDL
