MODEL 1
REMARK VINA RESULT: -8.202426903      0.000      0.000
REMARK  7 active torsions:
REMARK  status: ('A' for Active; 'I' for Inactive)
REMARK    1  A    between atoms: C3_3  and  N1_4 
REMARK       I    between atoms: N1_4  and  C4_6 
REMARK    2  A    between atoms: C4_6  and  C5_8 
REMARK    3  A    between atoms: C6_11  and  C7_12 
REMARK    4  A    between atoms: C7_12  and  C8_13 
REMARK    5  A    between atoms: C12_20  and  C13_21 
REMARK    6  A    between atoms: C13_21  and  C14_22 
REMARK    7  A    between atoms: C17_25  and  O3_26 
ROOT
HETATM    1  C5  UNL     1      44.950  17.794  18.674  1.00  0.00     0.213 C 
HETATM    2  N2  UNL     1      43.963  16.996  19.259  1.00  0.00    -0.393 N 
ATOM      3  H2  UNL     1      43.068  17.416  19.509  1.00  0.00     0.155 HD
HETATM    4  C6  UNL     1      44.175  15.613  19.515  1.00  0.00     0.170 C 
HETATM    5  C11 UNL     1      45.321  15.044  18.785  1.00  0.00     0.240 C 
HETATM    6  O2  UNL     1      46.486  15.365  19.257  1.00  0.00    -0.271 OA
HETATM    7  N3  UNL     1      45.325  14.213  17.662  1.00  0.00    -0.347 N 
ATOM      8  H3  UNL     1      45.951  13.410  17.739  1.00  0.00     0.163 HD
HETATM    9  C12 UNL     1      44.613  14.282  16.426  1.00  0.00     0.159 C 
HETATM   10  C17 UNL     1      43.365  15.037  16.393  1.00  0.00     0.137 C 
HETATM   11  N4  UNL     1      43.075  16.370  16.072  1.00  0.00    -0.354 N 
HETATM   12  C18 UNL     1      41.959  16.612  15.084  1.00  0.00     0.125 C 
HETATM   13  C19 UNL     1      42.555  16.934  13.732  1.00  0.00     0.020 C 
HETATM   14  C20 UNL     1      43.864  17.673  14.004  1.00  0.00     0.004 C 
HETATM   15  C21 UNL     1      43.595  18.515  15.246  1.00  0.00     0.031 C 
HETATM   16  C22 UNL     1      43.615  17.613  16.511  1.00  0.00     0.129 C 
HETATM   17  C23 UNL     1      44.882  17.688  17.184  1.00  0.00     0.041 C 
HETATM   18  S1  UNL     1      46.108  17.704  16.461  1.00  0.00    -0.085 SA
ENDROOT
BRANCH   1  19
HETATM   19  C4  UNL     1      44.685  19.278  18.988  1.00  0.00     0.249 C 
HETATM   20  N1  UNL     1      45.659  20.230  18.676  1.00  0.00    -0.329 N 
ATOM     21  H1  UNL     1      46.518  19.893  18.243  1.00  0.00     0.168 HD
HETATM   22  O1  UNL     1      43.584  19.512  19.513  1.00  0.00    -0.270 OA
BRANCH  20  23
HETATM   23  C3  UNL     1      45.555  21.616  18.910  1.00  0.00     0.015 C 
HETATM   24  C2  UNL     1      45.338  22.378  17.826  1.00  0.00    -0.057 C 
HETATM   25  C1  UNL     1      45.241  21.633  16.520  1.00  0.00     0.046 C 
HETATM   26  C31 UNL     1      45.157  23.829  17.665  1.00  0.00     0.020 C 
HETATM   27  C29 UNL     1      46.155  24.701  18.333  1.00  0.00    -0.005 C 
HETATM   28  C32 UNL     1      43.768  24.262  18.088  1.00  0.00     0.014 C 
HETATM   29  C28 UNL     1      45.283  25.863  18.838  1.00  0.00     0.010 C 
HETATM   30  C30 UNL     1      46.754  24.117  19.590  1.00  0.00     0.010 C 
HETATM   31  C27 UNL     1      44.085  25.079  19.344  1.00  0.00    -0.013 C 
HETATM   32  C26 UNL     1      44.389  24.187  20.501  1.00  0.00     0.009 C 
HETATM   33  C25 UNL     1      45.712  23.547  20.505  1.00  0.00    -0.008 C 
HETATM   34  C24 UNL     1      45.710  22.038  20.314  1.00  0.00     0.062 C 
ENDBRANCH  20  23
ENDBRANCH   1  19
BRANCH   4  35
HETATM   35  C7  UNL     1      44.219  15.459  21.013  1.00  0.00     0.038 C 
BRANCH  35  36
HETATM   36  C8  UNL     1      43.800  14.190  21.610  1.00  0.00    -0.020 C 
HETATM   37  C9  UNL     1      45.112  13.461  22.034  1.00  0.00     0.009 C 
HETATM   38  C10 UNL     1      43.083  13.184  20.779  1.00  0.00     0.009 C 
ENDBRANCH  35  36
ENDBRANCH   4  35
BRANCH  10  39
HETATM   39  O3  UNL     1      42.304  14.354  16.717  1.00  0.00    -0.348 OA
ATOM     40  H3  UNL     1      41.492  14.847  16.702  1.00  0.00     0.219 HD
ENDBRANCH  10  39
BRANCH   9  41
HETATM   41  C13 UNL     1      44.456  12.909  15.773  1.00  0.00     0.037 C 
BRANCH  41  42
HETATM   42  C14 UNL     1      44.687  12.774  14.338  1.00  0.00    -0.020 C 
HETATM   43  C15 UNL     1      43.260  12.690  13.699  1.00  0.00     0.009 C 
HETATM   44  C16 UNL     1      45.294  13.984  13.666  1.00  0.00     0.009 C 
ENDBRANCH  41  42
ENDBRANCH   9  41
TORSDOF 7
ENDMDL
MODEL 2
REMARK VINA RESULT: -8.094575394      2.963      8.193
REMARK  7 active torsions:
REMARK  status: ('A' for Active; 'I' for Inactive)
REMARK    1  A    between atoms: C3_3  and  N1_4 
REMARK       I    between atoms: N1_4  and  C4_6 
REMARK    2  A    between atoms: C4_6  and  C5_8 
REMARK    3  A    between atoms: C6_11  and  C7_12 
REMARK    4  A    between atoms: C7_12  and  C8_13 
REMARK    5  A    between atoms: C12_20  and  C13_21 
REMARK    6  A    between atoms: C13_21  and  C14_22 
REMARK    7  A    between atoms: C17_25  and  O3_26 
ROOT
HETATM    1  C5  UNL     1      44.216  18.574  15.070  1.00  0.00     0.213 C 
HETATM    2  N2  UNL     1      43.049  18.811  14.338  1.00  0.00    -0.393 N 
ATOM      3  H2  UNL     1      42.145  18.632  14.774  1.00  0.00     0.155 HD
HETATM    4  C6  UNL     1      43.092  19.294  13.002  1.00  0.00     0.170 C 
HETATM    5  C11 UNL     1      44.393  19.866  12.619  1.00  0.00     0.240 C 
HETATM    6  O2  UNL     1      45.329  18.997  12.390  1.00  0.00    -0.271 OA
HETATM    7  N3  UNL     1      44.757  21.207  12.469  1.00  0.00    -0.347 N 
ATOM      8  H3  UNL     1      45.276  21.406  11.614  1.00  0.00     0.163 HD
HETATM    9  C12 UNL     1      44.534  22.349  13.297  1.00  0.00     0.159 C 
HETATM   10  C17 UNL     1      43.416  22.313  14.234  1.00  0.00     0.137 C 
HETATM   11  N4  UNL     1      43.322  21.929  15.578  1.00  0.00    -0.354 N 
HETATM   12  C18 UNL     1      42.643  22.892  16.522  1.00  0.00     0.125 C 
HETATM   13  C19 UNL     1      43.694  23.631  17.319  1.00  0.00     0.020 C 
HETATM   14  C20 UNL     1      44.854  22.656  17.507  1.00  0.00     0.004 C 
HETATM   15  C21 UNL     1      44.202  21.287  17.668  1.00  0.00     0.031 C 
HETATM   16  C22 UNL     1      43.729  20.761  16.284  1.00  0.00     0.129 C 
HETATM   17  C23 UNL     1      44.676  19.836  15.728  1.00  0.00     0.041 C 
HETATM   18  S1  UNL     1      46.079  20.065  15.815  1.00  0.00    -0.085 SA
ENDROOT
BRANCH   1  19
HETATM   19  C4  UNL     1      43.927  17.597  16.225  1.00  0.00     0.249 C 
HETATM   20  N1  UNL     1      44.994  17.020  16.919  1.00  0.00    -0.329 N 
ATOM     21  H1  UNL     1      45.936  17.280  16.626  1.00  0.00     0.168 HD
HETATM   22  O1  UNL     1      42.722  17.397  16.450  1.00  0.00    -0.270 OA
BRANCH  20  23
HETATM   23  C3  UNL     1      44.878  16.110  17.989  1.00  0.00     0.015 C 
HETATM   24  C2  UNL     1      45.063  16.623  19.216  1.00  0.00    -0.057 C 
HETATM   25  C1  UNL     1      45.369  18.097  19.262  1.00  0.00     0.046 C 
HETATM   26  C31 UNL     1      45.008  16.014  20.555  1.00  0.00     0.020 C 
HETATM   27  C29 UNL     1      45.769  14.754  20.742  1.00  0.00    -0.005 C 
HETATM   28  C32 UNL     1      43.577  15.794  21.002  1.00  0.00     0.014 C 
HETATM   29  C28 UNL     1      44.830  13.941  21.652  1.00  0.00     0.010 C 
HETATM   30  C30 UNL     1      45.895  13.908  19.496  1.00  0.00     0.010 C 
HETATM   31  C27 UNL     1      43.500  14.264  20.994  1.00  0.00    -0.013 C 
HETATM   32  C26 UNL     1      43.368  13.740  19.603  1.00  0.00     0.009 C 
HETATM   33  C25 UNL     1      44.588  13.747  18.782  1.00  0.00    -0.008 C 
HETATM   34  C24 UNL     1      44.582  14.716  17.610  1.00  0.00     0.062 C 
ENDBRANCH  20  23
ENDBRANCH   1  19
BRANCH   4  35
HETATM   35  C7  UNL     1      42.593  18.173  12.127  1.00  0.00     0.038 C 
BRANCH  35  36
HETATM   36  C8  UNL     1      42.382  16.850  12.717  1.00  0.00    -0.020 C 
HETATM   37  C9  UNL     1      43.498  15.935  12.129  1.00  0.00     0.009 C 
HETATM   38  C10 UNL     1      41.123  16.108  12.432  1.00  0.00     0.009 C 
ENDBRANCH  35  36
ENDBRANCH   4  35
BRANCH  10  39
HETATM   39  O3  UNL     1      42.278  22.715  13.743  1.00  0.00    -0.348 OA
ATOM     40  H3  UNL     1      41.510  22.369  14.182  1.00  0.00     0.219 HD
ENDBRANCH  10  39
BRANCH   9  41
HETATM   41  C13 UNL     1      44.554  23.653  12.499  1.00  0.00     0.037 C 
BRANCH  41  42
HETATM   42  C14 UNL     1      45.588  24.644  12.783  1.00  0.00    -0.020 C 
HETATM   43  C15 UNL     1      44.977  26.013  12.332  1.00  0.00     0.009 C 
HETATM   44  C16 UNL     1      45.885  24.865  14.247  1.00  0.00     0.009 C 
ENDBRANCH  41  42
ENDBRANCH   9  41
TORSDOF 7
ENDMDL
MODEL 3
REMARK VINA RESULT: -8.075958143      4.918      7.718
REMARK  7 active torsions:
REMARK  status: ('A' for Active; 'I' for Inactive)
REMARK    1  A    between atoms: C3_3  and  N1_4 
REMARK       I    between atoms: N1_4  and  C4_6 
REMARK    2  A    between atoms: C4_6  and  C5_8 
REMARK    3  A    between atoms: C6_11  and  C7_12 
REMARK    4  A    between atoms: C7_12  and  C8_13 
REMARK    5  A    between atoms: C12_20  and  C13_21 
REMARK    6  A    between atoms: C13_21  and  C14_22 
REMARK    7  A    between atoms: C17_25  and  O3_26 
ROOT
HETATM    1  C5  UNL     1      44.576  22.502  13.816  1.00  0.00     0.213 C 
HETATM    2  N2  UNL     1      45.348  21.563  13.128  1.00  0.00    -0.393 N 
ATOM      3  H2  UNL     1      46.357  21.700  13.064  1.00  0.00     0.155 HD
HETATM    4  C6  UNL     1      44.764  20.420  12.516  1.00  0.00     0.170 C 
HETATM    5  C11 UNL     1      43.399  20.129  12.986  1.00  0.00     0.240 C 
HETATM    6  O2  UNL     1      42.479  20.915  12.520  1.00  0.00    -0.271 OA
HETATM    7  N3  UNL     1      42.962  19.129  13.859  1.00  0.00    -0.347 N 
ATOM      8  H3  UNL     1      42.140  18.620  13.533  1.00  0.00     0.163 HD
HETATM    9  C12 UNL     1      43.457  18.690  15.124  1.00  0.00     0.159 C 
HETATM   10  C17 UNL     1      44.856  18.955  15.446  1.00  0.00     0.137 C 
HETATM   11  N4  UNL     1      45.488  20.012  16.114  1.00  0.00    -0.354 N 
HETATM   12  C18 UNL     1      46.454  19.648  17.216  1.00  0.00     0.125 C 
HETATM   13  C19 UNL     1      45.782  19.856  18.554  1.00  0.00     0.020 C 
HETATM   14  C20 UNL     1      44.824  21.033  18.375  1.00  0.00     0.004 C 
HETATM   15  C21 UNL     1      45.531  21.979  17.411  1.00  0.00     0.031 C 
HETATM   16  C22 UNL     1      45.433  21.427  15.961  1.00  0.00     0.129 C 
HETATM   17  C23 UNL     1      44.373  22.066  15.232  1.00  0.00     0.041 C 
HETATM   18  S1  UNL     1      43.114  22.340  15.837  1.00  0.00    -0.085 SA
ENDROOT
BRANCH   1  19
HETATM   19  C4  UNL     1      45.332  23.842  13.908  1.00  0.00     0.249 C 
HETATM   20  N1  UNL     1      44.880  24.936  13.166  1.00  0.00    -0.329 N 
ATOM     21  H1  UNL     1      44.052  24.797  12.587  1.00  0.00     0.168 HD
HETATM   22  O1  UNL     1      46.316  23.835  14.665  1.00  0.00    -0.270 OA
BRANCH  20  23
HETATM   23  C3  UNL     1      45.472  26.215  13.150  1.00  0.00     0.015 C 
HETATM   24  C2  UNL     1      44.959  27.087  12.267  1.00  0.00    -0.057 C 
HETATM   25  C1  UNL     1      43.826  26.562  11.423  1.00  0.00     0.046 C 
HETATM   26  C31 UNL     1      45.285  28.490  11.967  1.00  0.00     0.020 C 
HETATM   27  C29 UNL     1      46.720  28.808  11.761  1.00  0.00    -0.005 C 
HETATM   28  C32 UNL     1      44.723  29.424  13.020  1.00  0.00     0.014 C 
HETATM   29  C28 UNL     1      46.849  30.181  12.444  1.00  0.00     0.010 C 
HETATM   30  C30 UNL     1      47.674  27.924  12.530  1.00  0.00     0.010 C 
HETATM   31  C27 UNL     1      46.009  29.925  13.684  1.00  0.00    -0.013 C 
HETATM   32  C26 UNL     1      46.578  28.894  14.599  1.00  0.00     0.009 C 
HETATM   33  C25 UNL     1      47.271  27.764  13.964  1.00  0.00    -0.008 C 
HETATM   34  C24 UNL     1      46.582  26.415  14.099  1.00  0.00     0.062 C 
ENDBRANCH  20  23
ENDBRANCH   1  19
BRANCH   4  35
HETATM   35  C7  UNL     1      44.911  20.612  11.029  1.00  0.00     0.038 C 
BRANCH  35  36
HETATM   36  C8  UNL     1      45.500  21.853  10.525  1.00  0.00    -0.020 C 
HETATM   37  C9  UNL     1      44.306  22.729  10.038  1.00  0.00     0.009 C 
HETATM   38  C10 UNL     1      46.418  21.812   9.353  1.00  0.00     0.009 C 
ENDBRANCH  35  36
ENDBRANCH   4  35
BRANCH  10  39
HETATM   39  O3  UNL     1      45.692  18.040  15.043  1.00  0.00    -0.348 OA
ATOM     40  H3  UNL     1      45.553  17.738  14.153  1.00  0.00     0.219 HD
ENDBRANCH  10  39
BRANCH   9  41
HETATM   41  C13 UNL     1      43.080  17.238  15.420  1.00  0.00     0.037 C 
BRANCH  41  42
HETATM   42  C14 UNL     1      42.682  16.870  16.776  1.00  0.00    -0.020 C 
HETATM   43  C15 UNL     1      43.836  15.956  17.307  1.00  0.00     0.009 C 
HETATM   44  C16 UNL     1      42.656  18.006  17.771  1.00  0.00     0.009 C 
ENDBRANCH  41  42
ENDBRANCH   9  41
TORSDOF 7
ENDMDL
MODEL 4
REMARK VINA RESULT: -8.072081877      4.362      7.230
REMARK  7 active torsions:
REMARK  status: ('A' for Active; 'I' for Inactive)
REMARK    1  A    between atoms: C3_3  and  N1_4 
REMARK       I    between atoms: N1_4  and  C4_6 
REMARK    2  A    between atoms: C4_6  and  C5_8 
REMARK    3  A    between atoms: C6_11  and  C7_12 
REMARK    4  A    between atoms: C7_12  and  C8_13 
REMARK    5  A    between atoms: C12_20  and  C13_21 
REMARK    6  A    between atoms: C13_21  and  C14_22 
REMARK    7  A    between atoms: C17_25  and  O3_26 
ROOT
HETATM    1  C5  UNL     1      44.317  22.392  14.093  1.00  0.00     0.213 C 
HETATM    2  N2  UNL     1      45.229  22.590  13.052  1.00  0.00    -0.393 N 
ATOM      3  H2  UNL     1      46.220  22.683  13.272  1.00  0.00     0.155 HD
HETATM    4  C6  UNL     1      44.809  22.665  11.696  1.00  0.00     0.170 C 
HETATM    5  C11 UNL     1      43.449  22.148  11.466  1.00  0.00     0.240 C 
HETATM    6  O2  UNL     1      42.492  22.929  11.861  1.00  0.00    -0.271 OA
HETATM    7  N3  UNL     1      43.051  20.940  10.886  1.00  0.00    -0.347 N 
ATOM      8  H3  UNL     1      42.311  21.035  10.191  1.00  0.00     0.163 HD
HETATM    9  C12 UNL     1      43.493  19.598  11.091  1.00  0.00     0.159 C 
HETATM   10  C17 UNL     1      44.830  19.389  11.637  1.00  0.00     0.137 C 
HETATM   11  N4  UNL     1      45.301  19.226  12.947  1.00  0.00    -0.354 N 
HETATM   12  C18 UNL     1      46.214  18.051  13.207  1.00  0.00     0.125 C 
HETATM   13  C19 UNL     1      45.427  16.950  13.879  1.00  0.00     0.020 C 
HETATM   14  C20 UNL     1      44.371  17.640  14.741  1.00  0.00     0.004 C 
HETATM   15  C21 UNL     1      45.050  18.901  15.267  1.00  0.00     0.031 C 
HETATM   16  C22 UNL     1      45.116  19.973  14.144  1.00  0.00     0.129 C 
HETATM   17  C23 UNL     1      44.054  20.932  14.277  1.00  0.00     0.041 C 
HETATM   18  S1  UNL     1      42.732  20.534  14.625  1.00  0.00    -0.085 SA
ENDROOT
BRANCH   1  19
HETATM   19  C4  UNL     1      44.925  22.867  15.426  1.00  0.00     0.249 C 
HETATM   20  N1  UNL     1      44.110  22.959  16.557  1.00  0.00    -0.329 N 
ATOM     21  H1  UNL     1      43.129  22.699  16.448  1.00  0.00     0.168 HD
HETATM   22  O1  UNL     1      46.136  23.138  15.380  1.00  0.00    -0.270 OA
BRANCH  20  23
HETATM   23  C3  UNL     1      44.527  23.381  17.835  1.00  0.00     0.015 C 
HETATM   24  C2  UNL     1      44.496  22.446  18.799  1.00  0.00    -0.057 C 
HETATM   25  C1  UNL     1      44.015  21.085  18.367  1.00  0.00     0.046 C 
HETATM   26  C31 UNL     1      44.863  22.490  20.224  1.00  0.00     0.020 C 
HETATM   27  C29 UNL     1      44.316  23.620  21.015  1.00  0.00    -0.005 C 
HETATM   28  C32 UNL     1      46.366  22.444  20.408  1.00  0.00     0.014 C 
HETATM   29  C28 UNL     1      45.497  23.969  21.939  1.00  0.00     0.010 C 
HETATM   30  C30 UNL     1      44.084  24.885  20.222  1.00  0.00     0.010 C 
HETATM   31  C27 UNL     1      46.639  23.853  20.943  1.00  0.00    -0.013 C 
HETATM   32  C26 UNL     1      46.591  24.863  19.846  1.00  0.00     0.009 C 
HETATM   33  C25 UNL     1      45.256  25.237  19.357  1.00  0.00    -0.008 C 
HETATM   34  C24 UNL     1      44.931  24.795  17.940  1.00  0.00     0.062 C 
ENDBRANCH  20  23
ENDBRANCH   1  19
BRANCH   4  35
HETATM   35  C7  UNL     1      45.046  24.085  11.254  1.00  0.00     0.038 C 
BRANCH  35  36
HETATM   36  C8  UNL     1      44.743  25.179  12.179  1.00  0.00    -0.020 C 
HETATM   37  C9  UNL     1      43.905  26.210  11.365  1.00  0.00     0.009 C 
HETATM   38  C10 UNL     1      45.853  25.990  12.751  1.00  0.00     0.009 C 
ENDBRANCH  35  36
ENDBRANCH   4  35
BRANCH  10  39
HETATM   39  O3  UNL     1      45.781  19.338  10.748  1.00  0.00    -0.348 OA
ATOM     40  H3  UNL     1      46.149  20.180  10.509  1.00  0.00     0.219 HD
ENDBRANCH  10  39
BRANCH   9  41
HETATM   41  C13 UNL     1      43.242  18.715   9.868  1.00  0.00     0.037 C 
BRANCH  41  42
HETATM   42  C14 UNL     1      42.486  17.477  10.029  1.00  0.00    -0.020 C 
HETATM   43  C15 UNL     1      43.558  16.336  10.002  1.00  0.00     0.009 C 
HETATM   44  C16 UNL     1      41.825  17.295  11.375  1.00  0.00     0.009 C 
ENDBRANCH  41  42
ENDBRANCH   9  41
TORSDOF 7
ENDMDL
MODEL 5
REMARK VINA RESULT: -7.951573524      2.689      9.050
REMARK  7 active torsions:
REMARK  status: ('A' for Active; 'I' for Inactive)
REMARK    1  A    between atoms: C3_3  and  N1_4 
REMARK       I    between atoms: N1_4  and  C4_6 
REMARK    2  A    between atoms: C4_6  and  C5_8 
REMARK    3  A    between atoms: C6_11  and  C7_12 
REMARK    4  A    between atoms: C7_12  and  C8_13 
REMARK    5  A    between atoms: C12_20  and  C13_21 
REMARK    6  A    between atoms: C13_21  and  C14_22 
REMARK    7  A    between atoms: C17_25  and  O3_26 
ROOT
HETATM    1  C5  UNL     1      43.773  18.292  15.299  1.00  0.00     0.213 C 
HETATM    2  N2  UNL     1      42.808  19.138  14.746  1.00  0.00    -0.393 N 
ATOM      3  H2  UNL     1      41.872  19.155  15.150  1.00  0.00     0.155 HD
HETATM    4  C6  UNL     1      43.098  19.976  13.634  1.00  0.00     0.170 C 
HETATM    5  C11 UNL     1      44.539  20.152  13.384  1.00  0.00     0.240 C 
HETATM    6  O2  UNL     1      45.128  19.133  12.838  1.00  0.00    -0.271 OA
HETATM    7  N3  UNL     1      45.352  21.256  13.652  1.00  0.00    -0.347 N 
ATOM      8  H3  UNL     1      45.960  21.524  12.878  1.00  0.00     0.163 HD
HETATM    9  C12 UNL     1      45.486  22.077  14.812  1.00  0.00     0.159 C 
HETATM   10  C17 UNL     1      44.368  22.134  15.749  1.00  0.00     0.137 C 
HETATM   11  N4  UNL     1      44.063  21.399  16.902  1.00  0.00    -0.354 N 
HETATM   12  C18 UNL     1      43.701  22.184  18.140  1.00  0.00     0.125 C 
HETATM   13  C19 UNL     1      44.890  22.217  19.073  1.00  0.00     0.020 C 
HETATM   14  C20 UNL     1      45.628  20.894  18.875  1.00  0.00     0.004 C 
HETATM   15  C21 UNL     1      44.534  19.861  18.625  1.00  0.00     0.031 C 
HETATM   16  C22 UNL     1      43.997  20.003  17.173  1.00  0.00     0.129 C 
HETATM   17  C23 UNL     1      44.599  19.036  16.299  1.00  0.00     0.041 C 
HETATM   18  S1  UNL     1      45.986  18.724  16.378  1.00  0.00    -0.085 SA
ENDROOT
BRANCH   1  19
HETATM   19  C4  UNL     1      43.093  17.162  16.093  1.00  0.00     0.249 C 
HETATM   20  N1  UNL     1      43.434  15.833  15.826  1.00  0.00    -0.329 N 
ATOM     21  H1  UNL     1      44.134  15.668  15.103  1.00  0.00     0.168 HD
HETATM   22  O1  UNL     1      42.266  17.542  16.939  1.00  0.00    -0.270 OA
BRANCH  20  23
HETATM   23  C3  UNL     1      42.891  14.703  16.469  1.00  0.00     0.015 C 
HETATM   24  C2  UNL     1      43.657  14.148  17.423  1.00  0.00    -0.057 C 
HETATM   25  C1  UNL     1      44.985  14.820  17.659  1.00  0.00     0.046 C 
HETATM   26  C31 UNL     1      43.439  12.997  18.313  1.00  0.00     0.020 C 
HETATM   27  C29 UNL     1      42.969  11.744  17.672  1.00  0.00    -0.005 C 
HETATM   28  C32 UNL     1      42.501  13.347  19.450  1.00  0.00     0.014 C 
HETATM   29  C28 UNL     1      41.971  11.203  18.711  1.00  0.00     0.010 C 
HETATM   30  C30 UNL     1      42.131  11.951  16.432  1.00  0.00     0.010 C 
HETATM   31  C27 UNL     1      41.276  12.500  19.092  1.00  0.00    -0.013 C 
HETATM   32  C26 UNL     1      40.500  13.121  17.979  1.00  0.00     0.009 C 
HETATM   33  C25 UNL     1      41.067  12.987  16.630  1.00  0.00    -0.008 C 
HETATM   34  C24 UNL     1      41.561  14.278  15.997  1.00  0.00     0.062 C 
ENDBRANCH  20  23
ENDBRANCH   1  19
BRANCH   4  35
HETATM   35  C7  UNL     1      42.299  19.439  12.476  1.00  0.00     0.038 C 
BRANCH  35  36
HETATM   36  C8  UNL     1      42.364  18.010  12.168  1.00  0.00    -0.020 C 
HETATM   37  C9  UNL     1      42.317  17.903  10.613  1.00  0.00     0.009 C 
HETATM   38  C10 UNL     1      41.272  17.106  12.623  1.00  0.00     0.009 C 
ENDBRANCH  35  36
ENDBRANCH   4  35
BRANCH  10  39
HETATM   39  O3  UNL     1      43.472  23.040  15.476  1.00  0.00    -0.348 OA
ATOM     40  H3  UNL     1      43.251  23.612  16.201  1.00  0.00     0.219 HD
ENDBRANCH  10  39
BRANCH   9  41
HETATM   41  C13 UNL     1      46.005  23.475  14.474  1.00  0.00     0.037 C 
BRANCH  41  42
HETATM   42  C14 UNL     1      47.004  24.091  15.342  1.00  0.00    -0.020 C 
HETATM   43  C15 UNL     1      47.422  25.411  14.612  1.00  0.00     0.009 C 
HETATM   44  C16 UNL     1      46.485  24.584  16.673  1.00  0.00     0.009 C 
ENDBRANCH  41  42
ENDBRANCH   9  41
TORSDOF 7
ENDMDL
