MODEL 1
REMARK VINA RESULT: -9.441883942      0.000      0.000
REMARK  7 active torsions:
REMARK  status: ('A' for Active; 'I' for Inactive)
REMARK    1  A    between atoms: C2_3  and  C3_5 
REMARK    2  A    between atoms: C6_8  and  C7_9 
REMARK    3  A    between atoms: C15_20  and  C16_21 
REMARK       I    between atoms: C16_21  and  N2_23 
REMARK    4  A    between atoms: N2_23  and  C17_25 
REMARK    5  A    between atoms: C17_25  and  C18_26 
REMARK    6  A    between atoms: C18_26  and  C19_27 
REMARK    7  A    between atoms: C19_27  and  N3_28 
ROOT
HETATM    1  C1  UNL     1      44.939  20.944  13.318  1.00  0.00     0.263 C 
HETATM    2  N1  UNL     1      44.326  19.887  14.009  1.00  0.00    -0.420 NA
HETATM    3  C2  UNL     1      43.752  18.900  14.655  1.00  0.00     0.291 C 
HETATM    4  O1  UNL     1      42.771  18.207  14.377  1.00  0.00    -0.257 OA
ENDROOT
BRANCH   3   5
HETATM    5  C3  UNL     1      44.380  18.521  16.010  1.00  0.00     0.102 C 
HETATM    6  C4  UNL     1      45.817  18.929  16.102  1.00  0.00     0.017 C 
HETATM    7  C5  UNL     1      46.016  18.819  17.625  1.00  0.00     0.022 C 
HETATM    8  C6  UNL     1      44.787  19.576  18.158  1.00  0.00     0.060 C 
HETATM    9  C8  UNL     1      45.218  20.964  18.411  1.00  0.00     0.011 C 
HETATM   10  C30 UNL     1      43.725  19.321  17.135  1.00  0.00    -0.013 C 
HETATM   11  C9  UNL     1      45.761  21.160  19.812  1.00  0.00     0.011 C 
HETATM   12  C27 UNL     1      44.214  22.016  18.110  1.00  0.00     0.001 C 
HETATM   13  C10 UNL     1      45.043  22.174  20.621  1.00  0.00    -0.004 C 
HETATM   14  C11 UNL     1      46.029  22.925  21.526  1.00  0.00     0.018 C 
HETATM   15  C32 UNL     1      44.648  23.441  19.942  1.00  0.00    -0.021 C 
HETATM   16  C12 UNL     1      45.680  24.142  20.698  1.00  0.00     0.065 C 
HETATM   17  C13 UNL     1      46.852  24.614  19.952  1.00  0.00     0.132 C 
HETATM   18  O4  UNL     1      47.961  24.628  20.421  1.00  0.00    -0.298 OA
HETATM   19  C14 UNL     1      46.562  25.072  18.585  1.00  0.00     0.093 C 
HETATM   20  C15 UNL     1      46.001  23.798  17.875  1.00  0.00     0.094 C 
HETATM   21  C25 UNL     1      44.708  23.417  18.432  1.00  0.00    -0.019 C 
HETATM   22  C26 UNL     1      43.627  24.364  17.960  1.00  0.00     0.017 C 
HETATM   23  C33 UNL     1      43.274  23.859  20.459  1.00  0.00     0.017 C 
HETATM   24  C28 UNL     1      43.726  21.816  16.740  1.00  0.00     0.007 C 
HETATM   25  C29 UNL     1      42.968  20.504  16.692  1.00  0.00     0.012 C 
HETATM   26  C31 UNL     1      42.681  18.366  17.738  1.00  0.00     0.017 C 
BRANCH   8  27
HETATM   27  C7  UNL     1      44.419  18.870  19.450  1.00  0.00     0.183 C 
HETATM   28  O2  UNL     1      45.091  17.884  19.850  1.00  0.00    -0.647 OA
HETATM   29  O3  UNL     1      43.347  19.267  20.230  1.00  0.00    -0.647 OA
ENDBRANCH   8  27
BRANCH  20  30
HETATM   30  C16 UNL     1      46.213  24.130  16.470  1.00  0.00     0.223 C 
HETATM   31  O5  UNL     1      46.495  23.159  15.710  1.00  0.00    -0.273 OA
HETATM   32  N2  UNL     1      46.154  25.390  15.860  1.00  0.00    -0.361 N 
ATOM     33  H2  UNL     1      45.885  26.199  16.420  1.00  0.00     0.162 HD
BRANCH  32  34
HETATM   34  C17 UNL     1      46.471  25.584  14.423  1.00  0.00     0.124 C 
BRANCH  34  35
HETATM   35  C18 UNL     1      46.829  27.054  14.230  1.00  0.00     0.050 C 
BRANCH  35  36
HETATM   36  C19 UNL     1      46.086  27.649  13.076  1.00  0.00     0.274 C 
BRANCH  36  37
HETATM   37  N3  UNL     1      45.910  29.048  13.225  1.00  0.00     0.088 N 
HETATM   38  C20 UNL     1      46.787  29.909  12.510  1.00  0.00     0.272 C 
HETATM   39  C21 UNL     1      46.368  30.184  11.078  1.00  0.00     0.030 C 
HETATM   40  C22 UNL     1      45.031  30.920  11.166  1.00  0.00     0.003 C 
HETATM   41  C23 UNL     1      44.082  29.930  11.797  1.00  0.00     0.030 C 
HETATM   42  C24 UNL     1      44.521  29.462  13.151  1.00  0.00     0.272 C 
ENDBRANCH  36  37
ENDBRANCH  35  36
ENDBRANCH  34  35
ENDBRANCH  32  34
ENDBRANCH  20  30
ENDBRANCH   3   5
TORSDOF 6
ENDMDL
MODEL 2
REMARK VINA RESULT: -9.202465583      0.855      1.056
REMARK  7 active torsions:
REMARK  status: ('A' for Active; 'I' for Inactive)
REMARK    1  A    between atoms: C2_3  and  C3_5 
REMARK    2  A    between atoms: C6_8  and  C7_9 
REMARK    3  A    between atoms: C15_20  and  C16_21 
REMARK       I    between atoms: C16_21  and  N2_23 
REMARK    4  A    between atoms: N2_23  and  C17_25 
REMARK    5  A    between atoms: C17_25  and  C18_26 
REMARK    6  A    between atoms: C18_26  and  C19_27 
REMARK    7  A    between atoms: C19_27  and  N3_28 
ROOT
HETATM    1  C1  UNL     1      41.905  17.624  13.077  1.00  0.00     0.263 C 
HETATM    2  N1  UNL     1      42.953  18.405  13.589  1.00  0.00    -0.420 NA
HETATM    3  C2  UNL     1      43.933  19.134  14.067  1.00  0.00     0.291 C 
HETATM    4  O1  UNL     1      44.492  20.138  13.621  1.00  0.00    -0.257 OA
ENDROOT
BRANCH   3   5
HETATM    5  C3  UNL     1      44.521  18.678  15.416  1.00  0.00     0.102 C 
HETATM    6  C4  UNL     1      45.946  19.105  15.586  1.00  0.00     0.017 C 
HETATM    7  C5  UNL     1      46.094  18.899  17.104  1.00  0.00     0.022 C 
HETATM    8  C6  UNL     1      44.832  19.596  17.641  1.00  0.00     0.060 C 
HETATM    9  C8  UNL     1      45.224  20.972  18.000  1.00  0.00     0.011 C 
HETATM   10  C30 UNL     1      43.811  19.390  16.567  1.00  0.00    -0.013 C 
HETATM   11  C9  UNL     1      45.714  21.086  19.429  1.00  0.00     0.011 C 
HETATM   12  C27 UNL     1      44.210  22.023  17.732  1.00  0.00     0.001 C 
HETATM   13  C10 UNL     1      44.948  22.030  20.276  1.00  0.00    -0.004 C 
HETATM   14  C11 UNL     1      45.886  22.738  21.264  1.00  0.00     0.018 C 
HETATM   15  C32 UNL     1      44.551  23.332  19.668  1.00  0.00    -0.021 C 
HETATM   16  C12 UNL     1      45.541  24.001  20.504  1.00  0.00     0.065 C 
HETATM   17  C13 UNL     1      46.729  24.542  19.834  1.00  0.00     0.132 C 
HETATM   18  O4  UNL     1      47.820  24.546  20.342  1.00  0.00    -0.298 OA
HETATM   19  C14 UNL     1      46.477  25.084  18.490  1.00  0.00     0.093 C 
HETATM   20  C15 UNL     1      45.967  23.849  17.678  1.00  0.00     0.094 C 
HETATM   21  C25 UNL     1      44.664  23.408  18.162  1.00  0.00    -0.019 C 
HETATM   22  C26 UNL     1      43.580  24.364  17.715  1.00  0.00     0.017 C 
HETATM   23  C33 UNL     1      43.151  23.690  20.161  1.00  0.00     0.017 C 
HETATM   24  C28 UNL     1      43.775  21.905  16.335  1.00  0.00     0.007 C 
HETATM   25  C29 UNL     1      43.046  20.585  16.175  1.00  0.00     0.012 C 
HETATM   26  C31 UNL     1      42.768  18.378  17.068  1.00  0.00     0.017 C 
BRANCH   8  27
HETATM   27  C7  UNL     1      44.434  18.800  18.871  1.00  0.00     0.183 C 
HETATM   28  O2  UNL     1      45.122  17.814  19.240  1.00  0.00    -0.647 OA
HETATM   29  O3  UNL     1      43.316  19.113  19.624  1.00  0.00    -0.647 OA
ENDBRANCH   8  27
BRANCH  20  30
HETATM   30  C16 UNL     1      46.220  24.277  16.307  1.00  0.00     0.223 C 
HETATM   31  O5  UNL     1      46.552  23.364  15.496  1.00  0.00    -0.273 OA
HETATM   32  N2  UNL     1      46.154  25.573  15.777  1.00  0.00    -0.361 N 
ATOM     33  H2  UNL     1      45.847  26.338  16.379  1.00  0.00     0.162 HD
BRANCH  32  34
HETATM   34  C17 UNL     1      46.517  25.868  14.369  1.00  0.00     0.124 C 
BRANCH  34  35
HETATM   35  C18 UNL     1      47.096  27.278  14.332  1.00  0.00     0.050 C 
BRANCH  35  36
HETATM   36  C19 UNL     1      47.086  27.836  12.945  1.00  0.00     0.274 C 
BRANCH  36  37
HETATM   37  N3  UNL     1      46.661  29.188  12.920  1.00  0.00     0.088 N 
HETATM   38  C20 UNL     1      46.627  29.852  11.663  1.00  0.00     0.272 C 
HETATM   39  C21 UNL     1      45.357  29.620  10.865  1.00  0.00     0.030 C 
HETATM   40  C22 UNL     1      44.224  30.224  11.696  1.00  0.00     0.003 C 
HETATM   41  C23 UNL     1      44.190  29.406  12.964  1.00  0.00     0.030 C 
HETATM   42  C24 UNL     1      45.479  29.433  13.726  1.00  0.00     0.272 C 
ENDBRANCH  36  37
ENDBRANCH  35  36
ENDBRANCH  34  35
ENDBRANCH  32  34
ENDBRANCH  20  30
ENDBRANCH   3   5
TORSDOF 6
ENDMDL
MODEL 3
REMARK VINA RESULT: -8.956150518      0.835      1.038
REMARK  7 active torsions:
REMARK  status: ('A' for Active; 'I' for Inactive)
REMARK    1  A    between atoms: C2_3  and  C3_5 
REMARK    2  A    between atoms: C6_8  and  C7_9 
REMARK    3  A    between atoms: C15_20  and  C16_21 
REMARK       I    between atoms: C16_21  and  N2_23 
REMARK    4  A    between atoms: N2_23  and  C17_25 
REMARK    5  A    between atoms: C17_25  and  C18_26 
REMARK    6  A    between atoms: C18_26  and  C19_27 
REMARK    7  A    between atoms: C19_27  and  N3_28 
ROOT
HETATM    1  C1  UNL     1      44.836  19.920  13.320  1.00  0.00     0.263 C 
HETATM    2  N1  UNL     1      44.226  19.034  14.222  1.00  0.00    -0.420 NA
HETATM    3  C2  UNL     1      43.655  18.206  15.064  1.00  0.00     0.291 C 
HETATM    4  O1  UNL     1      42.635  17.520  14.966  1.00  0.00    -0.257 OA
ENDROOT
BRANCH   3   5
HETATM    5  C3  UNL     1      44.346  18.047  16.431  1.00  0.00     0.102 C 
HETATM    6  C4  UNL     1      45.764  18.529  16.409  1.00  0.00     0.017 C 
HETATM    7  C5  UNL     1      46.019  18.640  17.923  1.00  0.00     0.022 C 
HETATM    8  C6  UNL     1      44.772  19.407  18.397  1.00  0.00     0.060 C 
HETATM    9  C8  UNL     1      45.140  20.835  18.440  1.00  0.00     0.011 C 
HETATM   10  C30 UNL     1      43.690  18.965  17.462  1.00  0.00    -0.013 C 
HETATM   11  C9  UNL     1      45.719  21.248  19.777  1.00  0.00     0.011 C 
HETATM   12  C27 UNL     1      44.075  21.788  18.038  1.00  0.00     0.001 C 
HETATM   13  C10 UNL     1      44.979  22.331  20.469  1.00  0.00    -0.004 C 
HETATM   14  C11 UNL     1      45.955  23.244  21.222  1.00  0.00     0.018 C 
HETATM   15  C32 UNL     1      44.498  23.472  19.639  1.00  0.00    -0.021 C 
HETATM   16  C12 UNL     1      45.518  24.317  20.249  1.00  0.00     0.065 C 
HETATM   17  C13 UNL     1      46.639  24.734  19.400  1.00  0.00     0.132 C 
HETATM   18  O4  UNL     1      47.760  24.863  19.817  1.00  0.00    -0.298 OA
HETATM   19  C14 UNL     1      46.280  24.985  17.995  1.00  0.00     0.093 C 
HETATM   20  C15 UNL     1      45.761  23.600  17.489  1.00  0.00     0.094 C 
HETATM   21  C25 UNL     1      44.508  23.241  18.145  1.00  0.00    -0.019 C 
HETATM   22  C26 UNL     1      43.366  24.064  17.592  1.00  0.00     0.017 C 
HETATM   23  C33 UNL     1      43.122  23.895  20.148  1.00  0.00     0.017 C 
HETATM   24  C28 UNL     1      43.552  21.378  16.729  1.00  0.00     0.007 C 
HETATM   25  C29 UNL     1      42.860  20.040  16.891  1.00  0.00     0.012 C 
HETATM   26  C31 UNL     1      42.717  18.056  18.231  1.00  0.00     0.017 C 
BRANCH   8  27
HETATM   27  C7  UNL     1      44.483  18.871  19.787  1.00  0.00     0.183 C 
HETATM   28  O2  UNL     1      45.201  17.964  20.281  1.00  0.00    -0.647 OA
HETATM   29  O3  UNL     1      43.437  19.344  20.559  1.00  0.00    -0.647 OA
ENDBRANCH   8  27
BRANCH  20  30
HETATM   30  C16 UNL     1      45.908  23.744  16.045  1.00  0.00     0.223 C 
HETATM   31  O5  UNL     1      46.302  22.713  15.425  1.00  0.00    -0.273 OA
HETATM   32  N2  UNL     1      45.680  24.882  15.260  1.00  0.00    -0.361 N 
ATOM     33  H2  UNL     1      45.317  25.724  15.705  1.00  0.00     0.162 HD
BRANCH  32  34
HETATM   34  C17 UNL     1      45.949  24.898  13.800  1.00  0.00     0.124 C 
BRANCH  34  35
HETATM   35  C18 UNL     1      47.030  25.943  13.548  1.00  0.00     0.050 C 
BRANCH  35  36
HETATM   36  C19 UNL     1      46.838  27.146  14.416  1.00  0.00     0.274 C 
BRANCH  36  37
HETATM   37  N3  UNL     1      46.715  28.336  13.654  1.00  0.00     0.088 N 
HETATM   38  C20 UNL     1      46.172  28.232  12.344  1.00  0.00     0.272 C 
HETATM   39  C21 UNL     1      44.655  28.249  12.290  1.00  0.00     0.030 C 
HETATM   40  C22 UNL     1      44.231  29.619  12.819  1.00  0.00     0.003 C 
HETATM   41  C23 UNL     1      44.694  29.643  14.256  1.00  0.00     0.030 C 
HETATM   42  C24 UNL     1      46.171  29.448  14.410  1.00  0.00     0.272 C 
ENDBRANCH  36  37
ENDBRANCH  35  36
ENDBRANCH  34  35
ENDBRANCH  32  34
ENDBRANCH  20  30
ENDBRANCH   3   5
TORSDOF 6
ENDMDL
MODEL 4
REMARK VINA RESULT: -8.769076959      1.397      1.656
REMARK  7 active torsions:
REMARK  status: ('A' for Active; 'I' for Inactive)
REMARK    1  A    between atoms: C2_3  and  C3_5 
REMARK    2  A    between atoms: C6_8  and  C7_9 
REMARK    3  A    between atoms: C15_20  and  C16_21 
REMARK       I    between atoms: C16_21  and  N2_23 
REMARK    4  A    between atoms: N2_23  and  C17_25 
REMARK    5  A    between atoms: C17_25  and  C18_26 
REMARK    6  A    between atoms: C18_26  and  C19_27 
REMARK    7  A    between atoms: C19_27  and  N3_28 
ROOT
HETATM    1  C1  UNL     1      41.577  19.458  12.798  1.00  0.00     0.263 C 
HETATM    2  N1  UNL     1      42.786  19.963  13.302  1.00  0.00    -0.420 NA
HETATM    3  C2  UNL     1      43.916  20.434  13.771  1.00  0.00     0.291 C 
HETATM    4  O1  UNL     1      44.615  21.383  13.408  1.00  0.00    -0.257 OA
ENDROOT
BRANCH   3   5
HETATM    5  C3  UNL     1      44.512  19.688  14.980  1.00  0.00     0.102 C 
HETATM    6  C4  UNL     1      45.949  20.037  15.209  1.00  0.00     0.017 C 
HETATM    7  C5  UNL     1      46.114  19.509  16.646  1.00  0.00     0.022 C 
HETATM    8  C6  UNL     1      44.878  20.105  17.343  1.00  0.00     0.060 C 
HETATM    9  C8  UNL     1      45.312  21.363  17.978  1.00  0.00     0.011 C 
HETATM   10  C30 UNL     1      43.838  20.155  16.269  1.00  0.00    -0.013 C 
HETATM   11  C9  UNL     1      45.825  21.159  19.389  1.00  0.00     0.011 C 
HETATM   12  C27 UNL     1      44.322  22.470  17.960  1.00  0.00     0.001 C 
HETATM   13  C10 UNL     1      45.097  21.919  20.433  1.00  0.00    -0.004 C 
HETATM   14  C11 UNL     1      46.067  22.379  21.529  1.00  0.00     0.018 C 
HETATM   15  C32 UNL     1      44.726  23.330  20.122  1.00  0.00    -0.021 C 
HETATM   16  C12 UNL     1      45.745  23.782  21.062  1.00  0.00     0.065 C 
HETATM   17  C13 UNL     1      46.937  24.426  20.498  1.00  0.00     0.132 C 
HETATM   18  O4  UNL     1      48.035  24.296  20.975  1.00  0.00    -0.298 OA
HETATM   19  C14 UNL     1      46.680  25.247  19.305  1.00  0.00     0.093 C 
HETATM   20  C15 UNL     1      46.127  24.225  18.260  1.00  0.00     0.094 C 
HETATM   21  C25 UNL     1      44.819  23.722  18.665  1.00  0.00    -0.019 C 
HETATM   22  C26 UNL     1      43.755  24.775  18.452  1.00  0.00     0.017 C 
HETATM   23  C33 UNL     1      43.343  23.606  20.707  1.00  0.00     0.017 C 
HETATM   24  C28 UNL     1      43.864  22.662  16.578  1.00  0.00     0.007 C 
HETATM   25  C29 UNL     1      43.099  21.424  16.155  1.00  0.00     0.012 C 
HETATM   26  C31 UNL     1      42.774  19.084  16.565  1.00  0.00     0.017 C 
BRANCH   8  27
HETATM   27  C7  UNL     1      44.477  19.074  18.383  1.00  0.00     0.183 C 
HETATM   28  O2  UNL     1      43.467  19.262  19.109  1.00  0.00    -0.647 OA
HETATM   29  O3  UNL     1      45.191  17.905  18.580  1.00  0.00    -0.647 OA
ENDBRANCH   8  27
BRANCH  20  30
HETATM   30  C16 UNL     1      46.372  24.930  17.007  1.00  0.00     0.223 C 
HETATM   31  O5  UNL     1      46.131  26.172  17.016  1.00  0.00    -0.273 OA
HETATM   32  N2  UNL     1      46.829  24.403  15.791  1.00  0.00    -0.361 N 
ATOM     33  H2  UNL     1      47.081  23.416  15.744  1.00  0.00     0.162 HD
BRANCH  32  34
HETATM   34  C17 UNL     1      46.957  25.237  14.570  1.00  0.00     0.124 C 
BRANCH  34  35
HETATM   35  C18 UNL     1      45.679  25.056  13.759  1.00  0.00     0.050 C 
BRANCH  35  36
HETATM   36  C19 UNL     1      45.677  25.927  12.543  1.00  0.00     0.274 C 
BRANCH  36  37
HETATM   37  N3  UNL     1      44.903  27.100  12.733  1.00  0.00     0.088 N 
HETATM   38  C20 UNL     1      45.591  28.311  13.022  1.00  0.00     0.272 C 
HETATM   39  C21 UNL     1      46.097  29.053  11.799  1.00  0.00     0.030 C 
HETATM   40  C22 UNL     1      44.852  29.450  11.005  1.00  0.00     0.003 C 
HETATM   41  C23 UNL     1      44.221  28.144  10.588  1.00  0.00     0.030 C 
HETATM   42  C24 UNL     1      43.855  27.263  11.743  1.00  0.00     0.272 C 
ENDBRANCH  36  37
ENDBRANCH  35  36
ENDBRANCH  34  35
ENDBRANCH  32  34
ENDBRANCH  20  30
ENDBRANCH   3   5
TORSDOF 6
ENDMDL
MODEL 5
REMARK VINA RESULT: -8.714837749      2.434      3.458
REMARK  7 active torsions:
REMARK  status: ('A' for Active; 'I' for Inactive)
REMARK    1  A    between atoms: C2_3  and  C3_5 
REMARK    2  A    between atoms: C6_8  and  C7_9 
REMARK    3  A    between atoms: C15_20  and  C16_21 
REMARK       I    between atoms: C16_21  and  N2_23 
REMARK    4  A    between atoms: N2_23  and  C17_25 
REMARK    5  A    between atoms: C17_25  and  C18_26 
REMARK    6  A    between atoms: C18_26  and  C19_27 
REMARK    7  A    between atoms: C19_27  and  N3_28 
ROOT
HETATM    1  C1  UNL     1      42.545  17.666  13.915  1.00  0.00     0.263 C 
HETATM    2  N1  UNL     1      43.606  18.387  14.485  1.00  0.00    -0.420 NA
HETATM    3  C2  UNL     1      44.599  19.060  15.016  1.00  0.00     0.291 C 
HETATM    4  O1  UNL     1      45.311  19.956  14.558  1.00  0.00    -0.257 OA
ENDROOT
BRANCH   3   5
HETATM    5  C3  UNL     1      44.977  18.682  16.461  1.00  0.00     0.102 C 
HETATM    6  C4  UNL     1      46.384  19.069  16.798  1.00  0.00     0.017 C 
HETATM    7  C5  UNL     1      46.315  18.968  18.333  1.00  0.00     0.022 C 
HETATM    8  C6  UNL     1      45.024  19.747  18.641  1.00  0.00     0.060 C 
HETATM    9  C8  UNL     1      45.427  21.130  18.958  1.00  0.00     0.011 C 
HETATM   10  C30 UNL     1      44.151  19.500  17.452  1.00  0.00    -0.013 C 
HETATM   11  C9  UNL     1      45.723  21.330  20.430  1.00  0.00     0.011 C 
HETATM   12  C27 UNL     1      44.508  22.195  18.483  1.00  0.00     0.001 C 
HETATM   13  C10 UNL     1      44.894  22.360  21.099  1.00  0.00    -0.004 C 
HETATM   14  C11 UNL     1      45.720  23.104  22.157  1.00  0.00     0.018 C 
HETATM   15  C32 UNL     1      44.642  23.628  20.355  1.00  0.00    -0.021 C 
HETATM   16  C12 UNL     1      45.539  24.319  21.274  1.00  0.00     0.065 C 
HETATM   17  C13 UNL     1      46.830  24.767  20.740  1.00  0.00     0.132 C 
HETATM   18  O4  UNL     1      47.841  24.769  21.393  1.00  0.00    -0.298 OA
HETATM   19  C14 UNL     1      46.788  25.219  19.341  1.00  0.00     0.093 C 
HETATM   20  C15 UNL     1      46.338  23.948  18.551  1.00  0.00     0.094 C 
HETATM   21  C25 UNL     1      44.962  23.591  18.878  1.00  0.00    -0.019 C 
HETATM   22  C26 UNL     1      43.994  24.550  18.222  1.00  0.00     0.017 C 
HETATM   23  C33 UNL     1      43.207  24.071  20.624  1.00  0.00     0.017 C 
HETATM   24  C28 UNL     1      44.261  21.992  17.050  1.00  0.00     0.007 C 
HETATM   25  C29 UNL     1      43.502  20.691  16.878  1.00  0.00     0.012 C 
HETATM   26  C31 UNL     1      43.004  18.566  17.870  1.00  0.00     0.017 C 
BRANCH   8  27
HETATM   27  C7  UNL     1      44.427  19.057  19.855  1.00  0.00     0.183 C 
HETATM   28  O2  UNL     1      45.029  18.096  20.400  1.00  0.00    -0.647 OA
HETATM   29  O3  UNL     1      43.216  19.442  20.402  1.00  0.00    -0.647 OA
ENDBRANCH   8  27
BRANCH  20  30
HETATM   30  C16 UNL     1      46.794  24.266  17.202  1.00  0.00     0.223 C 
HETATM   31  O5  UNL     1      48.047  24.348  17.049  1.00  0.00    -0.273 OA
HETATM   32  N2  UNL     1      46.020  24.505  16.059  1.00  0.00    -0.361 N 
ATOM     33  H2  UNL     1      45.006  24.405  16.119  1.00  0.00     0.162 HD
BRANCH  32  34
HETATM   34  C17 UNL     1      46.629  24.896  14.763  1.00  0.00     0.124 C 
BRANCH  34  35
HETATM   35  C18 UNL     1      45.540  24.799  13.700  1.00  0.00     0.050 C 
BRANCH  35  36
HETATM   36  C19 UNL     1      44.992  23.411  13.606  1.00  0.00     0.274 C 
BRANCH  36  37
HETATM   37  N3  UNL     1      44.248  23.215  12.414  1.00  0.00     0.088 N 
HETATM   38  C20 UNL     1      44.912  22.623  11.305  1.00  0.00     0.272 C 
HETATM   39  C21 UNL     1      44.944  21.107  11.328  1.00  0.00     0.030 C 
HETATM   40  C22 UNL     1      43.487  20.655  11.240  1.00  0.00     0.003 C 
HETATM   41  C23 UNL     1      42.840  21.173  12.501  1.00  0.00     0.030 C 
HETATM   42  C24 UNL     1      42.927  22.662  12.648  1.00  0.00     0.272 C 
ENDBRANCH  36  37
ENDBRANCH  35  36
ENDBRANCH  34  35
ENDBRANCH  32  34
ENDBRANCH  20  30
ENDBRANCH   3   5
TORSDOF 6
ENDMDL
