MODEL 1
REMARK VINA RESULT: -9.345129425      0.000      0.000
REMARK  7 active torsions:
REMARK  status: ('A' for Active; 'I' for Inactive)
REMARK    1  A    between atoms: C4_4  and  C5_5 
REMARK    2  A    between atoms: C5_5  and  C7_7 
REMARK    3  A    between atoms: N1_12  and  C12_13 
REMARK    4  A    between atoms: C12_13  and  C13_14 
REMARK       I    between atoms: C13_14  and  N2_16 
REMARK    5  A    between atoms: N2_16  and  C14_18 
REMARK    6  A    between atoms: C14_18  and  C15_19 
REMARK    7  A    between atoms: C15_19  and  N3_20 
ROOT
HETATM    1  C5  UNL     1      45.368  22.322  18.316  1.00  0.00    -0.001 C 
HETATM    2  C6  UNL     1      46.342  22.959  19.352  1.00  0.00     0.011 C 
ENDROOT
BRANCH   1   3
HETATM    3  C4  UNL     1      44.647  21.206  18.862  1.00  0.00     0.004 C 
HETATM    4  C3  UNL     1      43.943  21.504  20.168  1.00  0.00     0.039 C 
HETATM    5  C2  UNL     1      44.640  20.790  21.239  1.00  0.00    -0.084 C 
HETATM    6  C1  UNL     1      44.559  20.988  22.539  1.00  0.00     0.015 C 
HETATM    7  C33 UNL     1      45.469  19.774  20.585  1.00  0.00     0.023 C 
HETATM    8  C20 UNL     1      45.142  19.844  19.099  1.00  0.00    -0.024 C 
HETATM    9  C32 UNL     1      44.969  18.449  21.109  1.00  0.00     0.010 C 
HETATM   10  C21 UNL     1      46.144  19.159  18.287  1.00  0.00     0.022 C 
HETATM   11  C30 UNL     1      43.900  18.920  19.032  1.00  0.00     0.000 C 
HETATM   12  C22 UNL     1      45.514  18.046  17.461  1.00  0.00    -0.019 C 
HETATM   13  C23 UNL     1      45.980  16.739  18.080  1.00  0.00     0.018 C 
HETATM   14  C24 UNL     1      45.945  18.004  16.020  1.00  0.00     0.089 C 
HETATM   15  C29 UNL     1      44.076  18.335  17.668  1.00  0.00     0.008 C 
HETATM   16  C25 UNL     1      47.283  18.576  15.715  1.00  0.00     0.033 C 
HETATM   17  N4  UNL     1      44.986  18.527  15.072  1.00  0.00    -0.349 N 
HETATM   18  C26 UNL     1      43.652  18.096  14.846  1.00  0.00     0.287 C 
ATOM     19  H4  UNL     1      45.308  19.303  14.493  1.00  0.00     0.163 HD
HETATM   20  O3  UNL     1      43.106  18.334  13.713  1.00  0.00    -0.264 OA
HETATM   21  C27 UNL     1      42.828  17.384  15.832  1.00  0.00     0.216 C 
HETATM   22  O4  UNL     1      41.815  16.788  15.397  1.00  0.00    -0.287 OA
HETATM   23  C28 UNL     1      43.081  17.299  17.324  1.00  0.00     0.095 C 
HETATM   24  C31 UNL     1      43.915  17.989  20.151  1.00  0.00     0.006 C 
ENDBRANCH   1   3
BRANCH   1  25
HETATM   25  C7  UNL     1      44.796  23.419  17.486  1.00  0.00     0.082 C 
HETATM   26  C8  UNL     1      45.975  24.422  17.168  1.00  0.00     0.014 C 
HETATM   27  C9  UNL     1      45.749  25.152  15.889  1.00  0.00     0.002 C 
HETATM   28  C10 UNL     1      46.710  24.664  14.789  1.00  0.00     0.020 C 
HETATM   29  C11 UNL     1      46.588  23.149  14.744  1.00  0.00     0.126 C 
HETATM   30  N1  UNL     1      45.203  22.709  14.976  1.00  0.00    -0.343 N 
HETATM   31  C19 UNL     1      44.379  23.112  16.098  1.00  0.00     0.224 C 
HETATM   32  O2  UNL     1      43.163  23.190  15.759  1.00  0.00    -0.273 OA
BRANCH  30  33
HETATM   33  C12 UNL     1      44.638  21.822  14.011  1.00  0.00     0.228 C 
BRANCH  33  34
HETATM   34  C13 UNL     1      44.476  22.469  12.678  1.00  0.00     0.235 C 
HETATM   35  O1  UNL     1      45.151  22.027  11.723  1.00  0.00    -0.272 OA
HETATM   36  N2  UNL     1      43.591  23.552  12.474  1.00  0.00    -0.357 N 
ATOM     37  H2  UNL     1      43.090  23.874  13.302  1.00  0.00     0.162 HD
BRANCH  36  38
HETATM   38  C14 UNL     1      43.307  24.249  11.279  1.00  0.00     0.161 C 
BRANCH  38  39
HETATM   39  C15 UNL     1      43.317  25.709  11.252  1.00  0.00     0.139 C 
HETATM   40  C16 UNL     1      43.727  26.307   9.868  1.00  0.00     0.040 C 
HETATM   41  C17 UNL     1      43.968  27.596  10.692  1.00  0.00     0.005 C 
HETATM   42  C18 UNL     1      44.381  26.569  11.814  1.00  0.00     0.040 C 
BRANCH  39  43
HETATM   43  N3  UNL     1      41.967  26.262  11.480  1.00  0.00    -0.069 N 
ATOM     44  H33 UNL     1      41.598  26.705  10.639  1.00  0.00     0.275 HD
ATOM     45  H32 UNL     1      41.273  25.522  11.585  1.00  0.00     0.275 HD
ATOM     46  H31 UNL     1      41.955  26.901  12.275  1.00  0.00     0.275 HD
ENDBRANCH  39  43
ENDBRANCH  38  39
ENDBRANCH  36  38
ENDBRANCH  33  34
ENDBRANCH  30  33
ENDBRANCH   1  25
TORSDOF 7
ENDMDL
MODEL 2
REMARK VINA RESULT: -9.162745592      4.170      6.616
REMARK  7 active torsions:
REMARK  status: ('A' for Active; 'I' for Inactive)
REMARK    1  A    between atoms: C4_4  and  C5_5 
REMARK    2  A    between atoms: C5_5  and  C7_7 
REMARK    3  A    between atoms: N1_12  and  C12_13 
REMARK    4  A    between atoms: C12_13  and  C13_14 
REMARK       I    between atoms: C13_14  and  N2_16 
REMARK    5  A    between atoms: N2_16  and  C14_18 
REMARK    6  A    between atoms: C14_18  and  C15_19 
REMARK    7  A    between atoms: C15_19  and  N3_20 
ROOT
HETATM    1  C5  UNL     1      44.285  15.680  19.996  1.00  0.00    -0.001 C 
HETATM    2  C6  UNL     1      45.738  15.910  20.510  1.00  0.00     0.011 C 
ENDROOT
BRANCH   1   3
HETATM    3  C4  UNL     1      43.744  14.425  20.437  1.00  0.00     0.004 C 
HETATM    4  C3  UNL     1      44.044  14.096  21.883  1.00  0.00     0.039 C 
HETATM    5  C2  UNL     1      45.005  12.993  21.914  1.00  0.00    -0.084 C 
HETATM    6  C1  UNL     1      45.752  12.589  22.922  1.00  0.00     0.015 C 
HETATM    7  C33 UNL     1      44.984  12.390  20.578  1.00  0.00     0.023 C 
HETATM    8  C20 UNL     1      43.890  13.109  19.800  1.00  0.00    -0.024 C 
HETATM    9  C32 UNL     1      44.543  10.962  20.789  1.00  0.00     0.010 C 
HETATM   10  C21 UNL     1      43.999  12.877  18.363  1.00  0.00     0.022 C 
HETATM   11  C30 UNL     1      42.646  12.289  20.225  1.00  0.00     0.000 C 
HETATM   12  C22 UNL     1      42.732  12.237  17.811  1.00  0.00    -0.019 C 
HETATM   13  C23 UNL     1      43.092  10.801  17.473  1.00  0.00     0.018 C 
HETATM   14  C24 UNL     1      42.216  12.850  16.539  1.00  0.00     0.089 C 
HETATM   15  C29 UNL     1      41.829  12.377  18.977  1.00  0.00     0.008 C 
HETATM   16  C25 UNL     1      43.220  13.524  15.675  1.00  0.00     0.033 C 
HETATM   17  N4  UNL     1      41.072  13.723  16.692  1.00  0.00    -0.349 N 
HETATM   18  C26 UNL     1      39.800  13.413  17.242  1.00  0.00     0.287 C 
ATOM     19  H4  UNL     1      41.195  14.681  16.365  1.00  0.00     0.163 HD
HETATM   20  O3  UNL     1      38.788  14.121  16.904  1.00  0.00    -0.264 OA
HETATM   21  C27 UNL     1      39.546  12.321  18.191  1.00  0.00     0.216 C 
HETATM   22  O4  UNL     1      38.353  11.962  18.334  1.00  0.00    -0.287 OA
HETATM   23  C28 UNL     1      40.583  11.584  19.015  1.00  0.00     0.095 C 
HETATM   24  C31 UNL     1      43.052  10.958  20.650  1.00  0.00     0.006 C 
ENDBRANCH   1   3
BRANCH   1  25
HETATM   25  C7  UNL     1      43.581  16.994  20.003  1.00  0.00     0.082 C 
HETATM   26  C8  UNL     1      44.453  17.982  20.875  1.00  0.00     0.014 C 
HETATM   27  C9  UNL     1      44.264  19.400  20.457  1.00  0.00     0.002 C 
HETATM   28  C10 UNL     1      45.513  19.941  19.736  1.00  0.00     0.020 C 
HETATM   29  C11 UNL     1      45.850  18.943  18.640  1.00  0.00     0.126 C 
HETATM   30  N1  UNL     1      44.637  18.385  18.022  1.00  0.00    -0.343 N 
HETATM   31  C19 UNL     1      43.538  17.778  18.747  1.00  0.00     0.224 C 
HETATM   32  O2  UNL     1      42.437  18.001  18.164  1.00  0.00    -0.273 OA
BRANCH  30  33
HETATM   33  C12 UNL     1      44.546  18.457  16.600  1.00  0.00     0.228 C 
BRANCH  33  34
HETATM   34  C13 UNL     1      44.342  19.853  16.119  1.00  0.00     0.235 C 
HETATM   35  O1  UNL     1      45.053  20.260  15.173  1.00  0.00    -0.272 OA
HETATM   36  N2  UNL     1      43.380  20.712  16.698  1.00  0.00    -0.357 N 
ATOM     37  H2  UNL     1      42.853  20.321  17.479  1.00  0.00     0.162 HD
BRANCH  36  38
HETATM   38  C14 UNL     1      43.050  22.038  16.343  1.00  0.00     0.161 C 
BRANCH  38  39
HETATM   39  C15 UNL     1      43.686  23.167  17.017  1.00  0.00     0.139 C 
HETATM   40  C16 UNL     1      44.854  23.807  16.201  1.00  0.00     0.040 C 
HETATM   41  C17 UNL     1      45.242  24.422  17.569  1.00  0.00     0.005 C 
HETATM   42  C18 UNL     1      44.663  23.064  18.123  1.00  0.00     0.040 C 
BRANCH  39  43
HETATM   43  N3  UNL     1      42.741  24.286  17.203  1.00  0.00    -0.069 N 
ATOM     44  H33 UNL     1      42.808  24.962  16.442  1.00  0.00     0.275 HD
ATOM     45  H32 UNL     1      41.775  23.987  17.062  1.00  0.00     0.275 HD
ATOM     46  H31 UNL     1      42.865  24.732  18.112  1.00  0.00     0.275 HD
ENDBRANCH  39  43
ENDBRANCH  38  39
ENDBRANCH  36  38
ENDBRANCH  33  34
ENDBRANCH  30  33
ENDBRANCH   1  25
TORSDOF 7
ENDMDL
MODEL 3
REMARK VINA RESULT: -9.156048724      2.389      7.721
REMARK  7 active torsions:
REMARK  status: ('A' for Active; 'I' for Inactive)
REMARK    1  A    between atoms: C4_4  and  C5_5 
REMARK    2  A    between atoms: C5_5  and  C7_7 
REMARK    3  A    between atoms: N1_12  and  C12_13 
REMARK    4  A    between atoms: C12_13  and  C13_14 
REMARK       I    between atoms: C13_14  and  N2_16 
REMARK    5  A    between atoms: N2_16  and  C14_18 
REMARK    6  A    between atoms: C14_18  and  C15_19 
REMARK    7  A    between atoms: C15_19  and  N3_20 
ROOT
HETATM    1  C5  UNL     1      44.848  19.048  17.762  1.00  0.00    -0.001 C 
HETATM    2  C6  UNL     1      45.876  17.999  17.244  1.00  0.00     0.011 C 
ENDROOT
BRANCH   1   3
HETATM    3  C4  UNL     1      45.486  20.192  18.351  1.00  0.00     0.004 C 
HETATM    4  C3  UNL     1      46.426  19.858  19.489  1.00  0.00     0.039 C 
HETATM    5  C2  UNL     1      45.820  20.320  20.738  1.00  0.00    -0.084 C 
HETATM    6  C1  UNL     1      46.137  19.985  21.972  1.00  0.00     0.015 C 
HETATM    7  C33 UNL     1      44.763  21.262  20.358  1.00  0.00     0.023 C 
HETATM    8  C20 UNL     1      44.852  21.421  18.846  1.00  0.00    -0.024 C 
HETATM    9  C32 UNL     1      45.153  22.578  20.988  1.00  0.00     0.010 C 
HETATM   10  C21 UNL     1      43.647  22.030  18.290  1.00  0.00     0.022 C 
HETATM   11  C30 UNL     1      45.926  22.531  18.734  1.00  0.00     0.000 C 
HETATM   12  C22 UNL     1      43.974  23.318  17.547  1.00  0.00    -0.019 C 
HETATM   13  C23 UNL     1      43.438  24.452  18.404  1.00  0.00     0.018 C 
HETATM   14  C24 UNL     1      43.314  23.461  16.204  1.00  0.00     0.089 C 
HETATM   15  C29 UNL     1      45.453  23.238  17.506  1.00  0.00     0.008 C 
HETATM   16  C25 UNL     1      42.037  22.724  16.014  1.00  0.00     0.033 C 
HETATM   17  N4  UNL     1      44.170  23.212  15.064  1.00  0.00    -0.349 N 
HETATM   18  C26 UNL     1      45.378  23.873  14.714  1.00  0.00     0.287 C 
ATOM     19  H4  UNL     1      43.869  22.469  14.433  1.00  0.00     0.163 HD
HETATM   20  O3  UNL     1      45.760  23.860  13.492  1.00  0.00    -0.264 OA
HETATM   21  C27 UNL     1      46.243  24.585  15.663  1.00  0.00     0.216 C 
HETATM   22  O4  UNL     1      47.080  25.382  15.176  1.00  0.00    -0.287 OA
HETATM   23  C28 UNL     1      46.226  24.452  17.173  1.00  0.00     0.095 C 
HETATM   24  C31 UNL     1      45.965  23.310  19.963  1.00  0.00     0.006 C 
ENDBRANCH   1   3
BRANCH   1  25
HETATM   25  C7  UNL     1      43.698  19.073  16.814  1.00  0.00     0.082 C 
HETATM   26  C8  UNL     1      44.218  19.725  15.472  1.00  0.00     0.014 C 
HETATM   27  C9  UNL     1      43.449  19.242  14.290  1.00  0.00     0.002 C 
HETATM   28  C10 UNL     1      44.297  18.296  13.419  1.00  0.00     0.020 C 
HETATM   29  C11 UNL     1      44.860  17.234  14.350  1.00  0.00     0.126 C 
HETATM   30  N1  UNL     1      43.892  16.856  15.392  1.00  0.00    -0.343 N 
HETATM   31  C19 UNL     1      43.207  17.787  16.266  1.00  0.00     0.224 C 
HETATM   32  O2  UNL     1      42.044  17.372  16.544  1.00  0.00    -0.273 OA
BRANCH  30  33
HETATM   33  C12 UNL     1      43.612  15.465  15.537  1.00  0.00     0.228 C 
BRANCH  33  34
HETATM   34  C13 UNL     1      44.047  14.938  16.862  1.00  0.00     0.235 C 
HETATM   35  O1  UNL     1      45.246  14.610  17.000  1.00  0.00    -0.272 OA
HETATM   36  N2  UNL     1      43.150  14.803  17.947  1.00  0.00    -0.357 N 
ATOM     37  H2  UNL     1      42.184  15.069  17.755  1.00  0.00     0.162 HD
BRANCH  36  38
HETATM   38  C14 UNL     1      43.410  14.350  19.258  1.00  0.00     0.161 C 
BRANCH  38  39
HETATM   39  C15 UNL     1      43.798  15.292  20.305  1.00  0.00     0.139 C 
HETATM   40  C16 UNL     1      43.445  16.777  19.973  1.00  0.00     0.040 C 
HETATM   41  C17 UNL     1      44.468  17.089  21.093  1.00  0.00     0.005 C 
HETATM   42  C18 UNL     1      45.171  15.789  20.544  1.00  0.00     0.040 C 
BRANCH  39  43
HETATM   43  N3  UNL     1      43.065  15.035  21.560  1.00  0.00    -0.069 N 
ATOM     44  H33 UNL     1      42.681  15.895  21.951  1.00  0.00     0.275 HD
ATOM     45  H32 UNL     1      42.191  14.537  21.388  1.00  0.00     0.275 HD
ATOM     46  H31 UNL     1      43.648  14.543  22.238  1.00  0.00     0.275 HD
ENDBRANCH  39  43
ENDBRANCH  38  39
ENDBRANCH  36  38
ENDBRANCH  33  34
ENDBRANCH  30  33
ENDBRANCH   1  25
TORSDOF 7
ENDMDL
MODEL 4
REMARK VINA RESULT: -9.088000818      1.206      1.449
REMARK  7 active torsions:
REMARK  status: ('A' for Active; 'I' for Inactive)
REMARK    1  A    between atoms: C4_4  and  C5_5 
REMARK    2  A    between atoms: C5_5  and  C7_7 
REMARK    3  A    between atoms: N1_12  and  C12_13 
REMARK    4  A    between atoms: C12_13  and  C13_14 
REMARK       I    between atoms: C13_14  and  N2_16 
REMARK    5  A    between atoms: N2_16  and  C14_18 
REMARK    6  A    between atoms: C14_18  and  C15_19 
REMARK    7  A    between atoms: C15_19  and  N3_20 
ROOT
HETATM    1  C5  UNL     1      45.342  22.209  18.333  1.00  0.00    -0.001 C 
HETATM    2  C6  UNL     1      46.298  22.868  19.371  1.00  0.00     0.011 C 
ENDROOT
BRANCH   1   3
HETATM    3  C4  UNL     1      44.587  21.126  18.899  1.00  0.00     0.004 C 
HETATM    4  C3  UNL     1      43.830  21.491  20.157  1.00  0.00     0.039 C 
HETATM    5  C2  UNL     1      44.473  20.825  21.291  1.00  0.00    -0.084 C 
HETATM    6  C1  UNL     1      44.337  21.086  22.575  1.00  0.00     0.015 C 
HETATM    7  C33 UNL     1      45.320  19.772  20.723  1.00  0.00     0.023 C 
HETATM    8  C20 UNL     1      45.059  19.773  19.223  1.00  0.00    -0.024 C 
HETATM    9  C32 UNL     1      44.785  18.478  21.288  1.00  0.00     0.010 C 
HETATM   10  C21 UNL     1      46.088  19.042  18.489  1.00  0.00     0.022 C 
HETATM   11  C30 UNL     1      43.812  18.856  19.145  1.00  0.00     0.000 C 
HETATM   12  C22 UNL     1      45.484  17.895  17.690  1.00  0.00    -0.019 C 
HETATM   13  C23 UNL     1      45.910  16.616  18.390  1.00  0.00     0.018 C 
HETATM   14  C24 UNL     1      45.978  17.781  16.274  1.00  0.00     0.089 C 
HETATM   15  C29 UNL     1      44.041  18.205  17.820  1.00  0.00     0.008 C 
HETATM   16  C25 UNL     1      47.332  18.328  16.000  1.00  0.00     0.033 C 
HETATM   17  N4  UNL     1      45.065  18.265  15.260  1.00  0.00    -0.349 N 
HETATM   18  C26 UNL     1      43.738  17.834  14.997  1.00  0.00     0.287 C 
ATOM     19  H4  UNL     1      45.420  19.009  14.659  1.00  0.00     0.163 HD
HETATM   20  O3  UNL     1      43.245  18.020  13.830  1.00  0.00    -0.264 OA
HETATM   21  C27 UNL     1      42.866  17.176  15.978  1.00  0.00     0.216 C 
HETATM   22  O4  UNL     1      41.867  16.567  15.528  1.00  0.00    -0.287 OA
HETATM   23  C28 UNL     1      43.053  17.161  17.482  1.00  0.00     0.095 C 
HETATM   24  C31 UNL     1      43.769  17.980  20.307  1.00  0.00     0.006 C 
ENDBRANCH   1   3
BRANCH   1  25
HETATM   25  C7  UNL     1      44.812  23.283  17.447  1.00  0.00     0.082 C 
HETATM   26  C8  UNL     1      46.034  23.844  16.617  1.00  0.00     0.014 C 
HETATM   27  C9  UNL     1      45.600  24.403  15.306  1.00  0.00     0.002 C 
HETATM   28  C10 UNL     1      46.036  23.496  14.139  1.00  0.00     0.020 C 
HETATM   29  C11 UNL     1      45.561  22.092  14.477  1.00  0.00     0.126 C 
HETATM   30  N1  UNL     1      44.252  22.109  15.149  1.00  0.00    -0.343 N 
HETATM   31  C19 UNL     1      43.930  22.899  16.321  1.00  0.00     0.224 C 
HETATM   32  O2  UNL     1      42.720  23.271  16.295  1.00  0.00    -0.273 OA
BRANCH  30  33
HETATM   33  C12 UNL     1      43.229  21.285  14.591  1.00  0.00     0.228 C 
BRANCH  33  34
HETATM   34  C13 UNL     1      42.828  21.731  13.227  1.00  0.00     0.235 C 
HETATM   35  O1  UNL     1      42.553  20.854  12.378  1.00  0.00    -0.272 OA
HETATM   36  N2  UNL     1      42.753  23.099  12.877  1.00  0.00    -0.357 N 
ATOM     37  H2  UNL     1      43.012  23.757  13.612  1.00  0.00     0.162 HD
BRANCH  36  38
HETATM   38  C14 UNL     1      42.368  23.678  11.649  1.00  0.00     0.161 C 
BRANCH  38  39
HETATM   39  C15 UNL     1      43.244  23.596  10.483  1.00  0.00     0.139 C 
HETATM   40  C16 UNL     1      44.760  23.484  10.845  1.00  0.00     0.040 C 
HETATM   41  C17 UNL     1      44.966  23.915   9.372  1.00  0.00     0.005 C 
HETATM   42  C18 UNL     1      43.646  24.737   9.632  1.00  0.00     0.040 C 
BRANCH  39  43
HETATM   43  N3  UNL     1      42.986  22.372   9.699  1.00  0.00    -0.069 N 
ATOM     44  H33 UNL     1      42.959  22.568   8.699  1.00  0.00     0.275 HD
ATOM     45  H32 UNL     1      43.787  21.741   9.715  1.00  0.00     0.275 HD
ATOM     46  H31 UNL     1      42.135  21.902  10.011  1.00  0.00     0.275 HD
ENDBRANCH  39  43
ENDBRANCH  38  39
ENDBRANCH  36  38
ENDBRANCH  33  34
ENDBRANCH  30  33
ENDBRANCH   1  25
TORSDOF 7
ENDMDL
MODEL 5
REMARK VINA RESULT: -9.042421927      1.905      2.441
REMARK  7 active torsions:
REMARK  status: ('A' for Active; 'I' for Inactive)
REMARK    1  A    between atoms: C4_4  and  C5_5 
REMARK    2  A    between atoms: C5_5  and  C7_7 
REMARK    3  A    between atoms: N1_12  and  C12_13 
REMARK    4  A    between atoms: C12_13  and  C13_14 
REMARK       I    between atoms: C13_14  and  N2_16 
REMARK    5  A    between atoms: N2_16  and  C14_18 
REMARK    6  A    between atoms: C14_18  and  C15_19 
REMARK    7  A    between atoms: C15_19  and  N3_20 
ROOT
HETATM    1  C5  UNL     1      44.748  21.361  18.224  1.00  0.00    -0.001 C 
HETATM    2  C6  UNL     1      45.893  21.869  19.150  1.00  0.00     0.011 C 
ENDROOT
BRANCH   1   3
HETATM    3  C4  UNL     1      44.142  20.155  18.718  1.00  0.00     0.004 C 
HETATM    4  C3  UNL     1      43.528  20.291  20.094  1.00  0.00     0.039 C 
HETATM    5  C2  UNL     1      44.350  19.538  21.041  1.00  0.00    -0.084 C 
HETATM    6  C1  UNL     1      44.360  19.618  22.357  1.00  0.00     0.015 C 
HETATM    7  C33 UNL     1      45.187  18.641  20.239  1.00  0.00     0.023 C 
HETATM    8  C20 UNL     1      44.739  18.815  18.794  1.00  0.00    -0.024 C 
HETATM    9  C32 UNL     1      44.813  17.245  20.676  1.00  0.00     0.010 C 
HETATM   10  C21 UNL     1      45.714  18.272  17.851  1.00  0.00     0.022 C 
HETATM   11  C30 UNL     1      43.555  17.817  18.734  1.00  0.00     0.000 C 
HETATM   12  C22 UNL     1      45.090  17.193  16.976  1.00  0.00    -0.019 C 
HETATM   13  C23 UNL     1      45.684  15.873  17.438  1.00  0.00     0.018 C 
HETATM   14  C24 UNL     1      45.408  17.305  15.510  1.00  0.00     0.089 C 
HETATM   15  C29 UNL     1      43.658  17.364  17.314  1.00  0.00     0.008 C 
HETATM   16  C25 UNL     1      46.679  17.992  15.160  1.00  0.00     0.033 C 
HETATM   17  N4  UNL     1      44.346  17.840  14.686  1.00  0.00    -0.349 N 
HETATM   18  C26 UNL     1      43.027  17.339  14.521  1.00  0.00     0.287 C 
ATOM     19  H4  UNL     1      44.572  18.682  14.158  1.00  0.00     0.163 HD
HETATM   20  O3  UNL     1      42.380  17.635  13.457  1.00  0.00    -0.264 OA
HETATM   21  C27 UNL     1      42.330  16.490  15.496  1.00  0.00     0.216 C 
HETATM   22  O4  UNL     1      41.324  15.865  15.084  1.00  0.00    -0.287 OA
HETATM   23  C28 UNL     1      42.705  16.296  16.952  1.00  0.00     0.095 C 
HETATM   24  C31 UNL     1      43.716  16.797  19.760  1.00  0.00     0.006 C 
ENDBRANCH   1   3
BRANCH   1  25
HETATM   25  C7  UNL     1      44.030  22.550  17.685  1.00  0.00     0.082 C 
HETATM   26  C8  UNL     1      44.179  23.704  18.754  1.00  0.00     0.014 C 
HETATM   27  C9  UNL     1      44.111  25.052  18.122  1.00  0.00     0.002 C 
HETATM   28  C10 UNL     1      45.490  25.738  18.119  1.00  0.00     0.020 C 
HETATM   29  C11 UNL     1      46.469  24.747  17.512  1.00  0.00     0.126 C 
HETATM   30  N1  UNL     1      45.855  23.978  16.418  1.00  0.00    -0.343 N 
HETATM   31  C19 UNL     1      44.605  23.250  16.513  1.00  0.00     0.224 C 
HETATM   32  O2  UNL     1      43.987  23.271  15.409  1.00  0.00    -0.273 OA
BRANCH  30  33
HETATM   33  C12 UNL     1      46.551  23.960  15.173  1.00  0.00     0.228 C 
BRANCH  33  34
HETATM   34  C13 UNL     1      47.079  25.304  14.803  1.00  0.00     0.235 C 
HETATM   35  O1  UNL     1      48.318  25.470  14.804  1.00  0.00    -0.272 OA
HETATM   36  N2  UNL     1      46.224  26.376  14.457  1.00  0.00    -0.357 N 
ATOM     37  H2  UNL     1      45.225  26.174  14.500  1.00  0.00     0.162 HD
BRANCH  36  38
HETATM   38  C14 UNL     1      46.566  27.687  14.062  1.00  0.00     0.161 C 
BRANCH  38  39
HETATM   39  C15 UNL     1      45.677  28.455  13.193  1.00  0.00     0.139 C 
HETATM   40  C16 UNL     1      44.793  27.568  12.260  1.00  0.00     0.040 C 
HETATM   41  C17 UNL     1      44.610  28.886  11.469  1.00  0.00     0.005 C 
HETATM   42  C18 UNL     1      46.085  29.155  11.955  1.00  0.00     0.040 C 
BRANCH  39  43
HETATM   43  N3  UNL     1      44.690  29.224  13.976  1.00  0.00    -0.069 N 
ATOM     44  H33 UNL     1      43.775  28.774  13.969  1.00  0.00     0.275 HD
ATOM     45  H32 UNL     1      44.884  29.172  14.977  1.00  0.00     0.275 HD
ATOM     46  H31 UNL     1      44.633  30.192  13.657  1.00  0.00     0.275 HD
ENDBRANCH  39  43
ENDBRANCH  38  39
ENDBRANCH  36  38
ENDBRANCH  33  34
ENDBRANCH  30  33
ENDBRANCH   1  25
TORSDOF 7
ENDMDL
