MODEL 1
REMARK VINA RESULT: -5.499839401      0.000      0.000
REMARK  2 active torsions:
REMARK  status: ('A' for Active; 'I' for Inactive)
REMARK    1  A    between atoms: C2_4  and  N2_6 
REMARK       I    between atoms: C4_8  and  N4_10 
REMARK    2  A    between atoms: N4_10  and  N5_12 
ROOT
HETATM    1  N2  UNL     1      17.322  43.193  -2.825  1.00  0.00    -0.320 N 
ATOM      2  H2  UNL     1      16.630  43.189  -3.575  1.00  0.00     0.169 HD
HETATM    3  C4  UNL     1      17.263  42.324  -1.846  1.00  0.00     0.208 C 
HETATM    4  N3  UNL     1      16.190  41.404  -1.907  1.00  0.00    -0.062 NA
HETATM    5  N4  UNL     1      18.219  42.320  -0.798  1.00  0.00    -0.274 N 
ATOM      6  H4  UNL     1      19.192  42.530  -1.023  1.00  0.00     0.189 HD
ENDROOT
BRANCH   1   7
HETATM    7  C2  UNL     1      18.371  44.130  -2.810  1.00  0.00     0.074 C 
HETATM    8  N1  UNL     1      19.177  44.197  -3.800  1.00  0.00    -0.384 N 
HETATM    9  C1  UNL     1      19.043  43.337  -4.942  1.00  0.00     0.147 C 
ATOM     10  H1  UNL     1      19.935  44.879  -3.778  1.00  0.00     0.160 HD
HETATM   11  C3  UNL     1      18.556  45.038  -1.664  1.00  0.00     0.089 C 
ENDBRANCH   1   7
BRANCH   5  12
HETATM   12  N5  UNL     1      17.886  42.044   0.507  1.00  0.00    -0.307 N 
HETATM   13  C5  UNL     1      18.523  42.383   1.550  1.00  0.00    -0.004 C 
HETATM   14  C6  UNL     1      17.962  41.965   2.865  1.00  0.00     0.064 C 
HETATM   15  C7  UNL     1      19.782  43.160   1.583  1.00  0.00     0.064 C 
ATOM     16  H5  UNL     1      17.031  41.507   0.653  1.00  0.00     0.186 HD
ENDBRANCH   5  12
TORSDOF 2
ENDMDL
MODEL 2
REMARK VINA RESULT: -5.162040849      2.382      4.383
REMARK  2 active torsions:
REMARK  status: ('A' for Active; 'I' for Inactive)
REMARK    1  A    between atoms: C2_4  and  N2_6 
REMARK       I    between atoms: C4_8  and  N4_10 
REMARK    2  A    between atoms: N4_10  and  N5_12 
ROOT
HETATM    1  N2  UNL     1      17.229  43.452  -1.777  1.00  0.00    -0.320 N 
ATOM      2  H2  UNL     1      16.738  43.762  -0.938  1.00  0.00     0.169 HD
HETATM    3  C4  UNL     1      17.170  42.205  -2.173  1.00  0.00     0.208 C 
HETATM    4  N3  UNL     1      16.393  41.341  -1.366  1.00  0.00    -0.062 NA
HETATM    5  N4  UNL     1      17.848  41.763  -3.338  1.00  0.00    -0.274 N 
ATOM      6  H4  UNL     1      17.892  42.386  -4.146  1.00  0.00     0.189 HD
ENDROOT
BRANCH   1   7
HETATM    7  C2  UNL     1      17.990  44.351  -2.547  1.00  0.00     0.074 C 
HETATM    8  N1  UNL     1      19.032  44.894  -2.043  1.00  0.00    -0.384 N 
HETATM    9  C1  UNL     1      19.456  44.612  -0.701  1.00  0.00     0.147 C 
ATOM     10  H1  UNL     1      19.576  45.545  -2.609  1.00  0.00     0.160 HD
HETATM   11  C3  UNL     1      17.603  44.677  -3.931  1.00  0.00     0.089 C 
ENDBRANCH   1   7
BRANCH   5  12
HETATM   12  N5  UNL     1      18.449  40.529  -3.422  1.00  0.00    -0.307 N 
HETATM   13  C5  UNL     1      18.625  39.830  -4.466  1.00  0.00    -0.004 C 
HETATM   14  C6  UNL     1      19.306  38.515  -4.306  1.00  0.00     0.064 C 
HETATM   15  C7  UNL     1      18.215  40.201  -5.838  1.00  0.00     0.064 C 
ATOM     16  H5  UNL     1      18.791  40.131  -2.547  1.00  0.00     0.186 HD
ENDBRANCH   5  12
TORSDOF 2
ENDMDL
MODEL 3
REMARK VINA RESULT: -5.062704892      1.373      1.614
REMARK  2 active torsions:
REMARK  status: ('A' for Active; 'I' for Inactive)
REMARK    1  A    between atoms: C2_4  and  N2_6 
REMARK       I    between atoms: C4_8  and  N4_10 
REMARK    2  A    between atoms: N4_10  and  N5_12 
ROOT
HETATM    1  N2  UNL     1      16.764  42.436  -2.856  1.00  0.00    -0.320 N 
ATOM      2  H2  UNL     1      15.826  42.341  -3.246  1.00  0.00     0.169 HD
HETATM    3  C4  UNL     1      17.044  42.004  -1.651  1.00  0.00     0.208 C 
HETATM    4  N3  UNL     1      15.969  41.409  -0.949  1.00  0.00    -0.062 NA
HETATM    5  N4  UNL     1      18.345  42.132  -1.100  1.00  0.00    -0.274 N 
ATOM      6  H4  UNL     1      19.151  42.008  -1.713  1.00  0.00     0.189 HD
ENDROOT
BRANCH   1   7
HETATM    7  C2  UNL     1      17.800  43.036  -3.596  1.00  0.00     0.074 C 
HETATM    8  N1  UNL     1      18.513  42.324  -4.382  1.00  0.00    -0.384 N 
HETATM    9  C1  UNL     1      18.288  40.914  -4.538  1.00  0.00     0.147 C 
ATOM     10  H1  UNL     1      19.262  42.768  -4.913  1.00  0.00     0.160 HD
HETATM   11  C3  UNL     1      18.076  44.478  -3.477  1.00  0.00     0.089 C 
ENDBRANCH   1   7
BRANCH   5  12
HETATM   12  N5  UNL     1      18.561  42.416   0.228  1.00  0.00    -0.307 N 
HETATM   13  C5  UNL     1      19.095  43.460   0.713  1.00  0.00    -0.004 C 
HETATM   14  C6  UNL     1      19.223  43.542   2.194  1.00  0.00     0.064 C 
HETATM   15  C7  UNL     1      19.607  44.611  -0.062  1.00  0.00     0.064 C 
ATOM     16  H5  UNL     1      18.258  41.709   0.898  1.00  0.00     0.186 HD
ENDBRANCH   5  12
TORSDOF 2
ENDMDL
MODEL 4
REMARK VINA RESULT: -4.850987550      1.452      4.709
REMARK  2 active torsions:
REMARK  status: ('A' for Active; 'I' for Inactive)
REMARK    1  A    between atoms: C2_4  and  N2_6 
REMARK       I    between atoms: C4_8  and  N4_10 
REMARK    2  A    between atoms: N4_10  and  N5_12 
ROOT
HETATM    1  N2  UNL     1      18.072  41.997   0.147  1.00  0.00    -0.320 N 
ATOM      2  H2  UNL     1      18.331  41.025   0.320  1.00  0.00     0.169 HD
HETATM    3  C4  UNL     1      17.162  42.307  -0.743  1.00  0.00     0.208 C 
HETATM    4  N3  UNL     1      16.581  41.216  -1.431  1.00  0.00    -0.062 NA
HETATM    5  N4  UNL     1      16.796  43.655  -0.992  1.00  0.00    -0.274 N 
ATOM      6  H4  UNL     1      16.753  44.304  -0.206  1.00  0.00     0.189 HD
ENDROOT
BRANCH   1   7
HETATM    7  C2  UNL     1      18.681  43.048   0.858  1.00  0.00     0.074 C 
HETATM    8  N1  UNL     1      18.448  43.188   2.107  1.00  0.00    -0.384 N 
HETATM    9  C1  UNL     1      17.575  42.296   2.817  1.00  0.00     0.147 C 
ATOM     10  H1  UNL     1      18.893  43.954   2.613  1.00  0.00     0.160 HD
HETATM   11  C3  UNL     1      19.586  43.993   0.181  1.00  0.00     0.089 C 
ENDBRANCH   1   7
BRANCH   5  12
HETATM   12  N5  UNL     1      16.497  44.120  -2.251  1.00  0.00    -0.307 N 
HETATM   13  C5  UNL     1      17.310  44.551  -3.124  1.00  0.00    -0.004 C 
HETATM   14  C6  UNL     1      16.746  45.006  -4.425  1.00  0.00     0.064 C 
HETATM   15  C7  UNL     1      18.778  44.646  -2.969  1.00  0.00     0.064 C 
ATOM     16  H5  UNL     1      15.510  44.119  -2.512  1.00  0.00     0.186 HD
ENDBRANCH   5  12
TORSDOF 2
ENDMDL
MODEL 5
REMARK VINA RESULT: -4.830997227      1.349      1.959
REMARK  2 active torsions:
REMARK  status: ('A' for Active; 'I' for Inactive)
REMARK    1  A    between atoms: C2_4  and  N2_6 
REMARK       I    between atoms: C4_8  and  N4_10 
REMARK    2  A    between atoms: N4_10  and  N5_12 
ROOT
HETATM    1  N2  UNL     1      16.739  42.895  -2.478  1.00  0.00    -0.320 N 
ATOM      2  H2  UNL     1      15.882  43.362  -2.777  1.00  0.00     0.169 HD
HETATM    3  C4  UNL     1      16.902  42.510  -1.236  1.00  0.00     0.208 C 
HETATM    4  N3  UNL     1      15.825  42.786  -0.362  1.00  0.00    -0.062 NA
HETATM    5  N4  UNL     1      18.089  41.860  -0.811  1.00  0.00    -0.274 N 
ATOM      6  H4  UNL     1      18.541  41.201  -1.445  1.00  0.00     0.189 HD
ENDROOT
BRANCH   1   7
HETATM    7  C2  UNL     1      17.783  42.643  -3.387  1.00  0.00     0.074 C 
HETATM    8  N1  UNL     1      18.537  43.602  -3.769  1.00  0.00    -0.384 N 
HETATM    9  C1  UNL     1      18.351  44.944  -3.295  1.00  0.00     0.147 C 
ATOM     10  H1  UNL     1      19.291  43.409  -4.429  1.00  0.00     0.160 HD
HETATM   11  C3  UNL     1      18.021  41.285  -3.907  1.00  0.00     0.089 C 
ENDBRANCH   1   7
BRANCH   5  12
HETATM   12  N5  UNL     1      18.654  42.085   0.423  1.00  0.00    -0.307 N 
HETATM   13  C5  UNL     1      19.297  43.112   0.798  1.00  0.00    -0.004 C 
HETATM   14  C6  UNL     1      19.819  43.126   2.193  1.00  0.00     0.064 C 
HETATM   15  C7  UNL     1      19.581  44.306  -0.028  1.00  0.00     0.064 C 
ATOM     16  H5  UNL     1      18.544  41.342   1.114  1.00  0.00     0.186 HD
ENDBRANCH   5  12
TORSDOF 2
ENDMDL
