MODEL 1
REMARK VINA RESULT: -5.423701719      0.000      0.000
REMARK  3 active torsions:
REMARK  status: ('A' for Active; 'I' for Inactive)
REMARK    1  A    between atoms: C2_2  and  N1_3 
REMARK    2  A    between atoms: N1_3  and  C3_5 
REMARK    3  A    between atoms: C5_7  and  N2_8 
ROOT
HETATM    1  C3  UNL     1      18.211  42.580  -0.835  1.00  0.00     0.281 C 
HETATM    2  C4  UNL     1      18.159  44.061  -0.736  1.00  0.00     0.087 C 
HETATM    3  C5  UNL     1      18.193  44.756  -2.080  1.00  0.00     0.196 C 
HETATM    4  C6  UNL     1      17.481  43.993  -3.166  1.00  0.00     0.004 C 
HETATM    5  C7  UNL     1      18.413  43.119  -3.968  1.00  0.00     0.018 C 
HETATM    6  C8  UNL     1      16.734  44.894  -4.129  1.00  0.00     0.018 C 
HETATM    7  C9  UNL     1      16.493  43.042  -2.474  1.00  0.00     0.245 C 
HETATM    8  N3  UNL     1      17.298  42.056  -1.826  1.00  0.00    -0.054 N 
ATOM      9  H31 UNL     1      16.709  41.330  -1.417  1.00  0.00     0.279 HD
ATOM     10  H32 UNL     1      17.805  41.502  -2.517  1.00  0.00     0.279 HD
ENDROOT
BRANCH   1  11
HETATM   11  N1  UNL     1      17.883  41.986   0.418  1.00  0.00    -0.396 N 
ATOM     12  H1  UNL     1      17.808  40.974   0.526  1.00  0.00     0.155 HD
BRANCH  11  13
HETATM   13  C2  UNL     1      17.666  42.869   1.514  1.00  0.00     0.111 C 
HETATM   14  C1  UNL     1      18.013  42.083   2.793  1.00  0.00     0.026 C 
ENDBRANCH  11  13
ENDBRANCH   1  11
BRANCH   3  15
HETATM   15  N2  UNL     1      19.582  45.053  -2.470  1.00  0.00    -0.074 N 
ATOM     16  H23 UNL     1      20.159  45.293  -1.664  1.00  0.00     0.274 HD
ATOM     17  H22 UNL     1      20.080  44.215  -2.768  1.00  0.00     0.274 HD
ATOM     18  H21 UNL     1      19.604  45.782  -3.183  1.00  0.00     0.274 HD
ENDBRANCH   3  15
TORSDOF 3
ENDMDL
MODEL 2
REMARK VINA RESULT: -4.955126769      1.367      2.480
REMARK  3 active torsions:
REMARK  status: ('A' for Active; 'I' for Inactive)
REMARK    1  A    between atoms: C2_2  and  N1_3 
REMARK    2  A    between atoms: N1_3  and  C3_5 
REMARK    3  A    between atoms: C5_7  and  N2_8 
ROOT
HETATM    1  C3  UNL     1      17.904  43.966  -0.740  1.00  0.00     0.281 C 
HETATM    2  C4  UNL     1      18.095  42.580  -1.242  1.00  0.00     0.087 C 
HETATM    3  C5  UNL     1      17.807  42.430  -2.720  1.00  0.00     0.196 C 
HETATM    4  C6  UNL     1      18.186  43.643  -3.529  1.00  0.00     0.004 C 
HETATM    5  C7  UNL     1      17.028  44.587  -3.739  1.00  0.00     0.018 C 
HETATM    6  C8  UNL     1      18.761  43.291  -4.887  1.00  0.00     0.018 C 
HETATM    7  C9  UNL     1      19.229  44.421  -2.712  1.00  0.00     0.245 C 
HETATM    8  N3  UNL     1      18.519  44.957  -1.594  1.00  0.00    -0.054 N 
ATOM      9  H31 UNL     1      19.127  45.567  -1.048  1.00  0.00     0.279 HD
ATOM     10  H32 UNL     1      17.824  45.635  -1.907  1.00  0.00     0.279 HD
ENDROOT
BRANCH   1  11
HETATM   11  N1  UNL     1      18.464  44.104   0.563  1.00  0.00    -0.396 N 
ATOM     12  H1  UNL     1      18.024  44.690   1.273  1.00  0.00     0.155 HD
BRANCH  11  13
HETATM   13  C2  UNL     1      19.664  43.387   0.830  1.00  0.00     0.111 C 
HETATM   14  C1  UNL     1      19.512  42.774   2.234  1.00  0.00     0.026 C 
ENDBRANCH  11  13
ENDBRANCH   1  11
BRANCH   3  15
HETATM   15  N2  UNL     1      16.394  42.076  -2.935  1.00  0.00    -0.074 N 
ATOM     16  H23 UNL     1      15.763  42.756  -2.511  1.00  0.00     0.274 HD
ATOM     17  H22 UNL     1      16.116  42.199  -3.909  1.00  0.00     0.274 HD
ATOM     18  H21 UNL     1      16.210  41.129  -2.605  1.00  0.00     0.274 HD
ENDBRANCH   3  15
TORSDOF 3
ENDMDL
MODEL 3
REMARK VINA RESULT: -4.721718253      1.537      4.769
REMARK  3 active torsions:
REMARK  status: ('A' for Active; 'I' for Inactive)
REMARK    1  A    between atoms: C2_2  and  N1_3 
REMARK    2  A    between atoms: N1_3  and  C3_5 
REMARK    3  A    between atoms: C5_7  and  N2_8 
ROOT
HETATM    1  C3  UNL     1      17.516  43.710  -0.526  1.00  0.00     0.281 C 
HETATM    2  C4  UNL     1      18.409  42.523  -0.557  1.00  0.00     0.087 C 
HETATM    3  C5  UNL     1      19.125  42.273   0.752  1.00  0.00     0.196 C 
HETATM    4  C6  UNL     1      18.303  42.635   1.961  1.00  0.00     0.004 C 
HETATM    5  C7  UNL     1      18.585  44.031   2.458  1.00  0.00     0.018 C 
HETATM    6  C8  UNL     1      18.499  41.675   3.118  1.00  0.00     0.018 C 
HETATM    7  C9  UNL     1      16.831  42.626   1.524  1.00  0.00     0.245 C 
HETATM    8  N3  UNL     1      16.681  43.748   0.653  1.00  0.00    -0.054 N 
ATOM      9  H31 UNL     1      15.702  43.865   0.391  1.00  0.00     0.279 HD
ATOM     10  H32 UNL     1      16.830  44.617   1.166  1.00  0.00     0.279 HD
ENDROOT
BRANCH   1  11
HETATM   11  N1  UNL     1      16.663  43.721  -1.667  1.00  0.00    -0.396 N 
ATOM     12  H1  UNL     1      15.703  44.064  -1.612  1.00  0.00     0.155 HD
BRANCH  11  13
HETATM   13  C2  UNL     1      17.209  43.231  -2.887  1.00  0.00     0.111 C 
HETATM   14  C1  UNL     1      17.797  44.447  -3.629  1.00  0.00     0.026 C 
ENDBRANCH  11  13
ENDBRANCH   1  11
BRANCH   3  15
HETATM   15  N2  UNL     1      20.422  42.969   0.770  1.00  0.00    -0.074 N 
ATOM     16  H23 UNL     1      20.989  42.695   1.571  1.00  0.00     0.274 HD
ATOM     17  H22 UNL     1      21.040  42.640   0.028  1.00  0.00     0.274 HD
ATOM     18  H21 UNL     1      20.285  43.979   0.729  1.00  0.00     0.274 HD
ENDBRANCH   3  15
TORSDOF 3
ENDMDL
MODEL 4
REMARK VINA RESULT: -4.457264484      1.488      1.683
REMARK  3 active torsions:
REMARK  status: ('A' for Active; 'I' for Inactive)
REMARK    1  A    between atoms: C2_2  and  N1_3 
REMARK    2  A    between atoms: N1_3  and  C3_5 
REMARK    3  A    between atoms: C5_7  and  N2_8 
ROOT
HETATM    1  C3  UNL     1      19.187  43.416  -0.688  1.00  0.00     0.281 C 
HETATM    2  C4  UNL     1      18.803  44.665  -1.395  1.00  0.00     0.087 C 
HETATM    3  C5  UNL     1      17.907  44.430  -2.592  1.00  0.00     0.196 C 
HETATM    4  C6  UNL     1      16.953  43.279  -2.407  1.00  0.00     0.004 C 
HETATM    5  C7  UNL     1      17.487  41.986  -2.972  1.00  0.00     0.018 C 
HETATM    6  C8  UNL     1      15.592  43.536  -3.022  1.00  0.00     0.018 C 
HETATM    7  C9  UNL     1      16.804  43.056  -0.895  1.00  0.00     0.245 C 
HETATM    8  N3  UNL     1      18.062  42.539  -0.456  1.00  0.00    -0.054 N 
ATOM      9  H31 UNL     1      18.013  42.277   0.528  1.00  0.00     0.279 HD
ATOM     10  H32 UNL     1      18.233  41.623  -0.874  1.00  0.00     0.279 HD
ENDROOT
BRANCH   1  11
HETATM   11  N1  UNL     1      19.773  43.718   0.575  1.00  0.00    -0.396 N 
ATOM     12  H1  UNL     1      20.438  44.484   0.684  1.00  0.00     0.155 HD
BRANCH  11  13
HETATM   13  C2  UNL     1      19.389  42.903   1.676  1.00  0.00     0.111 C 
HETATM   14  C1  UNL     1      18.798  43.846   2.741  1.00  0.00     0.026 C 
ENDBRANCH  11  13
ENDBRANCH   1  11
BRANCH   3  15
HETATM   15  N2  UNL     1      18.715  44.253  -3.811  1.00  0.00    -0.074 N 
ATOM     16  H23 UNL     1      19.610  44.738  -3.746  1.00  0.00     0.274 HD
ATOM     17  H22 UNL     1      19.065  43.299  -3.899  1.00  0.00     0.274 HD
ATOM     18  H21 UNL     1      18.185  44.541  -4.633  1.00  0.00     0.274 HD
ENDBRANCH   3  15
TORSDOF 3
ENDMDL
MODEL 5
REMARK VINA RESULT: -4.394327268      1.457      4.729
REMARK  3 active torsions:
REMARK  status: ('A' for Active; 'I' for Inactive)
REMARK    1  A    between atoms: C2_2  and  N1_3 
REMARK    2  A    between atoms: N1_3  and  C3_5 
REMARK    3  A    between atoms: C5_7  and  N2_8 
ROOT
HETATM    1  C3  UNL     1      17.627  42.266  -0.847  1.00  0.00     0.281 C 
HETATM    2  C4  UNL     1      17.069  43.584  -0.451  1.00  0.00     0.087 C 
HETATM    3  C5  UNL     1      17.127  43.841   1.039  1.00  0.00     0.196 C 
HETATM    4  C6  UNL     1      18.342  43.247   1.701  1.00  0.00     0.004 C 
HETATM    5  C7  UNL     1      18.076  41.881   2.284  1.00  0.00     0.018 C 
HETATM    6  C8  UNL     1      18.908  44.126   2.798  1.00  0.00     0.018 C 
HETATM    7  C9  UNL     1      19.399  43.045   0.604  1.00  0.00     0.245 C 
HETATM    8  N3  UNL     1      18.901  41.990  -0.220  1.00  0.00    -0.054 N 
ATOM      9  H31 UNL     1      19.593  41.732  -0.924  1.00  0.00     0.279 HD
ATOM     10  H32 UNL     1      18.854  41.118   0.308  1.00  0.00     0.279 HD
ENDROOT
BRANCH   1  11
HETATM   11  N1  UNL     1      17.812  42.206  -2.258  1.00  0.00    -0.396 N 
ATOM     12  H1  UNL     1      18.082  41.340  -2.725  1.00  0.00     0.155 HD
BRANCH  11  13
HETATM   13  C2  UNL     1      17.603  43.411  -2.988  1.00  0.00     0.111 C 
HETATM   14  C1  UNL     1      18.519  43.345  -4.224  1.00  0.00     0.026 C 
ENDBRANCH  11  13
ENDBRANCH   1  11
BRANCH   3  15
HETATM   15  N2  UNL     1      15.892  43.374   1.690  1.00  0.00    -0.074 N 
ATOM     16  H23 UNL     1      16.080  42.657   2.390  1.00  0.00     0.274 HD
ATOM     17  H22 UNL     1      15.494  44.084   2.304  1.00  0.00     0.274 HD
ATOM     18  H21 UNL     1      15.220  43.056   0.992  1.00  0.00     0.274 HD
ENDBRANCH   3  15
TORSDOF 3
ENDMDL
