MODEL 1
REMARK VINA RESULT: -5.925671292      0.000      0.000
REMARK  3 active torsions:
REMARK  status: ('A' for Active; 'I' for Inactive)
REMARK    1  A    between atoms: C2_2  and  N2_6 
REMARK    2  A    between atoms: N3_8  and  N4_10 
REMARK    3  A    between atoms: N4_10  and  C3_12 
ROOT
HETATM    1  N4  UNL     1      17.169  43.971  -1.098  1.00  0.00    -0.317 N 
ATOM      2  H4  UNL     1      17.775  44.765  -0.890  1.00  0.00     0.182 HD
ENDROOT
BRANCH   1   3
HETATM    3  N3  UNL     1      16.464  43.291  -0.101  1.00  0.00    -0.245 N 
HETATM    4  N2  UNL     1      16.968  42.785   0.918  1.00  0.00    -0.276 N 
ATOM      5  H2  UNL     1      16.351  42.312   1.578  1.00  0.00     0.189 HD
ATOM      6  H3  UNL     1      15.454  43.203  -0.219  1.00  0.00     0.208 HD
BRANCH   4   7
HETATM    7  C2  UNL     1      18.354  42.833   1.210  1.00  0.00     0.086 C 
HETATM    8  C1  UNL     1      18.873  43.808   2.210  1.00  0.00     0.090 C 
HETATM    9  N1  UNL     1      19.146  42.028   0.600  1.00  0.00    -0.388 N 
ATOM     10  H12 UNL     1      20.143  42.062   0.810  1.00  0.00     0.157 HD
ATOM     11  H11 UNL     1      18.790  41.360  -0.084  1.00  0.00     0.157 HD
ENDBRANCH   4   7
ENDBRANCH   1   3
BRANCH   1  12
HETATM   12  C3  UNL     1      16.981  43.469  -2.465  1.00  0.00     0.104 C 
HETATM   13  C4  UNL     1      17.473  44.436  -3.491  1.00  0.00     0.054 C 
HETATM   14  C5  UNL     1      18.854  43.987  -3.945  1.00  0.00     0.234 C 
HETATM   15  N5  UNL     1      18.688  42.763  -4.672  1.00  0.00    -0.075 N 
HETATM   16  C6  UNL     1      17.970  41.747  -3.965  1.00  0.00     0.234 C 
ATOM     17  H52 UNL     1      18.252  42.943  -5.576  1.00  0.00     0.277 HD
ATOM     18  H51 UNL     1      19.593  42.409  -4.982  1.00  0.00     0.277 HD
HETATM   19  C7  UNL     1      17.740  42.152  -2.531  1.00  0.00     0.054 C 
ENDBRANCH   1  12
TORSDOF 3
ENDMDL
MODEL 2
REMARK VINA RESULT: -5.873651031      1.089      1.214
REMARK  3 active torsions:
REMARK  status: ('A' for Active; 'I' for Inactive)
REMARK    1  A    between atoms: C2_2  and  N2_6 
REMARK    2  A    between atoms: N3_8  and  N4_10 
REMARK    3  A    between atoms: N4_10  and  C3_12 
ROOT
HETATM    1  N4  UNL     1      16.651  43.144  -1.149  1.00  0.00    -0.317 N 
ATOM      2  H4  UNL     1      16.251  43.940  -0.651  1.00  0.00     0.182 HD
ENDROOT
BRANCH   1   3
HETATM    3  N3  UNL     1      17.137  42.016  -0.481  1.00  0.00    -0.245 N 
HETATM    4  N2  UNL     1      17.967  42.032   0.446  1.00  0.00    -0.276 N 
ATOM      5  H2  UNL     1      18.249  41.142   0.858  1.00  0.00     0.189 HD
ATOM      6  H3  UNL     1      16.782  41.107  -0.779  1.00  0.00     0.208 HD
BRANCH   4   7
HETATM    7  C2  UNL     1      18.542  43.221   0.960  1.00  0.00     0.086 C 
HETATM    8  C1  UNL     1      19.562  43.961   0.165  1.00  0.00     0.090 C 
HETATM    9  N1  UNL     1      18.169  43.644   2.112  1.00  0.00    -0.388 N 
ATOM     10  H12 UNL     1      18.583  44.500   2.482  1.00  0.00     0.157 HD
ATOM     11  H11 UNL     1      17.471  43.137   2.657  1.00  0.00     0.157 HD
ENDBRANCH   4   7
ENDBRANCH   1   3
BRANCH   1  12
HETATM   12  C3  UNL     1      16.752  43.109  -2.613  1.00  0.00     0.104 C 
HETATM   13  C4  UNL     1      17.156  44.430  -3.179  1.00  0.00     0.054 C 
HETATM   14  C5  UNL     1      18.648  44.385  -3.475  1.00  0.00     0.234 C 
HETATM   15  N5  UNL     1      18.842  43.468  -4.559  1.00  0.00    -0.075 N 
HETATM   16  C6  UNL     1      18.270  42.173  -4.349  1.00  0.00     0.234 C 
ATOM     17  H52 UNL     1      18.498  43.871  -5.431  1.00  0.00     0.277 HD
ATOM     18  H51 UNL     1      19.833  43.387  -4.784  1.00  0.00     0.277 HD
HETATM   19  C7  UNL     1      17.775  42.029  -2.932  1.00  0.00     0.054 C 
ENDBRANCH   1  12
TORSDOF 3
ENDMDL
MODEL 3
REMARK VINA RESULT: -5.692669923      1.775      4.900
REMARK  3 active torsions:
REMARK  status: ('A' for Active; 'I' for Inactive)
REMARK    1  A    between atoms: C2_2  and  N2_6 
REMARK    2  A    between atoms: N3_8  and  N4_10 
REMARK    3  A    between atoms: N4_10  and  C3_12 
ROOT
HETATM    1  N4  UNL     1      17.401  42.816  -1.231  1.00  0.00    -0.317 N 
ATOM      2  H4  UNL     1      17.693  41.864  -1.456  1.00  0.00     0.182 HD
ENDROOT
BRANCH   1   3
HETATM    3  N3  UNL     1      16.573  43.561  -2.076  1.00  0.00    -0.245 N 
HETATM    4  N2  UNL     1      16.954  44.203  -3.072  1.00  0.00    -0.276 N 
ATOM      5  H2  UNL     1      16.256  44.711  -3.615  1.00  0.00     0.189 HD
ATOM      6  H3  UNL     1      15.576  43.579  -1.859  1.00  0.00     0.208 HD
BRANCH   4   7
HETATM    7  C2  UNL     1      18.307  44.265  -3.490  1.00  0.00     0.086 C 
HETATM    8  C1  UNL     1      18.795  43.364  -4.571  1.00  0.00     0.090 C 
HETATM    9  N1  UNL     1      19.095  45.105  -2.924  1.00  0.00    -0.388 N 
ATOM     10  H12 UNL     1      20.069  45.149  -3.225  1.00  0.00     0.157 HD
ATOM     11  H11 UNL     1      18.760  45.722  -2.184  1.00  0.00     0.157 HD
ENDBRANCH   4   7
ENDBRANCH   1   3
BRANCH   1  12
HETATM   12  C3  UNL     1      17.823  43.492   0.003  1.00  0.00     0.104 C 
HETATM   13  C4  UNL     1      16.882  43.234   1.134  1.00  0.00     0.054 C 
HETATM   14  C5  UNL     1      17.476  42.138   2.006  1.00  0.00     0.234 C 
HETATM   15  N5  UNL     1      18.641  42.679   2.640  1.00  0.00    -0.075 N 
HETATM   16  C6  UNL     1      19.591  43.257   1.739  1.00  0.00     0.234 C 
ATOM     17  H52 UNL     1      18.374  43.355   3.357  1.00  0.00     0.277 HD
ATOM     18  H51 UNL     1      19.088  41.973   3.224  1.00  0.00     0.277 HD
HETATM   19  C7  UNL     1      19.218  42.965   0.307  1.00  0.00     0.054 C 
ENDBRANCH   1  12
TORSDOF 3
ENDMDL
MODEL 4
REMARK VINA RESULT: -5.687909176      1.455      2.054
REMARK  3 active torsions:
REMARK  status: ('A' for Active; 'I' for Inactive)
REMARK    1  A    between atoms: C2_2  and  N2_6 
REMARK    2  A    between atoms: N3_8  and  N4_10 
REMARK    3  A    between atoms: N4_10  and  C3_12 
ROOT
HETATM    1  N4  UNL     1      17.222  42.116  -0.427  1.00  0.00    -0.317 N 
ATOM      2  H4  UNL     1      17.308  41.151  -0.107  1.00  0.00     0.182 HD
ENDROOT
BRANCH   1   3
HETATM    3  N3  UNL     1      16.490  43.073   0.282  1.00  0.00    -0.245 N 
HETATM    4  N2  UNL     1      16.737  43.452   1.442  1.00  0.00    -0.276 N 
ATOM      5  H2  UNL     1      16.131  44.159   1.858  1.00  0.00     0.189 HD
ATOM      6  H3  UNL     1      15.690  43.495  -0.190  1.00  0.00     0.208 HD
BRANCH   4   7
HETATM    7  C2  UNL     1      17.815  42.952   2.214  1.00  0.00     0.086 C 
HETATM    8  C1  UNL     1      19.147  43.616   2.153  1.00  0.00     0.090 C 
HETATM    9  N1  UNL     1      17.622  41.926   2.960  1.00  0.00    -0.388 N 
ATOM     10  H12 UNL     1      18.398  41.566   3.515  1.00  0.00     0.157 HD
ATOM     11  H11 UNL     1      16.710  41.471   3.001  1.00  0.00     0.157 HD
ENDBRANCH   4   7
ENDBRANCH   1   3
BRANCH   1  12
HETATM   12  C3  UNL     1      17.858  42.589  -1.663  1.00  0.00     0.104 C 
HETATM   13  C4  UNL     1      16.958  42.450  -2.846  1.00  0.00     0.054 C 
HETATM   14  C5  UNL     1      16.326  43.805  -3.126  1.00  0.00     0.234 C 
HETATM   15  N5  UNL     1      17.368  44.676  -3.583  1.00  0.00    -0.075 N 
HETATM   16  C6  UNL     1      18.501  44.753  -2.711  1.00  0.00     0.234 C 
ATOM     17  H52 UNL     1      17.661  44.417  -4.525  1.00  0.00     0.277 HD
ATOM     18  H51 UNL     1      16.997  45.608  -3.766  1.00  0.00     0.277 HD
HETATM   19  C7  UNL     1      18.224  44.044  -1.409  1.00  0.00     0.054 C 
ENDBRANCH   1  12
TORSDOF 3
ENDMDL
MODEL 5
REMARK VINA RESULT: -5.643493761      0.896      1.240
REMARK  3 active torsions:
REMARK  status: ('A' for Active; 'I' for Inactive)
REMARK    1  A    between atoms: C2_2  and  N2_6 
REMARK    2  A    between atoms: N3_8  and  N4_10 
REMARK    3  A    between atoms: N4_10  and  C3_12 
ROOT
HETATM    1  N4  UNL     1      17.396  44.110  -1.192  1.00  0.00    -0.317 N 
ATOM      2  H4  UNL     1      16.701  44.164  -0.448  1.00  0.00     0.182 HD
ENDROOT
BRANCH   1   3
HETATM    3  N3  UNL     1      18.698  44.595  -1.032  1.00  0.00    -0.245 N 
HETATM    4  N2  UNL     1      19.484  44.257  -0.128  1.00  0.00    -0.276 N 
ATOM      5  H2  UNL     1      20.412  44.680  -0.113  1.00  0.00     0.189 HD
ATOM      6  H3  UNL     1      19.029  45.281  -1.711  1.00  0.00     0.208 HD
BRANCH   4   7
HETATM    7  C2  UNL     1      19.158  43.315   0.880  1.00  0.00     0.086 C 
HETATM    8  C1  UNL     1      18.834  43.780   2.257  1.00  0.00     0.090 C 
HETATM    9  N1  UNL     1      19.148  42.067   0.584  1.00  0.00    -0.388 N 
ATOM     10  H12 UNL     1      18.914  41.389   1.310  1.00  0.00     0.157 HD
ATOM     11  H11 UNL     1      19.370  41.749  -0.360  1.00  0.00     0.157 HD
ENDBRANCH   4   7
ENDBRANCH   1   3
BRANCH   1  12
HETATM   12  C3  UNL     1      17.095  43.519  -2.502  1.00  0.00     0.104 C 
HETATM   13  C4  UNL     1      17.588  44.367  -3.627  1.00  0.00     0.054 C 
HETATM   14  C5  UNL     1      18.908  43.789  -4.117  1.00  0.00     0.234 C 
HETATM   15  N5  UNL     1      18.620  42.528  -4.733  1.00  0.00    -0.075 N 
HETATM   16  C6  UNL     1      17.880  41.622  -3.909  1.00  0.00     0.234 C 
ATOM     17  H52 UNL     1      18.144  42.668  -5.624  1.00  0.00     0.277 HD
ATOM     18  H51 UNL     1      19.480  42.089  -5.062  1.00  0.00     0.277 HD
HETATM   19  C7  UNL     1      17.762  42.151  -2.502  1.00  0.00     0.054 C 
ENDBRANCH   1  12
TORSDOF 3
ENDMDL
