MODEL 1
REMARK VINA RESULT: -9.264920014      0.000      0.000
REMARK  7 active torsions:
REMARK  status: ('A' for Active; 'I' for Inactive)
REMARK    1  A    between atoms: C1_2  and  N1_3 
REMARK    2  A    between atoms: N1_3  and  S1_5 
REMARK    3  A    between atoms: S1_5  and  C2_8 
REMARK    4  A    between atoms: C5_11  and  S2_12 
REMARK    5  A    between atoms: S2_12  and  N2_15 
REMARK    6  A    between atoms: N2_15  and  C6_17 
REMARK    7  A    between atoms: C6_17  and  C7_18 
ROOT
HETATM    1  C2  UNL     1      27.589  19.814  15.142  1.00  0.00     0.080 A 
HETATM    2  C3  UNL     1      28.802  20.032  15.756  1.00  0.00     0.027 A 
HETATM    3  C4  UNL     1      29.474  21.243  15.564  1.00  0.00     0.027 A 
HETATM    4  C5  UNL     1      28.955  22.238  14.769  1.00  0.00     0.079 A 
HETATM    5  C12 UNL     1      27.744  21.997  14.167  1.00  0.00     0.027 A 
HETATM    6  C13 UNL     1      27.068  20.813  14.344  1.00  0.00     0.027 A 
ENDROOT
BRANCH   4   7
HETATM    7  S2  UNL     1      29.768  23.767  14.507  1.00  0.00     0.259 S 
HETATM    8  O4  UNL     1      28.777  24.895  14.428  1.00  0.00    -0.201 OA
HETATM    9  O5  UNL     1      30.705  24.018  15.637  1.00  0.00    -0.201 OA
BRANCH   7  10
HETATM   10  N2  UNL     1      30.625  23.688  13.059  1.00  0.00    -0.311 N 
ATOM     11  H2  UNL     1      31.630  23.855  13.011  1.00  0.00     0.172 HD
BRANCH  10  12
HETATM   12  C6  UNL     1      29.850  23.371  11.905  1.00  0.00     0.172 C 
BRANCH  12  13
HETATM   13  C7  UNL     1      30.529  22.518  10.926  1.00  0.00    -0.025 A 
HETATM   14  C8  UNL     1      31.383  22.972   9.952  1.00  0.00     0.011 A 
HETATM   15  C9  UNL     1      31.975  22.092   9.075  1.00  0.00     0.018 A 
HETATM   16  C10 UNL     1      31.712  20.730   9.166  1.00  0.00     0.087 A 
HETATM   17  N3  UNL     1      30.875  20.290  10.121  1.00  0.00    -0.375 N 
HETATM   18  C11 UNL     1      30.294  21.159  10.984  1.00  0.00     0.096 A 
ATOM     19  H3  UNL     1      30.675  19.293  10.197  1.00  0.00     0.164 HD
ENDBRANCH  12  13
ENDBRANCH  10  12
ENDBRANCH   7  10
ENDBRANCH   4   7
BRANCH   1  20
HETATM   20  S1  UNL     1      26.713  18.299  15.361  1.00  0.00     0.264 S 
HETATM   21  O2  UNL     1      27.096  17.720  16.713  1.00  0.00    -0.200 OA
HETATM   22  O3  UNL     1      25.233  18.552  15.354  1.00  0.00    -0.200 OA
BRANCH  20  23
HETATM   23  N1  UNL     1      27.174  17.145  14.177  1.00  0.00    -0.258 N 
ATOM     24  H1  UNL     1      26.851  16.181  14.256  1.00  0.00     0.181 HD
BRANCH  23  25
HETATM   25  C1  UNL     1      27.999  17.523  13.094  1.00  0.00     0.363 C 
HETATM   26  O1  UNL     1      29.142  17.030  12.997  1.00  0.00    -0.283 OA
ENDBRANCH  23  25
ENDBRANCH  20  23
ENDBRANCH   1  20
TORSDOF 7
ENDMDL
MODEL 2
REMARK VINA RESULT: -9.248377315      0.893      1.072
REMARK  7 active torsions:
REMARK  status: ('A' for Active; 'I' for Inactive)
REMARK    1  A    between atoms: C1_2  and  N1_3 
REMARK    2  A    between atoms: N1_3  and  S1_5 
REMARK    3  A    between atoms: S1_5  and  C2_8 
REMARK    4  A    between atoms: C5_11  and  S2_12 
REMARK    5  A    between atoms: S2_12  and  N2_15 
REMARK    6  A    between atoms: N2_15  and  C6_17 
REMARK    7  A    between atoms: C6_17  and  C7_18 
ROOT
HETATM    1  C2  UNL     1      27.558  19.806  15.142  1.00  0.00     0.080 A 
HETATM    2  C3  UNL     1      28.775  20.023  15.750  1.00  0.00     0.027 A 
HETATM    3  C4  UNL     1      29.451  21.230  15.549  1.00  0.00     0.027 A 
HETATM    4  C5  UNL     1      28.931  22.223  14.752  1.00  0.00     0.079 A 
HETATM    5  C12 UNL     1      27.717  21.983  14.156  1.00  0.00     0.027 A 
HETATM    6  C13 UNL     1      27.038  20.802  14.342  1.00  0.00     0.027 A 
ENDROOT
BRANCH   4   7
HETATM    7  S2  UNL     1      29.749  23.748  14.479  1.00  0.00     0.259 S 
HETATM    8  O4  UNL     1      28.759  24.873  14.362  1.00  0.00    -0.201 OA
HETATM    9  O5  UNL     1      30.665  24.019  15.622  1.00  0.00    -0.201 OA
BRANCH   7  10
HETATM   10  N2  UNL     1      30.633  23.644  13.049  1.00  0.00    -0.311 N 
ATOM     11  H2  UNL     1      31.646  23.764  13.024  1.00  0.00     0.172 HD
BRANCH  10  12
HETATM   12  C6  UNL     1      29.870  23.376  11.875  1.00  0.00     0.172 C 
BRANCH  12  13
HETATM   13  C7  UNL     1      30.660  22.974  10.707  1.00  0.00    -0.025 A 
HETATM   14  C8  UNL     1      30.189  22.206   9.672  1.00  0.00     0.011 A 
HETATM   15  C9  UNL     1      31.009  21.879   8.615  1.00  0.00     0.018 A 
HETATM   16  C10 UNL     1      32.325  22.325   8.587  1.00  0.00     0.087 A 
HETATM   17  N3  UNL     1      32.781  23.077   9.603  1.00  0.00    -0.375 N 
HETATM   18  C11 UNL     1      31.972  23.398  10.643  1.00  0.00     0.096 A 
ATOM     19  H3  UNL     1      33.745  23.410   9.593  1.00  0.00     0.164 HD
ENDBRANCH  12  13
ENDBRANCH  10  12
ENDBRANCH   7  10
ENDBRANCH   4   7
BRANCH   1  20
HETATM   20  S1  UNL     1      26.677  18.295  15.374  1.00  0.00     0.264 S 
HETATM   21  O2  UNL     1      27.047  17.733  16.736  1.00  0.00    -0.200 OA
HETATM   22  O3  UNL     1      25.198  18.551  15.349  1.00  0.00    -0.200 OA
BRANCH  20  23
HETATM   23  N1  UNL     1      27.148  17.125  14.209  1.00  0.00    -0.258 N 
ATOM     24  H1  UNL     1      26.841  16.158  14.309  1.00  0.00     0.181 HD
BRANCH  23  25
HETATM   25  C1  UNL     1      27.959  17.494  13.112  1.00  0.00     0.363 C 
HETATM   26  O1  UNL     1      29.110  17.021  13.018  1.00  0.00    -0.283 OA
ENDBRANCH  23  25
ENDBRANCH  20  23
ENDBRANCH   1  20
TORSDOF 7
ENDMDL
MODEL 3
REMARK VINA RESULT: -9.103227454      4.170      7.565
REMARK  7 active torsions:
REMARK  status: ('A' for Active; 'I' for Inactive)
REMARK    1  A    between atoms: C1_2  and  N1_3 
REMARK    2  A    between atoms: N1_3  and  S1_5 
REMARK    3  A    between atoms: S1_5  and  C2_8 
REMARK    4  A    between atoms: C5_11  and  S2_12 
REMARK    5  A    between atoms: S2_12  and  N2_15 
REMARK    6  A    between atoms: N2_15  and  C6_17 
REMARK    7  A    between atoms: C6_17  and  C7_18 
ROOT
HETATM    1  C2  UNL     1      31.384  22.090   8.640  1.00  0.00     0.080 A 
HETATM    2  C3  UNL     1      32.103  22.865   9.524  1.00  0.00     0.027 A 
HETATM    3  C4  UNL     1      31.558  23.190  10.770  1.00  0.00     0.027 A 
HETATM    4  C5  UNL     1      30.309  22.754  11.147  1.00  0.00     0.079 A 
HETATM    5  C12 UNL     1      29.612  21.983  10.249  1.00  0.00     0.027 A 
HETATM    6  C13 UNL     1      30.131  21.654   9.019  1.00  0.00     0.027 A 
ENDROOT
BRANCH   4   7
HETATM    7  S2  UNL     1      29.596  23.141  12.700  1.00  0.00     0.259 S 
HETATM    8  O4  UNL     1      30.617  23.040  13.798  1.00  0.00    -0.201 OA
HETATM    9  O5  UNL     1      29.060  24.530  12.656  1.00  0.00    -0.201 OA
BRANCH   7  10
HETATM   10  N2  UNL     1      28.347  22.055  13.011  1.00  0.00    -0.311 N 
ATOM     11  H2  UNL     1      27.721  21.720  12.278  1.00  0.00     0.172 HD
BRANCH  10  12
HETATM   12  C6  UNL     1      28.224  21.635  14.368  1.00  0.00     0.172 C 
BRANCH  12  13
HETATM   13  C7  UNL     1      27.218  20.594  14.600  1.00  0.00    -0.025 A 
HETATM   14  C8  UNL     1      27.392  19.507  15.419  1.00  0.00     0.011 A 
HETATM   15  C9  UNL     1      26.387  18.580  15.574  1.00  0.00     0.018 A 
HETATM   16  C10 UNL     1      25.181  18.735  14.899  1.00  0.00     0.087 A 
HETATM   17  N3  UNL     1      25.016  19.801  14.098  1.00  0.00    -0.375 N 
HETATM   18  C11 UNL     1      26.007  20.714  13.947  1.00  0.00     0.096 A 
ATOM     19  H3  UNL     1      24.135  19.925  13.598  1.00  0.00     0.164 HD
ENDBRANCH  12  13
ENDBRANCH  10  12
ENDBRANCH   7  10
ENDBRANCH   4   7
BRANCH   1  20
HETATM   20  S1  UNL     1      32.040  21.661   7.060  1.00  0.00     0.264 S 
HETATM   21  O2  UNL     1      32.321  20.168   7.052  1.00  0.00    -0.200 OA
HETATM   22  O3  UNL     1      31.036  21.963   5.985  1.00  0.00    -0.200 OA
BRANCH  20  23
HETATM   23  N1  UNL     1      33.539  22.450   6.782  1.00  0.00    -0.258 N 
ATOM     24  H1  UNL     1      33.935  23.054   7.502  1.00  0.00     0.181 HD
BRANCH  23  25
HETATM   25  C1  UNL     1      34.227  22.268   5.561  1.00  0.00     0.363 C 
HETATM   26  O1  UNL     1      35.159  21.440   5.504  1.00  0.00    -0.283 OA
ENDBRANCH  23  25
ENDBRANCH  20  23
ENDBRANCH   1  20
TORSDOF 7
ENDMDL
MODEL 4
REMARK VINA RESULT: -9.075698143      3.444      6.623
REMARK  7 active torsions:
REMARK  status: ('A' for Active; 'I' for Inactive)
REMARK    1  A    between atoms: C1_2  and  N1_3 
REMARK    2  A    between atoms: N1_3  and  S1_5 
REMARK    3  A    between atoms: S1_5  and  C2_8 
REMARK    4  A    between atoms: C5_11  and  S2_12 
REMARK    5  A    between atoms: S2_12  and  N2_15 
REMARK    6  A    between atoms: N2_15  and  C6_17 
REMARK    7  A    between atoms: C6_17  and  C7_18 
ROOT
HETATM    1  C2  UNL     1      30.588  21.099  10.109  1.00  0.00     0.080 A 
HETATM    2  C3  UNL     1      29.324  21.592  10.345  1.00  0.00     0.027 A 
HETATM    3  C4  UNL     1      28.470  20.930  11.233  1.00  0.00     0.027 A 
HETATM    4  C5  UNL     1      28.859  19.784  11.888  1.00  0.00     0.079 A 
HETATM    5  C12 UNL     1      30.125  19.312  11.636  1.00  0.00     0.027 A 
HETATM    6  C13 UNL     1      30.977  19.949  10.766  1.00  0.00     0.027 A 
ENDROOT
BRANCH   4   7
HETATM    7  S2  UNL     1      27.818  18.929  13.007  1.00  0.00     0.259 S 
HETATM    8  O4  UNL     1      26.385  19.351  12.835  1.00  0.00    -0.201 OA
HETATM    9  O5  UNL     1      27.931  17.466  12.755  1.00  0.00    -0.201 OA
BRANCH   7  10
HETATM   10  N2  UNL     1      28.307  19.278  14.581  1.00  0.00    -0.311 N 
ATOM     11  H2  UNL     1      28.808  18.603  15.158  1.00  0.00     0.172 HD
BRANCH  10  12
HETATM   12  C6  UNL     1      27.972  20.582  15.052  1.00  0.00     0.172 C 
BRANCH  12  13
HETATM   13  C7  UNL     1      29.033  21.581  14.898  1.00  0.00    -0.025 A 
HETATM   14  C8  UNL     1      28.844  22.856  14.425  1.00  0.00     0.011 A 
HETATM   15  C9  UNL     1      29.905  23.725  14.316  1.00  0.00     0.018 A 
HETATM   16  C10 UNL     1      31.183  23.320  14.684  1.00  0.00     0.087 A 
HETATM   17  N3  UNL     1      31.363  22.071  15.147  1.00  0.00    -0.375 N 
HETATM   18  C11 UNL     1      30.316  21.216  15.254  1.00  0.00     0.096 A 
ATOM     19  H3  UNL     1      32.296  21.763  15.420  1.00  0.00     0.164 HD
ENDBRANCH  12  13
ENDBRANCH  10  12
ENDBRANCH   7  10
ENDBRANCH   4   7
BRANCH   1  20
HETATM   20  S1  UNL     1      31.692  21.908   8.996  1.00  0.00     0.264 S 
HETATM   21  O2  UNL     1      30.944  22.181   7.701  1.00  0.00    -0.200 OA
HETATM   22  O3  UNL     1      32.138  23.219   9.574  1.00  0.00    -0.200 OA
BRANCH  20  23
HETATM   23  N1  UNL     1      33.018  20.893   8.599  1.00  0.00    -0.258 N 
ATOM     24  H1  UNL     1      33.445  20.312   9.321  1.00  0.00     0.181 HD
BRANCH  23  25
HETATM   25  C1  UNL     1      33.523  20.858   7.280  1.00  0.00     0.363 C 
HETATM   26  O1  UNL     1      33.548  19.772   6.666  1.00  0.00    -0.283 OA
ENDBRANCH  23  25
ENDBRANCH  20  23
ENDBRANCH   1  20
TORSDOF 7
ENDMDL
MODEL 5
REMARK VINA RESULT: -9.004350893      3.495      6.698
REMARK  7 active torsions:
REMARK  status: ('A' for Active; 'I' for Inactive)
REMARK    1  A    between atoms: C1_2  and  N1_3 
REMARK    2  A    between atoms: N1_3  and  S1_5 
REMARK    3  A    between atoms: S1_5  and  C2_8 
REMARK    4  A    between atoms: C5_11  and  S2_12 
REMARK    5  A    between atoms: S2_12  and  N2_15 
REMARK    6  A    between atoms: N2_15  and  C6_17 
REMARK    7  A    between atoms: C6_17  and  C7_18 
ROOT
HETATM    1  C2  UNL     1      30.419  21.104  10.649  1.00  0.00     0.080 A 
HETATM    2  C3  UNL     1      30.617  19.916  11.318  1.00  0.00     0.027 A 
HETATM    3  C4  UNL     1      29.606  19.394  12.129  1.00  0.00     0.027 A 
HETATM    4  C5  UNL     1      28.401  20.039  12.285  1.00  0.00     0.079 A 
HETATM    5  C12 UNL     1      28.227  21.222  11.608  1.00  0.00     0.027 A 
HETATM    6  C13 UNL     1      29.210  21.751  10.806  1.00  0.00     0.027 A 
ENDROOT
BRANCH   4   7
HETATM    7  S2  UNL     1      27.111  19.414  13.292  1.00  0.00     0.259 S 
HETATM    8  O4  UNL     1      25.767  19.719  12.692  1.00  0.00    -0.201 OA
HETATM    9  O5  UNL     1      27.266  17.938  13.419  1.00  0.00    -0.201 OA
BRANCH   7  10
HETATM   10  N2  UNL     1      27.209  20.134  14.812  1.00  0.00    -0.311 N 
ATOM     11  H2  UNL     1      26.560  20.861  15.113  1.00  0.00     0.172 HD
BRANCH  10  12
HETATM   12  C6  UNL     1      28.260  19.657  15.648  1.00  0.00     0.172 C 
BRANCH  12  13
HETATM   13  C7  UNL     1      29.293  20.650  15.961  1.00  0.00    -0.025 A 
HETATM   14  C8  UNL     1      29.672  21.673  15.129  1.00  0.00     0.011 A 
HETATM   15  C9  UNL     1      30.654  22.558  15.511  1.00  0.00     0.018 A 
HETATM   16  C10 UNL     1      31.275  22.423  16.747  1.00  0.00     0.087 A 
HETATM   17  N3  UNL     1      30.901  21.419  17.558  1.00  0.00    -0.375 N 
HETATM   18  C11 UNL     1      29.933  20.549  17.180  1.00  0.00     0.096 A 
ATOM     19  H3  UNL     1      31.350  21.311  18.468  1.00  0.00     0.164 HD
ENDBRANCH  12  13
ENDBRANCH  10  12
ENDBRANCH   7  10
ENDBRANCH   4   7
BRANCH   1  20
HETATM   20  S1  UNL     1      31.673  21.792   9.617  1.00  0.00     0.264 S 
HETATM   21  O2  UNL     1      31.991  23.189  10.122  1.00  0.00    -0.200 OA
HETATM   22  O3  UNL     1      32.921  20.961   9.697  1.00  0.00    -0.200 OA
BRANCH  20  23
HETATM   23  N1  UNL     1      31.115  21.962   8.002  1.00  0.00    -0.258 N 
ATOM     24  H1  UNL     1      30.203  22.381   7.823  1.00  0.00     0.181 HD
BRANCH  23  25
HETATM   25  C1  UNL     1      31.911  21.524   6.921  1.00  0.00     0.363 C 
HETATM   26  O1  UNL     1      31.430  21.526   5.769  1.00  0.00    -0.283 OA
ENDBRANCH  23  25
ENDBRANCH  20  23
ENDBRANCH   1  20
TORSDOF 7
ENDMDL
