MODEL 1
REMARK VINA RESULT: -8.930761133      0.000      0.000
REMARK  9 active torsions:
REMARK  status: ('A' for Active; 'I' for Inactive)
REMARK    1  A    between atoms: N1_4  and  C3_5 
REMARK    2  A    between atoms: C3_5  and  C4_6 
REMARK    3  A    between atoms: C11_13  and  C12_14 
REMARK    4  A    between atoms: C12_14  and  C13_15 
REMARK    5  A    between atoms: C13_15  and  O2_16 
REMARK    6  A    between atoms: N2_18  and  C14_19 
REMARK    7  A    between atoms: N3_22  and  C17_23 
REMARK    8  A    between atoms: C17_23  and  C18_24 
REMARK    9  A    between atoms: C18_24  and  O3_25 
ROOT
HETATM    1  O1  UNL     1      30.057  17.863  11.508  1.00  0.00    -0.267 OA
HETATM    2  C1  UNL     1      29.923  19.086  11.663  1.00  0.00     0.259 C 
HETATM    3  C2  UNL     1      30.651  19.998  10.742  1.00  0.00     0.160 C 
HETATM    4  N1  UNL     1      30.383  21.371  10.891  1.00  0.00    -0.379 N 
HETATM    5  C10 UNL     1      29.594  21.795  11.996  1.00  0.00     0.148 C 
HETATM    6  C11 UNL     1      28.435  20.868  12.323  1.00  0.00     0.108 C 
HETATM    7  N2  UNL     1      29.090  19.602  12.706  1.00  0.00    -0.335 N 
ENDROOT
BRANCH   7   8
HETATM    8  C14 UNL     1      28.931  18.991  13.976  1.00  0.00     0.107 C 
HETATM    9  C15 UNL     1      27.796  17.990  14.016  1.00  0.00     0.046 C 
HETATM   10  C16 UNL     1      27.089  18.221  15.330  1.00  0.00     0.119 C 
HETATM   11  N3  UNL     1      27.771  19.257  16.017  1.00  0.00    -0.408 N 
HETATM   12  C19 UNL     1      28.743  19.851  15.167  1.00  0.00     0.142 C 
BRANCH  11  13
HETATM   13  C17 UNL     1      28.123  19.029  17.366  1.00  0.00     0.143 C 
BRANCH  13  14
HETATM   14  C18 UNL     1      29.346  19.698  17.879  1.00  0.00     0.183 C 
BRANCH  14  15
HETATM   15  O3  UNL     1      29.218  20.411  19.041  1.00  0.00    -0.399 OA
ATOM     16  H3  UNL     1      28.998  19.919  19.823  1.00  0.00     0.209 HD
ENDBRANCH  14  15
ENDBRANCH  13  14
ENDBRANCH  11  13
ENDBRANCH   7   8
BRANCH   6  17
HETATM   17  C12 UNL     1      27.498  20.717  11.181  1.00  0.00     0.053 C 
BRANCH  17  18
HETATM   18  C13 UNL     1      26.235  19.979  11.547  1.00  0.00     0.166 C 
BRANCH  18  19
HETATM   19  O2  UNL     1      25.735  20.420  12.781  1.00  0.00    -0.401 OA
ATOM     20  H2  UNL     1      25.348  21.283  12.701  1.00  0.00     0.209 HD
ENDBRANCH  18  19
ENDBRANCH  17  18
ENDBRANCH   6  17
BRANCH   4  21
HETATM   21  C3  UNL     1      30.254  22.157   9.715  1.00  0.00     0.160 C 
BRANCH  21  22
HETATM   22  C4  UNL     1      31.449  22.283   8.874  1.00  0.00    -0.040 A 
HETATM   23  C5  UNL     1      32.540  22.956   9.444  1.00  0.00     0.009 A 
HETATM   24  C6  UNL     1      33.708  23.121   8.734  1.00  0.00     0.001 A 
HETATM   25  C7  UNL     1      33.751  22.600   7.454  1.00  0.00     0.000 A 
HETATM   26  C8  UNL     1      32.692  21.943   6.892  1.00  0.00     0.001 A 
HETATM   27  C9  UNL     1      31.521  21.778   7.606  1.00  0.00     0.009 A 
ENDBRANCH  21  22
ENDBRANCH   4  21
TORSDOF 9
ENDMDL
MODEL 2
REMARK VINA RESULT: -8.556724471      1.993      2.802
REMARK  9 active torsions:
REMARK  status: ('A' for Active; 'I' for Inactive)
REMARK    1  A    between atoms: N1_4  and  C3_5 
REMARK    2  A    between atoms: C3_5  and  C4_6 
REMARK    3  A    between atoms: C11_13  and  C12_14 
REMARK    4  A    between atoms: C12_14  and  C13_15 
REMARK    5  A    between atoms: C13_15  and  O2_16 
REMARK    6  A    between atoms: N2_18  and  C14_19 
REMARK    7  A    between atoms: N3_22  and  C17_23 
REMARK    8  A    between atoms: C17_23  and  C18_24 
REMARK    9  A    between atoms: C18_24  and  O3_25 
ROOT
HETATM    1  O1  UNL     1      26.867  20.679  11.266  1.00  0.00    -0.267 OA
HETATM    2  C1  UNL     1      28.078  20.901  11.415  1.00  0.00     0.259 C 
HETATM    3  C2  UNL     1      28.885  21.244  10.215  1.00  0.00     0.160 C 
HETATM    4  N1  UNL     1      30.228  21.592  10.451  1.00  0.00    -0.379 N 
HETATM    5  C10 UNL     1      30.754  21.424  11.762  1.00  0.00     0.148 C 
HETATM    6  C11 UNL     1      29.784  21.791  12.872  1.00  0.00     0.108 C 
HETATM    7  N2  UNL     1      28.679  20.825  12.712  1.00  0.00    -0.335 N 
ENDROOT
BRANCH   7   8
HETATM    8  C14 UNL     1      28.287  19.910  13.721  1.00  0.00     0.107 C 
HETATM    9  C15 UNL     1      28.434  18.462  13.300  1.00  0.00     0.046 C 
HETATM   10  C16 UNL     1      27.197  17.759  13.805  1.00  0.00     0.119 C 
HETATM   11  N3  UNL     1      26.401  18.711  14.490  1.00  0.00    -0.408 N 
HETATM   12  C19 UNL     1      26.927  20.018  14.297  1.00  0.00     0.142 C 
BRANCH  11  13
HETATM   13  C17 UNL     1      25.932  18.370  15.778  1.00  0.00     0.143 C 
BRANCH  13  14
HETATM   14  C18 UNL     1      26.912  17.798  16.737  1.00  0.00     0.183 C 
BRANCH  14  15
HETATM   15  O3  UNL     1      26.476  16.765  17.522  1.00  0.00    -0.399 OA
ATOM     16  H3  UNL     1      26.867  16.687  18.384  1.00  0.00     0.209 HD
ENDBRANCH  14  15
ENDBRANCH  13  14
ENDBRANCH  11  13
ENDBRANCH   7   8
BRANCH   6  17
HETATM   17  C12 UNL     1      29.339  23.205  12.784  1.00  0.00     0.053 C 
BRANCH  17  18
HETATM   18  C13 UNL     1      29.211  23.869  14.132  1.00  0.00     0.166 C 
BRANCH  18  19
HETATM   19  O2  UNL     1      28.800  25.203  13.996  1.00  0.00    -0.401 OA
ATOM     20  H2  UNL     1      27.926  25.326  14.344  1.00  0.00     0.209 HD
ENDBRANCH  18  19
ENDBRANCH  17  18
ENDBRANCH   6  17
BRANCH   4  21
HETATM   21  C3  UNL     1      30.779  22.670   9.709  1.00  0.00     0.160 C 
BRANCH  21  22
HETATM   22  C4  UNL     1      31.655  22.315   8.587  1.00  0.00    -0.040 A 
HETATM   23  C5  UNL     1      31.016  21.928   7.399  1.00  0.00     0.009 A 
HETATM   24  C6  UNL     1      31.754  21.580   6.290  1.00  0.00     0.001 A 
HETATM   25  C7  UNL     1      33.131  21.630   6.403  1.00  0.00     0.000 A 
HETATM   26  C8  UNL     1      33.761  22.006   7.557  1.00  0.00     0.001 A 
HETATM   27  C9  UNL     1      33.019  22.355   8.669  1.00  0.00     0.009 A 
ENDBRANCH  21  22
ENDBRANCH   4  21
TORSDOF 9
ENDMDL
MODEL 3
REMARK VINA RESULT: -8.497448332      1.645      2.628
REMARK  9 active torsions:
REMARK  status: ('A' for Active; 'I' for Inactive)
REMARK    1  A    between atoms: N1_4  and  C3_5 
REMARK    2  A    between atoms: C3_5  and  C4_6 
REMARK    3  A    between atoms: C11_13  and  C12_14 
REMARK    4  A    between atoms: C12_14  and  C13_15 
REMARK    5  A    between atoms: C13_15  and  O2_16 
REMARK    6  A    between atoms: N2_18  and  C14_19 
REMARK    7  A    between atoms: N3_22  and  C17_23 
REMARK    8  A    between atoms: C17_23  and  C18_24 
REMARK    9  A    between atoms: C18_24  and  O3_25 
ROOT
HETATM    1  O1  UNL     1      26.556  20.706  12.604  1.00  0.00    -0.267 OA
HETATM    2  C1  UNL     1      27.729  20.722  12.200  1.00  0.00     0.259 C 
HETATM    3  C2  UNL     1      27.979  21.064  10.776  1.00  0.00     0.160 C 
HETATM    4  N1  UNL     1      29.330  21.173  10.394  1.00  0.00    -0.379 N 
HETATM    5  C10 UNL     1      30.334  20.786  11.325  1.00  0.00     0.148 C 
HETATM    6  C11 UNL     1      30.031  21.177  12.763  1.00  0.00     0.108 C 
HETATM    7  N2  UNL     1      28.809  20.415  13.088  1.00  0.00    -0.335 N 
ENDROOT
BRANCH   7   8
HETATM    8  C14 UNL     1      28.733  19.468  14.140  1.00  0.00     0.107 C 
HETATM    9  C15 UNL     1      28.123  18.150  13.710  1.00  0.00     0.046 C 
HETATM   10  C16 UNL     1      27.199  17.739  14.831  1.00  0.00     0.119 C 
HETATM   11  N3  UNL     1      27.280  18.722  15.848  1.00  0.00    -0.408 N 
HETATM   12  C19 UNL     1      28.031  19.839  15.390  1.00  0.00     0.142 C 
BRANCH  11  13
HETATM   13  C17 UNL     1      27.491  18.282  17.173  1.00  0.00     0.143 C 
BRANCH  13  14
HETATM   14  C18 UNL     1      28.499  19.010  17.987  1.00  0.00     0.183 C 
BRANCH  14  15
HETATM   15  O3  UNL     1      28.632  18.625  19.293  1.00  0.00    -0.399 OA
ATOM     16  H3  UNL     1      29.460  18.822  19.715  1.00  0.00     0.209 HD
ENDBRANCH  14  15
ENDBRANCH  13  14
ENDBRANCH  11  13
ENDBRANCH   7   8
BRANCH   6  17
HETATM   17  C12 UNL     1      29.864  22.643  12.923  1.00  0.00     0.053 C 
BRANCH  17  18
HETATM   18  C13 UNL     1      30.399  23.159  14.235  1.00  0.00     0.166 C 
BRANCH  18  19
HETATM   19  O2  UNL     1      31.615  23.834  14.051  1.00  0.00    -0.401 OA
ATOM     20  H2  UNL     1      32.332  23.356  14.449  1.00  0.00     0.209 HD
ENDBRANCH  18  19
ENDBRANCH  17  18
ENDBRANCH   6  17
BRANCH   4  21
HETATM   21  C3  UNL     1      29.692  22.228   9.515  1.00  0.00     0.160 C 
BRANCH  21  22
HETATM   22  C4  UNL     1      31.079  22.237   9.036  1.00  0.00    -0.040 A 
HETATM   23  C5  UNL     1      31.361  21.412   7.937  1.00  0.00     0.009 A 
HETATM   24  C6  UNL     1      32.633  21.355   7.414  1.00  0.00     0.001 A 
HETATM   25  C7  UNL     1      33.601  22.137   8.015  1.00  0.00     0.000 A 
HETATM   26  C8  UNL     1      33.334  22.943   9.087  1.00  0.00     0.001 A 
HETATM   27  C9  UNL     1      32.057  23.000   9.611  1.00  0.00     0.009 A 
ENDBRANCH  21  22
ENDBRANCH   4  21
TORSDOF 9
ENDMDL
MODEL 4
REMARK VINA RESULT: -8.359803079      2.316      7.898
REMARK  9 active torsions:
REMARK  status: ('A' for Active; 'I' for Inactive)
REMARK    1  A    between atoms: N1_4  and  C3_5 
REMARK    2  A    between atoms: C3_5  and  C4_6 
REMARK    3  A    between atoms: C11_13  and  C12_14 
REMARK    4  A    between atoms: C12_14  and  C13_15 
REMARK    5  A    between atoms: C13_15  and  O2_16 
REMARK    6  A    between atoms: N2_18  and  C14_19 
REMARK    7  A    between atoms: N3_22  and  C17_23 
REMARK    8  A    between atoms: C17_23  and  C18_24 
REMARK    9  A    between atoms: C18_24  and  O3_25 
ROOT
HETATM    1  O1  UNL     1      29.161  22.262   9.715  1.00  0.00    -0.267 OA
HETATM    2  C1  UNL     1      29.596  21.629  10.688  1.00  0.00     0.259 C 
HETATM    3  C2  UNL     1      28.947  21.833  12.009  1.00  0.00     0.160 C 
HETATM    4  N1  UNL     1      29.406  21.014  13.058  1.00  0.00    -0.379 N 
HETATM    5  C10 UNL     1      30.548  20.196  12.832  1.00  0.00     0.148 C 
HETATM    6  C11 UNL     1      30.600  19.569  11.449  1.00  0.00     0.108 C 
HETATM    7  N2  UNL     1      30.698  20.728  10.538  1.00  0.00    -0.335 N 
ENDROOT
BRANCH   7   8
HETATM    8  C14 UNL     1      31.780  20.932   9.644  1.00  0.00     0.107 C 
HETATM    9  C15 UNL     1      32.522  22.228   9.895  1.00  0.00     0.046 C 
HETATM   10  C16 UNL     1      32.800  22.813   8.531  1.00  0.00     0.119 C 
HETATM   11  N3  UNL     1      32.286  21.919   7.558  1.00  0.00    -0.408 N 
HETATM   12  C19 UNL     1      31.521  20.899   8.187  1.00  0.00     0.142 C 
BRANCH  11  13
HETATM   13  C17 UNL     1      33.137  21.548   6.493  1.00  0.00     0.143 C 
BRANCH  13  14
HETATM   14  C18 UNL     1      34.050  20.396   6.714  1.00  0.00     0.183 C 
BRANCH  14  15
HETATM   15  O3  UNL     1      34.568  19.798   5.597  1.00  0.00    -0.399 OA
ATOM     16  H3  UNL     1      35.221  19.122   5.737  1.00  0.00     0.209 HD
ENDBRANCH  14  15
ENDBRANCH  13  14
ENDBRANCH  11  13
ENDBRANCH   7   8
BRANCH   6  17
HETATM   17  C12 UNL     1      29.419  18.712  11.176  1.00  0.00     0.053 C 
BRANCH  17  18
HETATM   18  C13 UNL     1      29.637  17.268  11.551  1.00  0.00     0.166 C 
BRANCH  18  19
HETATM   19  O2  UNL     1      29.200  17.019  12.860  1.00  0.00    -0.401 OA
ATOM     20  H2  UNL     1      28.303  17.307  12.979  1.00  0.00     0.209 HD
ENDBRANCH  18  19
ENDBRANCH  17  18
ENDBRANCH   6  17
BRANCH   4  21
HETATM   21  C3  UNL     1      28.446  20.481  13.958  1.00  0.00     0.160 C 
BRANCH  21  22
HETATM   22  C4  UNL     1      28.861  20.354  15.360  1.00  0.00    -0.040 A 
HETATM   23  C5  UNL     1      28.167  19.405  16.128  1.00  0.00     0.009 A 
HETATM   24  C6  UNL     1      28.487  19.210  17.452  1.00  0.00     0.001 A 
HETATM   25  C7  UNL     1      29.505  19.981  17.979  1.00  0.00     0.000 A 
HETATM   26  C8  UNL     1      30.185  20.907  17.238  1.00  0.00     0.001 A 
HETATM   27  C9  UNL     1      29.864  21.102  15.909  1.00  0.00     0.009 A 
ENDBRANCH  21  22
ENDBRANCH   4  21
TORSDOF 9
ENDMDL
MODEL 5
REMARK VINA RESULT: -8.285287588      2.330      7.697
REMARK  9 active torsions:
REMARK  status: ('A' for Active; 'I' for Inactive)
REMARK    1  A    between atoms: N1_4  and  C3_5 
REMARK    2  A    between atoms: C3_5  and  C4_6 
REMARK    3  A    between atoms: C11_13  and  C12_14 
REMARK    4  A    between atoms: C12_14  and  C13_15 
REMARK    5  A    between atoms: C13_15  and  O2_16 
REMARK    6  A    between atoms: N2_18  and  C14_19 
REMARK    7  A    between atoms: N3_22  and  C17_23 
REMARK    8  A    between atoms: C17_23  and  C18_24 
REMARK    9  A    between atoms: C18_24  and  O3_25 
ROOT
HETATM    1  O1  UNL     1      31.314  18.781  11.734  1.00  0.00    -0.267 OA
HETATM    2  C1  UNL     1      30.367  19.518  11.422  1.00  0.00     0.259 C 
HETATM    3  C2  UNL     1      28.998  19.124  11.844  1.00  0.00     0.160 C 
HETATM    4  N1  UNL     1      27.973  20.045  11.560  1.00  0.00    -0.379 N 
HETATM    5  C10 UNL     1      28.280  21.177  10.754  1.00  0.00     0.148 C 
HETATM    6  C11 UNL     1      29.643  21.788  11.034  1.00  0.00     0.108 C 
HETATM    7  N2  UNL     1      30.592  20.716  10.673  1.00  0.00    -0.335 N 
ENDROOT
BRANCH   7   8
HETATM    8  C14 UNL     1      31.589  20.858   9.674  1.00  0.00     0.107 C 
HETATM    9  C15 UNL     1      32.541  22.005   9.942  1.00  0.00     0.046 C 
HETATM   10  C16 UNL     1      32.755  22.682   8.610  1.00  0.00     0.119 C 
HETATM   11  N3  UNL     1      32.010  21.973   7.634  1.00  0.00    -0.408 N 
HETATM   12  C19 UNL     1      31.172  21.011   8.262  1.00  0.00     0.142 C 
BRANCH  11  13
HETATM   13  C17 UNL     1      32.674  21.598   6.445  1.00  0.00     0.143 C 
BRANCH  13  14
HETATM   14  C18 UNL     1      34.000  20.941   6.578  1.00  0.00     0.183 C 
BRANCH  14  15
HETATM   15  O3  UNL     1      34.067  19.614   6.248  1.00  0.00    -0.399 OA
ATOM     16  H3  UNL     1      33.707  18.998   6.876  1.00  0.00     0.209 HD
ENDBRANCH  14  15
ENDBRANCH  13  14
ENDBRANCH  11  13
ENDBRANCH   7   8
BRANCH   6  17
HETATM   17  C12 UNL     1      29.779  22.236  12.443  1.00  0.00     0.053 C 
BRANCH  17  18
HETATM   18  C13 UNL     1      30.168  23.687  12.567  1.00  0.00     0.166 C 
BRANCH  18  19
HETATM   19  O2  UNL     1      29.072  24.469  12.962  1.00  0.00    -0.401 OA
ATOM     20  H2  UNL     1      28.254  24.037  12.750  1.00  0.00     0.209 HD
ENDBRANCH  18  19
ENDBRANCH  17  18
ENDBRANCH   6  17
BRANCH   4  21
HETATM   21  C3  UNL     1      26.971  20.254  12.544  1.00  0.00     0.160 C 
BRANCH  21  22
HETATM   22  C4  UNL     1      27.283  19.804  13.905  1.00  0.00    -0.040 A 
HETATM   23  C5  UNL     1      26.757  18.558  14.282  1.00  0.00     0.009 A 
HETATM   24  C6  UNL     1      26.999  18.049  15.537  1.00  0.00     0.001 A 
HETATM   25  C7  UNL     1      27.771  18.811  16.394  1.00  0.00     0.000 A 
HETATM   26  C8  UNL     1      28.286  20.025  16.035  1.00  0.00     0.001 A 
HETATM   27  C9  UNL     1      28.044  20.536  14.774  1.00  0.00     0.009 A 
ENDBRANCH  21  22
ENDBRANCH   4  21
TORSDOF 9
ENDMDL
