MODEL 1
REMARK VINA RESULT: -8.401000340      0.000      0.000
REMARK  9 active torsions:
REMARK  status: ('A' for Active; 'I' for Inactive)
REMARK    1  A    between atoms: C3_3  and  N1_4 
REMARK    2  A    between atoms: N1_4  and  C4_6 
REMARK    3  A    between atoms: C4_6  and  C5_7 
REMARK    4  A    between atoms: C5_7  and  N2_8 
REMARK    5  A    between atoms: C11_16  and  N4_17 
REMARK    6  A    between atoms: N4_17  and  C12_18 
REMARK    7  A    between atoms: C12_18  and  C13_19 
REMARK    8  A    between atoms: C13_19  and  C14_20 
REMARK    9  A    between atoms: C14_20  and  N5_21 
ROOT
HETATM    1  C1  UNL     1      32.281  23.386  17.039  1.00  0.00     0.096 A 
HETATM    2  C2  UNL     1      32.022  23.789  15.738  1.00  0.00     0.065 A 
HETATM    3  C3  UNL     1      31.137  23.085  14.990  1.00  0.00     0.105 A 
HETATM    4  N3  UNL     1      30.519  21.996  15.532  1.00  0.00    -0.302 N 
ATOM      5  H3  UNL     1      29.854  21.470  14.965  1.00  0.00     0.171 HD
HETATM    6  C11 UNL     1      30.769  21.590  16.815  1.00  0.00     0.259 A 
HETATM    7  N6  UNL     1      31.658  22.313  17.543  1.00  0.00    -0.326 N 
ATOM      8  H6  UNL     1      31.858  22.031  18.503  1.00  0.00     0.169 HD
ENDROOT
BRANCH   3   9
HETATM    9  N1  UNL     1      30.873  23.421  13.791  1.00  0.00    -0.375 N 
ATOM     10  H1  UNL     1      31.535  24.008  13.283  1.00  0.00     0.161 HD
BRANCH   9  11
HETATM   11  C4  UNL     1      29.671  22.998  13.137  1.00  0.00     0.140 C 
BRANCH  11  12
HETATM   12  C5  UNL     1      29.935  23.127  11.642  1.00  0.00     0.136 C 
BRANCH  12  13
HETATM   13  N2  UNL     1      29.354  22.077  10.889  1.00  0.00    -0.411 N 
HETATM   14  C6  UNL     1      29.358  22.212   9.469  1.00  0.00     0.117 C 
HETATM   15  C7  UNL     1      30.769  22.024   8.966  1.00  0.00     0.019 C 
HETATM   16  C8  UNL     1      31.345  20.706   9.391  1.00  0.00     0.003 C 
HETATM   17  C9  UNL     1      31.074  20.368  10.827  1.00  0.00     0.019 C 
HETATM   18  C10 UNL     1      29.685  20.747  11.266  1.00  0.00     0.117 C 
ENDBRANCH  12  13
ENDBRANCH  11  12
ENDBRANCH   9  11
ENDBRANCH   3   9
BRANCH   6  19
HETATM   19  N4  UNL     1      30.227  20.638  17.254  1.00  0.00    -0.388 NA
BRANCH  19  20
HETATM   20  C12 UNL     1      29.588  19.630  17.867  1.00  0.00     0.161 C 
BRANCH  20  21
HETATM   21  C13 UNL     1      28.154  19.330  17.625  1.00  0.00     0.089 C 
BRANCH  21  22
HETATM   22  C14 UNL     1      27.750  18.533  16.462  1.00  0.00     0.279 C 
BRANCH  22  23
HETATM   23  N5  UNL     1      27.864  19.093  15.161  1.00  0.00     0.092 N 
HETATM   24  C15 UNL     1      27.041  18.245  14.268  1.00  0.00     0.298 C 
HETATM   25  C16 UNL     1      25.637  18.773  14.283  1.00  0.00     0.198 C 
HETATM   26  O1  UNL     1      25.512  19.928  13.479  1.00  0.00    -0.388 OA
HETATM   27  C17 UNL     1      26.745  20.561  13.554  1.00  0.00     0.198 C 
HETATM   28  C18 UNL     1      27.322  20.421  14.984  1.00  0.00     0.298 C 
ENDBRANCH  22  23
ENDBRANCH  21  22
ENDBRANCH  20  21
ENDBRANCH  19  20
ENDBRANCH   6  19
TORSDOF 9
ENDMDL
MODEL 2
REMARK VINA RESULT: -8.148389699      3.682      8.141
REMARK  9 active torsions:
REMARK  status: ('A' for Active; 'I' for Inactive)
REMARK    1  A    between atoms: C3_3  and  N1_4 
REMARK    2  A    between atoms: N1_4  and  C4_6 
REMARK    3  A    between atoms: C4_6  and  C5_7 
REMARK    4  A    between atoms: C5_7  and  N2_8 
REMARK    5  A    between atoms: C11_16  and  N4_17 
REMARK    6  A    between atoms: N4_17  and  C12_18 
REMARK    7  A    between atoms: C12_18  and  C13_19 
REMARK    8  A    between atoms: C13_19  and  C14_20 
REMARK    9  A    between atoms: C14_20  and  N5_21 
ROOT
HETATM    1  C1  UNL     1      29.899  22.181   9.735  1.00  0.00     0.096 A 
HETATM    2  C2  UNL     1      29.227  22.441  10.918  1.00  0.00     0.065 A 
HETATM    3  C3  UNL     1      29.851  23.145  11.895  1.00  0.00     0.105 A 
HETATM    4  N3  UNL     1      31.127  23.581  11.694  1.00  0.00    -0.302 N 
ATOM      5  H3  UNL     1      31.593  24.111  12.432  1.00  0.00     0.171 HD
HETATM    6  C11 UNL     1      31.801  23.328  10.529  1.00  0.00     0.259 A 
HETATM    7  N6  UNL     1      31.152  22.623   9.567  1.00  0.00    -0.326 N 
ATOM      8  H6  UNL     1      31.633  22.425   8.690  1.00  0.00     0.169 HD
ENDROOT
BRANCH   3   9
HETATM    9  N1  UNL     1      29.268  23.404  12.997  1.00  0.00    -0.375 N 
ATOM     10  H1  UNL     1      28.623  24.193  13.044  1.00  0.00     0.161 HD
BRANCH   9  11
HETATM   11  C4  UNL     1      29.493  22.616  14.172  1.00  0.00     0.140 C 
BRANCH  11  12
HETATM   12  C5  UNL     1      28.165  21.942  14.491  1.00  0.00     0.136 C 
BRANCH  12  13
HETATM   13  N2  UNL     1      27.996  20.711  13.810  1.00  0.00    -0.411 N 
HETATM   14  C6  UNL     1      28.282  19.518  14.538  1.00  0.00     0.117 C 
HETATM   15  C7  UNL     1      27.196  19.299  15.563  1.00  0.00     0.019 C 
HETATM   16  C8  UNL     1      25.835  19.242  14.933  1.00  0.00     0.003 C 
HETATM   17  C9  UNL     1      25.606  20.306  13.901  1.00  0.00     0.019 C 
HETATM   18  C10 UNL     1      26.813  20.554  13.037  1.00  0.00     0.117 C 
ENDBRANCH  12  13
ENDBRANCH  11  12
ENDBRANCH   9  11
ENDBRANCH   3   9
BRANCH   6  19
HETATM   19  N4  UNL     1      32.908  23.711  10.388  1.00  0.00    -0.388 NA
BRANCH  19  20
HETATM   20  C12 UNL     1      34.165  24.085  10.103  1.00  0.00     0.161 C 
BRANCH  20  21
HETATM   21  C13 UNL     1      34.598  24.441   8.729  1.00  0.00     0.089 C 
BRANCH  21  22
HETATM   22  C14 UNL     1      34.863  23.391   7.740  1.00  0.00     0.279 C 
BRANCH  22  23
HETATM   23  N5  UNL     1      33.781  22.618   7.240  1.00  0.00     0.092 N 
HETATM   24  C15 UNL     1      34.071  22.370   5.809  1.00  0.00     0.298 C 
HETATM   25  C16 UNL     1      34.901  21.124   5.708  1.00  0.00     0.198 C 
HETATM   26  O1  UNL     1      34.110  19.964   5.858  1.00  0.00    -0.388 OA
HETATM   27  C17 UNL     1      33.083  20.330   6.717  1.00  0.00     0.198 C 
HETATM   28  C18 UNL     1      33.624  21.296   7.801  1.00  0.00     0.298 C 
ENDBRANCH  22  23
ENDBRANCH  21  22
ENDBRANCH  20  21
ENDBRANCH  19  20
ENDBRANCH   6  19
TORSDOF 9
ENDMDL
MODEL 3
REMARK VINA RESULT: -7.952398828      1.581      2.084
REMARK  9 active torsions:
REMARK  status: ('A' for Active; 'I' for Inactive)
REMARK    1  A    between atoms: C3_3  and  N1_4 
REMARK    2  A    between atoms: N1_4  and  C4_6 
REMARK    3  A    between atoms: C4_6  and  C5_7 
REMARK    4  A    between atoms: C5_7  and  N2_8 
REMARK    5  A    between atoms: C11_16  and  N4_17 
REMARK    6  A    between atoms: N4_17  and  C12_18 
REMARK    7  A    between atoms: C12_18  and  C13_19 
REMARK    8  A    between atoms: C13_19  and  C14_20 
REMARK    9  A    between atoms: C14_20  and  N5_21 
ROOT
HETATM    1  C1  UNL     1      32.031  23.193  16.472  1.00  0.00     0.096 A 
HETATM    2  C2  UNL     1      31.941  23.750  15.206  1.00  0.00     0.065 A 
HETATM    3  C3  UNL     1      31.016  23.275  14.336  1.00  0.00     0.105 A 
HETATM    4  N3  UNL     1      30.192  22.259  14.724  1.00  0.00    -0.302 N 
ATOM      5  H3  UNL     1      29.497  21.905  14.066  1.00  0.00     0.171 HD
HETATM    6  C11 UNL     1      30.273  21.702  15.972  1.00  0.00     0.259 A 
HETATM    7  N6  UNL     1      31.208  22.197  16.824  1.00  0.00    -0.326 N 
ATOM      8  H6  UNL     1      31.284  21.799  17.760  1.00  0.00     0.169 HD
ENDROOT
BRANCH   3   9
HETATM    9  N1  UNL     1      30.903  23.759  13.164  1.00  0.00    -0.375 N 
ATOM     10  H1  UNL     1      31.477  24.560  12.901  1.00  0.00     0.161 HD
BRANCH   9  11
HETATM   11  C4  UNL     1      29.991  23.209  12.206  1.00  0.00     0.140 C 
BRANCH  11  12
HETATM   12  C5  UNL     1      30.801  22.972  10.939  1.00  0.00     0.136 C 
BRANCH  12  13
HETATM   13  N2  UNL     1      30.433  21.780  10.265  1.00  0.00    -0.411 N 
HETATM   14  C6  UNL     1      29.921  21.911   8.941  1.00  0.00     0.117 C 
HETATM   15  C7  UNL     1      31.053  22.289   8.016  1.00  0.00     0.019 C 
HETATM   16  C8  UNL     1      32.177  21.297   8.072  1.00  0.00     0.003 C 
HETATM   17  C9  UNL     1      32.537  20.876   9.466  1.00  0.00     0.019 C 
HETATM   18  C10 UNL     1      31.333  20.683  10.349  1.00  0.00     0.117 C 
ENDBRANCH  12  13
ENDBRANCH  11  12
ENDBRANCH   9  11
ENDBRANCH   3   9
BRANCH   6  19
HETATM   19  N4  UNL     1      29.553  20.817  16.276  1.00  0.00    -0.388 NA
BRANCH  19  20
HETATM   20  C12 UNL     1      28.797  19.813  16.744  1.00  0.00     0.161 C 
BRANCH  20  21
HETATM   21  C13 UNL     1      27.688  19.216  15.958  1.00  0.00     0.089 C 
BRANCH  21  22
HETATM   22  C14 UNL     1      27.243  19.845  14.710  1.00  0.00     0.279 C 
BRANCH  22  23
HETATM   23  N5  UNL     1      27.340  19.120  13.492  1.00  0.00     0.092 N 
HETATM   24  C15 UNL     1      28.333  19.835  12.658  1.00  0.00     0.298 C 
HETATM   25  C16 UNL     1      29.695  19.303  12.990  1.00  0.00     0.198 C 
HETATM   26  O1  UNL     1      29.923  18.051  12.375  1.00  0.00    -0.388 OA
HETATM   27  C17 UNL     1      28.677  17.443  12.311  1.00  0.00     0.198 C 
HETATM   28  C18 UNL     1      27.863  17.776  13.586  1.00  0.00     0.298 C 
ENDBRANCH  22  23
ENDBRANCH  21  22
ENDBRANCH  20  21
ENDBRANCH  19  20
ENDBRANCH   6  19
TORSDOF 9
ENDMDL
MODEL 4
REMARK VINA RESULT: -7.923238547      2.056      4.689
REMARK  9 active torsions:
REMARK  status: ('A' for Active; 'I' for Inactive)
REMARK    1  A    between atoms: C3_3  and  N1_4 
REMARK    2  A    between atoms: N1_4  and  C4_6 
REMARK    3  A    between atoms: C4_6  and  C5_7 
REMARK    4  A    between atoms: C5_7  and  N2_8 
REMARK    5  A    between atoms: C11_16  and  N4_17 
REMARK    6  A    between atoms: N4_17  and  C12_18 
REMARK    7  A    between atoms: C12_18  and  C13_19 
REMARK    8  A    between atoms: C13_19  and  C14_20 
REMARK    9  A    between atoms: C14_20  and  N5_21 
ROOT
HETATM    1  C1  UNL     1      26.068  20.495  13.560  1.00  0.00     0.096 A 
HETATM    2  C2  UNL     1      26.798  20.032  12.478  1.00  0.00     0.065 A 
HETATM    3  C3  UNL     1      27.968  19.382  12.695  1.00  0.00     0.105 A 
HETATM    4  N3  UNL     1      28.403  19.197  13.975  1.00  0.00    -0.302 N 
ATOM      5  H3  UNL     1      29.283  18.707  14.134  1.00  0.00     0.171 HD
HETATM    6  C11 UNL     1      27.689  19.652  15.051  1.00  0.00     0.259 A 
HETATM    7  N6  UNL     1      26.521  20.298  14.805  1.00  0.00    -0.326 N 
ATOM      8  H6  UNL     1      25.971  20.643  15.592  1.00  0.00     0.169 HD
ENDROOT
BRANCH   3   9
HETATM    9  N1  UNL     1      28.668  18.942  11.727  1.00  0.00    -0.375 N 
ATOM     10  H1  UNL     1      28.210  18.722  10.843  1.00  0.00     0.161 HD
BRANCH   9  11
HETATM   11  C4  UNL     1      30.082  18.747  11.848  1.00  0.00     0.140 C 
BRANCH  11  12
HETATM   12  C5  UNL     1      30.721  20.103  11.580  1.00  0.00     0.136 C 
BRANCH  12  13
HETATM   13  N2  UNL     1      30.365  20.639  10.317  1.00  0.00    -0.411 N 
HETATM   14  C6  UNL     1      29.742  21.921  10.304  1.00  0.00     0.117 C 
HETATM   15  C7  UNL     1      30.773  22.968  10.652  1.00  0.00     0.019 C 
HETATM   16  C8  UNL     1      31.951  22.924   9.724  1.00  0.00     0.003 C 
HETATM   17  C9  UNL     1      32.445  21.534   9.447  1.00  0.00     0.019 C 
HETATM   18  C10 UNL     1      31.328  20.539   9.277  1.00  0.00     0.117 C 
ENDBRANCH  12  13
ENDBRANCH  11  12
ENDBRANCH   9  11
ENDBRANCH   3   9
BRANCH   6  19
HETATM   19  N4  UNL     1      28.096  19.485  16.147  1.00  0.00    -0.388 NA
BRANCH  19  20
HETATM   20  C12 UNL     1      28.682  19.335  17.344  1.00  0.00     0.161 C 
BRANCH  20  21
HETATM   21  C13 UNL     1      29.677  20.302  17.872  1.00  0.00     0.089 C 
BRANCH  21  22
HETATM   22  C14 UNL     1      30.650  20.929  16.972  1.00  0.00     0.279 C 
BRANCH  22  23
HETATM   23  N5  UNL     1      30.297  22.124  16.290  1.00  0.00     0.092 N 
HETATM   24  C15 UNL     1      31.271  23.154  16.720  1.00  0.00     0.298 C 
HETATM   25  C16 UNL     1      32.461  23.082  15.808  1.00  0.00     0.198 C 
HETATM   26  O1  UNL     1      32.196  23.699  14.565  1.00  0.00    -0.388 OA
HETATM   27  C17 UNL     1      30.840  23.504  14.342  1.00  0.00     0.198 C 
HETATM   28  C18 UNL     1      30.419  22.103  14.850  1.00  0.00     0.298 C 
ENDBRANCH  22  23
ENDBRANCH  21  22
ENDBRANCH  20  21
ENDBRANCH  19  20
ENDBRANCH   6  19
TORSDOF 9
ENDMDL
MODEL 5
REMARK VINA RESULT: -7.837553877      3.761      8.025
REMARK  9 active torsions:
REMARK  status: ('A' for Active; 'I' for Inactive)
REMARK    1  A    between atoms: C3_3  and  N1_4 
REMARK    2  A    between atoms: N1_4  and  C4_6 
REMARK    3  A    between atoms: C4_6  and  C5_7 
REMARK    4  A    between atoms: C5_7  and  N2_8 
REMARK    5  A    between atoms: C11_16  and  N4_17 
REMARK    6  A    between atoms: N4_17  and  C12_18 
REMARK    7  A    between atoms: C12_18  and  C13_19 
REMARK    8  A    between atoms: C13_19  and  C14_20 
REMARK    9  A    between atoms: C14_20  and  N5_21 
ROOT
HETATM    1  C1  UNL     1      29.949  22.180   9.883  1.00  0.00     0.096 A 
HETATM    2  C2  UNL     1      29.263  22.624  11.002  1.00  0.00     0.065 A 
HETATM    3  C3  UNL     1      29.893  23.431  11.889  1.00  0.00     0.105 A 
HETATM    4  N3  UNL     1      31.190  23.791  11.664  1.00  0.00    -0.302 N 
ATOM      5  H3  UNL     1      31.660  24.399  12.334  1.00  0.00     0.171 HD
HETATM    6  C11 UNL     1      31.877  23.357  10.562  1.00  0.00     0.259 A 
HETATM    7  N6  UNL     1      31.221  22.550   9.688  1.00  0.00    -0.326 N 
ATOM      8  H6  UNL     1      31.712  22.217   8.859  1.00  0.00     0.169 HD
ENDROOT
BRANCH   3   9
HETATM    9  N1  UNL     1      29.298  23.859  12.930  1.00  0.00    -0.375 N 
ATOM     10  H1  UNL     1      28.553  24.549  12.828  1.00  0.00     0.161 HD
BRANCH   9  11
HETATM   11  C4  UNL     1      29.647  23.399  14.241  1.00  0.00     0.140 C 
BRANCH  11  12
HETATM   12  C5  UNL     1      28.671  22.277  14.569  1.00  0.00     0.136 C 
BRANCH  12  13
HETATM   13  N2  UNL     1      29.319  21.094  15.006  1.00  0.00    -0.411 N 
HETATM   14  C6  UNL     1      28.634  20.291  15.964  1.00  0.00     0.117 C 
HETATM   15  C7  UNL     1      27.470  19.609  15.287  1.00  0.00     0.019 C 
HETATM   16  C8  UNL     1      27.907  18.796  14.104  1.00  0.00     0.003 C 
HETATM   17  C9  UNL     1      28.901  19.499  13.227  1.00  0.00     0.019 C 
HETATM   18  C10 UNL     1      29.923  20.281  14.009  1.00  0.00     0.117 C 
ENDBRANCH  12  13
ENDBRANCH  11  12
ENDBRANCH   9  11
ENDBRANCH   3   9
BRANCH   6  19
HETATM   19  N4  UNL     1      33.001  23.677  10.398  1.00  0.00    -0.388 NA
BRANCH  19  20
HETATM   20  C12 UNL     1      34.232  24.129  10.117  1.00  0.00     0.161 C 
BRANCH  20  21
HETATM   21  C13 UNL     1      34.659  24.471   8.736  1.00  0.00     0.089 C 
BRANCH  21  22
HETATM   22  C14 UNL     1      34.911  23.411   7.754  1.00  0.00     0.279 C 
BRANCH  22  23
HETATM   23  N5  UNL     1      33.818  22.655   7.252  1.00  0.00     0.092 N 
HETATM   24  C15 UNL     1      34.097  22.422   5.816  1.00  0.00     0.298 C 
HETATM   25  C16 UNL     1      34.915  21.170   5.695  1.00  0.00     0.198 C 
HETATM   26  O1  UNL     1      34.113  20.015   5.835  1.00  0.00    -0.388 OA
HETATM   27  C17 UNL     1      33.095  20.381   6.705  1.00  0.00     0.198 C 
HETATM   28  C18 UNL     1      33.651  21.327   7.798  1.00  0.00     0.298 C 
ENDBRANCH  22  23
ENDBRANCH  21  22
ENDBRANCH  20  21
ENDBRANCH  19  20
ENDBRANCH   6  19
TORSDOF 9
ENDMDL
