MODEL 1
REMARK VINA RESULT: -9.118208853      0.000      0.000
REMARK  10 active torsions:
REMARK  status: ('A' for Active; 'I' for Inactive)
REMARK    1  A    between atoms: O1_1  and  N1_3 
REMARK    2  A    between atoms: C2_7  and  N3_8 
REMARK    3  A    between atoms: N3_8  and  C3_10 
REMARK    4  A    between atoms: C3_10  and  C4_11 
REMARK    5  A    between atoms: C4_11  and  C5_12 
REMARK    6  A    between atoms: C5_12  and  N4_13 
REMARK    7  A    between atoms: C9_21  and  N7_22 
REMARK    8  A    between atoms: N7_22  and  C10_24 
REMARK    9  A    between atoms: C10_24  and  C11_25 
REMARK   10  A    between atoms: C11_25  and  C12_26 
ROOT
HETATM    1  N1  UNL     1      31.570  22.611  16.651  1.00  0.00    -0.047 N 
HETATM    2  C1  UNL     1      32.012  23.772  16.139  1.00  0.00     0.249 A 
HETATM    3  N2  UNL     1      31.746  24.104  14.847  1.00  0.00    -0.184 N 
ATOM      4  H2  UNL     1      32.093  24.991  14.480  1.00  0.00     0.185 HD
HETATM    5  C2  UNL     1      31.040  23.299  14.044  1.00  0.00     0.693 A 
HETATM    6  N6  UNL     1      30.587  22.118  14.561  1.00  0.00    -0.020 N 
ATOM      7  H6  UNL     1      30.045  21.476  13.982  1.00  0.00     0.203 HD
HETATM    8  C9  UNL     1      30.859  21.814  15.826  1.00  0.00     0.720 A 
ENDROOT
BRANCH   5   9
HETATM    9  N3  UNL     1      30.767  23.565  12.834  1.00  0.00    -0.225 N 
ATOM     10  H3  UNL     1      31.506  23.961  12.255  1.00  0.00     0.177 HD
BRANCH   9  11
HETATM   11  C3  UNL     1      29.480  23.344  12.224  1.00  0.00     0.139 C 
BRANCH  11  12
HETATM   12  C4  UNL     1      29.674  22.602  10.923  1.00  0.00     0.042 C 
BRANCH  12  13
HETATM   13  C5  UNL     1      28.691  21.461  10.773  1.00  0.00     0.150 C 
BRANCH  13  14
HETATM   14  N4  UNL     1      29.356  20.276  11.331  1.00  0.00    -0.304 N 
HETATM   15  C6  UNL     1      28.707  19.195  11.795  1.00  0.00     0.111 A 
HETATM   16  C7  UNL     1      29.698  18.310  12.230  1.00  0.00     0.037 A 
HETATM   17  C8  UNL     1      30.919  18.899  12.010  1.00  0.00     0.108 A 
HETATM   18  N5  UNL     1      30.671  20.097  11.461  1.00  0.00    -0.310 N 
ATOM     19  H5  UNL     1      31.383  20.772  11.182  1.00  0.00     0.186 HD
ENDBRANCH  13  14
ENDBRANCH  12  13
ENDBRANCH  11  12
ENDBRANCH   9  11
ENDBRANCH   5   9
BRANCH   8  20
HETATM   20  N7  UNL     1      30.425  20.691  16.306  1.00  0.00    -0.223 N 
ATOM     21  H7  UNL     1      31.020  19.865  16.243  1.00  0.00     0.177 HD
BRANCH  20  22
HETATM   22  C10 UNL     1      29.123  20.569  16.928  1.00  0.00     0.142 C 
BRANCH  22  23
HETATM   23  C11 UNL     1      28.497  19.246  16.521  1.00  0.00     0.058 C 
BRANCH  23  24
HETATM   24  C12 UNL     1      27.370  19.515  15.590  1.00  0.00    -0.057 A 
HETATM   25  C13 UNL     1      26.318  18.649  15.438  1.00  0.00     0.007 A 
HETATM   26  C14 UNL     1      25.267  18.911  14.562  1.00  0.00     0.001 A 
HETATM   27  C15 UNL     1      25.286  20.085  13.822  1.00  0.00     0.000 A 
HETATM   28  C16 UNL     1      26.322  20.969  13.953  1.00  0.00     0.001 A 
HETATM   29  C17 UNL     1      27.352  20.685  14.829  1.00  0.00     0.007 A 
ENDBRANCH  23  24
ENDBRANCH  22  23
ENDBRANCH  20  22
ENDBRANCH   8  20
BRANCH   1  30
HETATM   30  O1  UNL     1      31.820  22.239  17.959  1.00  0.00    -0.269 OA
ATOM     31  H1  UNL     1      32.121  21.369  18.189  1.00  0.00     0.246 HD
ENDBRANCH   1  30
TORSDOF 10
ENDMDL
MODEL 2
REMARK VINA RESULT: -9.082798831      3.004      6.859
REMARK  10 active torsions:
REMARK  status: ('A' for Active; 'I' for Inactive)
REMARK    1  A    between atoms: O1_1  and  N1_3 
REMARK    2  A    between atoms: C2_7  and  N3_8 
REMARK    3  A    between atoms: N3_8  and  C3_10 
REMARK    4  A    between atoms: C3_10  and  C4_11 
REMARK    5  A    between atoms: C4_11  and  C5_12 
REMARK    6  A    between atoms: C5_12  and  N4_13 
REMARK    7  A    between atoms: C9_21  and  N7_22 
REMARK    8  A    between atoms: N7_22  and  C10_24 
REMARK    9  A    between atoms: C10_24  and  C11_25 
REMARK   10  A    between atoms: C11_25  and  C12_26 
ROOT
HETATM    1  N1  UNL     1      29.951  22.657  13.340  1.00  0.00    -0.047 N 
HETATM    2  C1  UNL     1      28.930  22.963  14.158  1.00  0.00     0.249 A 
HETATM    3  N2  UNL     1      27.785  22.229  14.140  1.00  0.00    -0.184 N 
ATOM      4  H2  UNL     1      27.022  22.481  14.770  1.00  0.00     0.185 HD
HETATM    5  C2  UNL     1      27.632  21.183  13.318  1.00  0.00     0.693 A 
HETATM    6  N6  UNL     1      28.668  20.867  12.486  1.00  0.00    -0.020 N 
ATOM      7  H6  UNL     1      28.591  20.078  11.845  1.00  0.00     0.203 HD
HETATM    8  C9  UNL     1      29.776  21.599  12.520  1.00  0.00     0.720 A 
ENDROOT
BRANCH   5   9
HETATM    9  N3  UNL     1      26.585  20.469  13.266  1.00  0.00    -0.225 N 
ATOM     10  H3  UNL     1      25.748  20.881  12.852  1.00  0.00     0.177 HD
BRANCH   9  11
HETATM   11  C3  UNL     1      26.499  19.115  13.751  1.00  0.00     0.139 C 
BRANCH  11  12
HETATM   12  C4  UNL     1      26.353  19.140  15.254  1.00  0.00     0.042 C 
BRANCH  12  13
HETATM   13  C5  UNL     1      27.209  18.085  15.921  1.00  0.00     0.150 C 
BRANCH  13  14
HETATM   14  N4  UNL     1      28.024  18.793  16.918  1.00  0.00    -0.304 N 
HETATM   15  C6  UNL     1      28.840  19.821  16.633  1.00  0.00     0.111 A 
HETATM   16  C7  UNL     1      29.419  20.200  17.847  1.00  0.00     0.037 A 
HETATM   17  C8  UNL     1      28.925  19.375  18.828  1.00  0.00     0.108 A 
HETATM   18  N5  UNL     1      28.077  18.529  18.224  1.00  0.00    -0.310 N 
ATOM     19  H5  UNL     1      27.549  17.794  18.694  1.00  0.00     0.186 HD
ENDBRANCH  13  14
ENDBRANCH  12  13
ENDBRANCH  11  12
ENDBRANCH   9  11
ENDBRANCH   5   9
BRANCH   8  20
HETATM   20  N7  UNL     1      30.753  21.291  11.726  1.00  0.00    -0.223 N 
ATOM     21  H7  UNL     1      31.709  21.346  12.076  1.00  0.00     0.177 HD
BRANCH  20  22
HETATM   22  C10 UNL     1      30.533  20.871  10.357  1.00  0.00     0.142 C 
BRANCH  22  23
HETATM   23  C11 UNL     1      30.379  22.100   9.476  1.00  0.00     0.058 C 
BRANCH  23  24
HETATM   24  C12 UNL     1      31.573  22.213   8.599  1.00  0.00    -0.057 A 
HETATM   25  C13 UNL     1      32.734  22.817   9.010  1.00  0.00     0.007 A 
HETATM   26  C14 UNL     1      33.847  22.918   8.180  1.00  0.00     0.001 A 
HETATM   27  C15 UNL     1      33.779  22.390   6.898  1.00  0.00     0.000 A 
HETATM   28  C16 UNL     1      32.636  21.780   6.460  1.00  0.00     0.001 A 
HETATM   29  C17 UNL     1      31.545  21.693   7.305  1.00  0.00     0.007 A 
ENDBRANCH  23  24
ENDBRANCH  22  23
ENDBRANCH  20  22
ENDBRANCH   8  20
BRANCH   1  30
HETATM   30  O1  UNL     1      31.130  23.379  13.330  1.00  0.00    -0.269 OA
ATOM     31  H1  UNL     1      31.960  22.990  13.085  1.00  0.00     0.246 HD
ENDBRANCH   1  30
TORSDOF 10
ENDMDL
MODEL 3
REMARK VINA RESULT: -8.989287536      2.911      6.007
REMARK  10 active torsions:
REMARK  status: ('A' for Active; 'I' for Inactive)
REMARK    1  A    between atoms: O1_1  and  N1_3 
REMARK    2  A    between atoms: C2_7  and  N3_8 
REMARK    3  A    between atoms: N3_8  and  C3_10 
REMARK    4  A    between atoms: C3_10  and  C4_11 
REMARK    5  A    between atoms: C4_11  and  C5_12 
REMARK    6  A    between atoms: C5_12  and  N4_13 
REMARK    7  A    between atoms: C9_21  and  N7_22 
REMARK    8  A    between atoms: N7_22  and  C10_24 
REMARK    9  A    between atoms: C10_24  and  C11_25 
REMARK   10  A    between atoms: C11_25  and  C12_26 
ROOT
HETATM    1  N1  UNL     1      30.607  23.082  14.033  1.00  0.00    -0.047 N 
HETATM    2  C1  UNL     1      30.149  22.458  15.132  1.00  0.00     0.249 A 
HETATM    3  N2  UNL     1      28.914  21.887  15.139  1.00  0.00    -0.184 N 
ATOM      4  H2  UNL     1      28.588  21.420  15.985  1.00  0.00     0.185 HD
HETATM    5  C2  UNL     1      28.116  21.923  14.065  1.00  0.00     0.693 A 
HETATM    6  N6  UNL     1      28.578  22.555  12.945  1.00  0.00    -0.020 N 
ATOM      7  H6  UNL     1      28.001  22.604  12.106  1.00  0.00     0.203 HD
HETATM    8  C9  UNL     1      29.787  23.105  12.961  1.00  0.00     0.720 A 
ENDROOT
BRANCH   5   9
HETATM    9  N3  UNL     1      26.959  21.405  14.024  1.00  0.00    -0.225 N 
ATOM     10  H3  UNL     1      26.242  21.884  13.478  1.00  0.00     0.177 HD
BRANCH   9  11
HETATM   11  C3  UNL     1      26.589  20.186  14.697  1.00  0.00     0.139 C 
BRANCH  11  12
HETATM   12  C4  UNL     1      26.626  19.047  13.706  1.00  0.00     0.042 C 
BRANCH  12  13
HETATM   13  C5  UNL     1      27.657  18.005  14.084  1.00  0.00     0.150 C 
BRANCH  13  14
HETATM   14  N4  UNL     1      28.646  17.999  12.997  1.00  0.00    -0.304 N 
HETATM   15  C6  UNL     1      29.581  18.948  12.823  1.00  0.00     0.111 A 
HETATM   16  C7  UNL     1      30.307  18.568  11.691  1.00  0.00     0.037 A 
HETATM   17  C8  UNL     1      29.775  17.393  11.220  1.00  0.00     0.108 A 
HETATM   18  N5  UNL     1      28.763  17.076  12.042  1.00  0.00    -0.310 N 
ATOM     19  H5  UNL     1      28.172  16.250  11.952  1.00  0.00     0.186 HD
ENDBRANCH  13  14
ENDBRANCH  12  13
ENDBRANCH  11  12
ENDBRANCH   9  11
ENDBRANCH   5   9
BRANCH   8  20
HETATM   20  N7  UNL     1      30.216  23.703  11.894  1.00  0.00    -0.223 N 
ATOM     21  H7  UNL     1      30.288  24.720  11.894  1.00  0.00     0.177 HD
BRANCH  20  22
HETATM   22  C10 UNL     1      30.595  22.976  10.701  1.00  0.00     0.142 C 
BRANCH  22  23
HETATM   23  C11 UNL     1      32.035  23.309  10.349  1.00  0.00     0.058 C 
BRANCH  23  24
HETATM   24  C12 UNL     1      32.421  22.543   9.135  1.00  0.00    -0.057 A 
HETATM   25  C13 UNL     1      31.715  21.453   8.697  1.00  0.00     0.007 A 
HETATM   26  C14 UNL     1      32.085  20.742   7.559  1.00  0.00     0.001 A 
HETATM   27  C15 UNL     1      33.204  21.150   6.846  1.00  0.00     0.000 A 
HETATM   28  C16 UNL     1      33.929  22.235   7.258  1.00  0.00     0.001 A 
HETATM   29  C17 UNL     1      33.539  22.923   8.391  1.00  0.00     0.007 A 
ENDBRANCH  23  24
ENDBRANCH  22  23
ENDBRANCH  20  22
ENDBRANCH   8  20
BRANCH   1  30
HETATM   30  O1  UNL     1      31.856  23.673  13.988  1.00  0.00    -0.269 OA
ATOM     31  H1  UNL     1      32.152  24.174  13.237  1.00  0.00     0.246 HD
ENDBRANCH   1  30
TORSDOF 10
ENDMDL
MODEL 4
REMARK VINA RESULT: -8.888677797      2.075      5.207
REMARK  10 active torsions:
REMARK  status: ('A' for Active; 'I' for Inactive)
REMARK    1  A    between atoms: O1_1  and  N1_3 
REMARK    2  A    between atoms: C2_7  and  N3_8 
REMARK    3  A    between atoms: N3_8  and  C3_10 
REMARK    4  A    between atoms: C3_10  and  C4_11 
REMARK    5  A    between atoms: C4_11  and  C5_12 
REMARK    6  A    between atoms: C5_12  and  N4_13 
REMARK    7  A    between atoms: C9_21  and  N7_22 
REMARK    8  A    between atoms: N7_22  and  C10_24 
REMARK    9  A    between atoms: C10_24  and  C11_25 
REMARK   10  A    between atoms: C11_25  and  C12_26 
ROOT
HETATM    1  N1  UNL     1      31.329  23.127  14.902  1.00  0.00    -0.047 N 
HETATM    2  C1  UNL     1      31.635  23.570  16.132  1.00  0.00     0.249 A 
HETATM    3  N2  UNL     1      31.393  22.798  17.226  1.00  0.00    -0.184 N 
ATOM      4  H2  UNL     1      31.634  23.157  18.151  1.00  0.00     0.185 HD
HETATM    5  C2  UNL     1      30.849  21.580  17.121  1.00  0.00     0.693 A 
HETATM    6  N6  UNL     1      30.537  21.124  15.871  1.00  0.00    -0.020 N 
ATOM      7  H6  UNL     1      30.121  20.201  15.749  1.00  0.00     0.203 HD
HETATM    8  C9  UNL     1      30.782  21.896  14.818  1.00  0.00     0.720 A 
ENDROOT
BRANCH   5   9
HETATM    9  N3  UNL     1      30.606  20.824  18.110  1.00  0.00    -0.225 N 
ATOM     10  H3  UNL     1      30.992  21.086  19.017  1.00  0.00     0.177 HD
BRANCH   9  11
HETATM   11  C3  UNL     1      29.820  19.618  18.038  1.00  0.00     0.139 C 
BRANCH  11  12
HETATM   12  C4  UNL     1      28.583  19.887  17.215  1.00  0.00     0.042 C 
BRANCH  12  13
HETATM   13  C5  UNL     1      27.875  18.607  16.827  1.00  0.00     0.150 C 
BRANCH  13  14
HETATM   14  N4  UNL     1      26.908  18.977  15.785  1.00  0.00    -0.304 N 
HETATM   15  C6  UNL     1      27.019  20.065  15.005  1.00  0.00     0.111 A 
HETATM   16  C7  UNL     1      25.907  20.047  14.159  1.00  0.00     0.037 A 
HETATM   17  C8  UNL     1      25.159  18.937  14.466  1.00  0.00     0.108 A 
HETATM   18  N5  UNL     1      25.801  18.308  15.462  1.00  0.00    -0.310 N 
ATOM     19  H5  UNL     1      25.488  17.445  15.907  1.00  0.00     0.186 HD
ENDBRANCH  13  14
ENDBRANCH  12  13
ENDBRANCH  11  12
ENDBRANCH   9  11
ENDBRANCH   5   9
BRANCH   8  20
HETATM   20  N7  UNL     1      30.481  21.454  13.637  1.00  0.00    -0.223 N 
ATOM     21  H7  UNL     1      30.226  22.123  12.910  1.00  0.00     0.177 HD
BRANCH  20  22
HETATM   22  C10 UNL     1      30.495  20.042  13.314  1.00  0.00     0.142 C 
BRANCH  22  23
HETATM   23  C11 UNL     1      29.502  19.776  12.195  1.00  0.00     0.058 C 
BRANCH  23  24
HETATM   24  C12 UNL     1      29.919  20.541  10.991  1.00  0.00    -0.057 A 
HETATM   25  C13 UNL     1      31.111  20.315  10.352  1.00  0.00     0.007 A 
HETATM   26  C14 UNL     1      31.493  21.037   9.225  1.00  0.00     0.001 A 
HETATM   27  C15 UNL     1      30.639  22.016   8.734  1.00  0.00     0.000 A 
HETATM   28  C16 UNL     1      29.443  22.264   9.350  1.00  0.00     0.001 A 
HETATM   29  C17 UNL     1      29.089  21.532  10.467  1.00  0.00     0.007 A 
ENDBRANCH  23  24
ENDBRANCH  22  23
ENDBRANCH  20  22
ENDBRANCH   8  20
BRANCH   1  30
HETATM   30  O1  UNL     1      31.559  23.882  13.767  1.00  0.00    -0.269 OA
ATOM     31  H1  UNL     1      32.074  23.558  13.038  1.00  0.00     0.246 HD
ENDBRANCH   1  30
TORSDOF 10
ENDMDL
MODEL 5
REMARK VINA RESULT: -8.880838519      2.731      6.834
REMARK  10 active torsions:
REMARK  status: ('A' for Active; 'I' for Inactive)
REMARK    1  A    between atoms: O1_1  and  N1_3 
REMARK    2  A    between atoms: C2_7  and  N3_8 
REMARK    3  A    between atoms: N3_8  and  C3_10 
REMARK    4  A    between atoms: C3_10  and  C4_11 
REMARK    5  A    between atoms: C4_11  and  C5_12 
REMARK    6  A    between atoms: C5_12  and  N4_13 
REMARK    7  A    between atoms: C9_21  and  N7_22 
REMARK    8  A    between atoms: N7_22  and  C10_24 
REMARK    9  A    between atoms: C10_24  and  C11_25 
REMARK   10  A    between atoms: C11_25  and  C12_26 
ROOT
HETATM    1  N1  UNL     1      30.452  19.132  11.663  1.00  0.00    -0.047 N 
HETATM    2  C1  UNL     1      30.088  17.844  11.542  1.00  0.00     0.249 A 
HETATM    3  N2  UNL     1      29.054  17.345  12.272  1.00  0.00    -0.184 N 
ATOM      4  H2  UNL     1      28.797  16.364  12.164  1.00  0.00     0.185 HD
HETATM    5  C2  UNL     1      28.365  18.109  13.129  1.00  0.00     0.693 A 
HETATM    6  N6  UNL     1      28.730  19.420  13.254  1.00  0.00    -0.020 N 
ATOM      7  H6  UNL     1      28.231  20.034  13.896  1.00  0.00     0.203 HD
HETATM    8  C9  UNL     1      29.744  19.884  12.531  1.00  0.00     0.720 A 
ENDROOT
BRANCH   5   9
HETATM    9  N3  UNL     1      27.394  17.690  13.830  1.00  0.00    -0.225 N 
ATOM     10  H3  UNL     1      27.461  16.751  14.223  1.00  0.00     0.177 HD
BRANCH   9  11
HETATM   11  C3  UNL     1      26.204  18.453  14.109  1.00  0.00     0.139 C 
BRANCH  11  12
HETATM   12  C4  UNL     1      26.132  18.727  15.592  1.00  0.00     0.042 C 
BRANCH  12  13
HETATM   13  C5  UNL     1      27.016  17.787  16.382  1.00  0.00     0.150 C 
BRANCH  13  14
HETATM   14  N4  UNL     1      27.915  18.641  17.171  1.00  0.00    -0.304 N 
HETATM   15  C6  UNL     1      28.633  19.654  16.660  1.00  0.00     0.111 A 
HETATM   16  C7  UNL     1      29.343  20.200  17.733  1.00  0.00     0.037 A 
HETATM   17  C8  UNL     1      29.024  19.485  18.861  1.00  0.00     0.108 A 
HETATM   18  N5  UNL     1      28.149  18.542  18.480  1.00  0.00    -0.310 N 
ATOM     19  H5  UNL     1      27.726  17.851  19.099  1.00  0.00     0.186 HD
ENDBRANCH  13  14
ENDBRANCH  12  13
ENDBRANCH  11  12
ENDBRANCH   9  11
ENDBRANCH   5   9
BRANCH   8  20
HETATM   20  N7  UNL     1      30.083  21.129  12.658  1.00  0.00    -0.223 N 
ATOM     21  H7  UNL     1      30.921  21.359  13.191  1.00  0.00     0.177 HD
BRANCH  20  22
HETATM   22  C10 UNL     1      29.311  22.204  12.069  1.00  0.00     0.142 C 
BRANCH  22  23
HETATM   23  C11 UNL     1      30.251  23.323  11.652  1.00  0.00     0.058 C 
BRANCH  23  24
HETATM   24  C12 UNL     1      30.929  22.934  10.389  1.00  0.00    -0.057 A 
HETATM   25  C13 UNL     1      32.260  23.176  10.164  1.00  0.00     0.007 A 
HETATM   26  C14 UNL     1      32.887  22.807   8.976  1.00  0.00     0.001 A 
HETATM   27  C15 UNL     1      32.140  22.175   7.992  1.00  0.00     0.000 A 
HETATM   28  C16 UNL     1      30.810  21.919   8.187  1.00  0.00     0.001 A 
HETATM   29  C17 UNL     1      30.214  22.296   9.375  1.00  0.00     0.007 A 
ENDBRANCH  23  24
ENDBRANCH  22  23
ENDBRANCH  20  22
ENDBRANCH   8  20
BRANCH   1  30
HETATM   30  O1  UNL     1      31.497  19.674  10.938  1.00  0.00    -0.269 OA
ATOM     31  H1  UNL     1      31.438  20.527  10.526  1.00  0.00     0.246 HD
ENDBRANCH   1  30
TORSDOF 10
ENDMDL
