MODEL 1
REMARK VINA RESULT: -10.289273884      0.000      0.000
REMARK  9 active torsions:
REMARK  status: ('A' for Active; 'I' for Inactive)
REMARK    1  A    between atoms: C1_2  and  N1_3 
REMARK    2  A    between atoms: N1_3  and  O2_4 
REMARK    3  A    between atoms: N1_3  and  C2_6 
REMARK    4  A    between atoms: C2_6  and  C3_7 
REMARK    5  A    between atoms: C3_7  and  C4_8 
REMARK    6  A    between atoms: C7_11  and  N2_12 
REMARK    7  A    between atoms: N2_12  and  C8_14 
REMARK    8  A    between atoms: C8_14  and  C9_15 
REMARK    9  A    between atoms: C9_15  and  N3_16 
ROOT
HETATM    1  N2  UNL     1      29.376  22.285  11.045  1.00  0.00    -0.375 N 
ATOM      2  H2  UNL     1      29.853  23.066  11.496  1.00  0.00     0.161 HD
ENDROOT
BRANCH   1   3
HETATM    3  C7  UNL     1      28.489  21.682  11.745  1.00  0.00     0.100 A 
HETATM    4  C6  UNL     1      27.596  20.759  11.251  1.00  0.00     0.049 A 
HETATM    5  C5  UNL     1      26.667  20.149  12.063  1.00  0.00     0.012 A 
HETATM    6  C4  UNL     1      26.663  20.498  13.389  1.00  0.00    -0.041 A 
HETATM    7  C18 UNL     1      27.560  21.424  13.881  1.00  0.00     0.096 A 
HETATM    8  N4  UNL     1      28.444  21.990  13.053  1.00  0.00    -0.352 N 
ATOM      9  H4  UNL     1      29.103  22.674  13.424  1.00  0.00     0.166 HD
BRANCH   6  10
HETATM   10  C3  UNL     1      25.702  19.899  14.348  1.00  0.00     0.062 C 
BRANCH  10  11
HETATM   11  C2  UNL     1      25.725  18.388  14.294  1.00  0.00     0.163 C 
BRANCH  11  12
HETATM   12  N1  UNL     1      26.951  17.942  14.924  1.00  0.00    -0.236 N 
BRANCH  12  13
HETATM   13  C1  UNL     1      27.200  18.264  16.287  1.00  0.00     0.376 C 
HETATM   14  O1  UNL     1      26.802  17.508  17.199  1.00  0.00    -0.281 OA
ENDBRANCH  12  13
BRANCH  12  15
HETATM   15  O2  UNL     1      27.834  17.225  14.197  1.00  0.00    -0.285 OA
ATOM     16  H2  UNL     1      28.446  17.645  13.604  1.00  0.00     0.245 HD
ENDBRANCH  12  15
ENDBRANCH  11  12
ENDBRANCH  10  11
ENDBRANCH   6  10
ENDBRANCH   1   3
BRANCH   1  17
HETATM   17  C8  UNL     1      29.773  21.990   9.709  1.00  0.00     0.141 C 
BRANCH  17  18
HETATM   18  C9  UNL     1      31.014  21.118   9.727  1.00  0.00     0.155 C 
BRANCH  18  19
HETATM   19  N3  UNL     1      32.110  21.691   8.986  1.00  0.00    -0.278 N 
HETATM   20  C10 UNL     1      32.893  22.815   9.370  1.00  0.00     0.261 A 
HETATM   21  O3  UNL     1      32.807  23.530  10.398  1.00  0.00    -0.267 OA
HETATM   22  C11 UNL     1      33.906  23.072   8.337  1.00  0.00     0.048 A 
HETATM   23  C12 UNL     1      34.902  24.013   8.200  1.00  0.00     0.018 A 
HETATM   24  C16 UNL     1      33.756  22.135   7.343  1.00  0.00     0.048 A 
HETATM   25  C13 UNL     1      35.729  24.018   7.096  1.00  0.00     0.001 A 
HETATM   26  C14 UNL     1      35.580  23.078   6.096  1.00  0.00     0.001 A 
HETATM   27  C15 UNL     1      34.582  22.146   6.248  1.00  0.00     0.018 A 
HETATM   28  C17 UNL     1      32.651  21.270   7.723  1.00  0.00     0.261 A 
HETATM   29  O4  UNL     1      32.203  20.298   7.086  1.00  0.00    -0.267 OA
ENDBRANCH  18  19
ENDBRANCH  17  18
ENDBRANCH   1  17
TORSDOF 9
ENDMDL
MODEL 2
REMARK VINA RESULT: -10.280734168      0.034      1.713
REMARK  9 active torsions:
REMARK  status: ('A' for Active; 'I' for Inactive)
REMARK    1  A    between atoms: C1_2  and  N1_3 
REMARK    2  A    between atoms: N1_3  and  O2_4 
REMARK    3  A    between atoms: N1_3  and  C2_6 
REMARK    4  A    between atoms: C2_6  and  C3_7 
REMARK    5  A    between atoms: C3_7  and  C4_8 
REMARK    6  A    between atoms: C7_11  and  N2_12 
REMARK    7  A    between atoms: N2_12  and  C8_14 
REMARK    8  A    between atoms: C8_14  and  C9_15 
REMARK    9  A    between atoms: C9_15  and  N3_16 
ROOT
HETATM    1  N2  UNL     1      29.376  22.284  11.047  1.00  0.00    -0.375 N 
ATOM      2  H2  UNL     1      29.838  23.078  11.490  1.00  0.00     0.161 HD
ENDROOT
BRANCH   1   3
HETATM    3  C7  UNL     1      28.489  21.682  11.748  1.00  0.00     0.100 A 
HETATM    4  C6  UNL     1      27.594  20.760  11.255  1.00  0.00     0.049 A 
HETATM    5  C5  UNL     1      26.666  20.151  12.068  1.00  0.00     0.012 A 
HETATM    6  C4  UNL     1      26.664  20.500  13.394  1.00  0.00    -0.041 A 
HETATM    7  C18 UNL     1      27.561  21.425  13.884  1.00  0.00     0.096 A 
HETATM    8  N4  UNL     1      28.446  21.990  13.056  1.00  0.00    -0.352 N 
ATOM      9  H4  UNL     1      29.106  22.673  13.426  1.00  0.00     0.166 HD
BRANCH   6  10
HETATM   10  C3  UNL     1      25.703  19.902  14.353  1.00  0.00     0.062 C 
BRANCH  10  11
HETATM   11  C2  UNL     1      25.723  18.390  14.298  1.00  0.00     0.163 C 
BRANCH  11  12
HETATM   12  N1  UNL     1      26.948  17.941  14.928  1.00  0.00    -0.236 N 
BRANCH  12  13
HETATM   13  C1  UNL     1      27.198  18.261  16.290  1.00  0.00     0.376 C 
HETATM   14  O1  UNL     1      26.796  17.506  17.202  1.00  0.00    -0.281 OA
ENDBRANCH  12  13
BRANCH  12  15
HETATM   15  O2  UNL     1      27.829  17.224  14.199  1.00  0.00    -0.285 OA
ATOM     16  H2  UNL     1      27.715  17.098  13.264  1.00  0.00     0.245 HD
ENDBRANCH  12  15
ENDBRANCH  11  12
ENDBRANCH  10  11
ENDBRANCH   6  10
ENDBRANCH   1   3
BRANCH   1  17
HETATM   17  C8  UNL     1      29.790  21.972   9.720  1.00  0.00     0.141 C 
BRANCH  17  18
HETATM   18  C9  UNL     1      31.046  21.123   9.765  1.00  0.00     0.155 C 
BRANCH  18  19
HETATM   19  N3  UNL     1      32.135  21.698   9.014  1.00  0.00    -0.278 N 
HETATM   20  C10 UNL     1      32.617  21.255   7.751  1.00  0.00     0.261 A 
HETATM   21  O3  UNL     1      32.218  20.302   7.038  1.00  0.00    -0.267 OA
HETATM   22  C11 UNL     1      33.736  22.110   7.333  1.00  0.00     0.048 A 
HETATM   23  C12 UNL     1      34.552  22.131   6.224  1.00  0.00     0.018 A 
HETATM   24  C16 UNL     1      33.941  23.057   8.309  1.00  0.00     0.048 A 
HETATM   25  C13 UNL     1      35.549  23.074   6.093  1.00  0.00     0.001 A 
HETATM   26  C14 UNL     1      35.758  24.026   7.070  1.00  0.00     0.001 A 
HETATM   27  C15 UNL     1      34.936  23.992   8.171  1.00  0.00     0.018 A 
HETATM   28  C17 UNL     1      32.963  22.821   9.358  1.00  0.00     0.261 A 
HETATM   29  O4  UNL     1      32.822  23.466  10.414  1.00  0.00    -0.267 OA
ENDBRANCH  18  19
ENDBRANCH  17  18
ENDBRANCH   1  17
TORSDOF 9
ENDMDL
MODEL 3
REMARK VINA RESULT: -10.112288411      2.651      9.110
REMARK  9 active torsions:
REMARK  status: ('A' for Active; 'I' for Inactive)
REMARK    1  A    between atoms: C1_2  and  N1_3 
REMARK    2  A    between atoms: N1_3  and  O2_4 
REMARK    3  A    between atoms: N1_3  and  C2_6 
REMARK    4  A    between atoms: C2_6  and  C3_7 
REMARK    5  A    between atoms: C3_7  and  C4_8 
REMARK    6  A    between atoms: C7_11  and  N2_12 
REMARK    7  A    between atoms: N2_12  and  C8_14 
REMARK    8  A    between atoms: C8_14  and  C9_15 
REMARK    9  A    between atoms: C9_15  and  N3_16 
ROOT
HETATM    1  N2  UNL     1      30.440  23.494  12.688  1.00  0.00    -0.375 N 
ATOM      2  H2  UNL     1      29.765  24.245  12.833  1.00  0.00     0.161 HD
ENDROOT
BRANCH   1   3
HETATM    3  C7  UNL     1      30.591  23.094  11.481  1.00  0.00     0.100 A 
HETATM    4  C6  UNL     1      29.621  22.461  10.738  1.00  0.00     0.049 A 
HETATM    5  C5  UNL     1      29.855  22.057   9.444  1.00  0.00     0.012 A 
HETATM    6  C4  UNL     1      31.096  22.308   8.919  1.00  0.00    -0.041 A 
HETATM    7  C18 UNL     1      32.066  22.943   9.666  1.00  0.00     0.096 A 
HETATM    8  N4  UNL     1      31.792  23.318  10.920  1.00  0.00    -0.352 N 
ATOM      9  H4  UNL     1      32.515  23.785  11.467  1.00  0.00     0.166 HD
BRANCH   6  10
HETATM   10  C3  UNL     1      31.449  21.912   7.533  1.00  0.00     0.062 C 
BRANCH  10  11
HETATM   11  C2  UNL     1      32.155  20.575   7.495  1.00  0.00     0.163 C 
BRANCH  11  12
HETATM   12  N1  UNL     1      33.361  20.735   6.706  1.00  0.00    -0.236 N 
BRANCH  12  13
HETATM   13  C1  UNL     1      33.772  22.036   6.306  1.00  0.00     0.376 C 
HETATM   14  O1  UNL     1      34.056  22.270   5.111  1.00  0.00    -0.281 OA
ENDBRANCH  12  13
BRANCH  12  15
HETATM   15  O2  UNL     1      34.069  19.636   6.371  1.00  0.00    -0.285 OA
ATOM     16  H2  UNL     1      34.631  19.196   6.998  1.00  0.00     0.245 HD
ENDBRANCH  12  15
ENDBRANCH  11  12
ENDBRANCH  10  11
ENDBRANCH   6  10
ENDBRANCH   1   3
BRANCH   1  17
HETATM   17  C8  UNL     1      31.105  23.010  13.852  1.00  0.00     0.141 C 
BRANCH  17  18
HETATM   18  C9  UNL     1      30.198  23.165  15.057  1.00  0.00     0.155 C 
BRANCH  18  19
HETATM   19  N3  UNL     1      29.356  22.014  15.274  1.00  0.00    -0.278 N 
HETATM   20  C10 UNL     1      29.540  21.005  16.259  1.00  0.00     0.261 A 
HETATM   21  O3  UNL     1      30.442  20.896  17.125  1.00  0.00    -0.267 OA
HETATM   22  C11 UNL     1      28.462  20.013  16.143  1.00  0.00     0.048 A 
HETATM   23  C12 UNL     1      28.158  18.858  16.827  1.00  0.00     0.018 A 
HETATM   24  C16 UNL     1      27.633  20.397  15.115  1.00  0.00     0.048 A 
HETATM   25  C13 UNL     1      27.053  18.103  16.493  1.00  0.00     0.001 A 
HETATM   26  C14 UNL     1      26.220  18.486  15.462  1.00  0.00     0.001 A 
HETATM   27  C15 UNL     1      26.536  19.640  14.789  1.00  0.00     0.018 A 
HETATM   28  C17 UNL     1      28.166  21.631  14.563  1.00  0.00     0.261 A 
HETATM   29  O4  UNL     1      27.701  22.296  13.618  1.00  0.00    -0.267 OA
ENDBRANCH  18  19
ENDBRANCH  17  18
ENDBRANCH   1  17
TORSDOF 9
ENDMDL
MODEL 4
REMARK VINA RESULT: -10.066002202      2.633      9.197
REMARK  9 active torsions:
REMARK  status: ('A' for Active; 'I' for Inactive)
REMARK    1  A    between atoms: C1_2  and  N1_3 
REMARK    2  A    between atoms: N1_3  and  O2_4 
REMARK    3  A    between atoms: N1_3  and  C2_6 
REMARK    4  A    between atoms: C2_6  and  C3_7 
REMARK    5  A    between atoms: C3_7  and  C4_8 
REMARK    6  A    between atoms: C7_11  and  N2_12 
REMARK    7  A    between atoms: N2_12  and  C8_14 
REMARK    8  A    between atoms: C8_14  and  C9_15 
REMARK    9  A    between atoms: C9_15  and  N3_16 
ROOT
HETATM    1  N2  UNL     1      30.375  23.445  12.662  1.00  0.00    -0.375 N 
ATOM      2  H2  UNL     1      29.664  24.162  12.803  1.00  0.00     0.161 HD
ENDROOT
BRANCH   1   3
HETATM    3  C7  UNL     1      30.553  23.052  11.457  1.00  0.00     0.100 A 
HETATM    4  C6  UNL     1      29.616  22.377  10.707  1.00  0.00     0.049 A 
HETATM    5  C5  UNL     1      29.875  21.983   9.415  1.00  0.00     0.012 A 
HETATM    6  C4  UNL     1      31.108  22.288   8.898  1.00  0.00    -0.041 A 
HETATM    7  C18 UNL     1      32.044  22.964   9.652  1.00  0.00     0.096 A 
HETATM    8  N4  UNL     1      31.746  23.327  10.904  1.00  0.00    -0.352 N 
ATOM      9  H4  UNL     1      32.445  23.826  11.455  1.00  0.00     0.166 HD
BRANCH   6  10
HETATM   10  C3  UNL     1      31.487  21.907   7.515  1.00  0.00     0.062 C 
BRANCH  10  11
HETATM   11  C2  UNL     1      32.215  20.582   7.478  1.00  0.00     0.163 C 
BRANCH  11  12
HETATM   12  N1  UNL     1      33.403  20.752   6.666  1.00  0.00    -0.236 N 
BRANCH  12  13
HETATM   13  C1  UNL     1      33.841  22.061   6.326  1.00  0.00     0.376 C 
HETATM   14  O1  UNL     1      34.123  22.347   5.142  1.00  0.00    -0.281 OA
ENDBRANCH  12  13
BRANCH  12  15
HETATM   15  O2  UNL     1      34.070  19.655   6.250  1.00  0.00    -0.285 OA
ATOM     16  H2  UNL     1      34.875  19.375   6.669  1.00  0.00     0.245 HD
ENDBRANCH  12  15
ENDBRANCH  11  12
ENDBRANCH  10  11
ENDBRANCH   6  10
ENDBRANCH   1   3
BRANCH   1  17
HETATM   17  C8  UNL     1      31.059  22.997  13.830  1.00  0.00     0.141 C 
BRANCH  17  18
HETATM   18  C9  UNL     1      30.158  23.156  15.039  1.00  0.00     0.155 C 
BRANCH  18  19
HETATM   19  N3  UNL     1      29.330  21.999  15.275  1.00  0.00    -0.278 N 
HETATM   20  C10 UNL     1      28.160  21.635  14.551  1.00  0.00     0.261 A 
HETATM   21  O3  UNL     1      27.610  22.218  13.586  1.00  0.00    -0.267 OA
HETATM   22  C11 UNL     1      27.616  20.389  15.109  1.00  0.00     0.048 A 
HETATM   23  C12 UNL     1      26.523  19.610  14.799  1.00  0.00     0.018 A 
HETATM   24  C16 UNL     1      28.425  19.992  16.147  1.00  0.00     0.048 A 
HETATM   25  C13 UNL     1      26.246  18.461  15.510  1.00  0.00     0.001 A 
HETATM   26  C14 UNL     1      27.056  18.060  16.553  1.00  0.00     0.001 A 
HETATM   27  C15 UNL     1      28.141  18.848  16.849  1.00  0.00     0.018 A 
HETATM   28  C17 UNL     1      29.491  20.972  16.268  1.00  0.00     0.261 A 
HETATM   29  O4  UNL     1      30.427  20.969  17.090  1.00  0.00    -0.267 OA
ENDBRANCH  18  19
ENDBRANCH  17  18
ENDBRANCH   1  17
TORSDOF 9
ENDMDL
MODEL 5
REMARK VINA RESULT: -10.064956206      1.410      1.800
REMARK  9 active torsions:
REMARK  status: ('A' for Active; 'I' for Inactive)
REMARK    1  A    between atoms: C1_2  and  N1_3 
REMARK    2  A    between atoms: N1_3  and  O2_4 
REMARK    3  A    between atoms: N1_3  and  C2_6 
REMARK    4  A    between atoms: C2_6  and  C3_7 
REMARK    5  A    between atoms: C3_7  and  C4_8 
REMARK    6  A    between atoms: C7_11  and  N2_12 
REMARK    7  A    between atoms: N2_12  and  C8_14 
REMARK    8  A    between atoms: C8_14  and  C9_15 
REMARK    9  A    between atoms: C9_15  and  N3_16 
ROOT
HETATM    1  N2  UNL     1      30.879  21.246  11.059  1.00  0.00    -0.375 N 
ATOM      2  H2  UNL     1      31.598  21.748  11.580  1.00  0.00     0.161 HD
ENDROOT
BRANCH   1   3
HETATM    3  C7  UNL     1      29.750  21.103  11.645  1.00  0.00     0.100 A 
HETATM    4  C6  UNL     1      28.562  20.837  11.002  1.00  0.00     0.049 A 
HETATM    5  C5  UNL     1      27.383  20.696  11.697  1.00  0.00     0.012 A 
HETATM    6  C4  UNL     1      27.434  20.833  13.060  1.00  0.00    -0.041 A 
HETATM    7  C18 UNL     1      28.626  21.100  13.701  1.00  0.00     0.096 A 
HETATM    8  N4  UNL     1      29.747  21.228  12.983  1.00  0.00    -0.352 N 
ATOM      9  H4  UNL     1      30.623  21.427  13.464  1.00  0.00     0.166 HD
BRANCH   6  10
HETATM   10  C3  UNL     1      26.219  20.700  13.901  1.00  0.00     0.062 C 
BRANCH  10  11
HETATM   11  C2  UNL     1      26.431  19.732  15.044  1.00  0.00     0.163 C 
BRANCH  11  12
HETATM   12  N1  UNL     1      26.244  18.391  14.528  1.00  0.00    -0.236 N 
BRANCH  12  13
HETATM   13  C1  UNL     1      27.319  17.461  14.578  1.00  0.00     0.376 C 
HETATM   14  O1  UNL     1      28.168  17.427  13.661  1.00  0.00    -0.281 OA
ENDBRANCH  12  13
BRANCH  12  15
HETATM   15  O2  UNL     1      25.044  18.054  14.011  1.00  0.00    -0.285 OA
ATOM     16  H2  UNL     1      24.377  17.629  14.538  1.00  0.00     0.245 HD
ENDBRANCH  12  15
ENDBRANCH  11  12
ENDBRANCH  10  11
ENDBRANCH   6  10
ENDBRANCH   1   3
BRANCH   1  17
HETATM   17  C8  UNL     1      31.247  20.785   9.762  1.00  0.00     0.141 C 
BRANCH  17  18
HETATM   18  C9  UNL     1      31.231  21.946   8.785  1.00  0.00     0.155 C 
BRANCH  18  19
HETATM   19  N3  UNL     1      32.492  22.643   8.726  1.00  0.00    -0.278 N 
HETATM   20  C10 UNL     1      33.056  23.459   9.747  1.00  0.00     0.261 A 
HETATM   21  O3  UNL     1      32.597  23.743  10.880  1.00  0.00    -0.267 OA
HETATM   22  C11 UNL     1      34.350  23.982   9.288  1.00  0.00     0.048 A 
HETATM   23  C12 UNL     1      35.297  24.802   9.858  1.00  0.00     0.018 A 
HETATM   24  C16 UNL     1      34.582  23.503   8.019  1.00  0.00     0.048 A 
HETATM   25  C13 UNL     1      36.450  25.137   9.178  1.00  0.00     0.001 A 
HETATM   26  C14 UNL     1      36.685  24.658   7.905  1.00  0.00     0.001 A 
HETATM   27  C15 UNL     1      35.731  23.842   7.350  1.00  0.00     0.018 A 
HETATM   28  C17 UNL     1      33.447  22.674   7.652  1.00  0.00     0.261 A 
HETATM   29  O4  UNL     1      33.279  22.060   6.581  1.00  0.00    -0.267 OA
ENDBRANCH  18  19
ENDBRANCH  17  18
ENDBRANCH   1  17
TORSDOF 9
ENDMDL
