MODEL 1
REMARK VINA RESULT: -10.305503325      0.000      0.000
REMARK  7 active torsions:
REMARK  status: ('A' for Active; 'I' for Inactive)
REMARK    1  A    between atoms: C1_2  and  C2_3 
REMARK       I    between atoms: C1_2  and  N1_14 
REMARK    2  A    between atoms: C2_3  and  C3_4 
REMARK    3  A    between atoms: C3_4  and  S1_5 
REMARK    4  A    between atoms: S1_5  and  C4_8 
REMARK    5  A    between atoms: N1_14  and  N2_16 
REMARK    6  A    between atoms: N2_16  and  S2_18 
REMARK    7  A    between atoms: S2_18  and  C10_21 
ROOT
HETATM    1  O1  UNL     1      30.754  20.391  11.161  1.00  0.00    -0.272 OA
HETATM    2  C1  UNL     1      30.736  21.481  10.549  1.00  0.00     0.237 C 
HETATM    3  N1  UNL     1      30.526  22.655  11.365  1.00  0.00    -0.260 N 
ATOM      4  H1  UNL     1      30.489  23.579  10.933  1.00  0.00     0.190 HD
ENDROOT
BRANCH   2   5
HETATM    5  C2  UNL     1      30.915  21.595   9.096  1.00  0.00     0.120 C 
BRANCH   5   6
HETATM    6  C3  UNL     1      31.968  20.683   8.588  1.00  0.00     0.155 C 
BRANCH   6   7
HETATM    7  S1  UNL     1      32.553  21.018   6.959  1.00  0.00     0.176 S 
HETATM    8  O2  UNL     1      31.523  21.451   5.987  1.00  0.00    -0.223 OA
HETATM    9  O3  UNL     1      33.224  19.746   6.431  1.00  0.00    -0.223 OA
BRANCH   7  10
HETATM   10  C4  UNL     1      33.771  22.260   7.089  1.00  0.00     0.059 A 
HETATM   11  C5  UNL     1      33.815  23.083   8.184  1.00  0.00     0.023 A 
HETATM   12  C6  UNL     1      34.812  24.066   8.310  1.00  0.00     0.002 A 
HETATM   13  C7  UNL     1      35.740  24.176   7.302  1.00  0.00     0.000 A 
HETATM   14  C8  UNL     1      35.717  23.366   6.203  1.00  0.00     0.002 A 
HETATM   15  C9  UNL     1      34.710  22.395   6.104  1.00  0.00     0.023 A 
ENDBRANCH   7  10
ENDBRANCH   6   7
ENDBRANCH   5   6
ENDBRANCH   2   5
BRANCH   3  16
HETATM   16  N2  UNL     1      30.373  22.521  12.737  1.00  0.00    -0.220 N 
ATOM     17  H2  UNL     1      31.088  22.151  13.364  1.00  0.00     0.200 HD
BRANCH  16  18
HETATM   18  S2  UNL     1      28.837  23.057  13.238  1.00  0.00     0.276 S 
HETATM   19  O4  UNL     1      28.905  23.447  14.711  1.00  0.00    -0.199 OA
HETATM   20  O5  UNL     1      28.372  24.280  12.516  1.00  0.00    -0.199 OA
BRANCH  18  21
HETATM   21  C10 UNL     1      27.633  21.788  13.086  1.00  0.00     0.081 A 
HETATM   22  C11 UNL     1      26.923  21.363  14.215  1.00  0.00     0.025 A 
HETATM   23  C12 UNL     1      25.972  20.364  14.145  1.00  0.00     0.002 A 
HETATM   24  C13 UNL     1      25.689  19.745  12.947  1.00  0.00     0.000 A 
HETATM   25  C14 UNL     1      26.378  20.153  11.831  1.00  0.00     0.002 A 
HETATM   26  C15 UNL     1      27.341  21.164  11.899  1.00  0.00     0.025 A 
ENDBRANCH  18  21
ENDBRANCH  16  18
ENDBRANCH   3  16
TORSDOF 7
ENDMDL
MODEL 2
REMARK VINA RESULT: -10.219249028      2.661      8.194
REMARK  7 active torsions:
REMARK  status: ('A' for Active; 'I' for Inactive)
REMARK    1  A    between atoms: C1_2  and  C2_3 
REMARK       I    between atoms: C1_2  and  N1_14 
REMARK    2  A    between atoms: C2_3  and  C3_4 
REMARK    3  A    between atoms: C3_4  and  S1_5 
REMARK    4  A    between atoms: S1_5  and  C4_8 
REMARK    5  A    between atoms: N1_14  and  N2_16 
REMARK    6  A    between atoms: N2_16  and  S2_18 
REMARK    7  A    between atoms: S2_18  and  C10_21 
ROOT
HETATM    1  O1  UNL     1      32.928  23.945  14.078  1.00  0.00    -0.272 OA
HETATM    2  C1  UNL     1      31.803  23.557  14.459  1.00  0.00     0.237 C 
HETATM    3  N1  UNL     1      30.808  23.405  13.421  1.00  0.00    -0.260 N 
ATOM      4  H1  UNL     1      29.863  23.101  13.658  1.00  0.00     0.190 HD
ENDROOT
BRANCH   2   5
HETATM    5  C2  UNL     1      31.480  23.264  15.861  1.00  0.00     0.120 C 
BRANCH   5   6
HETATM    6  C3  UNL     1      30.118  22.698  16.015  1.00  0.00     0.155 C 
BRANCH   6   7
HETATM    7  S1  UNL     1      29.991  20.947  15.860  1.00  0.00     0.176 S 
HETATM    8  O2  UNL     1      30.227  20.176  17.103  1.00  0.00    -0.223 OA
HETATM    9  O3  UNL     1      31.001  20.495  14.801  1.00  0.00    -0.223 OA
BRANCH   7  10
HETATM   10  C4  UNL     1      28.388  20.592  15.267  1.00  0.00     0.059 A 
HETATM   11  C5  UNL     1      27.736  19.452  15.660  1.00  0.00     0.023 A 
HETATM   12  C6  UNL     1      26.433  19.175  15.211  1.00  0.00     0.002 A 
HETATM   13  C7  UNL     1      25.835  20.081  14.367  1.00  0.00     0.000 A 
HETATM   14  C8  UNL     1      26.465  21.224  13.965  1.00  0.00     0.002 A 
HETATM   15  C9  UNL     1      27.765  21.474  14.428  1.00  0.00     0.023 A 
ENDBRANCH   7  10
ENDBRANCH   6   7
ENDBRANCH   5   6
ENDBRANCH   2   5
BRANCH   3  16
HETATM   16  N2  UNL     1      31.142  23.675  12.103  1.00  0.00    -0.220 N 
ATOM     17  H2  UNL     1      31.722  24.460  11.804  1.00  0.00     0.200 HD
BRANCH  16  18
HETATM   18  S2  UNL     1      30.457  22.526  11.049  1.00  0.00     0.276 S 
HETATM   19  O4  UNL     1      30.430  21.170  11.747  1.00  0.00    -0.199 OA
HETATM   20  O5  UNL     1      29.038  22.825  10.688  1.00  0.00    -0.199 OA
BRANCH  18  21
HETATM   21  C10 UNL     1      31.413  22.345   9.588  1.00  0.00     0.081 A 
HETATM   22  C11 UNL     1      32.724  22.834   9.548  1.00  0.00     0.025 A 
HETATM   23  C12 UNL     1      33.511  22.720   8.419  1.00  0.00     0.002 A 
HETATM   24  C13 UNL     1      33.024  22.116   7.280  1.00  0.00     0.000 A 
HETATM   25  C14 UNL     1      31.739  21.631   7.306  1.00  0.00     0.002 A 
HETATM   26  C15 UNL     1      30.940  21.744   8.448  1.00  0.00     0.025 A 
ENDBRANCH  18  21
ENDBRANCH  16  18
ENDBRANCH   3  16
TORSDOF 7
ENDMDL
MODEL 3
REMARK VINA RESULT: -10.206828982      1.003      1.416
REMARK  7 active torsions:
REMARK  status: ('A' for Active; 'I' for Inactive)
REMARK    1  A    between atoms: C1_2  and  C2_3 
REMARK       I    between atoms: C1_2  and  N1_14 
REMARK    2  A    between atoms: C2_3  and  C3_4 
REMARK    3  A    between atoms: C3_4  and  S1_5 
REMARK    4  A    between atoms: S1_5  and  C4_8 
REMARK    5  A    between atoms: N1_14  and  N2_16 
REMARK    6  A    between atoms: N2_16  and  S2_18 
REMARK    7  A    between atoms: S2_18  and  C10_21 
ROOT
HETATM    1  O1  UNL     1      30.494  20.933  11.773  1.00  0.00    -0.272 OA
HETATM    2  C1  UNL     1      30.529  21.950  11.049  1.00  0.00     0.237 C 
HETATM    3  N1  UNL     1      30.609  23.214  11.746  1.00  0.00    -0.260 N 
ATOM      4  H1  UNL     1      30.631  24.089  11.222  1.00  0.00     0.190 HD
ENDROOT
BRANCH   2   5
HETATM    5  C2  UNL     1      30.492  21.901   9.582  1.00  0.00     0.120 C 
BRANCH   5   6
HETATM    6  C3  UNL     1      31.487  20.951   9.028  1.00  0.00     0.155 C 
BRANCH   6   7
HETATM    7  S1  UNL     1      32.048  21.293   7.393  1.00  0.00     0.176 S 
HETATM    8  O2  UNL     1      31.034  21.863   6.475  1.00  0.00    -0.223 OA
HETATM    9  O3  UNL     1      32.573  19.984   6.794  1.00  0.00    -0.223 OA
BRANCH   7  10
HETATM   10  C4  UNL     1      33.386  22.405   7.523  1.00  0.00     0.059 A 
HETATM   11  C5  UNL     1      33.579  23.134   8.669  1.00  0.00     0.023 A 
HETATM   12  C6  UNL     1      34.671  24.009   8.793  1.00  0.00     0.002 A 
HETATM   13  C7  UNL     1      35.539  24.112   7.732  1.00  0.00     0.000 A 
HETATM   14  C8  UNL     1      35.368  23.396   6.582  1.00  0.00     0.002 A 
HETATM   15  C9  UNL     1      34.268  22.530   6.486  1.00  0.00     0.023 A 
ENDBRANCH   7  10
ENDBRANCH   6   7
ENDBRANCH   5   6
ENDBRANCH   2   5
BRANCH   3  16
HETATM   16  N2  UNL     1      30.656  23.233  13.132  1.00  0.00    -0.220 N 
ATOM     17  H2  UNL     1      31.502  23.082  13.683  1.00  0.00     0.200 HD
BRANCH  16  18
HETATM   18  S2  UNL     1      29.118  23.540  13.794  1.00  0.00     0.276 S 
HETATM   19  O4  UNL     1      29.278  24.422  15.029  1.00  0.00    -0.199 OA
HETATM   20  O5  UNL     1      28.217  24.294  12.870  1.00  0.00    -0.199 OA
BRANCH  18  21
HETATM   21  C10 UNL     1      28.331  22.057  14.306  1.00  0.00     0.081 A 
HETATM   22  C11 UNL     1      27.040  21.761  13.853  1.00  0.00     0.025 A 
HETATM   23  C12 UNL     1      26.379  20.610  14.234  1.00  0.00     0.002 A 
HETATM   24  C13 UNL     1      26.976  19.705  15.086  1.00  0.00     0.000 A 
HETATM   25  C14 UNL     1      28.243  19.983  15.537  1.00  0.00     0.002 A 
HETATM   26  C15 UNL     1      28.915  21.148  15.152  1.00  0.00     0.025 A 
ENDBRANCH  18  21
ENDBRANCH  16  18
ENDBRANCH   3  16
TORSDOF 7
ENDMDL
MODEL 4
REMARK VINA RESULT: -10.192339015      2.295      2.991
REMARK  7 active torsions:
REMARK  status: ('A' for Active; 'I' for Inactive)
REMARK    1  A    between atoms: C1_2  and  C2_3 
REMARK       I    between atoms: C1_2  and  N1_14 
REMARK    2  A    between atoms: C2_3  and  C3_4 
REMARK    3  A    between atoms: C3_4  and  S1_5 
REMARK    4  A    between atoms: S1_5  and  C4_8 
REMARK    5  A    between atoms: N1_14  and  N2_16 
REMARK    6  A    between atoms: N2_16  and  S2_18 
REMARK    7  A    between atoms: S2_18  and  C10_21 
ROOT
HETATM    1  O1  UNL     1      29.869  18.379  12.811  1.00  0.00    -0.272 OA
HETATM    2  C1  UNL     1      30.079  19.476  12.249  1.00  0.00     0.237 C 
HETATM    3  N1  UNL     1      30.596  20.526  13.098  1.00  0.00    -0.260 N 
ATOM      4  H1  UNL     1      30.783  21.451  12.712  1.00  0.00     0.190 HD
ENDROOT
BRANCH   2   5
HETATM    5  C2  UNL     1      29.830  19.715  10.823  1.00  0.00     0.120 C 
BRANCH   5   6
HETATM    6  C3  UNL     1      31.040  20.203  10.117  1.00  0.00     0.155 C 
BRANCH   6   7
HETATM    7  S1  UNL     1      31.030  21.906   9.663  1.00  0.00     0.176 S 
HETATM    8  O2  UNL     1      31.359  22.858  10.750  1.00  0.00    -0.223 OA
HETATM    9  O3  UNL     1      29.637  22.239   9.121  1.00  0.00    -0.223 OA
BRANCH   7  10
HETATM   10  C4  UNL     1      32.180  22.105   8.366  1.00  0.00     0.059 A 
HETATM   11  C5  UNL     1      31.955  21.534   7.140  1.00  0.00     0.023 A 
HETATM   12  C6  UNL     1      32.861  21.715   6.081  1.00  0.00     0.002 A 
HETATM   13  C7  UNL     1      33.978  22.482   6.312  1.00  0.00     0.000 A 
HETATM   14  C8  UNL     1      34.222  23.063   7.524  1.00  0.00     0.002 A 
HETATM   15  C9  UNL     1      33.300  22.864   8.563  1.00  0.00     0.023 A 
ENDBRANCH   7  10
ENDBRANCH   6   7
ENDBRANCH   5   6
ENDBRANCH   2   5
BRANCH   3  16
HETATM   16  N2  UNL     1      30.836  20.270  14.440  1.00  0.00    -0.220 N 
ATOM     17  H2  UNL     1      31.602  19.693  14.790  1.00  0.00     0.200 HD
BRANCH  16  18
HETATM   18  S2  UNL     1      29.686  21.046  15.427  1.00  0.00     0.276 S 
HETATM   19  O4  UNL     1      29.990  20.724  16.887  1.00  0.00    -0.199 OA
HETATM   20  O5  UNL     1      29.726  22.536  15.323  1.00  0.00    -0.199 OA
BRANCH  18  21
HETATM   21  C10 UNL     1      28.061  20.473  15.091  1.00  0.00     0.081 A 
HETATM   22  C11 UNL     1      27.623  19.260  15.637  1.00  0.00     0.025 A 
HETATM   23  C12 UNL     1      26.356  18.767  15.395  1.00  0.00     0.002 A 
HETATM   24  C13 UNL     1      25.471  19.461  14.598  1.00  0.00     0.000 A 
HETATM   25  C14 UNL     1      25.887  20.653  14.057  1.00  0.00     0.002 A 
HETATM   26  C15 UNL     1      27.170  21.155  14.300  1.00  0.00     0.025 A 
ENDBRANCH  18  21
ENDBRANCH  16  18
ENDBRANCH   3  16
TORSDOF 7
ENDMDL
MODEL 5
REMARK VINA RESULT: -10.162690004      1.998      2.710
REMARK  7 active torsions:
REMARK  status: ('A' for Active; 'I' for Inactive)
REMARK    1  A    between atoms: C1_2  and  C2_3 
REMARK       I    between atoms: C1_2  and  N1_14 
REMARK    2  A    between atoms: C2_3  and  C3_4 
REMARK    3  A    between atoms: C3_4  and  S1_5 
REMARK    4  A    between atoms: S1_5  and  C4_8 
REMARK    5  A    between atoms: N1_14  and  N2_16 
REMARK    6  A    between atoms: N2_16  and  S2_18 
REMARK    7  A    between atoms: S2_18  and  C10_21 
ROOT
HETATM    1  O1  UNL     1      28.795  20.175  11.289  1.00  0.00    -0.272 OA
HETATM    2  C1  UNL     1      29.317  21.311  11.283  1.00  0.00     0.237 C 
HETATM    3  N1  UNL     1      30.135  21.631  12.432  1.00  0.00    -0.260 N 
ATOM      4  H1  UNL     1      30.585  22.543  12.502  1.00  0.00     0.190 HD
ENDROOT
BRANCH   2   5
HETATM    5  C2  UNL     1      29.134  22.280  10.197  1.00  0.00     0.120 C 
BRANCH   5   6
HETATM    6  C3  UNL     1      30.083  22.056   9.079  1.00  0.00     0.155 C 
BRANCH   6   7
HETATM    7  S1  UNL     1      31.785  21.952   9.526  1.00  0.00     0.176 S 
HETATM    8  O2  UNL     1      32.205  20.677  10.151  1.00  0.00    -0.223 OA
HETATM    9  O3  UNL     1      32.086  23.099  10.496  1.00  0.00    -0.223 OA
BRANCH   7  10
HETATM   10  C4  UNL     1      32.719  22.209   8.075  1.00  0.00     0.059 A 
HETATM   11  C5  UNL     1      33.799  23.054   8.081  1.00  0.00     0.023 A 
HETATM   12  C6  UNL     1      34.575  23.243   6.925  1.00  0.00     0.002 A 
HETATM   13  C7  UNL     1      34.219  22.555   5.789  1.00  0.00     0.000 A 
HETATM   14  C8  UNL     1      33.148  21.707   5.760  1.00  0.00     0.002 A 
HETATM   15  C9  UNL     1      32.392  21.539   6.929  1.00  0.00     0.023 A 
ENDBRANCH   7  10
ENDBRANCH   6   7
ENDBRANCH   5   6
ENDBRANCH   2   5
BRANCH   3  16
HETATM   16  N2  UNL     1      30.303  20.692  13.439  1.00  0.00    -0.220 N 
ATOM     17  H2  UNL     1      30.897  19.866  13.364  1.00  0.00     0.200 HD
BRANCH  16  18
HETATM   18  S2  UNL     1      29.389  21.100  14.817  1.00  0.00     0.276 S 
HETATM   19  O4  UNL     1      30.127  20.615  16.061  1.00  0.00    -0.199 OA
HETATM   20  O5  UNL     1      29.215  22.574  14.996  1.00  0.00    -0.199 OA
BRANCH  18  21
HETATM   21  C10 UNL     1      27.818  20.318  14.800  1.00  0.00     0.081 A 
HETATM   22  C11 UNL     1      26.754  20.907  14.108  1.00  0.00     0.025 A 
HETATM   23  C12 UNL     1      25.499  20.332  14.073  1.00  0.00     0.002 A 
HETATM   24  C13 UNL     1      25.250  19.144  14.728  1.00  0.00     0.000 A 
HETATM   25  C14 UNL     1      26.286  18.555  15.410  1.00  0.00     0.002 A 
HETATM   26  C15 UNL     1      27.559  19.135  15.447  1.00  0.00     0.025 A 
ENDBRANCH  18  21
ENDBRANCH  16  18
ENDBRANCH   3  16
TORSDOF 7
ENDMDL
