MODEL 1
REMARK VINA RESULT: -9.685982731      0.000      0.000
REMARK  7 active torsions:
REMARK  status: ('A' for Active; 'I' for Inactive)
REMARK    1  A    between atoms: C7_8  and  S1_9 
REMARK    2  A    between atoms: S1_9  and  N2_12 
REMARK    3  A    between atoms: N2_12  and  C8_14 
REMARK    4  A    between atoms: C8_14  and  C9_15 
REMARK    5  A    between atoms: C9_15  and  N3_16 
REMARK    6  A    between atoms: N3_16  and  S2_18 
REMARK    7  A    between atoms: S2_18  and  C10_21 
ROOT
HETATM    1  N1  UNL     1      33.235  24.059  11.355  1.00  0.00    -0.191 NA
HETATM    2  C1  UNL     1      33.640  23.870  10.268  1.00  0.00     0.101 C 
HETATM    3  C2  UNL     1      34.151  23.658   8.949  1.00  0.00     0.068 A 
HETATM    4  C3  UNL     1      35.178  24.390   8.394  1.00  0.00     0.024 A 
HETATM    5  C4  UNL     1      35.624  24.135   7.114  1.00  0.00     0.002 A 
HETATM    6  C5  UNL     1      35.061  23.143   6.350  1.00  0.00     0.002 A 
HETATM    7  C6  UNL     1      34.031  22.403   6.895  1.00  0.00     0.027 A 
HETATM    8  C7  UNL     1      33.576  22.649   8.170  1.00  0.00     0.100 A 
ENDROOT
BRANCH   8   9
HETATM    9  S1  UNL     1      32.328  21.710   8.866  1.00  0.00     0.260 S 
HETATM   10  O1  UNL     1      31.739  20.857   7.741  1.00  0.00    -0.200 OA
HETATM   11  O2  UNL     1      32.795  20.759   9.925  1.00  0.00    -0.200 OA
BRANCH   9  12
HETATM   12  N2  UNL     1      31.011  22.593   9.502  1.00  0.00    -0.314 N 
ATOM     13  H2  UNL     1      30.755  23.514   9.144  1.00  0.00     0.172 HD
BRANCH  12  14
HETATM   14  C8  UNL     1      30.291  21.969  10.558  1.00  0.00     0.152 C 
BRANCH  14  15
HETATM   15  C9  UNL     1      29.625  22.978  11.469  1.00  0.00     0.152 C 
BRANCH  15  16
HETATM   16  N3  UNL     1      30.357  23.207  12.685  1.00  0.00    -0.314 N 
ATOM     17  H3  UNL     1      31.370  23.194  12.800  1.00  0.00     0.172 HD
BRANCH  16  18
HETATM   18  S2  UNL     1      29.167  23.511  13.925  1.00  0.00     0.258 S 
HETATM   19  O3  UNL     1      29.947  23.966  15.150  1.00  0.00    -0.201 OA
HETATM   20  O4  UNL     1      28.230  24.607  13.513  1.00  0.00    -0.201 OA
BRANCH  18  21
HETATM   21  C10 UNL     1      28.333  22.046  14.355  1.00  0.00     0.079 A 
HETATM   22  C11 UNL     1      27.061  21.752  13.876  1.00  0.00     0.025 A 
HETATM   23  C12 UNL     1      26.393  20.596  14.209  1.00  0.00     0.002 A 
HETATM   24  C13 UNL     1      27.005  19.693  15.051  1.00  0.00     0.000 A 
HETATM   25  C14 UNL     1      28.259  19.941  15.549  1.00  0.00     0.002 A 
HETATM   26  C15 UNL     1      28.910  21.116  15.195  1.00  0.00     0.025 A 
ENDBRANCH  18  21
ENDBRANCH  16  18
ENDBRANCH  15  16
ENDBRANCH  14  15
ENDBRANCH  12  14
ENDBRANCH   9  12
ENDBRANCH   8   9
TORSDOF 7
ENDMDL
MODEL 2
REMARK VINA RESULT: -9.669923936      1.960      8.379
REMARK  7 active torsions:
REMARK  status: ('A' for Active; 'I' for Inactive)
REMARK    1  A    between atoms: C7_8  and  S1_9 
REMARK    2  A    between atoms: S1_9  and  N2_12 
REMARK    3  A    between atoms: N2_12  and  C8_14 
REMARK    4  A    between atoms: C8_14  and  C9_15 
REMARK    5  A    between atoms: C9_15  and  N3_16 
REMARK    6  A    between atoms: N3_16  and  S2_18 
REMARK    7  A    between atoms: S2_18  and  C10_21 
ROOT
HETATM    1  N1  UNL     1      30.019  20.420  16.536  1.00  0.00    -0.191 NA
HETATM    2  C1  UNL     1      28.999  20.250  15.978  1.00  0.00     0.101 C 
HETATM    3  C2  UNL     1      27.752  20.027  15.316  1.00  0.00     0.068 A 
HETATM    4  C3  UNL     1      26.813  19.108  15.732  1.00  0.00     0.024 A 
HETATM    5  C4  UNL     1      25.628  18.940  15.048  1.00  0.00     0.002 A 
HETATM    6  C5  UNL     1      25.342  19.685  13.930  1.00  0.00     0.002 A 
HETATM    7  C6  UNL     1      26.274  20.609  13.504  1.00  0.00     0.027 A 
HETATM    8  C7  UNL     1      27.461  20.784  14.177  1.00  0.00     0.100 A 
ENDROOT
BRANCH   8   9
HETATM    9  S1  UNL     1      28.603  21.954  13.678  1.00  0.00     0.260 S 
HETATM   10  O1  UNL     1      28.034  22.617  12.422  1.00  0.00    -0.200 OA
HETATM   11  O2  UNL     1      28.832  23.049  14.673  1.00  0.00    -0.200 OA
BRANCH   9  12
HETATM   12  N2  UNL     1      30.130  21.341  13.215  1.00  0.00    -0.314 N 
ATOM     13  H2  UNL     1      30.989  21.874  13.349  1.00  0.00     0.172 HD
BRANCH  12  14
HETATM   14  C8  UNL     1      30.132  20.045  12.630  1.00  0.00     0.152 C 
BRANCH  14  15
HETATM   15  C9  UNL     1      30.004  20.097  11.124  1.00  0.00     0.152 C 
BRANCH  15  16
HETATM   16  N3  UNL     1      31.254  20.350  10.461  1.00  0.00    -0.314 N 
ATOM     17  H3  UNL     1      32.049  19.714  10.392  1.00  0.00     0.172 HD
BRANCH  16  18
HETATM   18  S2  UNL     1      31.144  21.962   9.800  1.00  0.00     0.258 S 
HETATM   19  O3  UNL     1      29.720  22.104   9.283  1.00  0.00    -0.201 OA
HETATM   20  O4  UNL     1      31.380  22.995  10.861  1.00  0.00    -0.201 OA
BRANCH  18  21
HETATM   21  C10 UNL     1      32.212  22.147   8.439  1.00  0.00     0.079 A 
HETATM   22  C11 UNL     1      31.930  21.592   7.196  1.00  0.00     0.025 A 
HETATM   23  C12 UNL     1      32.768  21.732   6.115  1.00  0.00     0.002 A 
HETATM   24  C13 UNL     1      33.934  22.451   6.265  1.00  0.00     0.000 A 
HETATM   25  C14 UNL     1      34.255  23.017   7.473  1.00  0.00     0.002 A 
HETATM   26  C15 UNL     1      33.389  22.859   8.548  1.00  0.00     0.025 A 
ENDBRANCH  18  21
ENDBRANCH  16  18
ENDBRANCH  15  16
ENDBRANCH  14  15
ENDBRANCH  12  14
ENDBRANCH   9  12
ENDBRANCH   8   9
TORSDOF 7
ENDMDL
MODEL 3
REMARK VINA RESULT: -9.557691405      2.071      8.359
REMARK  7 active torsions:
REMARK  status: ('A' for Active; 'I' for Inactive)
REMARK    1  A    between atoms: C7_8  and  S1_9 
REMARK    2  A    between atoms: S1_9  and  N2_12 
REMARK    3  A    between atoms: N2_12  and  C8_14 
REMARK    4  A    between atoms: C8_14  and  C9_15 
REMARK    5  A    between atoms: C9_15  and  N3_16 
REMARK    6  A    between atoms: N3_16  and  S2_18 
REMARK    7  A    between atoms: S2_18  and  C10_21 
ROOT
HETATM    1  N1  UNL     1      28.061  23.011  12.471  1.00  0.00    -0.191 NA
HETATM    2  C1  UNL     1      27.654  22.124  13.126  1.00  0.00     0.101 C 
HETATM    3  C2  UNL     1      27.136  21.046  13.910  1.00  0.00     0.068 A 
HETATM    4  C3  UNL     1      25.851  20.562  13.801  1.00  0.00     0.024 A 
HETATM    5  C4  UNL     1      25.412  19.518  14.588  1.00  0.00     0.002 A 
HETATM    6  C5  UNL     1      26.243  18.924  15.505  1.00  0.00     0.002 A 
HETATM    7  C6  UNL     1      27.534  19.398  15.623  1.00  0.00     0.027 A 
HETATM    8  C7  UNL     1      27.982  20.441  14.845  1.00  0.00     0.100 A 
ENDROOT
BRANCH   8   9
HETATM    9  S1  UNL     1      29.590  21.008  14.957  1.00  0.00     0.260 S 
HETATM   10  O1  UNL     1      29.509  22.508  15.249  1.00  0.00    -0.200 OA
HETATM   11  O2  UNL     1      30.379  20.397  16.074  1.00  0.00    -0.200 OA
BRANCH   9  12
HETATM   12  N2  UNL     1      30.519  20.876  13.529  1.00  0.00    -0.314 N 
ATOM     13  H2  UNL     1      31.171  21.604  13.239  1.00  0.00     0.172 HD
BRANCH  12  14
HETATM   14  C8  UNL     1      30.329  19.689  12.768  1.00  0.00     0.152 C 
BRANCH  14  15
HETATM   15  C9  UNL     1      30.034  19.985  11.313  1.00  0.00     0.152 C 
BRANCH  15  16
HETATM   16  N3  UNL     1      31.219  20.234  10.539  1.00  0.00    -0.314 N 
ATOM     17  H3  UNL     1      32.000  19.595  10.395  1.00  0.00     0.172 HD
BRANCH  16  18
HETATM   18  S2  UNL     1      31.055  21.848   9.893  1.00  0.00     0.258 S 
HETATM   19  O3  UNL     1      29.624  21.951   9.386  1.00  0.00    -0.201 OA
HETATM   20  O4  UNL     1      31.265  22.878  10.963  1.00  0.00    -0.201 OA
BRANCH  18  21
HETATM   21  C10 UNL     1      32.108  22.079   8.528  1.00  0.00     0.079 A 
HETATM   22  C11 UNL     1      33.278  22.826   8.615  1.00  0.00     0.025 A 
HETATM   23  C12 UNL     1      34.117  23.014   7.542  1.00  0.00     0.002 A 
HETATM   24  C13 UNL     1      33.790  22.442   6.332  1.00  0.00     0.000 A 
HETATM   25  C14 UNL     1      32.645  21.697   6.199  1.00  0.00     0.002 A 
HETATM   26  C15 UNL     1      31.816  21.523   7.299  1.00  0.00     0.025 A 
ENDBRANCH  18  21
ENDBRANCH  16  18
ENDBRANCH  15  16
ENDBRANCH  14  15
ENDBRANCH  12  14
ENDBRANCH   9  12
ENDBRANCH   8   9
TORSDOF 7
ENDMDL
MODEL 4
REMARK VINA RESULT: -9.537293857      2.117      8.312
REMARK  7 active torsions:
REMARK  status: ('A' for Active; 'I' for Inactive)
REMARK    1  A    between atoms: C7_8  and  S1_9 
REMARK    2  A    between atoms: S1_9  and  N2_12 
REMARK    3  A    between atoms: N2_12  and  C8_14 
REMARK    4  A    between atoms: C8_14  and  C9_15 
REMARK    5  A    between atoms: C9_15  and  N3_16 
REMARK    6  A    between atoms: N3_16  and  S2_18 
REMARK    7  A    between atoms: S2_18  and  C10_21 
ROOT
HETATM    1  N1  UNL     1      29.604  17.421  12.270  1.00  0.00    -0.191 NA
HETATM    2  C1  UNL     1      28.827  18.190  12.702  1.00  0.00     0.101 C 
HETATM    3  C2  UNL     1      27.863  19.108  13.226  1.00  0.00     0.068 A 
HETATM    4  C3  UNL     1      26.548  18.784  13.475  1.00  0.00     0.024 A 
HETATM    5  C4  UNL     1      25.668  19.716  13.982  1.00  0.00     0.002 A 
HETATM    6  C5  UNL     1      26.073  20.999  14.258  1.00  0.00     0.002 A 
HETATM    7  C6  UNL     1      27.389  21.335  14.013  1.00  0.00     0.027 A 
HETATM    8  C7  UNL     1      28.276  20.414  13.506  1.00  0.00     0.100 A 
ENDROOT
BRANCH   8   9
HETATM    9  S1  UNL     1      29.917  20.812  13.238  1.00  0.00     0.260 S 
HETATM   10  O1  UNL     1      30.056  22.312  13.505  1.00  0.00    -0.200 OA
HETATM   11  O2  UNL     1      30.874  20.123  14.161  1.00  0.00    -0.200 OA
BRANCH   9  12
HETATM   12  N2  UNL     1      30.478  20.583  11.640  1.00  0.00    -0.314 N 
ATOM     13  H2  UNL     1      31.373  20.136  11.440  1.00  0.00     0.172 HD
BRANCH  12  14
HETATM   14  C8  UNL     1      29.623  21.052  10.604  1.00  0.00     0.152 C 
BRANCH  14  15
HETATM   15  C9  UNL     1      30.007  22.437  10.131  1.00  0.00     0.152 C 
BRANCH  15  16
HETATM   16  N3  UNL     1      31.352  22.800  10.486  1.00  0.00    -0.314 N 
ATOM     17  H3  UNL     1      31.650  23.297  11.325  1.00  0.00     0.172 HD
BRANCH  16  18
HETATM   18  S2  UNL     1      32.375  22.223   9.194  1.00  0.00     0.258 S 
HETATM   19  O3  UNL     1      32.881  20.859   9.640  1.00  0.00    -0.201 OA
HETATM   20  O4  UNL     1      31.594  22.058   7.924  1.00  0.00    -0.201 OA
BRANCH  18  21
HETATM   21  C10 UNL     1      33.762  23.253   8.995  1.00  0.00     0.079 A 
HETATM   22  C11 UNL     1      34.244  24.052  10.026  1.00  0.00     0.025 A 
HETATM   23  C12 UNL     1      35.340  24.870   9.879  1.00  0.00     0.002 A 
HETATM   24  C13 UNL     1      35.988  24.902   8.663  1.00  0.00     0.000 A 
HETATM   25  C14 UNL     1      35.549  24.132   7.617  1.00  0.00     0.002 A 
HETATM   26  C15 UNL     1      34.440  23.314   7.794  1.00  0.00     0.025 A 
ENDBRANCH  18  21
ENDBRANCH  16  18
ENDBRANCH  15  16
ENDBRANCH  14  15
ENDBRANCH  12  14
ENDBRANCH   9  12
ENDBRANCH   8   9
TORSDOF 7
ENDMDL
MODEL 5
REMARK VINA RESULT: -9.482321339      1.754      2.737
REMARK  7 active torsions:
REMARK  status: ('A' for Active; 'I' for Inactive)
REMARK    1  A    between atoms: C7_8  and  S1_9 
REMARK    2  A    between atoms: S1_9  and  N2_12 
REMARK    3  A    between atoms: N2_12  and  C8_14 
REMARK    4  A    between atoms: C8_14  and  C9_15 
REMARK    5  A    between atoms: C9_15  and  N3_16 
REMARK    6  A    between atoms: N3_16  and  S2_18 
REMARK    7  A    between atoms: S2_18  and  C10_21 
ROOT
HETATM    1  N1  UNL     1      31.958  20.246   6.742  1.00  0.00    -0.191 NA
HETATM    2  C1  UNL     1      32.654  21.119   7.109  1.00  0.00     0.101 C 
HETATM    3  C2  UNL     1      33.516  22.178   7.534  1.00  0.00     0.068 A 
HETATM    4  C3  UNL     1      34.614  22.609   6.823  1.00  0.00     0.024 A 
HETATM    5  C4  UNL     1      35.406  23.638   7.289  1.00  0.00     0.002 A 
HETATM    6  C5  UNL     1      35.125  24.269   8.475  1.00  0.00     0.002 A 
HETATM    7  C6  UNL     1      34.026  23.847   9.196  1.00  0.00     0.027 A 
HETATM    8  C7  UNL     1      33.230  22.820   8.743  1.00  0.00     0.100 A 
ENDROOT
BRANCH   8   9
HETATM    9  S1  UNL     1      31.845  22.318   9.610  1.00  0.00     0.260 S 
HETATM   10  O1  UNL     1      31.758  23.206  10.853  1.00  0.00    -0.200 OA
HETATM   11  O2  UNL     1      30.558  22.497   8.866  1.00  0.00    -0.200 OA
BRANCH   9  12
HETATM   12  N2  UNL     1      31.888  20.715  10.201  1.00  0.00    -0.314 N 
ATOM     13  H2  UNL     1      32.766  20.215  10.342  1.00  0.00     0.172 HD
BRANCH  12  14
HETATM   14  C8  UNL     1      30.628  20.120  10.486  1.00  0.00     0.152 C 
BRANCH  14  15
HETATM   15  C9  UNL     1      30.274  20.207  11.954  1.00  0.00     0.152 C 
BRANCH  15  16
HETATM   16  N3  UNL     1      30.014  21.552  12.391  1.00  0.00    -0.314 N 
ATOM     17  H3  UNL     1      30.020  22.393  11.816  1.00  0.00     0.172 HD
BRANCH  16  18
HETATM   18  S2  UNL     1      29.685  21.457  14.104  1.00  0.00     0.258 S 
HETATM   19  O3  UNL     1      30.785  20.587  14.693  1.00  0.00    -0.201 OA
HETATM   20  O4  UNL     1      29.749  22.815  14.738  1.00  0.00    -0.201 OA
BRANCH  18  21
HETATM   21  C10 UNL     1      28.171  20.653  14.400  1.00  0.00     0.079 A 
HETATM   22  C11 UNL     1      28.083  19.505  15.178  1.00  0.00     0.025 A 
HETATM   23  C12 UNL     1      26.891  18.862  15.418  1.00  0.00     0.002 A 
HETATM   24  C13 UNL     1      25.737  19.373  14.867  1.00  0.00     0.000 A 
HETATM   25  C14 UNL     1      25.774  20.505  14.092  1.00  0.00     0.002 A 
HETATM   26  C15 UNL     1      26.992  21.133  13.866  1.00  0.00     0.025 A 
ENDBRANCH  18  21
ENDBRANCH  16  18
ENDBRANCH  15  16
ENDBRANCH  14  15
ENDBRANCH  12  14
ENDBRANCH   9  12
ENDBRANCH   8   9
TORSDOF 7
ENDMDL
