MODEL 1
REMARK VINA RESULT: -8.975342895      0.000      0.000
REMARK  9 active torsions:
REMARK  status: ('A' for Active; 'I' for Inactive)
REMARK    1  A    between atoms: O1_1  and  C1_3 
REMARK    2  A    between atoms: C1_3  and  C2_4 
REMARK    3  A    between atoms: C2_4  and  C3_5 
REMARK    4  A    between atoms: C4_6  and  O2_7 
REMARK    5  A    between atoms: N1_10  and  C6_11 
REMARK    6  A    between atoms: C6_11  and  C7_12 
REMARK    7  A    between atoms: C7_12  and  C8_13 
REMARK    8  A    between atoms: C15_20  and  C16_21 
REMARK    9  A    between atoms: C16_21  and  N2_22 
ROOT
HETATM    1  C3  UNL     1      28.807  23.375  12.774  1.00  0.00     0.026 C 
HETATM    2  C4  UNL     1      30.252  23.623  12.416  1.00  0.00     0.151 C 
HETATM    3  C5  UNL     1      30.662  22.695  11.297  1.00  0.00     0.304 C 
HETATM    4  N1  UNL     1      29.604  22.527  10.368  1.00  0.00     0.091 N 
HETATM    5  C14 UNL     1      28.471  21.808  10.963  1.00  0.00     0.279 C 
HETATM    6  C15 UNL     1      28.466  21.909  12.445  1.00  0.00     0.049 C 
ENDROOT
BRANCH   4   7
HETATM    7  C6  UNL     1      29.959  21.987   9.095  1.00  0.00     0.277 C 
BRANCH   7   8
HETATM    8  C7  UNL     1      31.265  21.231   9.206  1.00  0.00     0.068 C 
BRANCH   8   9
HETATM    9  C8  UNL     1      32.222  21.690   8.145  1.00  0.00    -0.057 A 
HETATM   10  C9  UNL     1      32.111  21.243   6.857  1.00  0.00     0.007 A 
HETATM   11  C10 UNL     1      33.020  21.715   5.929  1.00  0.00     0.001 A 
HETATM   12  C11 UNL     1      34.006  22.606   6.283  1.00  0.00     0.000 A 
HETATM   13  C12 UNL     1      34.098  23.043   7.593  1.00  0.00     0.001 A 
HETATM   14  C13 UNL     1      33.204  22.581   8.511  1.00  0.00     0.007 A 
ENDBRANCH   8   9
ENDBRANCH   7   8
ENDBRANCH   4   7
BRANCH   2  15
HETATM   15  O2  UNL     1      31.137  23.452  13.458  1.00  0.00    -0.393 OA
ATOM     16  H2  UNL     1      31.829  24.101  13.498  1.00  0.00     0.210 HD
ENDBRANCH   2  15
BRANCH   6  17
HETATM   17  C16 UNL     1      27.184  21.536  13.083  1.00  0.00     0.279 C 
BRANCH  17  18
HETATM   18  N2  UNL     1      26.859  20.150  13.221  1.00  0.00     0.093 N 
HETATM   19  C17 UNL     1      27.987  19.546  13.978  1.00  0.00     0.298 C 
HETATM   20  C18 UNL     1      27.765  19.794  15.435  1.00  0.00     0.198 C 
HETATM   21  O3  UNL     1      26.854  18.812  15.871  1.00  0.00    -0.388 OA
HETATM   22  C19 UNL     1      25.917  18.595  14.881  1.00  0.00     0.198 C 
HETATM   23  C20 UNL     1      25.691  19.858  14.020  1.00  0.00     0.298 C 
ENDBRANCH  17  18
ENDBRANCH   6  17
BRANCH   1  24
HETATM   24  C2  UNL     1      28.493  23.626  14.199  1.00  0.00     0.034 C 
BRANCH  24  25
HETATM   25  C1  UNL     1      28.439  25.102  14.554  1.00  0.00     0.164 C 
BRANCH  25  26
HETATM   26  O1  UNL     1      29.498  25.317  15.468  1.00  0.00    -0.401 OA
ATOM     27  H1  UNL     1      29.091  25.637  16.264  1.00  0.00     0.209 HD
ENDBRANCH  25  26
ENDBRANCH  24  25
ENDBRANCH   1  24
TORSDOF 9
ENDMDL
MODEL 2
REMARK VINA RESULT: -8.949279441      0.823      1.074
REMARK  9 active torsions:
REMARK  status: ('A' for Active; 'I' for Inactive)
REMARK    1  A    between atoms: O1_1  and  C1_3 
REMARK    2  A    between atoms: C1_3  and  C2_4 
REMARK    3  A    between atoms: C2_4  and  C3_5 
REMARK    4  A    between atoms: C4_6  and  O2_7 
REMARK    5  A    between atoms: N1_10  and  C6_11 
REMARK    6  A    between atoms: C6_11  and  C7_12 
REMARK    7  A    between atoms: C7_12  and  C8_13 
REMARK    8  A    between atoms: C15_20  and  C16_21 
REMARK    9  A    between atoms: C16_21  and  N2_22 
ROOT
HETATM    1  C3  UNL     1      28.905  23.178  12.540  1.00  0.00     0.026 C 
HETATM    2  C4  UNL     1      30.316  23.620  12.236  1.00  0.00     0.151 C 
HETATM    3  C5  UNL     1      30.896  22.748  11.147  1.00  0.00     0.304 C 
HETATM    4  N1  UNL     1      29.910  22.427  10.179  1.00  0.00     0.091 N 
HETATM    5  C14 UNL     1      28.863  21.564  10.740  1.00  0.00     0.279 C 
HETATM    6  C15 UNL     1      28.784  21.676  12.219  1.00  0.00     0.049 C 
ENDROOT
BRANCH   4   7
HETATM    7  C6  UNL     1      30.388  21.930   8.930  1.00  0.00     0.277 C 
BRANCH   7   8
HETATM    8  C7  UNL     1      31.664  21.146   9.145  1.00  0.00     0.068 C 
BRANCH   8   9
HETATM    9  C8  UNL     1      32.667  21.485   8.081  1.00  0.00    -0.057 A 
HETATM   10  C9  UNL     1      32.907  20.629   7.043  1.00  0.00     0.007 A 
HETATM   11  C10 UNL     1      33.837  21.009   6.093  1.00  0.00     0.001 A 
HETATM   12  C11 UNL     1      34.502  22.209   6.185  1.00  0.00     0.000 A 
HETATM   13  C12 UNL     1      34.241  23.059   7.246  1.00  0.00     0.001 A 
HETATM   14  C13 UNL     1      33.326  22.688   8.184  1.00  0.00     0.007 A 
ENDBRANCH   8   9
ENDBRANCH   7   8
ENDBRANCH   4   7
BRANCH   2  15
HETATM   15  O2  UNL     1      31.172  23.582  13.315  1.00  0.00    -0.393 OA
ATOM     16  H2  UNL     1      31.236  24.399  13.796  1.00  0.00     0.210 HD
ENDBRANCH   2  15
BRANCH   6  17
HETATM   17  C16 UNL     1      27.541  21.135  12.811  1.00  0.00     0.279 C 
BRANCH  17  18
HETATM   18  N2  UNL     1      27.631  20.037  13.723  1.00  0.00     0.093 N 
HETATM   19  C17 UNL     1      26.524  20.230  14.696  1.00  0.00     0.298 C 
HETATM   20  C18 UNL     1      25.267  19.691  14.095  1.00  0.00     0.198 C 
HETATM   21  O3  UNL     1      25.295  18.297  14.297  1.00  0.00    -0.388 OA
HETATM   22  C19 UNL     1      26.589  17.846  14.137  1.00  0.00     0.198 C 
HETATM   23  C20 UNL     1      27.389  18.730  13.155  1.00  0.00     0.298 C 
ENDBRANCH  17  18
ENDBRANCH   6  17
BRANCH   1  24
HETATM   24  C2  UNL     1      28.502  23.396  13.948  1.00  0.00     0.034 C 
BRANCH  24  25
HETATM   25  C1  UNL     1      28.308  24.860  14.300  1.00  0.00     0.164 C 
BRANCH  25  26
HETATM   26  O1  UNL     1      29.305  25.160  15.260  1.00  0.00    -0.401 OA
ATOM     27  H1  UNL     1      28.869  25.128  16.104  1.00  0.00     0.209 HD
ENDBRANCH  25  26
ENDBRANCH  24  25
ENDBRANCH   1  24
TORSDOF 9
ENDMDL
MODEL 3
REMARK VINA RESULT: -8.649368671      4.903      9.602
REMARK  9 active torsions:
REMARK  status: ('A' for Active; 'I' for Inactive)
REMARK    1  A    between atoms: O1_1  and  C1_3 
REMARK    2  A    between atoms: C1_3  and  C2_4 
REMARK    3  A    between atoms: C2_4  and  C3_5 
REMARK    4  A    between atoms: C4_6  and  O2_7 
REMARK    5  A    between atoms: N1_10  and  C6_11 
REMARK    6  A    between atoms: C6_11  and  C7_12 
REMARK    7  A    between atoms: C7_12  and  C8_13 
REMARK    8  A    between atoms: C15_20  and  C16_21 
REMARK    9  A    between atoms: C16_21  and  N2_22 
ROOT
HETATM    1  C3  UNL     1      34.906  22.665   5.609  1.00  0.00     0.026 C 
HETATM    2  C4  UNL     1      34.340  21.288   5.359  1.00  0.00     0.151 C 
HETATM    3  C5  UNL     1      33.538  20.845   6.561  1.00  0.00     0.304 C 
HETATM    4  N1  UNL     1      32.825  21.936   7.121  1.00  0.00     0.091 N 
HETATM    5  C14 UNL     1      33.731  22.930   7.707  1.00  0.00     0.279 C 
HETATM    6  C15 UNL     1      35.096  22.847   7.127  1.00  0.00     0.049 C 
ENDROOT
BRANCH   4   7
HETATM    7  C6  UNL     1      31.761  21.604   8.012  1.00  0.00     0.277 C 
BRANCH   7   8
HETATM    8  C7  UNL     1      31.899  22.399   9.292  1.00  0.00     0.068 C 
BRANCH   8   9
HETATM    9  C8  UNL     1      30.581  22.464  10.008  1.00  0.00    -0.057 A 
HETATM   10  C9  UNL     1      30.497  22.943  11.285  1.00  0.00     0.007 A 
HETATM   11  C10 UNL     1      29.249  22.984  11.880  1.00  0.00     0.001 A 
HETATM   12  C11 UNL     1      28.126  22.558  11.213  1.00  0.00     0.000 A 
HETATM   13  C12 UNL     1      28.236  22.076   9.919  1.00  0.00     0.001 A 
HETATM   14  C13 UNL     1      29.463  22.034   9.330  1.00  0.00     0.007 A 
ENDBRANCH   8   9
ENDBRANCH   7   8
ENDBRANCH   4   7
BRANCH   2  15
HETATM   15  O2  UNL     1      35.285  20.320   5.097  1.00  0.00    -0.393 OA
ATOM     16  H2  UNL     1      35.272  19.987   4.207  1.00  0.00     0.210 HD
ENDBRANCH   2  15
BRANCH   6  17
HETATM   17  C16 UNL     1      35.949  24.028   7.387  1.00  0.00     0.279 C 
BRANCH  17  18
HETATM   18  N2  UNL     1      35.426  25.095   8.183  1.00  0.00     0.093 N 
HETATM   19  C17 UNL     1      36.433  25.330   9.252  1.00  0.00     0.298 C 
HETATM   20  C18 UNL     1      37.512  26.204   8.700  1.00  0.00     0.198 C 
HETATM   21  O3  UNL     1      37.027  27.525   8.769  1.00  0.00    -0.388 OA
HETATM   22  C19 UNL     1      35.681  27.527   8.470  1.00  0.00     0.198 C 
HETATM   23  C20 UNL     1      35.303  26.371   7.516  1.00  0.00     0.298 C 
ENDBRANCH  17  18
ENDBRANCH   6  17
BRANCH   1  24
HETATM   24  C2  UNL     1      36.200  22.909   4.935  1.00  0.00     0.034 C 
BRANCH  24  25
HETATM   25  C1  UNL     1      36.184  24.117   4.015  1.00  0.00     0.164 C 
BRANCH  25  26
HETATM   26  O1  UNL     1      35.134  23.884   3.093  1.00  0.00    -0.401 OA
ATOM     27  H1  UNL     1      34.448  23.450   3.588  1.00  0.00     0.209 HD
ENDBRANCH  25  26
ENDBRANCH  24  25
ENDBRANCH   1  24
TORSDOF 9
ENDMDL
MODEL 4
REMARK VINA RESULT: -8.500674687      2.112      4.310
REMARK  9 active torsions:
REMARK  status: ('A' for Active; 'I' for Inactive)
REMARK    1  A    between atoms: O1_1  and  C1_3 
REMARK    2  A    between atoms: C1_3  and  C2_4 
REMARK    3  A    between atoms: C2_4  and  C3_5 
REMARK    4  A    between atoms: C4_6  and  O2_7 
REMARK    5  A    between atoms: N1_10  and  C6_11 
REMARK    6  A    between atoms: C6_11  and  C7_12 
REMARK    7  A    between atoms: C7_12  and  C8_13 
REMARK    8  A    between atoms: C15_20  and  C16_21 
REMARK    9  A    between atoms: C16_21  and  N2_22 
ROOT
HETATM    1  C3  UNL     1      28.322  19.769  12.692  1.00  0.00     0.026 C 
HETATM    2  C4  UNL     1      27.325  19.986  11.580  1.00  0.00     0.151 C 
HETATM    3  C5  UNL     1      27.745  21.177  10.750  1.00  0.00     0.304 C 
HETATM    4  N1  UNL     1      29.155  21.220  10.607  1.00  0.00     0.091 N 
HETATM    5  C14 UNL     1      29.820  21.489  11.887  1.00  0.00     0.279 C 
HETATM    6  C15 UNL     1      28.965  21.124  13.045  1.00  0.00     0.049 C 
ENDROOT
BRANCH   4   7
HETATM    7  C6  UNL     1      29.660  22.056   9.566  1.00  0.00     0.277 C 
BRANCH   7   8
HETATM    8  C7  UNL     1      31.093  22.436   9.865  1.00  0.00     0.068 C 
BRANCH   8   9
HETATM    9  C8  UNL     1      31.941  22.270   8.637  1.00  0.00    -0.057 A 
HETATM   10  C9  UNL     1      33.219  22.752   8.595  1.00  0.00     0.007 A 
HETATM   11  C10 UNL     1      33.947  22.554   7.436  1.00  0.00     0.001 A 
HETATM   12  C11 UNL     1      33.407  21.895   6.358  1.00  0.00     0.000 A 
HETATM   13  C12 UNL     1      32.110  21.415   6.425  1.00  0.00     0.001 A 
HETATM   14  C13 UNL     1      31.390  21.608   7.564  1.00  0.00     0.007 A 
ENDBRANCH   8   9
ENDBRANCH   7   8
ENDBRANCH   4   7
BRANCH   2  15
HETATM   15  O2  UNL     1      26.031  20.198  12.005  1.00  0.00    -0.393 OA
ATOM     16  H2  UNL     1      25.606  19.430  12.368  1.00  0.00     0.210 HD
ENDBRANCH   2  15
BRANCH   6  17
HETATM   17  C16 UNL     1      29.684  21.018  14.333  1.00  0.00     0.279 C 
BRANCH  17  18
HETATM   18  N2  UNL     1      29.507  22.047  15.310  1.00  0.00     0.093 N 
HETATM   19  C17 UNL     1      30.675  21.940  16.223  1.00  0.00     0.298 C 
HETATM   20  C18 UNL     1      31.828  22.660  15.602  1.00  0.00     0.198 C 
HETATM   21  O3  UNL     1      31.642  24.027  15.886  1.00  0.00    -0.388 OA
HETATM   22  C19 UNL     1      30.297  24.325  15.807  1.00  0.00     0.198 C 
HETATM   23  C20 UNL     1      29.563  23.402  14.809  1.00  0.00     0.298 C 
ENDBRANCH  17  18
ENDBRANCH   6  17
BRANCH   1  24
HETATM   24  C2  UNL     1      27.731  19.189  13.919  1.00  0.00     0.034 C 
BRANCH  24  25
HETATM   25  C1  UNL     1      27.544  17.684  13.846  1.00  0.00     0.164 C 
BRANCH  25  26
HETATM   26  O1  UNL     1      28.695  17.184  13.191  1.00  0.00    -0.401 OA
ATOM     27  H1  UNL     1      29.075  17.926  12.735  1.00  0.00     0.209 HD
ENDBRANCH  25  26
ENDBRANCH  24  25
ENDBRANCH   1  24
TORSDOF 9
ENDMDL
MODEL 5
REMARK VINA RESULT: -8.498730871      2.034      4.374
REMARK  9 active torsions:
REMARK  status: ('A' for Active; 'I' for Inactive)
REMARK    1  A    between atoms: O1_1  and  C1_3 
REMARK    2  A    between atoms: C1_3  and  C2_4 
REMARK    3  A    between atoms: C2_4  and  C3_5 
REMARK    4  A    between atoms: C4_6  and  O2_7 
REMARK    5  A    between atoms: N1_10  and  C6_11 
REMARK    6  A    between atoms: C6_11  and  C7_12 
REMARK    7  A    between atoms: C7_12  and  C8_13 
REMARK    8  A    between atoms: C15_20  and  C16_21 
REMARK    9  A    between atoms: C16_21  and  N2_22 
ROOT
HETATM    1  C3  UNL     1      27.653  20.194  13.364  1.00  0.00     0.026 C 
HETATM    2  C4  UNL     1      26.808  19.936  12.140  1.00  0.00     0.151 C 
HETATM    3  C5  UNL     1      27.167  20.929  11.059  1.00  0.00     0.304 C 
HETATM    4  N1  UNL     1      28.561  21.187  11.054  1.00  0.00     0.091 N 
HETATM    5  C14 UNL     1      28.985  21.890  12.270  1.00  0.00     0.279 C 
HETATM    6  C15 UNL     1      28.032  21.687  13.390  1.00  0.00     0.049 C 
ENDROOT
BRANCH   4   7
HETATM    7  C6  UNL     1      29.085  21.804   9.879  1.00  0.00     0.277 C 
BRANCH   7   8
HETATM    8  C7  UNL     1      30.370  22.530  10.212  1.00  0.00     0.068 C 
BRANCH   8   9
HETATM    9  C8  UNL     1      31.392  22.296   9.138  1.00  0.00    -0.057 A 
HETATM   10  C9  UNL     1      32.695  22.670   9.314  1.00  0.00     0.007 A 
HETATM   11  C10 UNL     1      33.586  22.413   8.287  1.00  0.00     0.001 A 
HETATM   12  C11 UNL     1      33.179  21.803   7.125  1.00  0.00     0.000 A 
HETATM   13  C12 UNL     1      31.854  21.434   6.970  1.00  0.00     0.001 A 
HETATM   14  C13 UNL     1      30.973  21.684   7.979  1.00  0.00     0.007 A 
ENDBRANCH   8   9
ENDBRANCH   7   8
ENDBRANCH   4   7
BRANCH   2  15
HETATM   15  O2  UNL     1      25.449  20.013  12.356  1.00  0.00    -0.393 OA
ATOM     16  H2  UNL     1      24.956  20.387  11.636  1.00  0.00     0.210 HD
ENDBRANCH   2  15
BRANCH   6  17
HETATM   17  C16 UNL     1      28.562  22.047  14.723  1.00  0.00     0.279 C 
BRANCH  17  18
HETATM   18  N2  UNL     1      29.979  22.094  14.913  1.00  0.00     0.093 N 
HETATM   19  C17 UNL     1      30.374  23.502  14.644  1.00  0.00     0.298 C 
HETATM   20  C18 UNL     1      30.132  24.305  15.882  1.00  0.00     0.198 C 
HETATM   21  O3  UNL     1      31.239  24.081  16.723  1.00  0.00    -0.388 OA
HETATM   22  C19 UNL     1      31.628  22.762  16.615  1.00  0.00     0.198 C 
HETATM   23  C20 UNL     1      30.440  21.841  16.259  1.00  0.00     0.298 C 
ENDBRANCH  17  18
ENDBRANCH   6  17
BRANCH   1  24
HETATM   24  C2  UNL     1      26.979  19.852  14.637  1.00  0.00     0.034 C 
BRANCH  24  25
HETATM   25  C1  UNL     1      27.005  18.368  14.954  1.00  0.00     0.164 C 
BRANCH  25  26
HETATM   26  O1  UNL     1      25.696  17.895  14.690  1.00  0.00    -0.401 OA
ATOM     27  H1  UNL     1      25.197  18.065  15.481  1.00  0.00     0.209 HD
ENDBRANCH  25  26
ENDBRANCH  24  25
ENDBRANCH   1  24
TORSDOF 9
ENDMDL
