MODEL 1
REMARK VINA RESULT: -8.574905613      0.000      0.000
REMARK  9 active torsions:
REMARK  status: ('A' for Active; 'I' for Inactive)
REMARK    1  A    between atoms: N1_3  and  C2_4 
REMARK    2  A    between atoms: C2_4  and  C3_5 
REMARK    3  A    between atoms: C3_5  and  N2_6 
REMARK    4  A    between atoms: C8_12  and  C9_13 
REMARK    5  A    between atoms: C9_13  and  C10_14 
REMARK    6  A    between atoms: C10_14  and  C11_15 
REMARK    7  A    between atoms: C11_15  and  O3_16 
REMARK    8  A    between atoms: C13_19  and  O4_20 
REMARK    9  A    between atoms: C13_19  and  C14_22 
ROOT
HETATM    1  O1  UNL     1      26.785  22.422  13.911  1.00  0.00    -0.270 OA
HETATM    2  C1  UNL     1      27.829  22.360  13.232  1.00  0.00     0.259 C 
HETATM    3  N1  UNL     1      28.227  21.269  12.364  1.00  0.00    -0.343 N 
HETATM    4  C8  UNL     1      28.902  21.877  11.284  1.00  0.00     0.091 C 
HETATM    5  C12 UNL     1      29.522  23.167  11.853  1.00  0.00     0.078 C 
HETATM    6  C13 UNL     1      28.888  23.409  13.173  1.00  0.00     0.167 C 
ENDROOT
BRANCH   3   7
HETATM    7  C2  UNL     1      27.915  19.916  12.672  1.00  0.00     0.156 C 
BRANCH   7   8
HETATM    8  C3  UNL     1      28.684  19.343  13.845  1.00  0.00     0.292 C 
BRANCH   8   9
HETATM    9  N2  UNL     1      27.789  19.235  14.977  1.00  0.00     0.094 N 
HETATM   10  C4  UNL     1      27.333  17.915  15.258  1.00  0.00     0.298 C 
HETATM   11  C5  UNL     1      26.655  17.766  16.577  1.00  0.00     0.198 C 
HETATM   12  O2  UNL     1      27.289  18.333  17.648  1.00  0.00    -0.388 OA
HETATM   13  C6  UNL     1      28.421  19.043  17.351  1.00  0.00     0.198 C 
HETATM   14  C7  UNL     1      28.261  19.928  16.133  1.00  0.00     0.298 C 
ENDBRANCH   8   9
ENDBRANCH   7   8
ENDBRANCH   3   7
BRANCH   4  15
HETATM   15  C9  UNL     1      29.967  21.174  10.565  1.00  0.00     0.027 C 
BRANCH  15  16
HETATM   16  C10 UNL     1      30.788  21.851   9.562  1.00  0.00     0.028 C 
BRANCH  16  17
HETATM   17  C11 UNL     1      32.183  21.316   9.391  1.00  0.00     0.164 C 
BRANCH  17  18
HETATM   18  O3  UNL     1      33.141  22.219   9.889  1.00  0.00    -0.401 OA
ATOM     19  H3  UNL     1      33.603  22.656   9.183  1.00  0.00     0.209 HD
ENDBRANCH  17  18
ENDBRANCH  16  17
ENDBRANCH  15  16
ENDBRANCH   4  15
BRANCH   6  20
HETATM   20  O4  UNL     1      28.256  24.669  13.199  1.00  0.00    -0.375 OA
ATOM     21  H4  UNL     1      28.517  25.144  12.419  1.00  0.00     0.211 HD
ENDBRANCH   6  20
BRANCH   6  22
HETATM   22  C14 UNL     1      29.769  23.317  14.348  1.00  0.00    -0.015 A 
HETATM   23  C15 UNL     1      29.830  24.338  15.273  1.00  0.00     0.011 A 
HETATM   24  C16 UNL     1      30.652  24.296  16.390  1.00  0.00     0.001 A 
HETATM   25  C17 UNL     1      31.444  23.216  16.610  1.00  0.00     0.000 A 
HETATM   26  C18 UNL     1      31.407  22.182  15.708  1.00  0.00     0.001 A 
HETATM   27  C19 UNL     1      30.573  22.230  14.580  1.00  0.00     0.011 A 
ENDBRANCH   6  22
TORSDOF 9
ENDMDL
MODEL 2
REMARK VINA RESULT: -8.563230395      2.136      6.114
REMARK  9 active torsions:
REMARK  status: ('A' for Active; 'I' for Inactive)
REMARK    1  A    between atoms: N1_3  and  C2_4 
REMARK    2  A    between atoms: C2_4  and  C3_5 
REMARK    3  A    between atoms: C3_5  and  N2_6 
REMARK    4  A    between atoms: C8_12  and  C9_13 
REMARK    5  A    between atoms: C9_13  and  C10_14 
REMARK    6  A    between atoms: C10_14  and  C11_15 
REMARK    7  A    between atoms: C11_15  and  O3_16 
REMARK    8  A    between atoms: C13_19  and  O4_20 
REMARK    9  A    between atoms: C13_19  and  C14_22 
ROOT
HETATM    1  O1  UNL     1      28.718  16.998  13.227  1.00  0.00    -0.270 OA
HETATM    2  C1  UNL     1      28.240  18.149  13.261  1.00  0.00     0.259 C 
HETATM    3  N1  UNL     1      28.666  19.281  12.462  1.00  0.00    -0.343 N 
HETATM    4  C8  UNL     1      27.491  20.017  12.199  1.00  0.00     0.091 C 
HETATM    5  C12 UNL     1      26.557  19.751  13.394  1.00  0.00     0.078 C 
HETATM    6  C13 UNL     1      27.120  18.597  14.138  1.00  0.00     0.167 C 
ENDROOT
BRANCH   3   7
HETATM    7  C2  UNL     1      30.027  19.465  12.090  1.00  0.00     0.156 C 
BRANCH   7   8
HETATM    8  C3  UNL     1      30.269  19.516  10.595  1.00  0.00     0.292 C 
BRANCH   8   9
HETATM    9  N2  UNL     1      30.989  20.731  10.282  1.00  0.00     0.094 N 
HETATM   10  C4  UNL     1      32.289  20.534   9.733  1.00  0.00     0.298 C 
HETATM   11  C5  UNL     1      32.903  21.762   9.152  1.00  0.00     0.198 C 
HETATM   12  O2  UNL     1      32.102  22.506   8.331  1.00  0.00    -0.388 OA
HETATM   13  C6  UNL     1      30.808  22.071   8.223  1.00  0.00     0.198 C 
HETATM   14  C7  UNL     1      30.204  21.676   9.553  1.00  0.00     0.298 C 
ENDBRANCH   8   9
ENDBRANCH   7   8
ENDBRANCH   3   7
BRANCH   4  15
HETATM   15  C9  UNL     1      27.534  21.468  12.007  1.00  0.00     0.027 C 
BRANCH  15  16
HETATM   16  C10 UNL     1      27.907  22.373  13.092  1.00  0.00     0.028 C 
BRANCH  16  17
HETATM   17  C11 UNL     1      28.812  23.513  12.711  1.00  0.00     0.164 C 
BRANCH  17  18
HETATM   18  O3  UNL     1      28.376  24.724  13.280  1.00  0.00    -0.401 OA
ATOM     19  H3  UNL     1      29.070  25.373  13.283  1.00  0.00     0.209 HD
ENDBRANCH  17  18
ENDBRANCH  16  17
ENDBRANCH  15  16
ENDBRANCH   4  15
BRANCH   6  20
HETATM   20  O4  UNL     1      26.181  17.548  14.215  1.00  0.00    -0.375 OA
ATOM     21  H4  UNL     1      26.219  17.183  15.091  1.00  0.00     0.211 HD
ENDBRANCH   6  20
BRANCH   6  22
HETATM   22  C14 UNL     1      27.609  18.871  15.498  1.00  0.00    -0.015 A 
HETATM   23  C15 UNL     1      27.169  18.132  16.575  1.00  0.00     0.011 A 
HETATM   24  C16 UNL     1      27.597  18.361  17.875  1.00  0.00     0.001 A 
HETATM   25  C17 UNL     1      28.490  19.352  18.130  1.00  0.00     0.000 A 
HETATM   26  C18 UNL     1      28.949  20.106  17.079  1.00  0.00     0.001 A 
HETATM   27  C19 UNL     1      28.511  19.869  15.768  1.00  0.00     0.011 A 
ENDBRANCH   6  22
TORSDOF 9
ENDMDL
MODEL 3
REMARK VINA RESULT: -8.559320736      2.065      5.527
REMARK  9 active torsions:
REMARK  status: ('A' for Active; 'I' for Inactive)
REMARK    1  A    between atoms: N1_3  and  C2_4 
REMARK    2  A    between atoms: C2_4  and  C3_5 
REMARK    3  A    between atoms: C3_5  and  N2_6 
REMARK    4  A    between atoms: C8_12  and  C9_13 
REMARK    5  A    between atoms: C9_13  and  C10_14 
REMARK    6  A    between atoms: C10_14  and  C11_15 
REMARK    7  A    between atoms: C11_15  and  O3_16 
REMARK    8  A    between atoms: C13_19  and  O4_20 
REMARK    9  A    between atoms: C13_19  and  C14_22 
ROOT
HETATM    1  O1  UNL     1      28.422  23.798  12.297  1.00  0.00    -0.270 OA
HETATM    2  C1  UNL     1      28.158  22.585  12.190  1.00  0.00     0.259 C 
HETATM    3  N1  UNL     1      27.834  21.677  13.273  1.00  0.00    -0.343 N 
HETATM    4  C8  UNL     1      26.889  20.776  12.737  1.00  0.00     0.091 C 
HETATM    5  C12 UNL     1      27.203  20.690  11.232  1.00  0.00     0.078 C 
HETATM    6  C13 UNL     1      28.118  21.814  10.913  1.00  0.00     0.167 C 
ENDROOT
BRANCH   3   7
HETATM    7  C2  UNL     1      28.424  21.807  14.561  1.00  0.00     0.156 C 
BRANCH   7   8
HETATM    8  C3  UNL     1      29.924  21.601  14.589  1.00  0.00     0.292 C 
BRANCH   8   9
HETATM    9  N2  UNL     1      30.512  22.594  15.463  1.00  0.00     0.094 N 
HETATM   10  C4  UNL     1      31.047  22.081  16.680  1.00  0.00     0.298 C 
HETATM   11  C5  UNL     1      31.896  23.046  17.434  1.00  0.00     0.198 C 
HETATM   12  O2  UNL     1      32.832  23.725  16.703  1.00  0.00    -0.388 OA
HETATM   13  C6  UNL     1      32.804  23.492  15.354  1.00  0.00     0.198 C 
HETATM   14  C7  UNL     1      31.401  23.483  14.786  1.00  0.00     0.298 C 
ENDBRANCH   8   9
ENDBRANCH   7   8
ENDBRANCH   3   7
BRANCH   4  15
HETATM   15  C9  UNL     1      26.789  19.401  13.231  1.00  0.00     0.027 C 
BRANCH  15  16
HETATM   16  C10 UNL     1      25.986  19.066  14.405  1.00  0.00     0.028 C 
BRANCH  16  17
HETATM   17  C11 UNL     1      26.731  18.434  15.549  1.00  0.00     0.164 C 
BRANCH  17  18
HETATM   18  O3  UNL     1      27.035  17.088  15.279  1.00  0.00    -0.401 OA
ATOM     19  H3  UNL     1      27.788  16.796  15.781  1.00  0.00     0.209 HD
ENDBRANCH  17  18
ENDBRANCH  16  17
ENDBRANCH  15  16
ENDBRANCH   4  15
BRANCH   6  20
HETATM   20  O4  UNL     1      27.559  22.645   9.921  1.00  0.00    -0.375 OA
ATOM     21  H4  UNL     1      26.615  22.550   9.955  1.00  0.00     0.211 HD
ENDBRANCH   6  20
BRANCH   6  22
HETATM   22  C14 UNL     1      29.479  21.449  10.490  1.00  0.00    -0.015 A 
HETATM   23  C15 UNL     1      30.195  22.252   9.627  1.00  0.00     0.011 A 
HETATM   24  C16 UNL     1      31.477  21.943   9.196  1.00  0.00     0.001 A 
HETATM   25  C17 UNL     1      32.080  20.805   9.625  1.00  0.00     0.000 A 
HETATM   26  C18 UNL     1      31.395  19.983  10.485  1.00  0.00     0.001 A 
HETATM   27  C19 UNL     1      30.098  20.303  10.917  1.00  0.00     0.011 A 
ENDBRANCH   6  22
TORSDOF 9
ENDMDL
MODEL 4
REMARK VINA RESULT: -8.546651780      2.389      5.199
REMARK  9 active torsions:
REMARK  status: ('A' for Active; 'I' for Inactive)
REMARK    1  A    between atoms: N1_3  and  C2_4 
REMARK    2  A    between atoms: C2_4  and  C3_5 
REMARK    3  A    between atoms: C3_5  and  N2_6 
REMARK    4  A    between atoms: C8_12  and  C9_13 
REMARK    5  A    between atoms: C9_13  and  C10_14 
REMARK    6  A    between atoms: C10_14  and  C11_15 
REMARK    7  A    between atoms: C11_15  and  O3_16 
REMARK    8  A    between atoms: C13_19  and  O4_20 
REMARK    9  A    between atoms: C13_19  and  C14_22 
ROOT
HETATM    1  O1  UNL     1      28.476  23.851  12.102  1.00  0.00    -0.270 OA
HETATM    2  C1  UNL     1      28.239  22.630  12.026  1.00  0.00     0.259 C 
HETATM    3  N1  UNL     1      27.944  21.740  13.132  1.00  0.00    -0.343 N 
HETATM    4  C8  UNL     1      27.017  20.805  12.623  1.00  0.00     0.091 C 
HETATM    5  C12 UNL     1      27.323  20.691  11.119  1.00  0.00     0.078 C 
HETATM    6  C13 UNL     1      28.209  21.829  10.767  1.00  0.00     0.167 C 
ENDROOT
BRANCH   3   7
HETATM    7  C2  UNL     1      28.539  21.914  14.412  1.00  0.00     0.156 C 
BRANCH   7   8
HETATM    8  C3  UNL     1      30.045  21.748  14.433  1.00  0.00     0.292 C 
BRANCH   8   9
HETATM    9  N2  UNL     1      30.600  22.675  15.396  1.00  0.00     0.094 N 
HETATM   10  C4  UNL     1      31.025  22.085  16.621  1.00  0.00     0.298 C 
HETATM   11  C5  UNL     1      31.848  22.981  17.483  1.00  0.00     0.198 C 
HETATM   12  O2  UNL     1      32.859  23.657  16.857  1.00  0.00    -0.388 OA
HETATM   13  C6  UNL     1      32.923  23.490  15.499  1.00  0.00     0.198 C 
HETATM   14  C7  UNL     1      31.567  23.561  14.830  1.00  0.00     0.298 C 
ENDBRANCH   8   9
ENDBRANCH   7   8
ENDBRANCH   3   7
BRANCH   4  15
HETATM   15  C9  UNL     1      26.952  19.440  13.149  1.00  0.00     0.027 C 
BRANCH  15  16
HETATM   16  C10 UNL     1      28.162  18.660  13.405  1.00  0.00     0.028 C 
BRANCH  16  17
HETATM   17  C11 UNL     1      28.549  17.681  12.331  1.00  0.00     0.164 C 
BRANCH  17  18
HETATM   18  O3  UNL     1      29.118  16.518  12.881  1.00  0.00    -0.401 OA
ATOM     19  H3  UNL     1      29.554  15.999  12.215  1.00  0.00     0.209 HD
ENDBRANCH  17  18
ENDBRANCH  16  17
ENDBRANCH  15  16
ENDBRANCH   4  15
BRANCH   6  20
HETATM   20  O4  UNL     1      27.625  22.623   9.759  1.00  0.00    -0.375 OA
ATOM     21  H4  UNL     1      26.682  22.596   9.874  1.00  0.00     0.211 HD
ENDBRANCH   6  20
BRANCH   6  22
HETATM   22  C14 UNL     1      29.576  21.486  10.343  1.00  0.00    -0.015 A 
HETATM   23  C15 UNL     1      30.265  22.283   9.454  1.00  0.00     0.011 A 
HETATM   24  C16 UNL     1      31.551  21.993   9.020  1.00  0.00     0.001 A 
HETATM   25  C17 UNL     1      32.185  20.882   9.474  1.00  0.00     0.000 A 
HETATM   26  C18 UNL     1      31.527  20.067  10.361  1.00  0.00     0.001 A 
HETATM   27  C19 UNL     1      30.226  20.366  10.794  1.00  0.00     0.011 A 
ENDBRANCH   6  22
TORSDOF 9
ENDMDL
MODEL 5
REMARK VINA RESULT: -8.510634257      1.076      1.425
REMARK  9 active torsions:
REMARK  status: ('A' for Active; 'I' for Inactive)
REMARK    1  A    between atoms: N1_3  and  C2_4 
REMARK    2  A    between atoms: C2_4  and  C3_5 
REMARK    3  A    between atoms: C3_5  and  N2_6 
REMARK    4  A    between atoms: C8_12  and  C9_13 
REMARK    5  A    between atoms: C9_13  and  C10_14 
REMARK    6  A    between atoms: C10_14  and  C11_15 
REMARK    7  A    between atoms: C11_15  and  O3_16 
REMARK    8  A    between atoms: C13_19  and  O4_20 
REMARK    9  A    between atoms: C13_19  and  C14_22 
ROOT
HETATM    1  O1  UNL     1      26.792  22.113  13.780  1.00  0.00    -0.270 OA
HETATM    2  C1  UNL     1      27.879  22.182  13.174  1.00  0.00     0.259 C 
HETATM    3  N1  UNL     1      28.363  21.256  12.168  1.00  0.00    -0.343 N 
HETATM    4  C8  UNL     1      29.089  22.045  11.251  1.00  0.00     0.091 C 
HETATM    5  C12 UNL     1      29.634  23.233  12.064  1.00  0.00     0.078 C 
HETATM    6  C13 UNL     1      28.910  23.244  13.359  1.00  0.00     0.167 C 
ENDROOT
BRANCH   3   7
HETATM    7  C2  UNL     1      28.069  19.865  12.228  1.00  0.00     0.156 C 
BRANCH   7   8
HETATM    8  C3  UNL     1      28.750  19.127  13.363  1.00  0.00     0.292 C 
BRANCH   8   9
HETATM    9  N2  UNL     1      27.750  18.378  14.094  1.00  0.00     0.094 N 
HETATM   10  C4  UNL     1      27.672  18.681  15.484  1.00  0.00     0.298 C 
HETATM   11  C5  UNL     1      26.467  18.128  16.166  1.00  0.00     0.198 C 
HETATM   12  O2  UNL     1      25.272  18.318  15.527  1.00  0.00    -0.388 OA
HETATM   13  C6  UNL     1      25.354  18.912  14.296  1.00  0.00     0.198 C 
HETATM   14  C7  UNL     1      26.478  18.360  13.446  1.00  0.00     0.298 C 
ENDBRANCH   8   9
ENDBRANCH   7   8
ENDBRANCH   3   7
BRANCH   4  15
HETATM   15  C9  UNL     1      30.216  21.489  10.500  1.00  0.00     0.027 C 
BRANCH  15  16
HETATM   16  C10 UNL     1      30.568  21.983   9.170  1.00  0.00     0.028 C 
BRANCH  16  17
HETATM   17  C11 UNL     1      32.037  22.170   8.909  1.00  0.00     0.164 C 
BRANCH  17  18
HETATM   18  O3  UNL     1      32.816  21.424   9.813  1.00  0.00    -0.401 OA
ATOM     19  H3  UNL     1      33.501  21.957  10.200  1.00  0.00     0.209 HD
ENDBRANCH  17  18
ENDBRANCH  16  17
ENDBRANCH  15  16
ENDBRANCH   4  15
BRANCH   6  20
HETATM   20  O4  UNL     1      28.243  24.471  13.547  1.00  0.00    -0.375 OA
ATOM     21  H4  UNL     1      28.288  24.691  14.470  1.00  0.00     0.211 HD
ENDBRANCH   6  20
BRANCH   6  22
HETATM   22  C14 UNL     1      29.716  22.974  14.561  1.00  0.00    -0.015 A 
HETATM   23  C15 UNL     1      30.488  23.961  15.135  1.00  0.00     0.011 A 
HETATM   24  C16 UNL     1      31.269  23.748  16.263  1.00  0.00     0.001 A 
HETATM   25  C17 UNL     1      31.295  22.524  16.848  1.00  0.00     0.000 A 
HETATM   26  C18 UNL     1      30.537  21.519  16.301  1.00  0.00     0.001 A 
HETATM   27  C19 UNL     1      29.750  21.741  15.161  1.00  0.00     0.011 A 
ENDBRANCH   6  22
TORSDOF 9
ENDMDL
