MODEL 1
REMARK VINA RESULT: -9.013155528      0.000      0.000
REMARK  7 active torsions:
REMARK  status: ('A' for Active; 'I' for Inactive)
REMARK    1  A    between atoms: N1_5  and  C4_6 
REMARK    2  A    between atoms: C4_6  and  C5_7 
REMARK    3  A    between atoms: C5_7  and  C6_8 
REMARK    4  A    between atoms: C6_8  and  C7_9 
REMARK    5  A    between atoms: C7_9  and  N2_10 
REMARK    6  A    between atoms: N3_14  and  C11_15 
REMARK    7  A    between atoms: C11_15  and  C12_16 
ROOT
HETATM    1  N2  UNL     1      27.494  21.749  11.369  1.00  0.00     0.090 N 
HETATM    2  C8  UNL     1      27.037  20.398  11.496  1.00  0.00     0.274 C 
HETATM    3  C9  UNL     1      28.106  19.424  11.884  1.00  0.00     0.050 C 
HETATM    4  C10 UNL     1      28.924  19.869  13.066  1.00  0.00     0.119 C 
HETATM    5  N3  UNL     1      28.162  20.481  14.096  1.00  0.00    -0.405 N 
HETATM    6  C15 UNL     1      27.511  21.699  13.788  1.00  0.00     0.147 C 
HETATM    7  C16 UNL     1      27.961  22.378  12.549  1.00  0.00     0.291 C 
ENDROOT
BRANCH   1   8
HETATM    8  C7  UNL     1      28.354  21.954  10.224  1.00  0.00     0.272 C 
BRANCH   8   9
HETATM    9  C6  UNL     1      29.693  22.504  10.587  1.00  0.00     0.032 C 
BRANCH   9  10
HETATM   10  C5  UNL     1      30.835  21.673  10.045  1.00  0.00     0.032 C 
BRANCH  10  11
HETATM   11  C4  UNL     1      30.776  21.848   8.528  1.00  0.00     0.272 C 
BRANCH  11  12
HETATM   12  N1  UNL     1      32.078  21.912   7.940  1.00  0.00     0.090 N 
HETATM   13  C3  UNL     1      32.391  20.754   7.139  1.00  0.00     0.281 C 
HETATM   14  C2  UNL     1      33.775  20.780   6.574  1.00  0.00     0.133 C 
HETATM   15  C1  UNL     1      34.264  22.162   6.321  1.00  0.00     0.219 C 
HETATM   16  O1  UNL     1      34.488  22.502   5.130  1.00  0.00    -0.274 OA
HETATM   17  N6  UNL     1      34.520  23.186   7.270  1.00  0.00    -0.359 N 
HETATM   18  C18 UNL     1      33.948  23.369   8.577  1.00  0.00     0.152 C 
ATOM     19  H6  UNL     1      35.203  23.889   6.987  1.00  0.00     0.162 HD
HETATM   20  C17 UNL     1      33.073  22.181   8.952  1.00  0.00     0.292 C 
ENDBRANCH  11  12
ENDBRANCH  10  11
ENDBRANCH   9  10
ENDBRANCH   8   9
ENDBRANCH   1   8
BRANCH   5  21
HETATM   21  C11 UNL     1      27.508  19.598  14.994  1.00  0.00     0.175 C 
BRANCH  21  22
HETATM   22  C12 UNL     1      28.163  19.505  16.331  1.00  0.00     0.043 A 
HETATM   23  C13 UNL     1      27.742  18.632  17.306  1.00  0.00     0.115 A 
HETATM   24  N4  UNL     1      28.530  18.800  18.382  1.00  0.00    -0.360 N 
HETATM   25  C14 UNL     1      29.420  19.759  18.073  1.00  0.00     0.180 A 
ATOM     26  H4  UNL     1      28.465  18.295  19.267  1.00  0.00     0.166 HD
HETATM   27  N5  UNL     1      29.188  20.181  16.823  1.00  0.00    -0.353 N 
ATOM     28  H5  UNL     1      29.715  20.903  16.332  1.00  0.00     0.166 HD
ENDBRANCH  21  22
ENDBRANCH   5  21
TORSDOF 7
ENDMDL
MODEL 2
REMARK VINA RESULT: -8.910734997      2.315      2.757
REMARK  7 active torsions:
REMARK  status: ('A' for Active; 'I' for Inactive)
REMARK    1  A    between atoms: N1_5  and  C4_6 
REMARK    2  A    between atoms: C4_6  and  C5_7 
REMARK    3  A    between atoms: C5_7  and  C6_8 
REMARK    4  A    between atoms: C6_8  and  C7_9 
REMARK    5  A    between atoms: C7_9  and  N2_10 
REMARK    6  A    between atoms: N3_14  and  C11_15 
REMARK    7  A    between atoms: C11_15  and  C12_16 
ROOT
HETATM    1  N2  UNL     1      27.533  21.763  12.414  1.00  0.00     0.090 N 
HETATM    2  C8  UNL     1      27.635  20.660  13.321  1.00  0.00     0.274 C 
HETATM    3  C9  UNL     1      28.982  20.007  13.343  1.00  0.00     0.050 C 
HETATM    4  C10 UNL     1      30.119  20.982  13.491  1.00  0.00     0.119 C 
HETATM    5  N3  UNL     1      29.861  22.031  14.412  1.00  0.00    -0.405 N 
HETATM    6  C15 UNL     1      28.818  22.933  14.097  1.00  0.00     0.147 C 
HETATM    7  C16 UNL     1      28.333  22.897  12.696  1.00  0.00     0.291 C 
ENDROOT
BRANCH   1   8
HETATM    8  C7  UNL     1      27.565  21.361  11.024  1.00  0.00     0.272 C 
BRANCH   8   9
HETATM    9  C6  UNL     1      28.487  22.193  10.196  1.00  0.00     0.032 C 
BRANCH   9  10
HETATM   10  C5  UNL     1      29.773  21.475   9.849  1.00  0.00     0.032 C 
BRANCH  10  11
HETATM   11  C4  UNL     1      30.855  22.552   9.873  1.00  0.00     0.272 C 
BRANCH  11  12
HETATM   12  N1  UNL     1      31.867  22.326   8.888  1.00  0.00     0.090 N 
HETATM   13  C3  UNL     1      31.737  21.048   8.231  1.00  0.00     0.281 C 
HETATM   14  C2  UNL     1      32.828  20.774   7.246  1.00  0.00     0.133 C 
HETATM   15  C1  UNL     1      33.362  22.015   6.624  1.00  0.00     0.219 C 
HETATM   16  O1  UNL     1      33.197  22.176   5.387  1.00  0.00    -0.274 OA
HETATM   17  N6  UNL     1      34.057  23.080   7.255  1.00  0.00    -0.359 N 
HETATM   18  C18 UNL     1      34.005  23.503   8.628  1.00  0.00     0.152 C 
ATOM     19  H6  UNL     1      34.679  23.619   6.652  1.00  0.00     0.162 HD
HETATM   20  C17 UNL     1      33.177  22.533   9.459  1.00  0.00     0.292 C 
ENDBRANCH  11  12
ENDBRANCH  10  11
ENDBRANCH   9  10
ENDBRANCH   8   9
ENDBRANCH   1   8
BRANCH   5  21
HETATM   21  C11 UNL     1      30.068  21.721  15.782  1.00  0.00     0.175 C 
BRANCH  21  22
HETATM   22  C12 UNL     1      31.201  22.465  16.404  1.00  0.00     0.043 A 
HETATM   23  C13 UNL     1      31.990  23.343  15.700  1.00  0.00     0.115 A 
HETATM   24  N4  UNL     1      32.915  23.836  16.541  1.00  0.00    -0.360 N 
HETATM   25  C14 UNL     1      32.697  23.271  17.741  1.00  0.00     0.180 A 
ATOM     26  H4  UNL     1      33.645  24.512  16.312  1.00  0.00     0.166 HD
HETATM   27  N5  UNL     1      31.652  22.439  17.647  1.00  0.00    -0.353 N 
ATOM     28  H5  UNL     1      31.267  21.880  18.408  1.00  0.00     0.166 HD
ENDBRANCH  21  22
ENDBRANCH   5  21
TORSDOF 7
ENDMDL
MODEL 3
REMARK VINA RESULT: -8.652384627      1.570      2.336
REMARK  7 active torsions:
REMARK  status: ('A' for Active; 'I' for Inactive)
REMARK    1  A    between atoms: N1_5  and  C4_6 
REMARK    2  A    between atoms: C4_6  and  C5_7 
REMARK    3  A    between atoms: C5_7  and  C6_8 
REMARK    4  A    between atoms: C6_8  and  C7_9 
REMARK    5  A    between atoms: C7_9  and  N2_10 
REMARK    6  A    between atoms: N3_14  and  C11_15 
REMARK    7  A    between atoms: C11_15  and  C12_16 
ROOT
HETATM    1  N2  UNL     1      28.697  22.493  10.663  1.00  0.00     0.090 N 
HETATM    2  C8  UNL     1      27.490  21.723  10.664  1.00  0.00     0.274 C 
HETATM    3  C9  UNL     1      27.638  20.354  11.250  1.00  0.00     0.050 C 
HETATM    4  C10 UNL     1      28.328  20.344  12.588  1.00  0.00     0.119 C 
HETATM    5  N3  UNL     1      27.939  21.408  13.444  1.00  0.00    -0.405 N 
HETATM    6  C15 UNL     1      28.248  22.724  13.029  1.00  0.00     0.147 C 
HETATM    7  C16 UNL     1      29.233  22.842  11.927  1.00  0.00     0.291 C 
ENDROOT
BRANCH   1   8
HETATM    8  C7  UNL     1      29.686  22.000   9.729  1.00  0.00     0.272 C 
BRANCH   8   9
HETATM    9  C6  UNL     1      31.073  22.446  10.055  1.00  0.00     0.032 C 
BRANCH   9  10
HETATM   10  C5  UNL     1      32.133  21.571   9.424  1.00  0.00     0.032 C 
BRANCH  10  11
HETATM   11  C4  UNL     1      33.213  22.535   8.937  1.00  0.00     0.272 C 
BRANCH  11  12
HETATM   12  N1  UNL     1      33.727  22.170   7.654  1.00  0.00     0.090 N 
HETATM   13  C3  UNL     1      34.140  23.307   6.868  1.00  0.00     0.281 C 
HETATM   14  C2  UNL     1      34.617  22.941   5.499  1.00  0.00     0.133 C 
HETATM   15  C1  UNL     1      35.233  21.589   5.451  1.00  0.00     0.219 C 
HETATM   16  O1  UNL     1      36.458  21.506   5.174  1.00  0.00    -0.274 OA
HETATM   17  N6  UNL     1      34.610  20.334   5.682  1.00  0.00    -0.359 N 
HETATM   18  C18 UNL     1      33.444  20.038   6.470  1.00  0.00     0.152 C 
ATOM     19  H6  UNL     1      35.050  19.533   5.228  1.00  0.00     0.162 HD
HETATM   20  C17 UNL     1      32.787  21.320   6.961  1.00  0.00     0.292 C 
ENDBRANCH  11  12
ENDBRANCH  10  11
ENDBRANCH   9  10
ENDBRANCH   8   9
ENDBRANCH   1   8
BRANCH   5  21
HETATM   21  C11 UNL     1      26.734  21.214  14.167  1.00  0.00     0.175 C 
BRANCH  21  22
HETATM   22  C12 UNL     1      26.657  19.902  14.871  1.00  0.00     0.043 A 
HETATM   23  C13 UNL     1      25.586  19.049  14.740  1.00  0.00     0.115 A 
HETATM   24  N4  UNL     1      25.822  17.966  15.502  1.00  0.00    -0.360 N 
HETATM   25  C14 UNL     1      27.017  18.152  16.090  1.00  0.00     0.180 A 
ATOM     26  H4  UNL     1      25.210  17.157  15.613  1.00  0.00     0.166 HD
HETATM   27  N5  UNL     1      27.516  19.332  15.699  1.00  0.00    -0.353 N 
ATOM     28  H5  UNL     1      28.411  19.725  15.992  1.00  0.00     0.166 HD
ENDBRANCH  21  22
ENDBRANCH   5  21
TORSDOF 7
ENDMDL
MODEL 4
REMARK VINA RESULT: -8.506220170      1.512      2.492
REMARK  7 active torsions:
REMARK  status: ('A' for Active; 'I' for Inactive)
REMARK    1  A    between atoms: N1_5  and  C4_6 
REMARK    2  A    between atoms: C4_6  and  C5_7 
REMARK    3  A    between atoms: C5_7  and  C6_8 
REMARK    4  A    between atoms: C6_8  and  C7_9 
REMARK    5  A    between atoms: C7_9  and  N2_10 
REMARK    6  A    between atoms: N3_14  and  C11_15 
REMARK    7  A    between atoms: C11_15  and  C12_16 
ROOT
HETATM    1  N2  UNL     1      30.063  21.751  11.369  1.00  0.00     0.090 N 
HETATM    2  C8  UNL     1      29.742  22.728  12.365  1.00  0.00     0.274 C 
HETATM    3  C9  UNL     1      28.292  22.774  12.733  1.00  0.00     0.050 C 
HETATM    4  C10 UNL     1      27.707  21.423  13.043  1.00  0.00     0.119 C 
HETATM    5  N3  UNL     1      28.569  20.582  13.796  1.00  0.00    -0.405 N 
HETATM    6  C15 UNL     1      29.782  20.180  13.188  1.00  0.00     0.147 C 
HETATM    7  C16 UNL     1      29.873  20.393  11.723  1.00  0.00     0.291 C 
ENDROOT
BRANCH   1   8
HETATM    8  C7  UNL     1      29.551  22.086  10.058  1.00  0.00     0.272 C 
BRANCH   8   9
HETATM    9  C6  UNL     1      30.573  21.952   8.978  1.00  0.00     0.032 C 
BRANCH   9  10
HETATM   10  C5  UNL     1      31.959  22.357   9.429  1.00  0.00     0.032 C 
BRANCH  10  11
HETATM   11  C4  UNL     1      32.916  21.463   8.643  1.00  0.00     0.272 C 
BRANCH  11  12
HETATM   12  N1  UNL     1      33.742  22.210   7.746  1.00  0.00     0.090 N 
HETATM   13  C3  UNL     1      33.914  23.584   8.152  1.00  0.00     0.281 C 
HETATM   14  C2  UNL     1      34.722  24.391   7.186  1.00  0.00     0.133 C 
HETATM   15  C1  UNL     1      35.728  23.572   6.459  1.00  0.00     0.219 C 
HETATM   16  O1  UNL     1      36.946  23.820   6.655  1.00  0.00    -0.274 OA
HETATM   17  N6  UNL     1      35.497  22.514   5.541  1.00  0.00    -0.359 N 
HETATM   18  C18 UNL     1      34.359  21.641   5.440  1.00  0.00     0.152 C 
ATOM     19  H6  UNL     1      36.239  22.350   4.861  1.00  0.00     0.162 HD
HETATM   20  C17 UNL     1      33.256  22.081   6.392  1.00  0.00     0.292 C 
ENDBRANCH  11  12
ENDBRANCH  10  11
ENDBRANCH   9  10
ENDBRANCH   8   9
ENDBRANCH   1   8
BRANCH   5  21
HETATM   21  C11 UNL     1      28.580  20.799  15.198  1.00  0.00     0.175 C 
BRANCH  21  22
HETATM   22  C12 UNL     1      28.032  19.659  15.989  1.00  0.00     0.043 A 
HETATM   23  C13 UNL     1      28.446  19.375  17.268  1.00  0.00     0.115 A 
HETATM   24  N4  UNL     1      27.768  18.294  17.694  1.00  0.00    -0.360 N 
HETATM   25  C14 UNL     1      26.953  17.922  16.691  1.00  0.00     0.180 A 
ATOM     26  H4  UNL     1      27.856  17.842  18.604  1.00  0.00     0.166 HD
HETATM   27  N5  UNL     1      27.120  18.759  15.660  1.00  0.00    -0.353 N 
ATOM     28  H5  UNL     1      26.627  18.710  14.769  1.00  0.00     0.166 HD
ENDBRANCH  21  22
ENDBRANCH   5  21
TORSDOF 7
ENDMDL
MODEL 5
REMARK VINA RESULT: -8.488503451      1.379      1.890
REMARK  7 active torsions:
REMARK  status: ('A' for Active; 'I' for Inactive)
REMARK    1  A    between atoms: N1_5  and  C4_6 
REMARK    2  A    between atoms: C4_6  and  C5_7 
REMARK    3  A    between atoms: C5_7  and  C6_8 
REMARK    4  A    between atoms: C6_8  and  C7_9 
REMARK    5  A    between atoms: C7_9  and  N2_10 
REMARK    6  A    between atoms: N3_14  and  C11_15 
REMARK    7  A    between atoms: C11_15  and  C12_16 
ROOT
HETATM    1  N2  UNL     1      27.679  21.743  11.496  1.00  0.00     0.090 N 
HETATM    2  C8  UNL     1      27.452  20.352  11.750  1.00  0.00     0.274 C 
HETATM    3  C9  UNL     1      28.688  19.584  12.100  1.00  0.00     0.050 C 
HETATM    4  C10 UNL     1      29.517  20.237  13.174  1.00  0.00     0.119 C 
HETATM    5  N3  UNL     1      28.751  20.804  14.227  1.00  0.00    -0.405 N 
HETATM    6  C15 UNL     1      27.895  21.882  13.902  1.00  0.00     0.147 C 
HETATM    7  C16 UNL     1      28.133  22.524  12.587  1.00  0.00     0.291 C 
ENDROOT
BRANCH   1   8
HETATM    8  C7  UNL     1      28.402  21.987  10.267  1.00  0.00     0.272 C 
BRANCH   8   9
HETATM    9  C6  UNL     1      29.731  22.630  10.488  1.00  0.00     0.032 C 
BRANCH   9  10
HETATM   10  C5  UNL     1      30.881  21.792   9.970  1.00  0.00     0.032 C 
BRANCH  10  11
HETATM   11  C4  UNL     1      30.812  21.911   8.449  1.00  0.00     0.272 C 
BRANCH  11  12
HETATM   12  N1  UNL     1      32.110  21.933   7.848  1.00  0.00     0.090 N 
HETATM   13  C3  UNL     1      32.404  20.735   7.100  1.00  0.00     0.281 C 
HETATM   14  C2  UNL     1      33.784  20.720   6.523  1.00  0.00     0.133 C 
HETATM   15  C1  UNL     1      34.285  22.084   6.204  1.00  0.00     0.219 C 
HETATM   16  O1  UNL     1      34.504  22.366   4.997  1.00  0.00    -0.274 OA
HETATM   17  N6  UNL     1      34.560  23.147   7.103  1.00  0.00    -0.359 N 
HETATM   18  C18 UNL     1      34.000  23.396   8.404  1.00  0.00     0.152 C 
ATOM     19  H6  UNL     1      35.248  23.828   6.782  1.00  0.00     0.162 HD
HETATM   20  C17 UNL     1      33.115  22.237   8.840  1.00  0.00     0.292 C 
ENDBRANCH  11  12
ENDBRANCH  10  11
ENDBRANCH   9  10
ENDBRANCH   8   9
ENDBRANCH   1   8
BRANCH   5  21
HETATM   21  C11 UNL     1      28.318  19.904  15.235  1.00  0.00     0.175 C 
BRANCH  21  22
HETATM   22  C12 UNL     1      27.031  19.220  14.921  1.00  0.00     0.043 A 
HETATM   23  C13 UNL     1      26.952  17.876  14.641  1.00  0.00     0.115 A 
HETATM   24  N4  UNL     1      25.664  17.578  14.397  1.00  0.00    -0.360 N 
HETATM   25  C14 UNL     1      24.965  18.719  14.526  1.00  0.00     0.180 A 
ATOM     26  H4  UNL     1      25.288  16.659  14.160  1.00  0.00     0.166 HD
HETATM   27  N5  UNL     1      25.805  19.711  14.845  1.00  0.00    -0.353 N 
ATOM     28  H5  UNL     1      25.544  20.684  15.003  1.00  0.00     0.166 HD
ENDBRANCH  21  22
ENDBRANCH   5  21
TORSDOF 7
ENDMDL
