MODEL 1
REMARK VINA RESULT: -8.574636551      0.000      0.000
REMARK  10 active torsions:
REMARK  status: ('A' for Active; 'I' for Inactive)
REMARK    1  A    between atoms: O1_1  and  C1_3 
REMARK    2  A    between atoms: C1_3  and  C2_4 
REMARK    3  A    between atoms: C2_4  and  N1_5 
REMARK    4  A    between atoms: N2_8  and  C5_9 
REMARK    5  A    between atoms: C5_9  and  C6_10 
REMARK    6  A    between atoms: C6_10  and  C7_11 
REMARK    7  A    between atoms: C7_11  and  N3_12 
REMARK    8  A    between atoms: N3_12  and  C8_14 
REMARK    9  A    between atoms: C8_14  and  N4_16 
REMARK   10  A    between atoms: C11_19  and  C12_20 
ROOT
HETATM    1  N3  UNL     1      26.659  20.213  11.925  1.00  0.00    -0.365 N 
ATOM      2  H3  UNL     1      26.245  20.832  11.228  1.00  0.00     0.161 HD
ENDROOT
BRANCH   1   3
HETATM    3  C7  UNL     1      25.930  19.855  13.138  1.00  0.00     0.127 C 
BRANCH   3   4
HETATM    4  C6  UNL     1      26.499  20.518  14.354  1.00  0.00     0.064 C 
BRANCH   4   5
HETATM    5  C5  UNL     1      27.149  21.852  14.095  1.00  0.00     0.065 C 
BRANCH   5   6
HETATM    6  N2  UNL     1      28.511  21.989  14.313  1.00  0.00    -0.370 N 
HETATM    7  C4  UNL     1      29.251  23.039  13.751  1.00  0.00     0.157 C 
HETATM    8  C3  UNL     1      30.135  23.642  14.855  1.00  0.00     0.293 C 
HETATM    9  N1  UNL     1      31.021  22.601  15.376  1.00  0.00     0.096 N 
HETATM   10  C16 UNL     1      30.241  21.481  15.880  1.00  0.00     0.317 C 
HETATM   11  C15 UNL     1      29.300  20.939  14.804  1.00  0.00     0.093 C 
BRANCH   9  12
HETATM   12  C2  UNL     1      31.709  23.186  16.512  1.00  0.00     0.298 C 
BRANCH  12  13
HETATM   13  C1  UNL     1      33.133  23.571  16.207  1.00  0.00     0.194 C 
BRANCH  13  14
HETATM   14  O1  UNL     1      33.635  24.311  17.295  1.00  0.00    -0.399 OA
ATOM     15  H1  UNL     1      33.907  23.702  17.971  1.00  0.00     0.209 HD
ENDBRANCH  13  14
ENDBRANCH  12  13
ENDBRANCH   9  12
ENDBRANCH   5   6
ENDBRANCH   4   5
ENDBRANCH   3   4
ENDBRANCH   1   3
BRANCH   1  16
HETATM   16  C8  UNL     1      27.951  19.678  11.745  1.00  0.00     0.195 C 
HETATM   17  S1  UNL     1      28.272  18.142  12.166  1.00  0.00    -0.039 SA
BRANCH  16  18
HETATM   18  N4  UNL     1      29.000  20.472  11.152  1.00  0.00    -0.207 N 
HETATM   19  C9  UNL     1      28.653  21.737  10.547  1.00  0.00     0.167 C 
HETATM   20  C10 UNL     1      29.541  22.114   9.408  1.00  0.00     0.077 C 
HETATM   21  C11 UNL     1      30.918  21.593   9.483  1.00  0.00     0.018 C 
HETATM   22  N5  UNL     1      31.225  20.652  10.295  1.00  0.00    -0.249 N 
HETATM   23  O2  UNL     1      30.310  20.089  11.122  1.00  0.00    -0.152 OA
ATOM     24  H5  UNL     1      32.188  20.317  10.322  1.00  0.00     0.196 HD
BRANCH  21  25
HETATM   25  C12 UNL     1      31.964  22.198   8.568  1.00  0.00     0.033 A 
HETATM   26  C13 UNL     1      33.278  22.568   9.155  1.00  0.00     0.011 A 
HETATM   27  C14 UNL     1      33.135  21.381   8.183  1.00  0.00     0.011 A 
ENDBRANCH  21  25
ENDBRANCH  16  18
ENDBRANCH   1  16
TORSDOF 10
ENDMDL
MODEL 2
REMARK VINA RESULT: -8.137855292      2.247      6.872
REMARK  10 active torsions:
REMARK  status: ('A' for Active; 'I' for Inactive)
REMARK    1  A    between atoms: O1_1  and  C1_3 
REMARK    2  A    between atoms: C1_3  and  C2_4 
REMARK    3  A    between atoms: C2_4  and  N1_5 
REMARK    4  A    between atoms: N2_8  and  C5_9 
REMARK    5  A    between atoms: C5_9  and  C6_10 
REMARK    6  A    between atoms: C6_10  and  C7_11 
REMARK    7  A    between atoms: C7_11  and  N3_12 
REMARK    8  A    between atoms: N3_12  and  C8_14 
REMARK    9  A    between atoms: C8_14  and  N4_16 
REMARK   10  A    between atoms: C11_19  and  C12_20 
ROOT
HETATM    1  N3  UNL     1      29.039  20.272  11.333  1.00  0.00    -0.365 N 
ATOM      2  H3  UNL     1      29.660  19.714  10.747  1.00  0.00     0.161 HD
ENDROOT
BRANCH   1   3
HETATM    3  C7  UNL     1      28.334  21.429  10.789  1.00  0.00     0.127 C 
BRANCH   3   4
HETATM    4  C6  UNL     1      29.147  22.151   9.759  1.00  0.00     0.064 C 
BRANCH   4   5
HETATM    5  C5  UNL     1      30.557  22.466  10.181  1.00  0.00     0.065 C 
BRANCH   5   6
HETATM    6  N2  UNL     1      31.610  22.008   9.404  1.00  0.00    -0.370 N 
HETATM    7  C4  UNL     1      31.617  20.722   8.846  1.00  0.00     0.157 C 
HETATM    8  C3  UNL     1      32.033  20.845   7.371  1.00  0.00     0.293 C 
HETATM    9  N1  UNL     1      33.364  21.449   7.302  1.00  0.00     0.096 N 
HETATM   10  C16 UNL     1      33.362  22.747   7.960  1.00  0.00     0.317 C 
HETATM   11  C15 UNL     1      32.866  22.634   9.400  1.00  0.00     0.093 C 
BRANCH   9  12
HETATM   12  C2  UNL     1      33.630  21.684   5.895  1.00  0.00     0.298 C 
BRANCH  12  13
HETATM   13  C1  UNL     1      34.952  21.124   5.441  1.00  0.00     0.194 C 
BRANCH  13  14
HETATM   14  O1  UNL     1      34.744  19.806   4.992  1.00  0.00    -0.399 OA
ATOM     15  H1  UNL     1      34.455  19.280   5.728  1.00  0.00     0.209 HD
ENDBRANCH  13  14
ENDBRANCH  12  13
ENDBRANCH   9  12
ENDBRANCH   5   6
ENDBRANCH   4   5
ENDBRANCH   3   4
ENDBRANCH   1   3
BRANCH   1  16
HETATM   16  C8  UNL     1      28.837  19.950  12.690  1.00  0.00     0.195 C 
HETATM   17  S1  UNL     1      27.990  18.627  13.104  1.00  0.00    -0.039 SA
BRANCH  16  18
HETATM   18  N4  UNL     1      29.408  20.767  13.734  1.00  0.00    -0.207 N 
HETATM   19  C9  UNL     1      28.654  21.904  14.213  1.00  0.00     0.167 C 
HETATM   20  C10 UNL     1      29.513  23.027  14.691  1.00  0.00     0.077 C 
HETATM   21  C11 UNL     1      30.828  22.630  15.228  1.00  0.00     0.018 C 
HETATM   22  N5  UNL     1      31.302  21.460  15.017  1.00  0.00    -0.249 N 
HETATM   23  O2  UNL     1      30.630  20.532  14.293  1.00  0.00    -0.152 OA
ATOM     24  H5  UNL     1      32.214  21.218  15.405  1.00  0.00     0.196 HD
BRANCH  21  25
HETATM   25  C12 UNL     1      31.608  23.647  16.038  1.00  0.00     0.033 A 
HETATM   26  C13 UNL     1      32.265  23.190  17.289  1.00  0.00     0.011 A 
HETATM   27  C14 UNL     1      33.085  23.576  16.042  1.00  0.00     0.011 A 
ENDBRANCH  21  25
ENDBRANCH  16  18
ENDBRANCH   1  16
TORSDOF 10
ENDMDL
MODEL 3
REMARK VINA RESULT: -8.094014603      2.418      4.384
REMARK  10 active torsions:
REMARK  status: ('A' for Active; 'I' for Inactive)
REMARK    1  A    between atoms: O1_1  and  C1_3 
REMARK    2  A    between atoms: C1_3  and  C2_4 
REMARK    3  A    between atoms: C2_4  and  N1_5 
REMARK    4  A    between atoms: N2_8  and  C5_9 
REMARK    5  A    between atoms: C5_9  and  C6_10 
REMARK    6  A    between atoms: C6_10  and  C7_11 
REMARK    7  A    between atoms: C7_11  and  N3_12 
REMARK    8  A    between atoms: N3_12  and  C8_14 
REMARK    9  A    between atoms: C8_14  and  N4_16 
REMARK   10  A    between atoms: C11_19  and  C12_20 
ROOT
HETATM    1  N3  UNL     1      29.055  23.858  12.666  1.00  0.00    -0.365 N 
ATOM      2  H3  UNL     1      29.339  24.814  12.449  1.00  0.00     0.161 HD
ENDROOT
BRANCH   1   3
HETATM    3  C7  UNL     1      28.673  23.478  14.022  1.00  0.00     0.127 C 
BRANCH   3   4
HETATM    4  C6  UNL     1      29.830  23.534  14.971  1.00  0.00     0.064 C 
BRANCH   4   5
HETATM    5  C5  UNL     1      30.661  22.280  15.023  1.00  0.00     0.065 C 
BRANCH   5   6
HETATM    6  N2  UNL     1      30.024  21.049  14.978  1.00  0.00    -0.370 N 
HETATM    7  C4  UNL     1      29.290  20.552  16.064  1.00  0.00     0.157 C 
HETATM    8  C3  UNL     1      27.947  20.025  15.530  1.00  0.00     0.293 C 
HETATM    9  N1  UNL     1      28.208  18.969  14.551  1.00  0.00     0.096 N 
HETATM   10  C16 UNL     1      29.041  19.477  13.472  1.00  0.00     0.317 C 
HETATM   11  C15 UNL     1      30.337  20.079  14.014  1.00  0.00     0.093 C 
BRANCH   9  12
HETATM   12  C2  UNL     1      26.922  18.628  13.972  1.00  0.00     0.298 C 
BRANCH  12  13
HETATM   13  C1  UNL     1      25.756  19.132  14.781  1.00  0.00     0.194 C 
BRANCH  13  14
HETATM   14  O1  UNL     1      24.840  18.075  14.945  1.00  0.00    -0.399 OA
ATOM     15  H1  UNL     1      25.282  17.361  15.388  1.00  0.00     0.209 HD
ENDBRANCH  13  14
ENDBRANCH  12  13
ENDBRANCH   9  12
ENDBRANCH   5   6
ENDBRANCH   4   5
ENDBRANCH   3   4
ENDBRANCH   1   3
BRANCH   1  16
HETATM   16  C8  UNL     1      29.022  22.866  11.665  1.00  0.00     0.195 C 
HETATM   17  S1  UNL     1      27.773  21.832  11.572  1.00  0.00    -0.039 SA
BRANCH  16  18
HETATM   18  N4  UNL     1      30.076  22.774  10.683  1.00  0.00    -0.207 N 
HETATM   19  C9  UNL     1      29.770  22.207   9.389  1.00  0.00     0.167 C 
HETATM   20  C10 UNL     1      30.928  21.510   8.757  1.00  0.00     0.077 C 
HETATM   21  C11 UNL     1      32.256  22.030   9.129  1.00  0.00     0.018 C 
HETATM   22  N5  UNL     1      32.403  22.805  10.137  1.00  0.00    -0.249 N 
HETATM   23  O2  UNL     1      31.357  23.185  10.911  1.00  0.00    -0.152 OA
ATOM     24  H5  UNL     1      33.337  23.148  10.365  1.00  0.00     0.196 HD
BRANCH  21  25
HETATM   25  C12 UNL     1      33.448  21.621   8.287  1.00  0.00     0.033 A 
HETATM   26  C13 UNL     1      33.191  21.066   6.933  1.00  0.00     0.011 A 
HETATM   27  C14 UNL     1      33.825  22.458   7.127  1.00  0.00     0.011 A 
ENDBRANCH  21  25
ENDBRANCH  16  18
ENDBRANCH   1  16
TORSDOF 10
ENDMDL
MODEL 4
REMARK VINA RESULT: -8.033762009      2.625      4.389
REMARK  10 active torsions:
REMARK  status: ('A' for Active; 'I' for Inactive)
REMARK    1  A    between atoms: O1_1  and  C1_3 
REMARK    2  A    between atoms: C1_3  and  C2_4 
REMARK    3  A    between atoms: C2_4  and  N1_5 
REMARK    4  A    between atoms: N2_8  and  C5_9 
REMARK    5  A    between atoms: C5_9  and  C6_10 
REMARK    6  A    between atoms: C6_10  and  C7_11 
REMARK    7  A    between atoms: C7_11  and  N3_12 
REMARK    8  A    between atoms: N3_12  and  C8_14 
REMARK    9  A    between atoms: C8_14  and  N4_16 
REMARK   10  A    between atoms: C11_19  and  C12_20 
ROOT
HETATM    1  N3  UNL     1      28.824  21.529  10.705  1.00  0.00    -0.365 N 
ATOM      2  H3  UNL     1      28.047  20.938  10.409  1.00  0.00     0.161 HD
ENDROOT
BRANCH   1   3
HETATM    3  C7  UNL     1      28.586  22.851  11.275  1.00  0.00     0.127 C 
BRANCH   3   4
HETATM    4  C6  UNL     1      29.227  23.008  12.620  1.00  0.00     0.064 C 
BRANCH   4   5
HETATM    5  C5  UNL     1      28.270  22.964  13.781  1.00  0.00     0.065 C 
BRANCH   5   6
HETATM    6  N2  UNL     1      27.800  21.736  14.219  1.00  0.00    -0.370 N 
HETATM    7  C4  UNL     1      26.487  21.311  13.973  1.00  0.00     0.157 C 
HETATM    8  C3  UNL     1      26.543  19.863  13.460  1.00  0.00     0.293 C 
HETATM    9  N1  UNL     1      27.180  19.024  14.475  1.00  0.00     0.096 N 
HETATM   10  C16 UNL     1      28.511  19.526  14.781  1.00  0.00     0.317 C 
HETATM   11  C15 UNL     1      28.460  20.992  15.209  1.00  0.00     0.093 C 
BRANCH   9  12
HETATM   12  C2  UNL     1      27.347  17.715  13.872  1.00  0.00     0.298 C 
BRANCH  12  13
HETATM   13  C1  UNL     1      28.292  17.720  12.699  1.00  0.00     0.194 C 
BRANCH  13  14
HETATM   14  O1  UNL     1      29.099  16.569  12.774  1.00  0.00    -0.399 OA
ATOM     15  H1  UNL     1      28.569  15.816  12.540  1.00  0.00     0.209 HD
ENDBRANCH  13  14
ENDBRANCH  12  13
ENDBRANCH   9  12
ENDBRANCH   5   6
ENDBRANCH   4   5
ENDBRANCH   3   4
ENDBRANCH   1   3
BRANCH   1  16
HETATM   16  C8  UNL     1      30.158  21.093  10.575  1.00  0.00     0.195 C 
HETATM   17  S1  UNL     1      30.616  19.657  11.180  1.00  0.00    -0.039 SA
BRANCH  16  18
HETATM   18  N4  UNL     1      31.131  21.895   9.873  1.00  0.00    -0.207 N 
HETATM   19  C9  UNL     1      31.177  21.821   8.430  1.00  0.00     0.167 C 
HETATM   20  C10 UNL     1      32.539  22.052   7.866  1.00  0.00     0.077 C 
HETATM   21  C11 UNL     1      33.414  22.924   8.670  1.00  0.00     0.018 C 
HETATM   22  N5  UNL     1      33.131  23.204   9.887  1.00  0.00    -0.249 N 
HETATM   23  O2  UNL     1      32.023  22.717  10.498  1.00  0.00    -0.152 OA
ATOM     24  H5  UNL     1      33.758  23.813  10.414  1.00  0.00     0.196 HD
BRANCH  21  25
HETATM   25  C12 UNL     1      34.664  23.482   8.019  1.00  0.00     0.033 A 
HETATM   26  C13 UNL     1      34.624  24.876   7.505  1.00  0.00     0.011 A 
HETATM   27  C14 UNL     1      35.456  24.498   8.746  1.00  0.00     0.011 A 
ENDBRANCH  21  25
ENDBRANCH  16  18
ENDBRANCH   1  16
TORSDOF 10
ENDMDL
MODEL 5
REMARK VINA RESULT: -8.027168836      2.272      3.538
REMARK  10 active torsions:
REMARK  status: ('A' for Active; 'I' for Inactive)
REMARK    1  A    between atoms: O1_1  and  C1_3 
REMARK    2  A    between atoms: C1_3  and  C2_4 
REMARK    3  A    between atoms: C2_4  and  N1_5 
REMARK    4  A    between atoms: N2_8  and  C5_9 
REMARK    5  A    between atoms: C5_9  and  C6_10 
REMARK    6  A    between atoms: C6_10  and  C7_11 
REMARK    7  A    between atoms: C7_11  and  N3_12 
REMARK    8  A    between atoms: N3_12  and  C8_14 
REMARK    9  A    between atoms: C8_14  and  N4_16 
REMARK   10  A    between atoms: C11_19  and  C12_20 
ROOT
HETATM    1  N3  UNL     1      29.145  21.825   9.754  1.00  0.00    -0.365 N 
ATOM      2  H3  UNL     1      28.844  21.897   8.782  1.00  0.00     0.161 HD
ENDROOT
BRANCH   1   3
HETATM    3  C7  UNL     1      28.210  22.064  10.849  1.00  0.00     0.127 C 
BRANCH   3   4
HETATM    4  C6  UNL     1      27.063  21.100  10.830  1.00  0.00     0.064 C 
BRANCH   4   5
HETATM    5  C5  UNL     1      27.133  20.021  11.878  1.00  0.00     0.065 C 
BRANCH   5   6
HETATM    6  N2  UNL     1      27.739  20.302  13.092  1.00  0.00    -0.370 N 
HETATM    7  C4  UNL     1      28.740  19.481  13.630  1.00  0.00     0.157 C 
HETATM    8  C3  UNL     1      29.891  20.383  14.105  1.00  0.00     0.293 C 
HETATM    9  N1  UNL     1      29.381  21.311  15.115  1.00  0.00     0.096 N 
HETATM   10  C16 UNL     1      28.286  22.098  14.568  1.00  0.00     0.317 C 
HETATM   11  C15 UNL     1      27.182  21.196  14.018  1.00  0.00     0.093 C 
BRANCH   9  12
HETATM   12  C2  UNL     1      30.465  22.232  15.403  1.00  0.00     0.298 C 
BRANCH  12  13
HETATM   13  C1  UNL     1      30.350  23.534  14.655  1.00  0.00     0.194 C 
BRANCH  13  14
HETATM   14  O1  UNL     1      31.445  23.640  13.777  1.00  0.00    -0.399 OA
ATOM     15  H1  UNL     1      32.166  24.044  14.244  1.00  0.00     0.209 HD
ENDBRANCH  13  14
ENDBRANCH  12  13
ENDBRANCH   9  12
ENDBRANCH   5   6
ENDBRANCH   4   5
ENDBRANCH   3   4
ENDBRANCH   1   3
BRANCH   1  16
HETATM   16  C8  UNL     1      30.476  21.493  10.079  1.00  0.00     0.195 C 
HETATM   17  S1  UNL     1      30.855  19.986  10.553  1.00  0.00    -0.039 SA
BRANCH  16  18
HETATM   18  N4  UNL     1      31.530  22.472   9.963  1.00  0.00    -0.207 N 
HETATM   19  C9  UNL     1      32.257  22.561   8.717  1.00  0.00     0.167 C 
HETATM   20  C10 UNL     1      33.672  23.006   8.885  1.00  0.00     0.077 C 
HETATM   21  C11 UNL     1      33.924  23.880  10.045  1.00  0.00     0.018 C 
HETATM   22  N5  UNL     1      33.064  23.992  10.988  1.00  0.00    -0.249 N 
HETATM   23  O2  UNL     1      31.888  23.318  10.972  1.00  0.00    -0.152 OA
ATOM     24  H5  UNL     1      33.270  24.608  11.775  1.00  0.00     0.196 HD
BRANCH  21  25
HETATM   25  C12 UNL     1      35.232  24.645  10.096  1.00  0.00     0.033 A 
HETATM   26  C13 UNL     1      35.978  24.841   8.827  1.00  0.00     0.011 A 
HETATM   27  C14 UNL     1      35.280  26.015   9.542  1.00  0.00     0.011 A 
ENDBRANCH  21  25
ENDBRANCH  16  18
ENDBRANCH   1  16
TORSDOF 10
ENDMDL
