MODEL 1
REMARK VINA RESULT: -6.717674379      0.000      0.000
REMARK  7 active torsions:
REMARK  status: ('A' for Active; 'I' for Inactive)
REMARK    1  A    between atoms: O1_2  and  C2_3 
REMARK    2  A    between atoms: C2_3  and  C3_4 
REMARK    3  A    between atoms: C3_4  and  O2_5 
REMARK    4  A    between atoms: C3_4  and  C4_7 
REMARK    5  A    between atoms: C4_7  and  N1_8 
REMARK    6  A    between atoms: N1_8  and  C5_11 
REMARK    7  A    between atoms: C8_14  and  N2_15 
REMARK       I    between atoms: N3_23  and  C16_24 
ROOT
HETATM    1  C5  UNL     1      33.173   1.523   8.773  1.00  0.00     0.186 C 
HETATM    2  C6  UNL     1      34.396   1.031   9.496  1.00  0.00     0.035 C 
HETATM    3  C7  UNL     1      35.519   2.013   9.263  1.00  0.00     0.027 C 
HETATM    4  C8  UNL     1      35.788   2.324   7.840  1.00  0.00     0.079 C 
HETATM    5  C18 UNL     1      34.602   2.354   6.925  1.00  0.00     0.027 C 
HETATM    6  C19 UNL     1      33.453   1.491   7.312  1.00  0.00     0.035 C 
ENDROOT
BRANCH   4   7
HETATM    7  N2  UNL     1      36.531   3.565   7.758  1.00  0.00    -0.404 N 
HETATM    8  C9  UNL     1      37.412   3.777   8.861  1.00  0.00     0.119 C 
HETATM    9  C10 UNL     1      37.420   5.120   9.469  1.00  0.00     0.045 C 
HETATM   10  C11 UNL     1      36.190   5.949   9.327  1.00  0.00     0.090 C 
HETATM   11  C12 UNL     1      35.100   5.306   8.498  1.00  0.00     0.050 C 
HETATM   12  N3  UNL     1      36.518   7.201   8.630  1.00  0.00    -0.348 N 
HETATM   13  C13 UNL     1      35.824   4.693   7.298  1.00  0.00     0.083 C 
HETATM   14  C14 UNL     1      36.695   5.751   6.663  1.00  0.00     0.045 C 
HETATM   15  C15 UNL     1      36.410   7.138   7.192  1.00  0.00     0.128 C 
HETATM   16  C16 UNL     1      36.903   8.340   9.358  1.00  0.00     0.216 C 
HETATM   17  C17 UNL     1      37.229   9.598   8.637  1.00  0.00     0.117 C 
HETATM   18  O3  UNL     1      36.968   8.294  10.616  1.00  0.00    -0.274 OA
ENDBRANCH   4   7
BRANCH   1  19
HETATM   19  N1  UNL     1      32.016   0.755   9.157  1.00  0.00    -0.068 N 
ATOM     20  H12 UNL     1      31.501   0.440   8.335  1.00  0.00     0.277 HD
ATOM     21  H11 UNL     1      31.306   1.353   9.580  1.00  0.00     0.277 HD
BRANCH  19  22
HETATM   22  C4  UNL     1      32.335  -0.354  10.020  1.00  0.00     0.266 C 
BRANCH  22  23
HETATM   23  C3  UNL     1      31.301  -0.450  11.118  1.00  0.00     0.167 C 
BRANCH  23  24
HETATM   24  C2  UNL     1      31.683   0.403  12.310  1.00  0.00     0.200 C 
BRANCH  24  25
HETATM   25  O1  UNL     1      31.325   1.734  12.121  1.00  0.00    -0.393 OA
HETATM   26  C1  UNL     1      32.423   2.577  12.175  1.00  0.00     0.201 C 
ENDBRANCH  24  25
ENDBRANCH  23  24
BRANCH  23  27
HETATM   27  O2  UNL     1      30.034  -0.060  10.692  1.00  0.00    -0.392 OA
ATOM     28  H2  UNL     1      29.783  -0.615   9.963  1.00  0.00     0.210 HD
ENDBRANCH  23  27
ENDBRANCH  22  23
ENDBRANCH  19  22
ENDBRANCH   1  19
TORSDOF 7
ENDMDL
MODEL 2
REMARK VINA RESULT: -6.701111808      1.631      1.940
REMARK  7 active torsions:
REMARK  status: ('A' for Active; 'I' for Inactive)
REMARK    1  A    between atoms: O1_2  and  C2_3 
REMARK    2  A    between atoms: C2_3  and  C3_4 
REMARK    3  A    between atoms: C3_4  and  O2_5 
REMARK    4  A    between atoms: C3_4  and  C4_7 
REMARK    5  A    between atoms: C4_7  and  N1_8 
REMARK    6  A    between atoms: N1_8  and  C5_11 
REMARK    7  A    between atoms: C8_14  and  N2_15 
REMARK       I    between atoms: N3_23  and  C16_24 
ROOT
HETATM    1  C5  UNL     1      33.310   1.185   9.015  1.00  0.00     0.186 C 
HETATM    2  C6  UNL     1      34.446   0.262   9.364  1.00  0.00     0.035 C 
HETATM    3  C7  UNL     1      35.713   1.078   9.463  1.00  0.00     0.027 C 
HETATM    4  C8  UNL     1      36.007   1.916   8.279  1.00  0.00     0.079 C 
HETATM    5  C18 UNL     1      34.829   2.500   7.561  1.00  0.00     0.027 C 
HETATM    6  C19 UNL     1      33.558   1.731   7.653  1.00  0.00     0.035 C 
ENDROOT
BRANCH   4   7
HETATM    7  N2  UNL     1      36.946   2.954   8.654  1.00  0.00    -0.404 N 
HETATM    8  C9  UNL     1      37.925   2.524   9.599  1.00  0.00     0.119 C 
HETATM    9  C10 UNL     1      38.207   3.423  10.734  1.00  0.00     0.045 C 
HETATM   10  C11 UNL     1      37.131   4.367  11.150  1.00  0.00     0.090 C 
HETATM   11  C12 UNL     1      35.891   4.317  10.284  1.00  0.00     0.050 C 
HETATM   12  N3  UNL     1      37.621   5.749  11.044  1.00  0.00    -0.348 N 
HETATM   13  C13 UNL     1      36.414   4.244   8.847  1.00  0.00     0.083 C 
HETATM   14  C14 UNL     1      37.409   5.360   8.634  1.00  0.00     0.045 C 
HETATM   15  C15 UNL     1      37.404   6.370   9.760  1.00  0.00     0.128 C 
HETATM   16  C16 UNL     1      38.246   6.367  12.141  1.00  0.00     0.216 C 
HETATM   17  C17 UNL     1      38.734   7.765  12.017  1.00  0.00     0.117 C 
HETATM   18  O3  UNL     1      38.390   5.738  13.224  1.00  0.00    -0.274 OA
ENDBRANCH   4   7
BRANCH   1  19
HETATM   19  N1  UNL     1      32.048   0.503   9.144  1.00  0.00    -0.068 N 
ATOM     20  H12 UNL     1      31.679   0.246   8.228  1.00  0.00     0.277 HD
ATOM     21  H11 UNL     1      31.316   1.147   9.444  1.00  0.00     0.277 HD
BRANCH  19  22
HETATM   22  C4  UNL     1      32.111  -0.644  10.013  1.00  0.00     0.266 C 
BRANCH  22  23
HETATM   23  C3  UNL     1      31.103  -0.487  11.127  1.00  0.00     0.167 C 
BRANCH  23  24
HETATM   24  C2  UNL     1      31.660   0.353  12.259  1.00  0.00     0.200 C 
BRANCH  24  25
HETATM   25  O1  UNL     1      31.311   1.693  12.119  1.00  0.00    -0.393 OA
HETATM   26  C1  UNL     1      32.423   2.519  12.129  1.00  0.00     0.201 C 
ENDBRANCH  24  25
ENDBRANCH  23  24
BRANCH  23  27
HETATM   27  O2  UNL     1      29.917   0.100  10.694  1.00  0.00    -0.392 OA
ATOM     28  H2  UNL     1      29.904   1.000  10.996  1.00  0.00     0.210 HD
ENDBRANCH  23  27
ENDBRANCH  22  23
ENDBRANCH  19  22
ENDBRANCH   1  19
TORSDOF 7
ENDMDL
MODEL 3
REMARK VINA RESULT: -6.625674959      1.996      2.459
REMARK  7 active torsions:
REMARK  status: ('A' for Active; 'I' for Inactive)
REMARK    1  A    between atoms: O1_2  and  C2_3 
REMARK    2  A    between atoms: C2_3  and  C3_4 
REMARK    3  A    between atoms: C3_4  and  O2_5 
REMARK    4  A    between atoms: C3_4  and  C4_7 
REMARK    5  A    between atoms: C4_7  and  N1_8 
REMARK    6  A    between atoms: N1_8  and  C5_11 
REMARK    7  A    between atoms: C8_14  and  N2_15 
REMARK       I    between atoms: N3_23  and  C16_24 
ROOT
HETATM    1  C5  UNL     1      32.971   1.489   8.804  1.00  0.00     0.186 C 
HETATM    2  C6  UNL     1      34.206   1.310   9.644  1.00  0.00     0.035 C 
HETATM    3  C7  UNL     1      35.103   2.508   9.438  1.00  0.00     0.027 C 
HETATM    4  C8  UNL     1      35.418   2.814   8.025  1.00  0.00     0.079 C 
HETATM    5  C18 UNL     1      34.338   2.542   7.023  1.00  0.00     0.027 C 
HETATM    6  C19 UNL     1      33.377   1.461   7.372  1.00  0.00     0.035 C 
ENDROOT
BRANCH   4   7
HETATM    7  N2  UNL     1      35.876   4.185   7.927  1.00  0.00    -0.404 N 
HETATM    8  C9  UNL     1      34.847   5.106   7.567  1.00  0.00     0.119 C 
HETATM    9  C10 UNL     1      35.170   6.108   6.535  1.00  0.00     0.045 C 
HETATM   10  C11 UNL     1      36.245   5.771   5.559  1.00  0.00     0.090 C 
HETATM   11  C12 UNL     1      36.920   4.441   5.812  1.00  0.00     0.050 C 
HETATM   12  N3  UNL     1      37.319   6.772   5.645  1.00  0.00    -0.348 N 
HETATM   13  C13 UNL     1      37.134   4.387   7.327  1.00  0.00     0.083 C 
HETATM   14  C14 UNL     1      37.831   5.654   7.765  1.00  0.00     0.045 C 
HETATM   15  C15 UNL     1      38.355   6.464   6.601  1.00  0.00     0.128 C 
HETATM   16  C16 UNL     1      37.286   7.921   4.836  1.00  0.00     0.216 C 
HETATM   17  C17 UNL     1      38.381   8.921   4.936  1.00  0.00     0.117 C 
HETATM   18  O3  UNL     1      36.334   8.100   4.030  1.00  0.00    -0.274 OA
ENDBRANCH   4   7
BRANCH   1  19
HETATM   19  N1  UNL     1      31.982   0.498   9.144  1.00  0.00    -0.068 N 
ATOM     20  H12 UNL     1      31.663   0.003   8.310  1.00  0.00     0.277 HD
ATOM     21  H11 UNL     1      31.106   0.939   9.422  1.00  0.00     0.277 HD
BRANCH  19  22
HETATM   22  C4  UNL     1      32.432  -0.429  10.150  1.00  0.00     0.266 C 
BRANCH  22  23
HETATM   23  C3  UNL     1      31.378  -0.556  11.225  1.00  0.00     0.167 C 
BRANCH  23  24
HETATM   24  C2  UNL     1      31.649   0.391  12.377  1.00  0.00     0.200 C 
BRANCH  24  25
HETATM   25  O1  UNL     1      31.213   1.680  12.090  1.00  0.00    -0.393 OA
HETATM   26  C1  UNL     1      32.243   2.603  12.172  1.00  0.00     0.201 C 
ENDBRANCH  24  25
ENDBRANCH  23  24
BRANCH  23  27
HETATM   27  O2  UNL     1      30.096  -0.302  10.746  1.00  0.00    -0.392 OA
ATOM     28  H2  UNL     1      29.733  -1.118  10.422  1.00  0.00     0.210 HD
ENDBRANCH  23  27
ENDBRANCH  22  23
ENDBRANCH  19  22
ENDBRANCH   1  19
TORSDOF 7
ENDMDL
MODEL 4
REMARK VINA RESULT: -6.600416779      1.439      2.046
REMARK  7 active torsions:
REMARK  status: ('A' for Active; 'I' for Inactive)
REMARK    1  A    between atoms: O1_2  and  C2_3 
REMARK    2  A    between atoms: C2_3  and  C3_4 
REMARK    3  A    between atoms: C3_4  and  O2_5 
REMARK    4  A    between atoms: C3_4  and  C4_7 
REMARK    5  A    between atoms: C4_7  and  N1_8 
REMARK    6  A    between atoms: N1_8  and  C5_11 
REMARK    7  A    between atoms: C8_14  and  N2_15 
REMARK       I    between atoms: N3_23  and  C16_24 
ROOT
HETATM    1  C5  UNL     1      32.882   1.641   8.966  1.00  0.00     0.186 C 
HETATM    2  C6  UNL     1      34.195   1.467   9.679  1.00  0.00     0.035 C 
HETATM    3  C7  UNL     1      34.892   2.805   9.732  1.00  0.00     0.027 C 
HETATM    4  C8  UNL     1      35.044   3.481   8.424  1.00  0.00     0.079 C 
HETATM    5  C18 UNL     1      33.934   3.285   7.436  1.00  0.00     0.027 C 
HETATM    6  C19 UNL     1      33.168   2.015   7.553  1.00  0.00     0.035 C 
ENDROOT
BRANCH   4   7
HETATM    7  N2  UNL     1      35.293   4.891   8.644  1.00  0.00    -0.404 N 
HETATM    8  C9  UNL     1      34.405   5.746   7.924  1.00  0.00     0.119 C 
HETATM    9  C10 UNL     1      35.001   6.901   7.226  1.00  0.00     0.045 C 
HETATM   10  C11 UNL     1      36.432   6.800   6.823  1.00  0.00     0.090 C 
HETATM   11  C12 UNL     1      37.112   5.520   7.258  1.00  0.00     0.050 C 
HETATM   12  N3  UNL     1      37.199   7.881   7.459  1.00  0.00    -0.348 N 
HETATM   13  C13 UNL     1      36.642   5.291   8.696  1.00  0.00     0.083 C 
HETATM   14  C14 UNL     1      36.881   6.552   9.493  1.00  0.00     0.045 C 
HETATM   15  C15 UNL     1      37.740   7.554   8.756  1.00  0.00     0.128 C 
HETATM   16  C16 UNL     1      37.360   9.116   6.809  1.00  0.00     0.216 C 
HETATM   17  C17 UNL     1      38.140  10.197   7.466  1.00  0.00     0.117 C 
HETATM   18  O3  UNL     1      36.846   9.305   5.674  1.00  0.00    -0.274 OA
ENDBRANCH   4   7
BRANCH   1  19
HETATM   19  N1  UNL     1      32.075   0.454   9.097  1.00  0.00    -0.068 N 
ATOM     20  H12 UNL     1      32.010  -0.041   8.208  1.00  0.00     0.277 HD
ATOM     21  H11 UNL     1      31.093   0.696   9.227  1.00  0.00     0.277 HD
BRANCH  19  22
HETATM   22  C4  UNL     1      32.530  -0.426  10.143  1.00  0.00     0.266 C 
BRANCH  22  23
HETATM   23  C3  UNL     1      31.458  -0.547  11.200  1.00  0.00     0.167 C 
BRANCH  23  24
HETATM   24  C2  UNL     1      31.698   0.421  12.341  1.00  0.00     0.200 C 
BRANCH  24  25
HETATM   25  O1  UNL     1      31.138   1.668  12.079  1.00  0.00    -0.393 OA
HETATM   26  C1  UNL     1      32.071   2.686  12.191  1.00  0.00     0.201 C 
ENDBRANCH  24  25
ENDBRANCH  23  24
BRANCH  23  27
HETATM   27  O2  UNL     1      30.182  -0.314  10.694  1.00  0.00    -0.392 OA
ATOM     28  H2  UNL     1      30.197  -0.490   9.761  1.00  0.00     0.210 HD
ENDBRANCH  23  27
ENDBRANCH  22  23
ENDBRANCH  19  22
ENDBRANCH   1  19
TORSDOF 7
ENDMDL
MODEL 5
REMARK VINA RESULT: -6.593498179      2.104      3.063
REMARK  7 active torsions:
REMARK  status: ('A' for Active; 'I' for Inactive)
REMARK    1  A    between atoms: O1_2  and  C2_3 
REMARK    2  A    between atoms: C2_3  and  C3_4 
REMARK    3  A    between atoms: C3_4  and  O2_5 
REMARK    4  A    between atoms: C3_4  and  C4_7 
REMARK    5  A    between atoms: C4_7  and  N1_8 
REMARK    6  A    between atoms: N1_8  and  C5_11 
REMARK    7  A    between atoms: C8_14  and  N2_15 
REMARK       I    between atoms: N3_23  and  C16_24 
ROOT
HETATM    1  C5  UNL     1      34.536   2.244   9.350  1.00  0.00     0.186 C 
HETATM    2  C6  UNL     1      33.545   3.080   8.588  1.00  0.00     0.035 C 
HETATM    3  C7  UNL     1      34.295   4.174   7.865  1.00  0.00     0.027 C 
HETATM    4  C8  UNL     1      35.185   4.990   8.722  1.00  0.00     0.079 C 
HETATM    5  C18 UNL     1      35.860   4.279   9.854  1.00  0.00     0.027 C 
HETATM    6  C19 UNL     1      35.146   3.097  10.407  1.00  0.00     0.035 C 
ENDROOT
BRANCH   4   7
HETATM    7  N2  UNL     1      36.156   5.667   7.888  1.00  0.00    -0.404 N 
HETATM    8  C9  UNL     1      37.041   6.517   8.617  1.00  0.00     0.119 C 
HETATM    9  C10 UNL     1      37.298   7.858   8.061  1.00  0.00     0.045 C 
HETATM   10  C11 UNL     1      36.255   8.450   7.175  1.00  0.00     0.090 C 
HETATM   11  C12 UNL     1      35.077   7.539   6.909  1.00  0.00     0.050 C 
HETATM   12  N3  UNL     1      36.834   8.730   5.853  1.00  0.00    -0.348 N 
HETATM   13  C13 UNL     1      35.691   6.161   6.653  1.00  0.00     0.083 C 
HETATM   14  C14 UNL     1      36.763   6.294   5.598  1.00  0.00     0.045 C 
HETATM   15  C15 UNL     1      36.743   7.641   4.911  1.00  0.00     0.128 C 
HETATM   16  C16 UNL     1      37.418   9.980   5.584  1.00  0.00     0.216 C 
HETATM   17  C17 UNL     1      37.997  10.246   4.242  1.00  0.00     0.117 C 
HETATM   18  O3  UNL     1      37.450  10.869   6.477  1.00  0.00    -0.274 OA
ENDBRANCH   4   7
BRANCH   1  19
HETATM   19  N1  UNL     1      33.906   1.054   9.859  1.00  0.00    -0.068 N 
ATOM     20  H12 UNL     1      34.426   0.220   9.583  1.00  0.00     0.277 HD
ATOM     21  H11 UNL     1      33.028   0.871   9.374  1.00  0.00     0.277 HD
BRANCH  19  22
HETATM   22  C4  UNL     1      33.707   1.085  11.286  1.00  0.00     0.266 C 
BRANCH  22  23
HETATM   23  C3  UNL     1      32.288   1.507  11.587  1.00  0.00     0.167 C 
BRANCH  23  24
HETATM   24  C2  UNL     1      31.429   0.319  11.970  1.00  0.00     0.200 C 
BRANCH  24  25
HETATM   25  O1  UNL     1      31.603  -0.742  11.087  1.00  0.00    -0.393 OA
HETATM   26  C1  UNL     1      30.580  -1.671  11.188  1.00  0.00     0.201 C 
ENDBRANCH  24  25
ENDBRANCH  23  24
BRANCH  23  27
HETATM   27  O2  UNL     1      32.217   2.443  12.614  1.00  0.00    -0.392 OA
ATOM     28  H2  UNL     1      32.035   3.292  12.229  1.00  0.00     0.210 HD
ENDBRANCH  23  27
ENDBRANCH  22  23
ENDBRANCH  19  22
ENDBRANCH   1  19
TORSDOF 7
ENDMDL
