MODEL 1
REMARK VINA RESULT: -6.957317877      0.000      0.000
REMARK  6 active torsions:
REMARK  status: ('A' for Active; 'I' for Inactive)
REMARK    1  A    between atoms: C1_2  and  C2_4 
REMARK    2  A    between atoms: C2_4  and  C3_5 
REMARK    3  A    between atoms: C3_5  and  N1_6 
REMARK       I    between atoms: N1_6  and  C4_8 
REMARK    4  A    between atoms: C4_8  and  C5_10 
REMARK    5  A    between atoms: N2_16  and  C11_17 
REMARK    6  A    between atoms: C11_17  and  C12_18 
ROOT
HETATM    1  C5  UNL     1      36.285   2.508  10.063  1.00  0.00     0.213 C 
HETATM    2  C6  UNL     1      37.239   2.212  11.227  1.00  0.00     0.043 C 
HETATM    3  C7  UNL     1      38.307   3.280  11.182  1.00  0.00     0.015 C 
HETATM    4  C8  UNL     1      37.737   4.688  11.173  1.00  0.00    -0.013 C 
HETATM    5  C9  UNL     1      37.224   5.107  12.502  1.00  0.00     0.056 C 
HETATM    6  C10 UNL     1      38.255   5.973  13.181  1.00  0.00     0.059 C 
HETATM    7  N2  UNL     1      38.472   7.143  12.436  1.00  0.00    -0.391 N 
HETATM    8  C16 UNL     1      38.705   7.006  11.048  1.00  0.00     0.123 C 
HETATM    9  C17 UNL     1      38.759   5.588  10.554  1.00  0.00     0.032 C 
HETATM   10  C18 UNL     1      36.546   4.709  10.207  1.00  0.00     0.178 C 
HETATM   11  O5  UNL     1      35.649   3.693  10.429  1.00  0.00    -0.376 OA
ENDROOT
BRANCH   1  12
HETATM   12  C4  UNL     1      35.326   1.391   9.873  1.00  0.00     0.246 C 
HETATM   13  N1  UNL     1      33.932   1.662   9.793  1.00  0.00    -0.358 N 
ATOM     14  H1  UNL     1      33.598   2.624   9.866  1.00  0.00     0.162 HD
HETATM   15  O3  UNL     1      35.729   0.226   9.782  1.00  0.00    -0.271 OA
BRANCH  13  16
HETATM   16  C3  UNL     1      32.995   0.598   9.610  1.00  0.00     0.133 C 
BRANCH  16  17
HETATM   17  C2  UNL     1      31.649   0.928  10.195  1.00  0.00     0.133 C 
BRANCH  17  18
HETATM   18  C1  UNL     1      31.742   1.264  11.645  1.00  0.00     0.174 C 
HETATM   19  O1  UNL     1      31.180   0.462  12.444  1.00  0.00    -0.648 OA
HETATM   20  O2  UNL     1      32.393   2.374  12.138  1.00  0.00    -0.648 OA
ENDBRANCH  17  18
ENDBRANCH  16  17
ENDBRANCH  13  16
ENDBRANCH   1  12
BRANCH   7  21
HETATM   21  C11 UNL     1      37.919   8.362  12.878  1.00  0.00     0.153 C 
BRANCH  21  22
HETATM   22  C12 UNL     1      38.529   9.492  12.047  1.00  0.00     0.139 C 
HETATM   23  C13 UNL     1      39.671  10.140  12.753  1.00  0.00     0.035 C 
HETATM   24  C14 UNL     1      39.110  11.471  13.196  1.00  0.00     0.029 C 
HETATM   25  C15 UNL     1      37.679  11.438  12.772  1.00  0.00     0.168 C 
HETATM   26  O4  UNL     1      37.534  10.416  11.862  1.00  0.00    -0.384 OA
ENDBRANCH  21  22
ENDBRANCH   7  21
TORSDOF 6
ENDMDL
MODEL 2
REMARK VINA RESULT: -6.951123025      2.268      2.831
REMARK  6 active torsions:
REMARK  status: ('A' for Active; 'I' for Inactive)
REMARK    1  A    between atoms: C1_2  and  C2_4 
REMARK    2  A    between atoms: C2_4  and  C3_5 
REMARK    3  A    between atoms: C3_5  and  N1_6 
REMARK       I    between atoms: N1_6  and  C4_8 
REMARK    4  A    between atoms: C4_8  and  C5_10 
REMARK    5  A    between atoms: N2_16  and  C11_17 
REMARK    6  A    between atoms: C11_17  and  C12_18 
ROOT
HETATM    1  C5  UNL     1      34.473   3.759   7.684  1.00  0.00     0.213 C 
HETATM    2  C6  UNL     1      35.962   3.394   7.640  1.00  0.00     0.043 C 
HETATM    3  C7  UNL     1      36.696   4.653   7.240  1.00  0.00     0.015 C 
HETATM    4  C8  UNL     1      36.361   5.841   8.124  1.00  0.00    -0.013 C 
HETATM    5  C9  UNL     1      37.007   5.760   9.459  1.00  0.00     0.056 C 
HETATM    6  C10 UNL     1      38.240   6.629   9.466  1.00  0.00     0.059 C 
HETATM    7  N2  UNL     1      37.889   7.972   9.259  1.00  0.00    -0.391 N 
HETATM    8  C16 UNL     1      37.020   8.267   8.182  1.00  0.00     0.123 C 
HETATM    9  C17 UNL     1      36.635   7.084   7.340  1.00  0.00     0.032 C 
HETATM   10  C18 UNL     1      34.845   5.841   8.362  1.00  0.00     0.178 C 
HETATM   11  O5  UNL     1      34.361   4.624   8.771  1.00  0.00    -0.376 OA
ENDROOT
BRANCH   1  12
HETATM   12  C4  UNL     1      33.638   2.542   7.844  1.00  0.00     0.246 C 
HETATM   13  N1  UNL     1      33.212   2.143   9.141  1.00  0.00    -0.358 N 
ATOM     14  H1  UNL     1      33.482   2.696   9.955  1.00  0.00     0.162 HD
HETATM   15  O3  UNL     1      33.309   1.873   6.859  1.00  0.00    -0.271 OA
BRANCH  13  16
HETATM   16  C3  UNL     1      32.408   0.974   9.312  1.00  0.00     0.133 C 
BRANCH  16  17
HETATM   17  C2  UNL     1      32.652   0.314  10.642  1.00  0.00     0.133 C 
BRANCH  17  18
HETATM   18  C1  UNL     1      32.085   1.111  11.768  1.00  0.00     0.174 C 
HETATM   19  O1  UNL     1      31.108   0.595  12.384  1.00  0.00    -0.648 OA
HETATM   20  O2  UNL     1      32.560   2.345  12.155  1.00  0.00    -0.648 OA
ENDBRANCH  17  18
ENDBRANCH  16  17
ENDBRANCH  13  16
ENDBRANCH   1  12
BRANCH   7  21
HETATM   21  C11 UNL     1      37.888   8.867  10.348  1.00  0.00     0.153 C 
BRANCH  21  22
HETATM   22  C12 UNL     1      38.607   8.195  11.520  1.00  0.00     0.139 C 
HETATM   23  C13 UNL     1      37.770   8.199  12.754  1.00  0.00     0.035 C 
HETATM   24  C14 UNL     1      38.426   9.242  13.628  1.00  0.00     0.029 C 
HETATM   25  C15 UNL     1      39.531   9.796  12.792  1.00  0.00     0.168 C 
HETATM   26  O4  UNL     1      39.743   8.926  11.747  1.00  0.00    -0.384 OA
ENDBRANCH  21  22
ENDBRANCH   7  21
TORSDOF 6
ENDMDL
MODEL 3
REMARK VINA RESULT: -6.935801156      2.516      3.187
REMARK  6 active torsions:
REMARK  status: ('A' for Active; 'I' for Inactive)
REMARK    1  A    between atoms: C1_2  and  C2_4 
REMARK    2  A    between atoms: C2_4  and  C3_5 
REMARK    3  A    between atoms: C3_5  and  N1_6 
REMARK       I    between atoms: N1_6  and  C4_8 
REMARK    4  A    between atoms: C4_8  and  C5_10 
REMARK    5  A    between atoms: N2_16  and  C11_17 
REMARK    6  A    between atoms: C11_17  and  C12_18 
ROOT
HETATM    1  C5  UNL     1      34.293   3.918   7.654  1.00  0.00     0.213 C 
HETATM    2  C6  UNL     1      35.627   3.711   6.925  1.00  0.00     0.043 C 
HETATM    3  C7  UNL     1      36.128   5.088   6.558  1.00  0.00     0.015 C 
HETATM    4  C8  UNL     1      36.196   6.030   7.747  1.00  0.00    -0.013 C 
HETATM    5  C9  UNL     1      37.341   5.736   8.646  1.00  0.00     0.056 C 
HETATM    6  C10 UNL     1      38.465   6.697   8.347  1.00  0.00     0.059 C 
HETATM    7  N2  UNL     1      38.062   8.014   8.612  1.00  0.00    -0.391 N 
HETATM    8  C16 UNL     1      36.823   8.443   8.081  1.00  0.00     0.123 C 
HETATM    9  C17 UNL     1      36.119   7.430   7.224  1.00  0.00     0.032 C 
HETATM   10  C18 UNL     1      34.919   5.840   8.575  1.00  0.00     0.178 C 
HETATM   11  O5  UNL     1      34.648   4.524   8.858  1.00  0.00    -0.376 OA
ENDROOT
BRANCH   1  12
HETATM   12  C4  UNL     1      33.600   2.621   7.859  1.00  0.00     0.246 C 
HETATM   13  N1  UNL     1      33.226   2.220   9.172  1.00  0.00    -0.358 N 
ATOM     14  H1  UNL     1      33.437   2.826   9.966  1.00  0.00     0.162 HD
HETATM   15  O3  UNL     1      33.343   1.888   6.899  1.00  0.00    -0.271 OA
BRANCH  13  16
HETATM   16  C3  UNL     1      32.558   0.975   9.386  1.00  0.00     0.133 C 
BRANCH  16  17
HETATM   17  C2  UNL     1      32.841   0.415  10.754  1.00  0.00     0.133 C 
BRANCH  17  18
HETATM   18  C1  UNL     1      32.146   1.188  11.823  1.00  0.00     0.174 C 
HETATM   19  O1  UNL     1      31.158   0.623  12.373  1.00  0.00    -0.648 OA
HETATM   20  O2  UNL     1      32.521   2.451  12.227  1.00  0.00    -0.648 OA
ENDBRANCH  17  18
ENDBRANCH  16  17
ENDBRANCH  13  16
ENDBRANCH   1  12
BRANCH   7  21
HETATM   21  C11 UNL     1      38.518   8.660   9.779  1.00  0.00     0.153 C 
BRANCH  21  22
HETATM   22  C12 UNL     1      37.329   8.834  10.726  1.00  0.00     0.139 C 
HETATM   23  C13 UNL     1      37.409  10.117  11.480  1.00  0.00     0.035 C 
HETATM   24  C14 UNL     1      37.790   9.687  12.878  1.00  0.00     0.029 C 
HETATM   25  C15 UNL     1      37.968   8.209  12.783  1.00  0.00     0.168 C 
HETATM   26  O4  UNL     1      37.383   7.789  11.610  1.00  0.00    -0.384 OA
ENDBRANCH  21  22
ENDBRANCH   7  21
TORSDOF 6
ENDMDL
MODEL 4
REMARK VINA RESULT: -6.901249916      4.655      8.676
REMARK  6 active torsions:
REMARK  status: ('A' for Active; 'I' for Inactive)
REMARK    1  A    between atoms: C1_2  and  C2_4 
REMARK    2  A    between atoms: C2_4  and  C3_5 
REMARK    3  A    between atoms: C3_5  and  N1_6 
REMARK       I    between atoms: N1_6  and  C4_8 
REMARK    4  A    between atoms: C4_8  and  C5_10 
REMARK    5  A    between atoms: N2_16  and  C11_17 
REMARK    6  A    between atoms: C11_17  and  C12_18 
ROOT
HETATM    1  C5  UNL     1      36.999   4.432   5.420  1.00  0.00     0.213 C 
HETATM    2  C6  UNL     1      35.941   3.574   4.715  1.00  0.00     0.043 C 
HETATM    3  C7  UNL     1      36.070   2.183   5.291  1.00  0.00     0.015 C 
HETATM    4  C8  UNL     1      35.995   2.161   6.808  1.00  0.00    -0.013 C 
HETATM    5  C9  UNL     1      34.614   2.359   7.317  1.00  0.00     0.056 C 
HETATM    6  C10 UNL     1      34.023   1.020   7.680  1.00  0.00     0.059 C 
HETATM    7  N2  UNL     1      34.762   0.428   8.716  1.00  0.00    -0.391 N 
HETATM    8  C16 UNL     1      36.169   0.383   8.578  1.00  0.00     0.123 C 
HETATM    9  C17 UNL     1      36.694   0.925   7.280  1.00  0.00     0.032 C 
HETATM   10  C18 UNL     1      36.839   3.327   7.340  1.00  0.00     0.178 C 
HETATM   11  O5  UNL     1      36.549   4.525   6.736  1.00  0.00    -0.376 OA
ENDROOT
BRANCH   1  12
HETATM   12  C4  UNL     1      37.116   5.762   4.770  1.00  0.00     0.246 C 
HETATM   13  N1  UNL     1      37.477   6.898   5.546  1.00  0.00    -0.358 N 
ATOM     14  H1  UNL     1      37.654   6.794   6.546  1.00  0.00     0.162 HD
HETATM   15  O3  UNL     1      36.904   5.889   3.560  1.00  0.00    -0.271 OA
BRANCH  13  16
HETATM   16  C3  UNL     1      37.593   8.185   4.935  1.00  0.00     0.133 C 
BRANCH  16  17
HETATM   17  C2  UNL     1      36.610   9.169   5.508  1.00  0.00     0.133 C 
BRANCH  17  18
HETATM   18  C1  UNL     1      35.919   8.624   6.713  1.00  0.00     0.174 C 
HETATM   19  O1  UNL     1      36.476   8.843   7.826  1.00  0.00    -0.648 OA
HETATM   20  O2  UNL     1      34.738   7.916   6.669  1.00  0.00    -0.648 OA
ENDBRANCH  17  18
ENDBRANCH  16  17
ENDBRANCH  13  16
ENDBRANCH   1  12
BRANCH   7  21
HETATM   21  C11 UNL     1      34.244   0.427  10.027  1.00  0.00     0.153 C 
BRANCH  21  22
HETATM   22  C12 UNL     1      32.805   0.942   9.974  1.00  0.00     0.139 C 
HETATM   23  C13 UNL     1      32.643   2.205  10.749  1.00  0.00     0.035 C 
HETATM   24  C14 UNL     1      31.890   1.772  11.985  1.00  0.00     0.029 C 
HETATM   25  C15 UNL     1      31.753   0.292  11.846  1.00  0.00     0.168 C 
HETATM   26  O4  UNL     1      32.024  -0.033  10.537  1.00  0.00    -0.384 OA
ENDBRANCH  21  22
ENDBRANCH   7  21
TORSDOF 6
ENDMDL
MODEL 5
REMARK VINA RESULT: -6.896755102      4.711      8.110
REMARK  6 active torsions:
REMARK  status: ('A' for Active; 'I' for Inactive)
REMARK    1  A    between atoms: C1_2  and  C2_4 
REMARK    2  A    between atoms: C2_4  and  C3_5 
REMARK    3  A    between atoms: C3_5  and  N1_6 
REMARK       I    between atoms: N1_6  and  C4_8 
REMARK    4  A    between atoms: C4_8  and  C5_10 
REMARK    5  A    between atoms: N2_16  and  C11_17 
REMARK    6  A    between atoms: C11_17  and  C12_18 
ROOT
HETATM    1  C5  UNL     1      36.776   5.117   5.954  1.00  0.00     0.213 C 
HETATM    2  C6  UNL     1      37.915   4.161   6.330  1.00  0.00     0.043 C 
HETATM    3  C7  UNL     1      37.945   4.107   7.839  1.00  0.00     0.015 C 
HETATM    4  C8  UNL     1      36.598   3.756   8.446  1.00  0.00    -0.013 C 
HETATM    5  C9  UNL     1      36.259   2.318   8.295  1.00  0.00     0.056 C 
HETATM    6  C10 UNL     1      36.563   1.599   9.585  1.00  0.00     0.059 C 
HETATM    7  N2  UNL     1      35.764   2.104  10.622  1.00  0.00    -0.391 N 
HETATM    8  C16 UNL     1      35.702   3.508  10.783  1.00  0.00     0.123 C 
HETATM    9  C17 UNL     1      36.575   4.289   9.843  1.00  0.00     0.032 C 
HETATM   10  C18 UNL     1      35.520   4.550   7.696  1.00  0.00     0.178 C 
HETATM   11  O5  UNL     1      35.618   4.440   6.331  1.00  0.00    -0.376 OA
ENDROOT
BRANCH   1  12
HETATM   12  C4  UNL     1      36.803   5.423   4.502  1.00  0.00     0.246 C 
HETATM   13  N1  UNL     1      37.405   4.504   3.598  1.00  0.00    -0.358 N 
ATOM     14  H1  UNL     1      37.815   3.640   3.952  1.00  0.00     0.162 HD
HETATM   15  O3  UNL     1      36.305   6.468   4.071  1.00  0.00    -0.271 OA
BRANCH  13  16
HETATM   16  C3  UNL     1      37.439   4.783   2.196  1.00  0.00     0.133 C 
BRANCH  16  17
HETATM   17  C2  UNL     1      37.173   3.553   1.372  1.00  0.00     0.133 C 
BRANCH  17  18
HETATM   18  C1  UNL     1      36.587   2.454   2.192  1.00  0.00     0.174 C 
HETATM   19  O1  UNL     1      35.329   2.461   2.325  1.00  0.00    -0.648 OA
HETATM   20  O2  UNL     1      37.330   1.460   2.792  1.00  0.00    -0.648 OA
ENDBRANCH  17  18
ENDBRANCH  16  17
ENDBRANCH  13  16
ENDBRANCH   1  12
BRANCH   7  21
HETATM   21  C11 UNL     1      34.657   1.356  11.075  1.00  0.00     0.153 C 
BRANCH  21  22
HETATM   22  C12 UNL     1      33.397   2.202  10.879  1.00  0.00     0.139 C 
HETATM   23  C13 UNL     1      32.494   2.125  12.063  1.00  0.00     0.035 C 
HETATM   24  C14 UNL     1      31.354   1.255  11.587  1.00  0.00     0.029 C 
HETATM   25  C15 UNL     1      31.739   0.850  10.204  1.00  0.00     0.168 C 
HETATM   26  O4  UNL     1      32.751   1.685   9.788  1.00  0.00    -0.384 OA
ENDBRANCH  21  22
ENDBRANCH   7  21
TORSDOF 6
ENDMDL
