MODEL 1
REMARK VINA RESULT: -8.497620076      0.000      0.000
REMARK  6 active torsions:
REMARK  status: ('A' for Active; 'I' for Inactive)
REMARK    1  A    between atoms: C4_6  and  C5_7 
REMARK    2  A    between atoms: C5_7  and  O1_8 
REMARK    3  A    between atoms: C5_7  and  C6_10 
REMARK    4  A    between atoms: C5_7  and  C11_17 
REMARK    5  A    between atoms: C6_10  and  C7_11 
REMARK    6  A    between atoms: C9_13  and  C10_14 
ROOT
HETATM    1  C5  UNL     1     -30.071  -6.428  -5.603  1.00  0.00     0.146 C 
ENDROOT
BRANCH   1   2
HETATM    2  C4  UNL     1     -29.121  -7.359  -4.987  1.00  0.00     0.121 A 
HETATM    3  N1  UNL     1     -29.454  -8.431  -4.229  1.00  0.00    -0.351 N 
HETATM    4  C3  UNL     1     -28.346  -9.045  -3.788  1.00  0.00     0.114 A 
ATOM      5  H1  UNL     1     -30.407  -8.728  -4.022  1.00  0.00     0.166 HD
HETATM    6  C2  UNL     1     -27.282  -8.350  -4.275  1.00  0.00     0.022 A 
HETATM    7  C1  UNL     1     -25.859  -8.679  -4.035  1.00  0.00     0.069 C 
HETATM    8  N2  UNL     1     -27.768  -7.338  -4.996  1.00  0.00    -0.346 N 
ATOM      9  H2  UNL     1     -27.200  -6.646  -5.485  1.00  0.00     0.167 HD
ENDBRANCH   1   2
BRANCH   1  10
HETATM   10  O1  UNL     1     -31.326  -7.070  -5.148  1.00  0.00    -0.377 OA
ATOM     11  H1  UNL     1     -31.572  -7.487  -5.966  1.00  0.00     0.211 HD
ENDBRANCH   1  10
BRANCH   1  12
HETATM   12  C6  UNL     1     -30.269  -6.466  -7.052  1.00  0.00     0.057 C 
BRANCH  12  13
HETATM   13  C7  UNL     1     -29.756  -7.475  -7.963  1.00  0.00     0.004 A 
HETATM   14  C8  UNL     1     -28.780  -8.535  -7.769  1.00  0.00     0.021 A 
HETATM   15  C9  UNL     1     -30.213  -8.909  -7.719  1.00  0.00     0.091 A 
BRANCH  15  16
HETATM   16  C10 UNL     1     -30.854  -9.681  -8.781  1.00  0.00     0.177 C 
HETATM   17  O2  UNL     1     -30.175 -10.146  -9.728  1.00  0.00    -0.648 OA
HETATM   18  O3  UNL     1     -32.211  -9.908  -8.759  1.00  0.00    -0.648 OA
ENDBRANCH  15  16
ENDBRANCH  12  13
ENDBRANCH   1  12
BRANCH   1  19
HETATM   19  C11 UNL     1     -30.057  -5.041  -4.978  1.00  0.00     0.024 A 
HETATM   20  C12 UNL     1     -30.624  -4.869  -3.740  1.00  0.00     0.086 A 
HETATM   21 CL1  UNL     1     -31.417  -6.034  -2.649  1.00  0.00    -0.075 Cl
HETATM   22  S1  UNL     1     -30.398  -3.209  -3.412  1.00  0.00    -0.073 SA
HETATM   23  C13 UNL     1     -29.595  -2.761  -4.829  1.00  0.00     0.058 A 
HETATM   24  C14 UNL     1     -29.092  -1.516  -5.230  1.00  0.00     0.157 A 
HETATM   25  C18 UNL     1     -29.509  -3.917  -5.556  1.00  0.00    -0.002 A 
HETATM   26  F1  UNL     1     -29.234  -0.437  -4.433  1.00  0.00    -0.203 F 
HETATM   27  C15 UNL     1     -28.451  -1.401  -6.441  1.00  0.00     0.095 A 
HETATM   28 CL2  UNL     1     -27.794   0.097  -7.025  1.00  0.00    -0.079 Cl
HETATM   29  C16 UNL     1     -28.351  -2.529  -7.176  1.00  0.00     0.059 A 
HETATM   30 CL3  UNL     1     -27.536  -2.456  -8.749  1.00  0.00    -0.082 Cl
HETATM   31  C17 UNL     1     -28.846  -3.777  -6.793  1.00  0.00     0.039 A 
ENDBRANCH   1  19
TORSDOF 6
ENDMDL
MODEL 2
REMARK VINA RESULT: -8.161910448      1.265      1.598
REMARK  6 active torsions:
REMARK  status: ('A' for Active; 'I' for Inactive)
REMARK    1  A    between atoms: C4_6  and  C5_7 
REMARK    2  A    between atoms: C5_7  and  O1_8 
REMARK    3  A    between atoms: C5_7  and  C6_10 
REMARK    4  A    between atoms: C5_7  and  C11_17 
REMARK    5  A    between atoms: C6_10  and  C7_11 
REMARK    6  A    between atoms: C9_13  and  C10_14 
ROOT
HETATM    1  C5  UNL     1     -29.734  -6.984  -5.670  1.00  0.00     0.146 C 
ENDROOT
BRANCH   1   2
HETATM    2  C4  UNL     1     -28.776  -7.795  -4.914  1.00  0.00     0.121 A 
HETATM    3  N1  UNL     1     -29.098  -8.720  -3.979  1.00  0.00    -0.351 N 
HETATM    4  C3  UNL     1     -27.984  -9.249  -3.451  1.00  0.00     0.114 A 
ATOM      5  H1  UNL     1     -30.049  -8.977  -3.714  1.00  0.00     0.166 HD
HETATM    6  C2  UNL     1     -26.928  -8.648  -4.063  1.00  0.00     0.022 A 
HETATM    7  C1  UNL     1     -25.501  -8.931  -3.786  1.00  0.00     0.069 C 
HETATM    8  N2  UNL     1     -27.423  -7.776  -4.942  1.00  0.00    -0.346 N 
ATOM      9  H2  UNL     1     -26.862  -7.179  -5.550  1.00  0.00     0.167 HD
ENDBRANCH   1   2
BRANCH   1  10
HETATM   10  O1  UNL     1     -30.979  -7.657  -5.232  1.00  0.00    -0.377 OA
ATOM     11  H1  UNL     1     -30.891  -8.455  -5.740  1.00  0.00     0.211 HD
ENDBRANCH   1  10
BRANCH   1  12
HETATM   12  C6  UNL     1     -29.836  -7.167  -7.119  1.00  0.00     0.057 C 
BRANCH  12  13
HETATM   13  C7  UNL     1     -29.592  -8.399  -7.848  1.00  0.00     0.004 A 
HETATM   14  C8  UNL     1     -29.661  -8.702  -9.268  1.00  0.00     0.021 A 
HETATM   15  C9  UNL     1     -28.321  -8.453  -8.688  1.00  0.00     0.091 A 
BRANCH  15  16
HETATM   16  C10 UNL     1     -27.344  -9.522  -8.499  1.00  0.00     0.177 C 
HETATM   17  O2  UNL     1     -26.863 -10.127  -9.487  1.00  0.00    -0.648 OA
HETATM   18  O3  UNL     1     -26.938  -9.882  -7.234  1.00  0.00    -0.648 OA
ENDBRANCH  15  16
ENDBRANCH  12  13
ENDBRANCH   1  12
BRANCH   1  19
HETATM   19  C11 UNL     1     -29.837  -5.547  -5.181  1.00  0.00     0.024 A 
HETATM   20  C12 UNL     1     -30.446  -5.303  -3.976  1.00  0.00     0.086 A 
HETATM   21 CL1  UNL     1     -31.178  -6.416  -2.792  1.00  0.00    -0.075 Cl
HETATM   22  S1  UNL     1     -30.349  -3.607  -3.803  1.00  0.00    -0.073 SA
HETATM   23  C13 UNL     1     -29.546  -3.235  -5.242  1.00  0.00     0.058 A 
HETATM   24  C14 UNL     1     -29.125  -1.999  -5.751  1.00  0.00     0.157 A 
HETATM   25  C18 UNL     1     -29.358  -4.445  -5.853  1.00  0.00    -0.002 A 
HETATM   26  F1  UNL     1     -29.365  -0.864  -5.063  1.00  0.00    -0.203 F 
HETATM   27  C15 UNL     1     -28.465  -1.951  -6.955  1.00  0.00     0.095 A 
HETATM   28 CL2  UNL     1     -27.904  -0.469  -7.668  1.00  0.00    -0.079 Cl
HETATM   29  C16 UNL     1     -28.264  -3.132  -7.578  1.00  0.00     0.059 A 
HETATM   30 CL3  UNL     1     -27.418  -3.146  -9.136  1.00  0.00    -0.082 Cl
HETATM   31  C17 UNL     1     -28.677  -4.372  -7.086  1.00  0.00     0.039 A 
ENDBRANCH   1  19
TORSDOF 6
ENDMDL
MODEL 3
REMARK VINA RESULT: -8.033736661     15.825     17.586
REMARK  6 active torsions:
REMARK  status: ('A' for Active; 'I' for Inactive)
REMARK    1  A    between atoms: C4_6  and  C5_7 
REMARK    2  A    between atoms: C5_7  and  O1_8 
REMARK    3  A    between atoms: C5_7  and  C6_10 
REMARK    4  A    between atoms: C5_7  and  C11_17 
REMARK    5  A    between atoms: C6_10  and  C7_11 
REMARK    6  A    between atoms: C9_13  and  C10_14 
ROOT
HETATM    1  C5  UNL     1     -14.366  -1.276 -13.968  1.00  0.00     0.146 C 
ENDROOT
BRANCH   1   2
HETATM    2  C4  UNL     1     -13.905  -2.170 -15.033  1.00  0.00     0.121 A 
HETATM    3  N1  UNL     1     -13.305  -1.778 -16.183  1.00  0.00    -0.351 N 
HETATM    4  C3  UNL     1     -13.050  -2.843 -16.956  1.00  0.00     0.114 A 
ATOM      5  H1  UNL     1     -13.080  -0.813 -16.424  1.00  0.00     0.166 HD
HETATM    6  C2  UNL     1     -13.498  -3.940 -16.287  1.00  0.00     0.022 A 
HETATM    7  C1  UNL     1     -13.418  -5.335 -16.776  1.00  0.00     0.069 C 
HETATM    8  N2  UNL     1     -14.009  -3.516 -15.130  1.00  0.00    -0.346 N 
ATOM      9  H2  UNL     1     -14.420  -4.121 -14.419  1.00  0.00     0.167 HD
ENDBRANCH   1   2
BRANCH   1  10
HETATM   10  O1  UNL     1     -13.167  -1.341 -13.099  1.00  0.00    -0.377 OA
ATOM     11  H1  UNL     1     -12.878  -2.217 -13.329  1.00  0.00     0.211 HD
ENDBRANCH   1  10
BRANCH   1  12
HETATM   12  C6  UNL     1     -15.389  -1.747 -13.034  1.00  0.00     0.057 C 
BRANCH  12  13
HETATM   13  C7  UNL     1     -15.193  -2.697 -11.952  1.00  0.00     0.004 A 
HETATM   14  C8  UNL     1     -15.779  -2.773 -10.625  1.00  0.00     0.021 A 
HETATM   15  C9  UNL     1     -16.344  -3.657 -11.672  1.00  0.00     0.091 A 
BRANCH  15  16
HETATM   16  C10 UNL     1     -16.131  -5.101 -11.670  1.00  0.00     0.177 C 
HETATM   17  O2  UNL     1     -16.751  -5.837 -12.475  1.00  0.00    -0.648 OA
HETATM   18  O3  UNL     1     -15.249  -5.677 -10.784  1.00  0.00    -0.648 OA
ENDBRANCH  15  16
ENDBRANCH  12  13
ENDBRANCH   1  12
BRANCH   1  19
HETATM   19  C11 UNL     1     -14.491   0.176 -14.402  1.00  0.00     0.024 A 
HETATM   20  C12 UNL     1     -13.353   0.936 -14.502  1.00  0.00     0.086 A 
HETATM   21 CL1  UNL     1     -11.644   0.521 -14.211  1.00  0.00    -0.075 Cl
HETATM   22  S1  UNL     1     -13.922   2.464 -15.010  1.00  0.00    -0.073 SA
HETATM   23  C13 UNL     1     -15.575   2.123 -15.090  1.00  0.00     0.058 A 
HETATM   24  C14 UNL     1     -16.651   2.940 -15.459  1.00  0.00     0.157 A 
HETATM   25  C18 UNL     1     -15.673   0.810 -14.717  1.00  0.00    -0.002 A 
HETATM   26  F1  UNL     1     -16.440   4.226 -15.810  1.00  0.00    -0.203 F 
HETATM   27  C15 UNL     1     -17.925   2.424 -15.463  1.00  0.00     0.095 A 
HETATM   28 CL2  UNL     1     -19.322   3.356 -15.905  1.00  0.00    -0.079 Cl
HETATM   29  C16 UNL     1     -18.049   1.129 -15.101  1.00  0.00     0.059 A 
HETATM   30 CL3  UNL     1     -19.663   0.395 -15.084  1.00  0.00    -0.082 Cl
HETATM   31  C17 UNL     1     -16.988   0.300 -14.730  1.00  0.00     0.039 A 
ENDBRANCH   1  19
TORSDOF 6
ENDMDL
MODEL 4
REMARK VINA RESULT: -7.890883314      1.868      3.204
REMARK  6 active torsions:
REMARK  status: ('A' for Active; 'I' for Inactive)
REMARK    1  A    between atoms: C4_6  and  C5_7 
REMARK    2  A    between atoms: C5_7  and  O1_8 
REMARK    3  A    between atoms: C5_7  and  C6_10 
REMARK    4  A    between atoms: C5_7  and  C11_17 
REMARK    5  A    between atoms: C6_10  and  C7_11 
REMARK    6  A    between atoms: C9_13  and  C10_14 
ROOT
HETATM    1  C5  UNL     1     -29.340  -6.699  -5.347  1.00  0.00     0.146 C 
ENDROOT
BRANCH   1   2
HETATM    2  C4  UNL     1     -30.401  -7.378  -6.096  1.00  0.00     0.121 A 
HETATM    3  N1  UNL     1     -31.726  -7.119  -5.988  1.00  0.00    -0.351 N 
HETATM    4  C3  UNL     1     -32.423  -7.946  -6.781  1.00  0.00     0.114 A 
ATOM      5  H1  UNL     1     -32.135  -6.401  -5.390  1.00  0.00     0.166 HD
HETATM    6  C2  UNL     1     -31.523  -8.751  -7.409  1.00  0.00     0.022 A 
HETATM    7  C1  UNL     1     -31.858  -9.818  -8.380  1.00  0.00     0.069 C 
HETATM    8  N2  UNL     1     -30.310  -8.394  -6.985  1.00  0.00    -0.346 N 
ATOM      9  H2  UNL     1     -29.437  -8.825  -7.289  1.00  0.00     0.167 HD
ENDBRANCH   1   2
BRANCH   1  10
HETATM   10  O1  UNL     1     -28.377  -6.515  -6.458  1.00  0.00    -0.377 OA
ATOM     11  H1  UNL     1     -28.194  -5.591  -6.331  1.00  0.00     0.211 HD
ENDBRANCH   1  10
BRANCH   1  12
HETATM   12  C6  UNL     1     -28.518  -7.472  -4.416  1.00  0.00     0.057 C 
BRANCH  12  13
HETATM   13  C7  UNL     1     -27.269  -8.146  -4.729  1.00  0.00     0.004 A 
HETATM   14  C8  UNL     1     -26.579  -9.240  -4.066  1.00  0.00     0.021 A 
HETATM   15  C9  UNL     1     -27.379  -9.568  -5.269  1.00  0.00     0.091 A 
BRANCH  15  16
HETATM   16  C10 UNL     1     -26.760  -9.935  -6.539  1.00  0.00     0.177 C 
HETATM   17  O2  UNL     1     -25.525 -10.146  -6.608  1.00  0.00    -0.648 OA
HETATM   18  O3  UNL     1     -27.521 -10.053  -7.680  1.00  0.00    -0.648 OA
ENDBRANCH  15  16
ENDBRANCH  12  13
ENDBRANCH   1  12
BRANCH   1  19
HETATM   19  C11 UNL     1     -29.719  -5.301  -4.884  1.00  0.00     0.024 A 
HETATM   20  C12 UNL     1     -30.466  -5.164  -3.740  1.00  0.00     0.086 A 
HETATM   21 CL1  UNL     1     -31.111  -6.388  -2.617  1.00  0.00    -0.075 Cl
HETATM   22  S1  UNL     1     -30.663  -3.477  -3.577  1.00  0.00    -0.073 SA
HETATM   23  C13 UNL     1     -29.805  -2.971  -4.942  1.00  0.00     0.058 A 
HETATM   24  C14 UNL     1     -29.547  -1.681  -5.423  1.00  0.00     0.157 A 
HETATM   25  C18 UNL     1     -29.368  -4.131  -5.521  1.00  0.00    -0.002 A 
HETATM   26  F1  UNL     1     -30.029  -0.603  -4.771  1.00  0.00    -0.203 F 
HETATM   27  C15 UNL     1     -28.797  -1.520  -6.564  1.00  0.00     0.095 A 
HETATM   28 CL2  UNL     1     -28.423   0.036  -7.238  1.00  0.00    -0.079 Cl
HETATM   29  C16 UNL     1     -28.352  -2.650  -7.154  1.00  0.00     0.059 A 
HETATM   30 CL3  UNL     1     -27.377  -2.518  -8.629  1.00  0.00    -0.082 Cl
HETATM   31  C17 UNL     1     -28.599  -3.943  -6.689  1.00  0.00     0.039 A 
ENDBRANCH   1  19
TORSDOF 6
ENDMDL
MODEL 5
REMARK VINA RESULT: -7.812825058     15.590     17.046
REMARK  6 active torsions:
REMARK  status: ('A' for Active; 'I' for Inactive)
REMARK    1  A    between atoms: C4_6  and  C5_7 
REMARK    2  A    between atoms: C5_7  and  O1_8 
REMARK    3  A    between atoms: C5_7  and  C6_10 
REMARK    4  A    between atoms: C5_7  and  C11_17 
REMARK    5  A    between atoms: C6_10  and  C7_11 
REMARK    6  A    between atoms: C9_13  and  C10_14 
ROOT
HETATM    1  C5  UNL     1     -14.752  -2.756 -13.630  1.00  0.00     0.146 C 
ENDROOT
BRANCH   1   2
HETATM    2  C4  UNL     1     -14.815  -3.010 -12.188  1.00  0.00     0.121 A 
HETATM    3  N1  UNL     1     -15.793  -2.573 -11.357  1.00  0.00    -0.351 N 
HETATM    4  C3  UNL     1     -15.525  -2.945 -10.097  1.00  0.00     0.114 A 
ATOM      5  H1  UNL     1     -16.612  -2.040 -11.648  1.00  0.00     0.166 HD
HETATM    6  C2  UNL     1     -14.351  -3.633 -10.123  1.00  0.00     0.022 A 
HETATM    7  C1  UNL     1     -13.679  -4.229  -8.946  1.00  0.00     0.069 C 
HETATM    8  N2  UNL     1     -13.939  -3.663 -11.392  1.00  0.00    -0.346 N 
ATOM      9  H2  UNL     1     -13.083  -4.115 -11.715  1.00  0.00     0.167 HD
ENDBRANCH   1   2
BRANCH   1  10
HETATM   10  O1  UNL     1     -16.203  -2.820 -13.924  1.00  0.00    -0.377 OA
ATOM     11  H1  UNL     1     -16.236  -2.153 -14.600  1.00  0.00     0.211 HD
ENDBRANCH   1  10
BRANCH   1  12
HETATM   12  C6  UNL     1     -14.261  -3.809 -14.519  1.00  0.00     0.057 C 
BRANCH  12  13
HETATM   13  C7  UNL     1     -14.728  -5.184 -14.562  1.00  0.00     0.004 A 
HETATM   14  C8  UNL     1     -14.265  -6.331 -15.325  1.00  0.00     0.021 A 
HETATM   15  C9  UNL     1     -13.830  -6.231 -13.912  1.00  0.00     0.091 A 
BRANCH  15  16
HETATM   16  C10 UNL     1     -14.345  -7.119 -12.873  1.00  0.00     0.177 C 
HETATM   17  O2  UNL     1     -14.271  -6.793 -11.664  1.00  0.00    -0.648 OA
HETATM   18  O3  UNL     1     -14.917  -8.325 -13.205  1.00  0.00    -0.648 OA
ENDBRANCH  15  16
ENDBRANCH  12  13
ENDBRANCH   1  12
BRANCH   1  19
HETATM   19  C11 UNL     1     -14.313  -1.343 -13.982  1.00  0.00     0.024 A 
HETATM   20  C12 UNL     1     -12.977  -1.034 -13.930  1.00  0.00     0.086 A 
HETATM   21 CL1  UNL     1     -11.564  -2.037 -13.511  1.00  0.00    -0.075 Cl
HETATM   22  S1  UNL     1     -12.916   0.608 -14.391  1.00  0.00    -0.073 SA
HETATM   23  C13 UNL     1     -14.564   0.879 -14.642  1.00  0.00     0.058 A 
HETATM   24  C14 UNL     1     -15.240   2.035 -15.055  1.00  0.00     0.157 A 
HETATM   25  C18 UNL     1     -15.157  -0.322 -14.362  1.00  0.00    -0.002 A 
HETATM   26  F1  UNL     1     -14.555   3.171 -15.304  1.00  0.00    -0.203 F 
HETATM   27  C15 UNL     1     -16.606   2.005 -15.208  1.00  0.00     0.095 A 
HETATM   28 CL2  UNL     1     -17.531   3.384 -15.715  1.00  0.00    -0.079 Cl
HETATM   29  C16 UNL     1     -17.214   0.830 -14.940  1.00  0.00     0.059 A 
HETATM   30 CL3  UNL     1     -18.974   0.717 -15.116  1.00  0.00    -0.082 Cl
HETATM   31  C17 UNL     1     -16.557  -0.331 -14.527  1.00  0.00     0.039 A 
ENDBRANCH   1  19
TORSDOF 6
ENDMDL
