MODEL 1
REMARK VINA RESULT: -9.875783600      0.000      0.000
REMARK  7 active torsions:
REMARK  status: ('A' for Active; 'I' for Inactive)
REMARK    1  A    between atoms: C7_8  and  C8_9 
REMARK    2  A    between atoms: C8_9  and  N2_10 
REMARK    3  A    between atoms: N2_10  and  C9_12 
REMARK    4  A    between atoms: C9_12  and  C10_13 
REMARK    5  A    between atoms: C13_16  and  C14_17 
REMARK    6  A    between atoms: C14_17  and  O1_18 
REMARK    7  A    between atoms: C22_29  and  C23_30 
ROOT
HETATM    1  C1  UNL     1     -28.182  -8.027  -5.901  1.00  0.00     0.015 C 
HETATM    2  C2  UNL     1     -29.484  -7.876  -6.632  1.00  0.00    -0.043 C 
HETATM    3  C3  UNL     1     -29.897  -9.190  -7.233  1.00  0.00     0.015 C 
HETATM    4  C4  UNL     1     -29.402  -6.828  -7.724  1.00  0.00     0.049 C 
HETATM    5  C5  UNL     1     -29.258  -5.459  -7.118  1.00  0.00    -0.034 A 
HETATM    6  C6  UNL     1     -28.796  -4.462  -7.997  1.00  0.00     0.105 A 
HETATM    7  N1  UNL     1     -28.607  -3.199  -7.598  1.00  0.00    -0.317 N 
HETATM    8  C7  UNL     1     -28.174  -2.113  -8.240  1.00  0.00     0.080 A 
HETATM    9  C17 UNL     1     -28.166  -1.072  -7.301  1.00  0.00     0.099 A 
HETATM   10  N3  UNL     1     -27.764   0.252  -7.610  1.00  0.00    -0.098 NA
HETATM   11  C18 UNL     1     -28.600  -1.559  -6.100  1.00  0.00     0.087 A 
HETATM   12 CL1  UNL     1     -28.781  -0.704  -4.605  1.00  0.00    -0.080 Cl
HETATM   13  C19 UNL     1     -28.871  -2.891  -6.304  1.00  0.00     0.063 A 
HETATM   14  C20 UNL     1     -29.331  -3.875  -5.422  1.00  0.00     0.040 A 
HETATM   15  C21 UNL     1     -29.539  -5.189  -5.802  1.00  0.00    -0.035 A 
HETATM   16  C22 UNL     1     -30.013  -6.229  -4.907  1.00  0.00     0.128 C 
HETATM   17  C24 UNL     1     -30.544  -7.446  -5.648  1.00  0.00     0.027 C 
ENDROOT
BRANCH   8  18
HETATM   18  C8  UNL     1     -27.728  -1.918  -9.659  1.00  0.00     0.119 C 
BRANCH  18  19
HETATM   19  N2  UNL     1     -26.374  -1.731  -9.867  1.00  0.00    -0.376 N 
ATOM     20  H2  UNL     1     -25.835  -1.321  -9.104  1.00  0.00     0.164 HD
BRANCH  19  21
HETATM   21  C9  UNL     1     -25.689  -2.057 -11.032  1.00  0.00     0.065 C 
BRANCH  21  22
HETATM   22  C10 UNL     1     -24.853  -1.079 -11.759  1.00  0.00     0.024 C 
HETATM   23  C11 UNL     1     -25.158  -1.174 -13.293  1.00  0.00     0.010 C 
HETATM   24  C12 UNL     1     -23.993  -0.720 -14.094  1.00  0.00     0.007 C 
HETATM   25  C13 UNL     1     -23.045   0.214 -13.411  1.00  0.00     0.009 C 
HETATM   26  C15 UNL     1     -22.566  -0.273 -12.059  1.00  0.00     0.007 C 
HETATM   27  C16 UNL     1     -23.385  -1.508 -11.732  1.00  0.00     0.010 C 
BRANCH  25  28
HETATM   28  C14 UNL     1     -21.788   0.251 -14.293  1.00  0.00     0.168 C 
BRANCH  28  29
HETATM   29  O1  UNL     1     -20.957   1.310 -13.878  1.00  0.00    -0.400 OA
ATOM     30  H1  UNL     1     -20.612   1.757 -14.642  1.00  0.00     0.209 HD
ENDBRANCH  28  29
ENDBRANCH  25  28
ENDBRANCH  21  22
ENDBRANCH  19  21
ENDBRANCH  18  19
ENDBRANCH   8  18
BRANCH  16  31
HETATM   31  C23 UNL     1     -30.971  -5.866  -3.830  1.00  0.00     0.395 C 
HETATM   32  F1  UNL     1     -30.810  -4.652  -3.230  1.00  0.00    -0.170 F 
HETATM   33  F2  UNL     1     -30.777  -6.814  -2.806  1.00  0.00    -0.170 F 
HETATM   34  F3  UNL     1     -32.298  -6.076  -4.217  1.00  0.00    -0.170 F 
ENDBRANCH  16  31
TORSDOF 7
ENDMDL
MODEL 2
REMARK VINA RESULT: -9.806649778      0.844      1.136
REMARK  7 active torsions:
REMARK  status: ('A' for Active; 'I' for Inactive)
REMARK    1  A    between atoms: C7_8  and  C8_9 
REMARK    2  A    between atoms: C8_9  and  N2_10 
REMARK    3  A    between atoms: N2_10  and  C9_12 
REMARK    4  A    between atoms: C9_12  and  C10_13 
REMARK    5  A    between atoms: C13_16  and  C14_17 
REMARK    6  A    between atoms: C14_17  and  O1_18 
REMARK    7  A    between atoms: C22_29  and  C23_30 
ROOT
HETATM    1  C1  UNL     1     -28.214  -8.002  -5.712  1.00  0.00     0.015 C 
HETATM    2  C2  UNL     1     -29.298  -7.901  -6.745  1.00  0.00    -0.043 C 
HETATM    3  C3  UNL     1     -29.499  -9.230  -7.417  1.00  0.00     0.015 C 
HETATM    4  C4  UNL     1     -28.986  -6.850  -7.792  1.00  0.00     0.049 C 
HETATM    5  C5  UNL     1     -29.049  -5.477  -7.182  1.00  0.00    -0.034 A 
HETATM    6  C6  UNL     1     -28.420  -4.463  -7.927  1.00  0.00     0.105 A 
HETATM    7  N1  UNL     1     -28.383  -3.194  -7.505  1.00  0.00    -0.317 N 
HETATM    8  C7  UNL     1     -27.846  -2.092  -8.029  1.00  0.00     0.080 A 
HETATM    9  C17 UNL     1     -28.110  -1.051  -7.126  1.00  0.00     0.099 A 
HETATM   10  N3  UNL     1     -27.694   0.288  -7.338  1.00  0.00    -0.098 NA
HETATM   11  C18 UNL     1     -28.810  -1.555  -6.067  1.00  0.00     0.087 A 
HETATM   12 CL1  UNL     1     -29.389  -0.708  -4.672  1.00  0.00    -0.080 Cl
HETATM   13  C19 UNL     1     -28.973  -2.896  -6.320  1.00  0.00     0.063 A 
HETATM   14  C20 UNL     1     -29.600  -3.898  -5.571  1.00  0.00     0.040 A 
HETATM   15  C21 UNL     1     -29.658  -5.219  -5.979  1.00  0.00    -0.035 A 
HETATM   16  C22 UNL     1     -30.301  -6.277  -5.221  1.00  0.00     0.128 C 
HETATM   17  C24 UNL     1     -30.585  -7.513  -6.059  1.00  0.00     0.027 C 
ENDROOT
BRANCH   8  18
HETATM   18  C8  UNL     1     -27.068  -1.879  -9.294  1.00  0.00     0.119 C 
BRANCH  18  19
HETATM   19  N2  UNL     1     -27.788  -1.876 -10.475  1.00  0.00    -0.376 N 
ATOM     20  H2  UNL     1     -28.766  -2.161 -10.428  1.00  0.00     0.164 HD
BRANCH  19  21
HETATM   21  C9  UNL     1     -27.285  -1.516 -11.720  1.00  0.00     0.065 C 
BRANCH  21  22
HETATM   22  C10 UNL     1     -25.836  -1.466 -12.004  1.00  0.00     0.024 C 
HETATM   23  C11 UNL     1     -25.283  -0.046 -11.636  1.00  0.00     0.010 C 
HETATM   24  C12 UNL     1     -24.069   0.272 -12.430  1.00  0.00     0.007 C 
HETATM   25  C13 UNL     1     -23.297  -0.897 -12.955  1.00  0.00     0.009 C 
HETATM   26  C15 UNL     1     -24.141  -1.904 -13.709  1.00  0.00     0.007 C 
HETATM   27  C16 UNL     1     -25.586  -1.486 -13.513  1.00  0.00     0.010 C 
BRANCH  25  28
HETATM   28  C14 UNL     1     -22.330  -0.321 -14.001  1.00  0.00     0.168 C 
BRANCH  28  29
HETATM   29  O1  UNL     1     -22.386   1.086 -13.963  1.00  0.00    -0.400 OA
ATOM     30  H1  UNL     1     -23.122   1.385 -14.484  1.00  0.00     0.209 HD
ENDBRANCH  28  29
ENDBRANCH  25  28
ENDBRANCH  21  22
ENDBRANCH  19  21
ENDBRANCH  18  19
ENDBRANCH   8  18
BRANCH  16  31
HETATM   31  C23 UNL     1     -31.509  -5.952  -4.419  1.00  0.00     0.395 C 
HETATM   32  F1  UNL     1     -31.798  -4.633  -4.225  1.00  0.00    -0.170 F 
HETATM   33  F2  UNL     1     -31.269  -6.471  -3.132  1.00  0.00    -0.170 F 
HETATM   34  F3  UNL     1     -32.632  -6.665  -4.850  1.00  0.00    -0.170 F 
ENDBRANCH  16  31
TORSDOF 7
ENDMDL
MODEL 3
REMARK VINA RESULT: -9.419772326     12.286     14.984
REMARK  7 active torsions:
REMARK  status: ('A' for Active; 'I' for Inactive)
REMARK    1  A    between atoms: C7_8  and  C8_9 
REMARK    2  A    between atoms: C8_9  and  N2_10 
REMARK    3  A    between atoms: N2_10  and  C9_12 
REMARK    4  A    between atoms: C9_12  and  C10_13 
REMARK    5  A    between atoms: C13_16  and  C14_17 
REMARK    6  A    between atoms: C14_17  and  O1_18 
REMARK    7  A    between atoms: C22_29  and  C23_30 
ROOT
HETATM    1  C1  UNL     1     -10.942  -6.265 -14.654  1.00  0.00     0.015 C 
HETATM    2  C2  UNL     1     -12.054  -6.437 -15.647  1.00  0.00    -0.043 C 
HETATM    3  C3  UNL     1     -11.553  -7.156 -16.867  1.00  0.00     0.015 C 
HETATM    4  C4  UNL     1     -12.656  -5.108 -16.058  1.00  0.00     0.049 C 
HETATM    5  C5  UNL     1     -13.401  -4.496 -14.903  1.00  0.00    -0.034 A 
HETATM    6  C6  UNL     1     -13.673  -3.122 -15.028  1.00  0.00     0.105 A 
HETATM    7  N1  UNL     1     -14.317  -2.438 -14.075  1.00  0.00    -0.317 N 
HETATM    8  C7  UNL     1     -14.667  -1.156 -13.975  1.00  0.00     0.080 A 
HETATM    9  C17 UNL     1     -15.309  -1.013 -12.736  1.00  0.00     0.099 A 
HETATM   10  N3  UNL     1     -15.831   0.219 -12.268  1.00  0.00    -0.098 NA
HETATM   11  C18 UNL     1     -15.333  -2.227 -12.111  1.00  0.00     0.087 A 
HETATM   12 CL1  UNL     1     -16.001  -2.616 -10.561  1.00  0.00    -0.080 Cl
HETATM   13  C19 UNL     1     -14.708  -3.108 -12.962  1.00  0.00     0.063 A 
HETATM   14  C20 UNL     1     -14.442  -4.475 -12.828  1.00  0.00     0.040 A 
HETATM   15  C21 UNL     1     -13.780  -5.211 -13.795  1.00  0.00    -0.035 A 
HETATM   16  C22 UNL     1     -13.489  -6.629 -13.680  1.00  0.00     0.128 C 
HETATM   17  C24 UNL     1     -13.143  -7.269 -15.015  1.00  0.00     0.027 C 
ENDROOT
BRANCH   8  18
HETATM   18  C8  UNL     1     -14.452   0.001 -14.906  1.00  0.00     0.119 C 
BRANCH  18  19
HETATM   19  N2  UNL     1     -15.518   0.361 -15.710  1.00  0.00    -0.376 N 
ATOM     20  H2  UNL     1     -15.903  -0.354 -16.327  1.00  0.00     0.164 HD
BRANCH  19  21
HETATM   21  C9  UNL     1     -16.107   1.620 -15.744  1.00  0.00     0.065 C 
BRANCH  21  22
HETATM   22  C10 UNL     1     -17.571   1.808 -15.806  1.00  0.00     0.024 C 
HETATM   23  C11 UNL     1     -17.925   3.276 -15.387  1.00  0.00     0.010 C 
HETATM   24  C12 UNL     1     -19.305   3.354 -14.844  1.00  0.00     0.007 C 
HETATM   25  C13 UNL     1     -20.249   2.280 -15.282  1.00  0.00     0.009 C 
HETATM   26  C15 UNL     1     -19.715   0.875 -15.097  1.00  0.00     0.007 C 
HETATM   27  C16 UNL     1     -18.260   1.019 -14.692  1.00  0.00     0.010 C 
BRANCH  25  28
HETATM   28  C14 UNL     1     -21.458   2.378 -14.338  1.00  0.00     0.168 C 
BRANCH  28  29
HETATM   29  O1  UNL     1     -21.889   3.718 -14.269  1.00  0.00    -0.400 OA
ATOM     30  H1  UNL     1     -22.413   3.839 -13.487  1.00  0.00     0.209 HD
ENDBRANCH  28  29
ENDBRANCH  25  28
ENDBRANCH  21  22
ENDBRANCH  19  21
ENDBRANCH  18  19
ENDBRANCH   8  18
BRANCH  16  31
HETATM   31  C23 UNL     1     -14.455  -7.503 -12.964  1.00  0.00     0.395 C 
HETATM   32  F1  UNL     1     -14.481  -7.428 -11.603  1.00  0.00    -0.170 F 
HETATM   33  F2  UNL     1     -14.069  -8.825 -13.255  1.00  0.00    -0.170 F 
HETATM   34  F3  UNL     1     -15.742  -7.417 -13.507  1.00  0.00    -0.170 F 
ENDBRANCH  16  31
TORSDOF 7
ENDMDL
MODEL 4
REMARK VINA RESULT: -9.150001861      5.133      6.242
REMARK  7 active torsions:
REMARK  status: ('A' for Active; 'I' for Inactive)
REMARK    1  A    between atoms: C7_8  and  C8_9 
REMARK    2  A    between atoms: C8_9  and  N2_10 
REMARK    3  A    between atoms: N2_10  and  C9_12 
REMARK    4  A    between atoms: C9_12  and  C10_13 
REMARK    5  A    between atoms: C13_16  and  C14_17 
REMARK    6  A    between atoms: C14_17  and  O1_18 
REMARK    7  A    between atoms: C22_29  and  C23_30 
ROOT
HETATM    1  C1  UNL     1     -28.453 -10.027  -7.146  1.00  0.00     0.015 C 
HETATM    2  C2  UNL     1     -28.795  -9.128  -8.298  1.00  0.00    -0.043 C 
HETATM    3  C3  UNL     1     -28.181  -9.652  -9.565  1.00  0.00     0.015 C 
HETATM    4  C4  UNL     1     -28.327  -7.705  -8.064  1.00  0.00     0.049 C 
HETATM    5  C5  UNL     1     -29.131  -7.070  -6.962  1.00  0.00    -0.034 A 
HETATM    6  C6  UNL     1     -28.560  -5.915  -6.396  1.00  0.00     0.105 A 
HETATM    7  N1  UNL     1     -29.152  -5.249  -5.398  1.00  0.00    -0.317 N 
HETATM    8  C7  UNL     1     -28.799  -4.161  -4.715  1.00  0.00     0.080 A 
HETATM    9  C17 UNL     1     -29.811  -3.936  -3.770  1.00  0.00     0.099 A 
HETATM   10  N3  UNL     1     -29.791  -2.858  -2.850  1.00  0.00    -0.098 NA
HETATM   11  C18 UNL     1     -30.763  -4.906  -3.908  1.00  0.00     0.087 A 
HETATM   12 CL1  UNL     1     -32.223  -5.104  -2.997  1.00  0.00    -0.080 Cl
HETATM   13  C19 UNL     1     -30.336  -5.718  -4.931  1.00  0.00     0.063 A 
HETATM   14  C20 UNL     1     -30.912  -6.866  -5.487  1.00  0.00     0.040 A 
HETATM   15  C21 UNL     1     -30.327  -7.577  -6.520  1.00  0.00    -0.035 A 
HETATM   16  C22 UNL     1     -30.901  -8.771  -7.113  1.00  0.00     0.128 C 
HETATM   17  C24 UNL     1     -30.295  -9.107  -8.466  1.00  0.00     0.027 C 
ENDROOT
BRANCH   8  18
HETATM   18  C8  UNL     1     -27.584  -3.285  -4.814  1.00  0.00     0.119 C 
BRANCH  18  19
HETATM   19  N2  UNL     1     -27.686  -2.167  -5.622  1.00  0.00    -0.376 N 
ATOM     20  H2  UNL     1     -27.925  -2.317  -6.602  1.00  0.00     0.164 HD
BRANCH  19  21
HETATM   21  C9  UNL     1     -27.490  -0.856  -5.204  1.00  0.00     0.065 C 
BRANCH  21  22
HETATM   22  C10 UNL     1     -28.503   0.201  -5.406  1.00  0.00     0.024 C 
HETATM   23  C11 UNL     1     -29.899  -0.318  -4.918  1.00  0.00     0.010 C 
HETATM   24  C12 UNL     1     -31.001   0.384  -5.623  1.00  0.00     0.007 C 
HETATM   25  C13 UNL     1     -30.675   1.734  -6.180  1.00  0.00     0.009 C 
HETATM   26  C15 UNL     1     -29.429   1.761  -7.042  1.00  0.00     0.007 C 
HETATM   27  C16 UNL     1     -28.777   0.399  -6.898  1.00  0.00     0.010 C 
BRANCH  25  28
HETATM   28  C14 UNL     1     -31.830   2.080  -7.133  1.00  0.00     0.168 C 
BRANCH  28  29
HETATM   29  O1  UNL     1     -31.518   3.262  -7.834  1.00  0.00    -0.400 OA
ATOM     30  H1  UNL     1     -30.983   3.048  -8.589  1.00  0.00     0.209 HD
ENDBRANCH  28  29
ENDBRANCH  25  28
ENDBRANCH  21  22
ENDBRANCH  19  21
ENDBRANCH  18  19
ENDBRANCH   8  18
BRANCH  16  31
HETATM   31  C23 UNL     1     -32.380  -8.884  -7.208  1.00  0.00     0.395 C 
HETATM   32  F1  UNL     1     -33.004  -9.725  -6.334  1.00  0.00    -0.170 F 
HETATM   33  F2  UNL     1     -32.646  -9.414  -8.486  1.00  0.00    -0.170 F 
HETATM   34  F3  UNL     1     -33.000  -7.630  -7.244  1.00  0.00    -0.170 F 
ENDBRANCH  16  31
TORSDOF 7
ENDMDL
MODEL 5
REMARK VINA RESULT: -9.076405718      1.367      1.783
REMARK  7 active torsions:
REMARK  status: ('A' for Active; 'I' for Inactive)
REMARK    1  A    between atoms: C7_8  and  C8_9 
REMARK    2  A    between atoms: C8_9  and  N2_10 
REMARK    3  A    between atoms: N2_10  and  C9_12 
REMARK    4  A    between atoms: C9_12  and  C10_13 
REMARK    5  A    between atoms: C13_16  and  C14_17 
REMARK    6  A    between atoms: C14_17  and  O1_18 
REMARK    7  A    between atoms: C22_29  and  C23_30 
ROOT
HETATM    1  C1  UNL     1     -28.399  -7.841  -5.915  1.00  0.00     0.015 C 
HETATM    2  C2  UNL     1     -29.675  -7.626  -6.675  1.00  0.00    -0.043 C 
HETATM    3  C3  UNL     1     -30.084  -8.894  -7.370  1.00  0.00     0.015 C 
HETATM    4  C4  UNL     1     -29.545  -6.513  -7.697  1.00  0.00     0.049 C 
HETATM    5  C5  UNL     1     -29.404  -5.186  -7.002  1.00  0.00    -0.034 A 
HETATM    6  C6  UNL     1     -28.902  -4.144  -7.801  1.00  0.00     0.105 A 
HETATM    7  N1  UNL     1     -28.709  -2.911  -7.318  1.00  0.00    -0.317 N 
HETATM    8  C7  UNL     1     -28.244  -1.793  -7.877  1.00  0.00     0.080 A 
HETATM    9  C17 UNL     1     -28.253  -0.813  -6.874  1.00  0.00     0.099 A 
HETATM   10  N3  UNL     1     -27.825   0.522  -7.087  1.00  0.00    -0.098 NA
HETATM   11  C18 UNL     1     -28.730  -1.367  -5.721  1.00  0.00     0.087 A 
HETATM   12 CL1  UNL     1     -28.949  -0.605  -4.181  1.00  0.00    -0.080 Cl
HETATM   13  C19 UNL     1     -29.012  -2.680  -6.016  1.00  0.00     0.063 A 
HETATM   14  C20 UNL     1     -29.512  -3.711  -5.212  1.00  0.00     0.040 A 
HETATM   15  C21 UNL     1     -29.724  -4.996  -5.680  1.00  0.00    -0.035 A 
HETATM   16  C22 UNL     1     -30.239  -6.083  -4.868  1.00  0.00     0.128 C 
HETATM   17  C24 UNL     1     -30.761  -7.243  -5.700  1.00  0.00     0.027 C 
ENDROOT
BRANCH   8  18
HETATM   18  C8  UNL     1     -27.750  -1.517  -9.266  1.00  0.00     0.119 C 
BRANCH  18  19
HETATM   19  N2  UNL     1     -26.567  -2.126  -9.640  1.00  0.00    -0.376 N 
ATOM     20  H2  UNL     1     -26.445  -3.107  -9.389  1.00  0.00     0.164 HD
BRANCH  19  21
HETATM   21  C9  UNL     1     -25.530  -1.509 -10.331  1.00  0.00     0.065 C 
BRANCH  21  22
HETATM   22  C10 UNL     1     -25.280  -1.753 -11.767  1.00  0.00     0.024 C 
HETATM   23  C11 UNL     1     -24.060  -0.887 -12.236  1.00  0.00     0.010 C 
HETATM   24  C12 UNL     1     -24.140  -0.604 -13.691  1.00  0.00     0.007 C 
HETATM   25  C13 UNL     1     -24.940  -1.567 -14.509  1.00  0.00     0.009 C 
HETATM   26  C15 UNL     1     -26.332  -1.826 -13.970  1.00  0.00     0.007 C 
HETATM   27  C16 UNL     1     -26.401  -1.149 -12.615  1.00  0.00     0.010 C 
BRANCH  25  28
HETATM   28  C14 UNL     1     -25.156  -0.881 -15.867  1.00  0.00     0.168 C 
BRANCH  28  29
HETATM   29  O1  UNL     1     -26.536  -0.821 -16.146  1.00  0.00    -0.400 OA
ATOM     30  H1  UNL     1     -27.008  -1.346 -15.511  1.00  0.00     0.209 HD
ENDBRANCH  28  29
ENDBRANCH  25  28
ENDBRANCH  21  22
ENDBRANCH  19  21
ENDBRANCH  18  19
ENDBRANCH   8  18
BRANCH  16  31
HETATM   31  C23 UNL     1     -31.226  -5.774  -3.801  1.00  0.00     0.395 C 
HETATM   32  F1  UNL     1     -31.131  -4.559  -3.189  1.00  0.00    -0.170 F 
HETATM   33  F2  UNL     1     -31.002  -6.720  -2.782  1.00  0.00    -0.170 F 
HETATM   34  F3  UNL     1     -32.538  -6.043  -4.207  1.00  0.00    -0.170 F 
ENDBRANCH  16  31
TORSDOF 7
ENDMDL
