MODEL 1
REMARK VINA RESULT: -9.225602641      0.000      0.000
REMARK  8 active torsions:
REMARK  status: ('A' for Active; 'I' for Inactive)
REMARK    1  A    between atoms: C2_2  and  O1_3 
REMARK    2  A    between atoms: C2_2  and  C3_5 
REMARK    3  A    between atoms: C6_8  and  C8_10 
REMARK    4  A    between atoms: C12_14  and  C13_15 
REMARK    5  A    between atoms: C15_17  and  O2_18 
REMARK    6  A    between atoms: C16_20  and  O3_21 
REMARK    7  A    between atoms: N1_23  and  C17_24 
REMARK    8  A    between atoms: C17_24  and  C18_25 
ROOT
HETATM    1  C13 UNL     1     -31.022  -7.257  -6.298  1.00  0.00     0.050 A 
HETATM    2  C14 UNL     1     -32.261  -7.840  -6.620  1.00  0.00     0.071 A 
HETATM    3  C15 UNL     1     -32.042  -8.875  -7.469  1.00  0.00     0.119 A 
HETATM    4  C16 UNL     1     -30.693  -8.942  -7.681  1.00  0.00     0.177 A 
HETATM    5  N1  UNL     1     -30.094  -7.937  -6.954  1.00  0.00    -0.320 N 
ENDROOT
BRANCH   1   6
HETATM    6  C12 UNL     1     -31.009  -6.113  -5.379  1.00  0.00    -0.009 A 
HETATM    7  C11 UNL     1     -31.867  -6.016  -4.318  1.00  0.00     0.014 A 
HETATM    8  C10 UNL     1     -31.753  -4.959  -3.419  1.00  0.00     0.002 A 
HETATM    9  C9  UNL     1     -30.774  -4.026  -3.620  1.00  0.00     0.008 A 
HETATM   10  C8  UNL     1     -29.891  -4.074  -4.665  1.00  0.00    -0.049 A 
HETATM   11  C24 UNL     1     -30.019  -5.124  -5.541  1.00  0.00     0.021 A 
BRANCH  10  12
HETATM   12  C6  UNL     1     -28.819  -3.082  -4.917  1.00  0.00    -0.017 C 
HETATM   13  C5  UNL     1     -28.866  -2.699  -6.371  1.00  0.00     0.014 C 
HETATM   14  C4  UNL     1     -28.243  -1.361  -6.664  1.00  0.00     0.008 C 
HETATM   15  C3  UNL     1     -28.820  -0.245  -5.863  1.00  0.00     0.014 C 
HETATM   16  C26 UNL     1     -29.759  -0.840  -4.837  1.00  0.00     0.008 C 
HETATM   17  C25 UNL     1     -28.920  -1.864  -4.064  1.00  0.00     0.014 C 
HETATM   18  C7  UNL     1     -27.484  -3.746  -4.607  1.00  0.00     0.020 C 
BRANCH  15  19
HETATM   19  C2  UNL     1     -29.433   0.853  -6.662  1.00  0.00     0.118 C 
HETATM   20  C1  UNL     1     -30.658   1.454  -6.106  1.00  0.00     0.040 C 
BRANCH  19  21
HETATM   21  O1  UNL     1     -28.447   1.839  -6.846  1.00  0.00    -0.396 OA
ATOM     22  H1  UNL     1     -28.519   2.505  -6.173  1.00  0.00     0.210 HD
ENDBRANCH  19  21
ENDBRANCH  15  19
ENDBRANCH  10  12
ENDBRANCH   1   6
BRANCH   5  23
HETATM   23  C17 UNL     1     -28.695  -7.676  -7.092  1.00  0.00     0.176 C 
BRANCH  23  24
HETATM   24  C18 UNL     1     -27.821  -8.240  -6.041  1.00  0.00     0.037 A 
HETATM   25  C19 UNL     1     -27.692  -7.763  -4.775  1.00  0.00     0.130 A 
HETATM   26  F1  UNL     1     -28.343  -6.661  -4.345  1.00  0.00    -0.205 F 
HETATM   27  C20 UNL     1     -26.868  -8.404  -3.836  1.00  0.00     0.085 A 
HETATM   28  C21 UNL     1     -26.157  -9.538  -4.144  1.00  0.00     0.122 A 
HETATM   29  F2  UNL     1     -25.358 -10.146  -3.206  1.00  0.00    -0.206 F 
HETATM   30  C22 UNL     1     -26.277 -10.030  -5.413  1.00  0.00     0.085 A 
HETATM   31  C23 UNL     1     -27.083  -9.402  -6.327  1.00  0.00     0.130 A 
HETATM   32  F3  UNL     1     -27.214  -9.967  -7.571  1.00  0.00    -0.205 F 
ENDBRANCH  23  24
ENDBRANCH   5  23
BRANCH   3  33
HETATM   33  O2  UNL     1     -33.011  -9.728  -8.033  1.00  0.00    -0.357 OA
ATOM     34  H2  UNL     1     -33.063 -10.015  -8.937  1.00  0.00     0.218 HD
ENDBRANCH   3  33
BRANCH   4  35
HETATM   35  O3  UNL     1     -30.098  -9.880  -8.493  1.00  0.00    -0.344 OA
ATOM     36  H3  UNL     1     -30.212 -10.817  -8.383  1.00  0.00     0.219 HD
ENDBRANCH   4  35
TORSDOF 8
ENDMDL
MODEL 2
REMARK VINA RESULT: -9.216818687     15.823     19.088
REMARK  8 active torsions:
REMARK  status: ('A' for Active; 'I' for Inactive)
REMARK    1  A    between atoms: C2_2  and  O1_3 
REMARK    2  A    between atoms: C2_2  and  C3_5 
REMARK    3  A    between atoms: C6_8  and  C8_10 
REMARK    4  A    between atoms: C12_14  and  C13_15 
REMARK    5  A    between atoms: C15_17  and  O2_18 
REMARK    6  A    between atoms: C16_20  and  O3_21 
REMARK    7  A    between atoms: N1_23  and  C17_24 
REMARK    8  A    between atoms: C17_24  and  C18_25 
ROOT
HETATM    1  C13 UNL     1     -14.344   1.467 -14.315  1.00  0.00     0.050 A 
HETATM    2  C14 UNL     1     -13.221   2.223 -13.932  1.00  0.00     0.071 A 
HETATM    3  C15 UNL     1     -13.180   3.346 -14.689  1.00  0.00     0.119 A 
HETATM    4  C16 UNL     1     -14.253   3.300 -15.535  1.00  0.00     0.177 A 
HETATM    5  N1  UNL     1     -14.946   2.136 -15.286  1.00  0.00    -0.320 N 
ENDROOT
BRANCH   1   6
HETATM    6  C12 UNL     1     -14.600   0.200 -13.621  1.00  0.00    -0.009 A 
HETATM    7  C11 UNL     1     -15.614   0.052 -12.715  1.00  0.00     0.014 A 
HETATM    8  C10 UNL     1     -15.877  -1.194 -12.154  1.00  0.00     0.002 A 
HETATM    9  C9  UNL     1     -15.104  -2.260 -12.524  1.00  0.00     0.008 A 
HETATM   10  C8  UNL     1     -14.075  -2.167 -13.424  1.00  0.00    -0.049 A 
HETATM   11  C24 UNL     1     -13.832  -0.930 -13.966  1.00  0.00     0.021 A 
BRANCH  10  12
HETATM   12  C6  UNL     1     -13.215  -3.297 -13.849  1.00  0.00    -0.017 C 
HETATM   13  C5  UNL     1     -13.281  -4.361 -12.787  1.00  0.00     0.014 C 
HETATM   14  C4  UNL     1     -12.929  -5.736 -13.288  1.00  0.00     0.008 C 
HETATM   15  C3  UNL     1     -13.749  -6.177 -14.450  1.00  0.00     0.014 C 
HETATM   16  C26 UNL     1     -14.590  -5.005 -14.904  1.00  0.00     0.008 C 
HETATM   17  C25 UNL     1     -13.593  -3.871 -15.172  1.00  0.00     0.014 C 
HETATM   18  C7  UNL     1     -11.788  -2.782 -13.966  1.00  0.00     0.020 C 
BRANCH  15  19
HETATM   19  C2  UNL     1     -14.539  -7.422 -14.229  1.00  0.00     0.118 C 
HETATM   20  C1  UNL     1     -14.531  -7.961 -12.858  1.00  0.00     0.040 C 
BRANCH  19  21
HETATM   21  O1  UNL     1     -15.858  -7.161 -14.641  1.00  0.00    -0.396 OA
ATOM     22  H1  UNL     1     -16.192  -7.887 -15.154  1.00  0.00     0.210 HD
ENDBRANCH  19  21
ENDBRANCH  15  19
ENDBRANCH  10  12
ENDBRANCH   1   6
BRANCH   5  23
HETATM   23  C17 UNL     1     -16.041   1.751 -16.120  1.00  0.00     0.176 C 
BRANCH  23  24
HETATM   24  C18 UNL     1     -17.392   2.067 -15.607  1.00  0.00     0.037 A 
HETATM   25  C19 UNL     1     -17.974   3.296 -15.609  1.00  0.00     0.130 A 
HETATM   26  F1  UNL     1     -17.340   4.398 -16.061  1.00  0.00    -0.205 F 
HETATM   27  C20 UNL     1     -19.285   3.480 -15.141  1.00  0.00     0.085 A 
HETATM   28  C21 UNL     1     -20.042   2.439 -14.662  1.00  0.00     0.122 A 
HETATM   29  F2  UNL     1     -21.323   2.647 -14.210  1.00  0.00    -0.206 F 
HETATM   30  C22 UNL     1     -19.470   1.198 -14.654  1.00  0.00     0.085 A 
HETATM   31  C23 UNL     1     -18.190   1.021 -15.112  1.00  0.00     0.130 A 
HETATM   32  F3  UNL     1     -17.681  -0.253 -15.136  1.00  0.00    -0.205 F 
ENDBRANCH  23  24
ENDBRANCH   5  23
BRANCH   3  33
HETATM   33  O2  UNL     1     -12.220   4.376 -14.627  1.00  0.00    -0.357 OA
ATOM     34  H2  UNL     1     -12.342   5.287 -14.867  1.00  0.00     0.218 HD
ENDBRANCH   3  33
BRANCH   4  35
HETATM   35  O3  UNL     1     -14.537   4.284 -16.456  1.00  0.00    -0.344 OA
ATOM     36  H3  UNL     1     -15.251   4.228 -17.080  1.00  0.00     0.219 HD
ENDBRANCH   4  35
TORSDOF 8
ENDMDL
MODEL 3
REMARK VINA RESULT: -9.117756338     15.848     19.137
REMARK  8 active torsions:
REMARK  status: ('A' for Active; 'I' for Inactive)
REMARK    1  A    between atoms: C2_2  and  O1_3 
REMARK    2  A    between atoms: C2_2  and  C3_5 
REMARK    3  A    between atoms: C6_8  and  C8_10 
REMARK    4  A    between atoms: C12_14  and  C13_15 
REMARK    5  A    between atoms: C15_17  and  O2_18 
REMARK    6  A    between atoms: C16_20  and  O3_21 
REMARK    7  A    between atoms: N1_23  and  C17_24 
REMARK    8  A    between atoms: C17_24  and  C18_25 
ROOT
HETATM    1  C13 UNL     1     -14.291   1.494 -14.224  1.00  0.00     0.050 A 
HETATM    2  C14 UNL     1     -13.217   2.262 -13.738  1.00  0.00     0.071 A 
HETATM    3  C15 UNL     1     -13.139   3.402 -14.467  1.00  0.00     0.119 A 
HETATM    4  C16 UNL     1     -14.140   3.355 -15.396  1.00  0.00     0.177 A 
HETATM    5  N1  UNL     1     -14.827   2.174 -15.227  1.00  0.00    -0.320 N 
ENDROOT
BRANCH   1   6
HETATM    6  C12 UNL     1     -14.575   0.208 -13.578  1.00  0.00    -0.009 A 
HETATM    7  C11 UNL     1     -15.601   0.046 -12.687  1.00  0.00     0.014 A 
HETATM    8  C10 UNL     1     -15.891  -1.215 -12.173  1.00  0.00     0.002 A 
HETATM    9  C9  UNL     1     -15.133  -2.280 -12.575  1.00  0.00     0.008 A 
HETATM   10  C8  UNL     1     -14.095  -2.174 -13.462  1.00  0.00    -0.049 A 
HETATM   11  C24 UNL     1     -13.825  -0.922 -13.957  1.00  0.00     0.021 A 
BRANCH  10  12
HETATM   12  C6  UNL     1     -13.251  -3.303 -13.920  1.00  0.00    -0.017 C 
HETATM   13  C5  UNL     1     -13.272  -4.366 -12.855  1.00  0.00     0.014 C 
HETATM   14  C4  UNL     1     -12.938  -5.741 -13.368  1.00  0.00     0.008 C 
HETATM   15  C3  UNL     1     -13.806  -6.185 -14.494  1.00  0.00     0.014 C 
HETATM   16  C26 UNL     1     -14.665  -5.015 -14.915  1.00  0.00     0.008 C 
HETATM   17  C25 UNL     1     -13.683  -3.879 -15.226  1.00  0.00     0.014 C 
HETATM   18  C7  UNL     1     -11.830  -2.786 -14.097  1.00  0.00     0.020 C 
BRANCH  15  19
HETATM   19  C2  UNL     1     -14.584  -7.430 -14.239  1.00  0.00     0.118 C 
HETATM   20  C1  UNL     1     -14.491  -7.986 -12.877  1.00  0.00     0.040 C 
BRANCH  19  21
HETATM   21  O1  UNL     1     -15.925  -7.161 -14.564  1.00  0.00    -0.396 OA
ATOM     22  H1  UNL     1     -15.985  -6.367 -15.080  1.00  0.00     0.210 HD
ENDBRANCH  19  21
ENDBRANCH  15  19
ENDBRANCH  10  12
ENDBRANCH   1   6
BRANCH   5  23
HETATM   23  C17 UNL     1     -15.846   1.786 -16.152  1.00  0.00     0.176 C 
BRANCH  23  24
HETATM   24  C18 UNL     1     -17.240   1.911 -15.675  1.00  0.00     0.037 A 
HETATM   25  C19 UNL     1     -17.991   0.909 -15.145  1.00  0.00     0.130 A 
HETATM   26  F1  UNL     1     -17.535  -0.357 -15.033  1.00  0.00    -0.205 F 
HETATM   27  C20 UNL     1     -19.292   1.145 -14.676  1.00  0.00     0.085 A 
HETATM   28  C21 UNL     1     -19.871   2.390 -14.726  1.00  0.00     0.122 A 
HETATM   29  F2  UNL     1     -21.147   2.594 -14.258  1.00  0.00    -0.206 F 
HETATM   30  C22 UNL     1     -19.128   3.408 -15.255  1.00  0.00     0.085 A 
HETATM   31  C23 UNL     1     -17.858   3.174 -15.712  1.00  0.00     0.130 A 
HETATM   32  F3  UNL     1     -17.132   4.239 -16.182  1.00  0.00    -0.205 F 
ENDBRANCH  23  24
ENDBRANCH   5  23
BRANCH   3  33
HETATM   33  O2  UNL     1     -12.207   4.447 -14.308  1.00  0.00    -0.357 OA
ATOM     34  H2  UNL     1     -11.804   4.964 -14.996  1.00  0.00     0.218 HD
ENDBRANCH   3  33
BRANCH   4  35
HETATM   35  O3  UNL     1     -14.370   4.353 -16.316  1.00  0.00    -0.344 OA
ATOM     36  H3  UNL     1     -15.231   4.714 -16.495  1.00  0.00     0.219 HD
ENDBRANCH   4  35
TORSDOF 8
ENDMDL
MODEL 4
REMARK VINA RESULT: -9.043497034     15.929     19.222
REMARK  8 active torsions:
REMARK  status: ('A' for Active; 'I' for Inactive)
REMARK    1  A    between atoms: C2_2  and  O1_3 
REMARK    2  A    between atoms: C2_2  and  C3_5 
REMARK    3  A    between atoms: C6_8  and  C8_10 
REMARK    4  A    between atoms: C12_14  and  C13_15 
REMARK    5  A    between atoms: C15_17  and  O2_18 
REMARK    6  A    between atoms: C16_20  and  O3_21 
REMARK    7  A    between atoms: N1_23  and  C17_24 
REMARK    8  A    between atoms: C17_24  and  C18_25 
ROOT
HETATM    1  C13 UNL     1     -13.616   1.487 -14.934  1.00  0.00     0.050 A 
HETATM    2  C14 UNL     1     -12.591   2.114 -14.200  1.00  0.00     0.071 A 
HETATM    3  C15 UNL     1     -12.751   3.456 -14.299  1.00  0.00     0.119 A 
HETATM    4  C16 UNL     1     -13.851   3.674 -15.081  1.00  0.00     0.177 A 
HETATM    5  N1  UNL     1     -14.358   2.450 -15.458  1.00  0.00    -0.320 N 
ENDROOT
BRANCH   1   6
HETATM    6  C12 UNL     1     -13.651   0.021 -14.966  1.00  0.00    -0.009 A 
HETATM    7  C11 UNL     1     -13.036  -0.706 -15.949  1.00  0.00     0.014 A 
HETATM    8  C10 UNL     1     -13.016  -2.096 -15.885  1.00  0.00     0.002 A 
HETATM    9  C9  UNL     1     -13.622  -2.715 -14.826  1.00  0.00     0.008 A 
HETATM   10  C8  UNL     1     -14.252  -2.037 -13.817  1.00  0.00    -0.049 A 
HETATM   11  C24 UNL     1     -14.261  -0.667 -13.899  1.00  0.00     0.021 A 
BRANCH  10  12
HETATM   12  C6  UNL     1     -14.920  -2.672 -12.656  1.00  0.00    -0.017 C 
HETATM   13  C5  UNL     1     -15.823  -3.759 -13.170  1.00  0.00     0.014 C 
HETATM   14  C4  UNL     1     -16.138  -4.817 -12.148  1.00  0.00     0.008 C 
HETATM   15  C3  UNL     1     -14.929  -5.451 -11.553  1.00  0.00     0.014 C 
HETATM   16  C26 UNL     1     -13.714  -4.692 -12.037  1.00  0.00     0.008 C 
HETATM   17  C25 UNL     1     -13.968  -3.230 -11.652  1.00  0.00     0.014 C 
HETATM   18  C7  UNL     1     -15.751  -1.607 -11.953  1.00  0.00     0.020 C 
BRANCH  15  19
HETATM   19  C2  UNL     1     -14.825  -6.924 -11.754  1.00  0.00     0.118 C 
HETATM   20  C1  UNL     1     -14.759  -7.386 -13.152  1.00  0.00     0.040 C 
BRANCH  19  21
HETATM   21  O1  UNL     1     -13.697  -7.368 -11.041  1.00  0.00    -0.396 OA
ATOM     22  H1  UNL     1     -13.847  -7.288 -10.107  1.00  0.00     0.210 HD
ENDBRANCH  19  21
ENDBRANCH  15  19
ENDBRANCH  10  12
ENDBRANCH   1   6
BRANCH   5  23
HETATM   23  C17 UNL     1     -15.432   2.368 -16.398  1.00  0.00     0.176 C 
BRANCH  23  24
HETATM   24  C18 UNL     1     -16.793   2.290 -15.825  1.00  0.00     0.037 A 
HETATM   25  C19 UNL     1     -17.380   1.172 -15.322  1.00  0.00     0.130 A 
HETATM   26  F1  UNL     1     -16.771  -0.033 -15.330  1.00  0.00    -0.205 F 
HETATM   27  C20 UNL     1     -18.664   1.217 -14.755  1.00  0.00     0.085 A 
HETATM   28  C21 UNL     1     -19.387   2.382 -14.679  1.00  0.00     0.122 A 
HETATM   29  F2  UNL     1     -20.642   2.398 -14.118  1.00  0.00    -0.206 F 
HETATM   30  C22 UNL     1     -18.810   3.514 -15.180  1.00  0.00     0.085 A 
HETATM   31  C23 UNL     1     -17.557   3.467 -15.733  1.00  0.00     0.130 A 
HETATM   32  F3  UNL     1     -16.998   4.641 -16.171  1.00  0.00    -0.205 F 
ENDBRANCH  23  24
ENDBRANCH   5  23
BRANCH   3  33
HETATM   33  O2  UNL     1     -11.944   4.451 -13.712  1.00  0.00    -0.357 OA
ATOM     34  H2  UNL     1     -11.829   4.620 -12.784  1.00  0.00     0.218 HD
ENDBRANCH   3  33
BRANCH   4  35
HETATM   35  O3  UNL     1     -14.321   4.929 -15.398  1.00  0.00    -0.344 OA
ATOM     36  H3  UNL     1     -14.671   5.157 -16.251  1.00  0.00     0.219 HD
ENDBRANCH   4  35
TORSDOF 8
ENDMDL
MODEL 5
REMARK VINA RESULT: -9.031927475     15.576     18.849
REMARK  8 active torsions:
REMARK  status: ('A' for Active; 'I' for Inactive)
REMARK    1  A    between atoms: C2_2  and  O1_3 
REMARK    2  A    between atoms: C2_2  and  C3_5 
REMARK    3  A    between atoms: C6_8  and  C8_10 
REMARK    4  A    between atoms: C12_14  and  C13_15 
REMARK    5  A    between atoms: C15_17  and  O2_18 
REMARK    6  A    between atoms: C16_20  and  O3_21 
REMARK    7  A    between atoms: N1_23  and  C17_24 
REMARK    8  A    between atoms: C17_24  and  C18_25 
ROOT
HETATM    1  C13 UNL     1     -14.470   1.172 -14.268  1.00  0.00     0.050 A 
HETATM    2  C14 UNL     1     -13.299   1.854 -13.888  1.00  0.00     0.071 A 
HETATM    3  C15 UNL     1     -13.160   2.944 -14.681  1.00  0.00     0.119 A 
HETATM    4  C16 UNL     1     -14.220   2.951 -15.545  1.00  0.00     0.177 A 
HETATM    5  N1  UNL     1     -15.003   1.851 -15.272  1.00  0.00    -0.320 N 
ENDROOT
BRANCH   1   6
HETATM    6  C12 UNL     1     -14.832  -0.048 -13.537  1.00  0.00    -0.009 A 
HETATM    7  C11 UNL     1     -15.734  -0.046 -12.509  1.00  0.00     0.014 A 
HETATM    8  C10 UNL     1     -16.118  -1.242 -11.910  1.00  0.00     0.002 A 
HETATM    9  C9  UNL     1     -15.576  -2.411 -12.368  1.00  0.00     0.008 A 
HETATM   10  C8  UNL     1     -14.668  -2.471 -13.392  1.00  0.00    -0.049 A 
HETATM   11  C24 UNL     1     -14.303  -1.280 -13.970  1.00  0.00     0.021 A 
BRANCH  10  12
HETATM   12  C6  UNL     1     -14.059  -3.716 -13.914  1.00  0.00    -0.017 C 
HETATM   13  C5  UNL     1     -13.031  -4.188 -12.922  1.00  0.00     0.014 C 
HETATM   14  C4  UNL     1     -12.726  -5.658 -13.020  1.00  0.00     0.008 C 
HETATM   15  C3  UNL     1     -13.930  -6.527 -12.901  1.00  0.00     0.014 C 
HETATM   16  C26 UNL     1     -15.153  -5.638 -12.900  1.00  0.00     0.008 C 
HETATM   17  C25 UNL     1     -15.048  -4.800 -14.179  1.00  0.00     0.014 C 
HETATM   18  C7  UNL     1     -13.378  -3.387 -15.236  1.00  0.00     0.020 C 
BRANCH  15  19
HETATM   19  C2  UNL     1     -13.900  -7.495 -11.769  1.00  0.00     0.118 C 
HETATM   20  C1  UNL     1     -12.725  -8.381 -11.703  1.00  0.00     0.040 C 
BRANCH  19  21
HETATM   21  O1  UNL     1     -14.018  -6.754 -10.579  1.00  0.00    -0.396 OA
ATOM     22  H1  UNL     1     -14.382  -7.296  -9.890  1.00  0.00     0.210 HD
ENDBRANCH  19  21
ENDBRANCH  15  19
ENDBRANCH  10  12
ENDBRANCH   1   6
BRANCH   5  23
HETATM   23  C17 UNL     1     -16.111   1.522 -16.113  1.00  0.00     0.176 C 
BRANCH  23  24
HETATM   24  C18 UNL     1     -17.447   1.913 -15.612  1.00  0.00     0.037 A 
HETATM   25  C19 UNL     1     -17.974   3.165 -15.652  1.00  0.00     0.130 A 
HETATM   26  F1  UNL     1     -17.290   4.225 -16.133  1.00  0.00    -0.205 F 
HETATM   27  C20 UNL     1     -19.275   3.421 -15.192  1.00  0.00     0.085 A 
HETATM   28  C21 UNL     1     -20.078   2.429 -14.684  1.00  0.00     0.122 A 
HETATM   29  F2  UNL     1     -21.349   2.707 -14.242  1.00  0.00    -0.206 F 
HETATM   30  C22 UNL     1     -19.562   1.165 -14.640  1.00  0.00     0.085 A 
HETATM   31  C23 UNL     1     -18.291   0.918 -15.089  1.00  0.00     0.130 A 
HETATM   32  F3  UNL     1     -17.840  -0.378 -15.075  1.00  0.00    -0.205 F 
ENDBRANCH  23  24
ENDBRANCH   5  23
BRANCH   3  33
HETATM   33  O2  UNL     1     -12.126   3.900 -14.635  1.00  0.00    -0.357 OA
ATOM     34  H2  UNL     1     -11.235   3.793 -14.946  1.00  0.00     0.218 HD
ENDBRANCH   3  33
BRANCH   4  35
HETATM   35  O3  UNL     1     -14.413   3.921 -16.503  1.00  0.00    -0.344 OA
ATOM     36  H3  UNL     1     -15.093   4.582 -16.450  1.00  0.00     0.219 HD
ENDBRANCH   4  35
TORSDOF 8
ENDMDL
