MODEL 1
REMARK VINA RESULT: -9.863761423      0.000      0.000
REMARK  6 active torsions:
REMARK  status: ('A' for Active; 'I' for Inactive)
REMARK    1  A    between atoms: C2_2  and  O1_3 
REMARK    2  A    between atoms: C2_2  and  C3_6 
REMARK    3  A    between atoms: C3_6  and  N1_7 
REMARK    4  A    between atoms: N1_7  and  C4_10 
REMARK    5  A    between atoms: C6_12  and  C7_13 
REMARK    6  A    between atoms: C9_15  and  C10_16 
ROOT
HETATM    1  C7  UNL     1     -24.903  -1.358 -12.876  1.00  0.00    -0.029 A 
HETATM    2  C8  UNL     1     -25.360  -1.537 -11.606  1.00  0.00     0.042 A 
HETATM    3  C9  UNL     1     -26.674  -1.868 -11.321  1.00  0.00     0.077 A 
HETATM    4  N4  UNL     1     -27.544  -2.021 -12.329  1.00  0.00    -0.361 N 
ATOM      5  H4  UNL     1     -28.512  -2.265 -12.120  1.00  0.00     0.165 HD
HETATM    6  C17 UNL     1     -27.163  -1.858 -13.628  1.00  0.00     0.113 A 
HETATM    7  C18 UNL     1     -25.836  -1.525 -13.887  1.00  0.00     0.056 A 
HETATM    8 CL4  UNL     1     -25.336  -1.314 -15.554  1.00  0.00    -0.082 Cl
ENDROOT
BRANCH   1   9
HETATM    9  C6  UNL     1     -23.538  -0.966 -13.257  1.00  0.00     0.024 C 
HETATM   10  C5  UNL     1     -22.681  -0.276 -12.256  1.00  0.00     0.042 C 
HETATM   11  C4  UNL     1     -22.406   0.809 -13.240  1.00  0.00     0.187 C 
HETATM   12  C19 UNL     1     -23.493   0.287 -14.114  1.00  0.00     0.042 C 
BRANCH  11  13
HETATM   13  N1  UNL     1     -21.060   0.685 -13.786  1.00  0.00    -0.067 N 
ATOM     14  H12 UNL     1     -21.038   0.090 -14.614  1.00  0.00     0.277 HD
ATOM     15  H11 UNL     1     -20.454   0.127 -13.184  1.00  0.00     0.277 HD
BRANCH  13  16
HETATM   16  C3  UNL     1     -20.500   2.000 -14.048  1.00  0.00     0.286 C 
BRANCH  16  17
HETATM   17  C2  UNL     1     -19.145   1.802 -14.678  1.00  0.00     0.154 C 
HETATM   18  C1  UNL     1     -19.144   0.449 -15.382  1.00  0.00     0.066 C 
HETATM   19 CL1  UNL     1     -18.787   3.112 -15.824  1.00  0.00    -0.087 Cl
BRANCH  17  20
HETATM   20  O1  UNL     1     -18.122   1.803 -13.724  1.00  0.00    -0.374 OA
ATOM     21  H1  UNL     1     -18.347   2.429 -13.044  1.00  0.00     0.212 HD
ENDBRANCH  17  20
ENDBRANCH  16  17
ENDBRANCH  13  16
ENDBRANCH  11  13
ENDBRANCH   1   9
BRANCH   3  22
HETATM   22  C10 UNL     1     -27.151  -2.035  -9.955  1.00  0.00     0.133 A 
HETATM   23  N2  UNL     1     -27.235  -1.120  -8.978  1.00  0.00    -0.339 N 
HETATM   24  C11 UNL     1     -27.724  -1.743  -7.892  1.00  0.00     0.062 A 
ATOM     25  H2  UNL     1     -26.977  -0.135  -9.047  1.00  0.00     0.167 HD
HETATM   26  C12 UNL     1     -28.008  -1.282  -6.613  1.00  0.00     0.057 A 
HETATM   27  C16 UNL     1     -27.956  -3.072  -8.172  1.00  0.00     0.062 A 
HETATM   28  C13 UNL     1     -28.508  -2.103  -5.629  1.00  0.00     0.058 A 
HETATM   29 CL2  UNL     1     -28.848  -1.459  -4.024  1.00  0.00    -0.082 Cl
HETATM   30  C14 UNL     1     -28.733  -3.428  -5.928  1.00  0.00     0.058 A 
HETATM   31 CL3  UNL     1     -29.363  -4.495  -4.703  1.00  0.00    -0.082 Cl
HETATM   32  C15 UNL     1     -28.459  -3.903  -7.186  1.00  0.00     0.057 A 
HETATM   33  N3  UNL     1     -27.589  -3.224  -9.469  1.00  0.00    -0.339 N 
ATOM     34  H3  UNL     1     -27.635  -4.096  -9.996  1.00  0.00     0.167 HD
ENDBRANCH   3  22
TORSDOF 6
ENDMDL
MODEL 2
REMARK VINA RESULT: -9.806657508      0.134      1.365
REMARK  6 active torsions:
REMARK  status: ('A' for Active; 'I' for Inactive)
REMARK    1  A    between atoms: C2_2  and  O1_3 
REMARK    2  A    between atoms: C2_2  and  C3_6 
REMARK    3  A    between atoms: C3_6  and  N1_7 
REMARK    4  A    between atoms: N1_7  and  C4_10 
REMARK    5  A    between atoms: C6_12  and  C7_13 
REMARK    6  A    between atoms: C9_15  and  C10_16 
ROOT
HETATM    1  C7  UNL     1     -24.871  -1.384 -12.890  1.00  0.00    -0.029 A 
HETATM    2  C8  UNL     1     -25.337  -1.598 -11.627  1.00  0.00     0.042 A 
HETATM    3  C9  UNL     1     -26.653  -1.936 -11.361  1.00  0.00     0.077 A 
HETATM    4  N4  UNL     1     -27.516  -2.063 -12.379  1.00  0.00    -0.361 N 
ATOM      5  H4  UNL     1     -28.485  -2.312 -12.183  1.00  0.00     0.165 HD
HETATM    6  C17 UNL     1     -27.126  -1.865 -13.670  1.00  0.00     0.113 A 
HETATM    7  C18 UNL     1     -25.797  -1.525 -13.911  1.00  0.00     0.056 A 
HETATM    8 CL4  UNL     1     -25.285  -1.269 -15.568  1.00  0.00    -0.082 Cl
ENDROOT
BRANCH   1   9
HETATM    9  C6  UNL     1     -23.504  -0.982 -13.250  1.00  0.00     0.024 C 
HETATM   10  C5  UNL     1     -22.702  -0.199 -12.272  1.00  0.00     0.042 C 
HETATM   11  C4  UNL     1     -22.419   0.820 -13.322  1.00  0.00     0.187 C 
HETATM   12  C19 UNL     1     -23.460   0.208 -14.193  1.00  0.00     0.042 C 
BRANCH  11  13
HETATM   13  N1  UNL     1     -21.051   0.696 -13.811  1.00  0.00    -0.067 N 
ATOM     14  H12 UNL     1     -20.991   0.084 -14.624  1.00  0.00     0.277 HD
ATOM     15  H11 UNL     1     -20.466   0.156 -13.172  1.00  0.00     0.277 HD
BRANCH  13  16
HETATM   16  C3  UNL     1     -20.491   2.010 -14.079  1.00  0.00     0.286 C 
BRANCH  16  17
HETATM   17  C2  UNL     1     -19.121   1.810 -14.674  1.00  0.00     0.154 C 
HETATM   18  C1  UNL     1     -19.109   0.461 -15.388  1.00  0.00     0.066 C 
HETATM   19 CL1  UNL     1     -18.727   3.126 -15.801  1.00  0.00    -0.087 Cl
BRANCH  17  20
HETATM   20  O1  UNL     1     -18.124   1.798 -13.693  1.00  0.00    -0.374 OA
ATOM     21  H1  UNL     1     -18.471   1.372 -12.918  1.00  0.00     0.212 HD
ENDBRANCH  17  20
ENDBRANCH  16  17
ENDBRANCH  13  16
ENDBRANCH  11  13
ENDBRANCH   1   9
BRANCH   3  22
HETATM   22  C10 UNL     1     -27.139  -2.140 -10.004  1.00  0.00     0.133 A 
HETATM   23  N2  UNL     1     -27.531  -3.279  -9.415  1.00  0.00    -0.339 N 
HETATM   24  C11 UNL     1     -27.907  -2.970  -8.161  1.00  0.00     0.062 A 
ATOM     25  H2  UNL     1     -27.541  -4.208  -9.839  1.00  0.00     0.167 HD
HETATM   26  C12 UNL     1     -28.396  -3.754  -7.124  1.00  0.00     0.057 A 
HETATM   27  C16 UNL     1     -27.756  -1.619  -7.941  1.00  0.00     0.062 A 
HETATM   28  C13 UNL     1     -28.730  -3.227  -5.899  1.00  0.00     0.058 A 
HETATM   29 CL2  UNL     1     -29.346  -4.273  -4.621  1.00  0.00    -0.082 Cl
HETATM   30  C14 UNL     1     -28.572  -1.874  -5.698  1.00  0.00     0.058 A 
HETATM   31 CL3  UNL     1     -28.990  -1.175  -4.158  1.00  0.00    -0.082 Cl
HETATM   32  C15 UNL     1     -28.091  -1.083  -6.710  1.00  0.00     0.057 A 
HETATM   33  N3  UNL     1     -27.275  -1.126  -9.110  1.00  0.00    -0.339 N 
ATOM     34  H3  UNL     1     -27.049  -0.148  -9.290  1.00  0.00     0.167 HD
ENDBRANCH   3  22
TORSDOF 6
ENDMDL
MODEL 3
REMARK VINA RESULT: -9.748627486      4.726     10.929
REMARK  6 active torsions:
REMARK  status: ('A' for Active; 'I' for Inactive)
REMARK    1  A    between atoms: C2_2  and  O1_3 
REMARK    2  A    between atoms: C2_2  and  C3_6 
REMARK    3  A    between atoms: C3_6  and  N1_7 
REMARK    4  A    between atoms: N1_7  and  C4_10 
REMARK    5  A    between atoms: C6_12  and  C7_13 
REMARK    6  A    between atoms: C9_15  and  C10_16 
ROOT
HETATM    1  C7  UNL     1     -29.021  -3.393  -6.851  1.00  0.00    -0.029 A 
HETATM    2  C8  UNL     1     -28.367  -3.212  -8.033  1.00  0.00     0.042 A 
HETATM    3  C9  UNL     1     -27.802  -2.003  -8.399  1.00  0.00     0.077 A 
HETATM    4  N4  UNL     1     -27.894  -0.957  -7.566  1.00  0.00    -0.361 N 
ATOM      5  H4  UNL     1     -27.477  -0.066  -7.836  1.00  0.00     0.165 HD
HETATM    6  C17 UNL     1     -28.532  -1.058  -6.366  1.00  0.00     0.113 A 
HETATM    7  C18 UNL     1     -29.093  -2.286  -6.021  1.00  0.00     0.056 A 
HETATM    8 CL4  UNL     1     -29.916  -2.427  -4.480  1.00  0.00    -0.082 Cl
ENDROOT
BRANCH   1   9
HETATM    9  C6  UNL     1     -29.683  -4.629  -6.409  1.00  0.00     0.024 C 
HETATM   10  C5  UNL     1     -28.956  -5.545  -5.489  1.00  0.00     0.042 C 
HETATM   11  C4  UNL     1     -29.222  -6.684  -6.413  1.00  0.00     0.187 C 
HETATM   12  C19 UNL     1     -29.667  -5.725  -7.462  1.00  0.00     0.042 C 
BRANCH  11  13
HETATM   13  N1  UNL     1     -30.268  -7.550  -5.882  1.00  0.00    -0.067 N 
ATOM     14  H12 UNL     1     -31.197  -7.153  -6.021  1.00  0.00     0.277 HD
ATOM     15  H11 UNL     1     -30.264  -7.571  -4.862  1.00  0.00     0.277 HD
BRANCH  13  16
HETATM   16  C3  UNL     1     -30.157  -8.881  -6.452  1.00  0.00     0.286 C 
BRANCH  16  17
HETATM   17  C2  UNL     1     -31.480  -9.217  -7.091  1.00  0.00     0.154 C 
HETATM   18  C1  UNL     1     -32.298  -7.933  -7.185  1.00  0.00     0.066 C 
HETATM   19 CL1  UNL     1     -31.238  -9.931  -8.701  1.00  0.00    -0.087 Cl
BRANCH  17  20
HETATM   20  O1  UNL     1     -32.202 -10.146  -6.336  1.00  0.00    -0.374 OA
ATOM     21  H1  UNL     1     -32.403 -10.892  -6.890  1.00  0.00     0.212 HD
ENDBRANCH  17  20
ENDBRANCH  16  17
ENDBRANCH  13  16
ENDBRANCH  11  13
ENDBRANCH   1   9
BRANCH   3  22
HETATM   22  C10 UNL     1     -27.125  -1.822  -9.676  1.00  0.00     0.133 A 
HETATM   23  N2  UNL     1     -27.639  -1.879 -10.914  1.00  0.00    -0.339 N 
HETATM   24  C11 UNL     1     -26.628  -1.658 -11.773  1.00  0.00     0.062 A 
ATOM     25  H2  UNL     1     -28.613  -2.059 -11.157  1.00  0.00     0.167 HD
HETATM   26  C12 UNL     1     -26.592  -1.610 -13.161  1.00  0.00     0.057 A 
HETATM   27  C16 UNL     1     -25.454  -1.456 -11.083  1.00  0.00     0.062 A 
HETATM   28  C13 UNL     1     -25.431  -1.369 -13.858  1.00  0.00     0.058 A 
HETATM   29 CL2  UNL     1     -25.447  -1.319 -15.620  1.00  0.00    -0.082 Cl
HETATM   30  C14 UNL     1     -24.267  -1.169 -13.150  1.00  0.00     0.058 A 
HETATM   31 CL3  UNL     1     -22.778  -0.864 -14.003  1.00  0.00    -0.082 Cl
HETATM   32  C15 UNL     1     -24.283  -1.212 -11.779  1.00  0.00     0.057 A 
HETATM   33  N3  UNL     1     -25.796  -1.564  -9.774  1.00  0.00    -0.339 N 
ATOM     34  H3  UNL     1     -25.155  -1.466  -8.987  1.00  0.00     0.167 HD
ENDBRANCH   3  22
TORSDOF 6
ENDMDL
MODEL 4
REMARK VINA RESULT: -9.508847366      4.369     10.737
REMARK  6 active torsions:
REMARK  status: ('A' for Active; 'I' for Inactive)
REMARK    1  A    between atoms: C2_2  and  O1_3 
REMARK    2  A    between atoms: C2_2  and  C3_6 
REMARK    3  A    between atoms: C3_6  and  N1_7 
REMARK    4  A    between atoms: N1_7  and  C4_10 
REMARK    5  A    between atoms: C6_12  and  C7_13 
REMARK    6  A    between atoms: C9_15  and  C10_16 
ROOT
HETATM    1  C7  UNL     1     -28.873  -3.244  -6.766  1.00  0.00    -0.029 A 
HETATM    2  C8  UNL     1     -28.232  -3.085  -7.958  1.00  0.00     0.042 A 
HETATM    3  C9  UNL     1     -27.765  -1.860  -8.401  1.00  0.00     0.077 A 
HETATM    4  N4  UNL     1     -27.944  -0.774  -7.635  1.00  0.00    -0.361 N 
ATOM      5  H4  UNL     1     -27.599   0.129  -7.960  1.00  0.00     0.165 HD
HETATM    6  C17 UNL     1     -28.575  -0.851  -6.429  1.00  0.00     0.113 A 
HETATM    7  C18 UNL     1     -29.036  -2.096  -6.007  1.00  0.00     0.056 A 
HETATM    8 CL4  UNL     1     -29.849  -2.206  -4.458  1.00  0.00    -0.082 Cl
ENDROOT
BRANCH   1   9
HETATM    9  C6  UNL     1     -29.433  -4.499  -6.246  1.00  0.00     0.024 C 
HETATM   10  C5  UNL     1     -28.569  -5.385  -5.419  1.00  0.00     0.042 C 
HETATM   11  C4  UNL     1     -28.906  -6.537  -6.303  1.00  0.00     0.187 C 
HETATM   12  C19 UNL     1     -29.507  -5.599  -7.291  1.00  0.00     0.042 C 
BRANCH  11  13
HETATM   13  N1  UNL     1     -29.850  -7.435  -5.648  1.00  0.00    -0.067 N 
ATOM     14  H12 UNL     1     -30.736  -7.487  -6.150  1.00  0.00     0.277 HD
ATOM     15  H11 UNL     1     -30.197  -7.048  -4.770  1.00  0.00     0.277 HD
BRANCH  13  16
HETATM   16  C3  UNL     1     -29.253  -8.746  -5.465  1.00  0.00     0.286 C 
BRANCH  16  17
HETATM   17  C2  UNL     1     -28.602  -8.766  -4.105  1.00  0.00     0.154 C 
HETATM   18  C1  UNL     1     -28.827 -10.146  -3.495  1.00  0.00     0.066 C 
HETATM   19 CL1  UNL     1     -26.867  -8.406  -4.233  1.00  0.00    -0.087 Cl
BRANCH  17  20
HETATM   20  O1  UNL     1     -29.157  -7.810  -3.249  1.00  0.00    -0.374 OA
ATOM     21  H1  UNL     1     -29.202  -6.982  -3.713  1.00  0.00     0.212 HD
ENDBRANCH  17  20
ENDBRANCH  16  17
ENDBRANCH  13  16
ENDBRANCH  11  13
ENDBRANCH   1   9
BRANCH   3  22
HETATM   22  C10 UNL     1     -27.101  -1.704  -9.688  1.00  0.00     0.133 A 
HETATM   23  N2  UNL     1     -27.626  -1.797 -10.919  1.00  0.00    -0.339 N 
HETATM   24  C11 UNL     1     -26.625  -1.589 -11.793  1.00  0.00     0.062 A 
ATOM     25  H2  UNL     1     -28.601  -1.989 -11.149  1.00  0.00     0.167 HD
HETATM   26  C12 UNL     1     -26.602  -1.574 -13.182  1.00  0.00     0.057 A 
HETATM   27  C16 UNL     1     -25.447  -1.360 -11.119  1.00  0.00     0.062 A 
HETATM   28  C13 UNL     1     -25.450  -1.341 -13.895  1.00  0.00     0.058 A 
HETATM   29 CL2  UNL     1     -25.482  -1.336 -15.657  1.00  0.00    -0.082 Cl
HETATM   30  C14 UNL     1     -24.281  -1.115 -13.203  1.00  0.00     0.058 A 
HETATM   31 CL3  UNL     1     -22.803  -0.819 -14.077  1.00  0.00    -0.082 Cl
HETATM   32  C15 UNL     1     -24.284  -1.125 -11.831  1.00  0.00     0.057 A 
HETATM   33  N3  UNL     1     -25.775  -1.438  -9.804  1.00  0.00    -0.339 N 
ATOM     34  H3  UNL     1     -25.128  -1.316  -9.026  1.00  0.00     0.167 HD
ENDBRANCH   3  22
TORSDOF 6
ENDMDL
MODEL 5
REMARK VINA RESULT: -9.440073729      4.549     10.798
REMARK  6 active torsions:
REMARK  status: ('A' for Active; 'I' for Inactive)
REMARK    1  A    between atoms: C2_2  and  O1_3 
REMARK    2  A    between atoms: C2_2  and  C3_6 
REMARK    3  A    between atoms: C3_6  and  N1_7 
REMARK    4  A    between atoms: N1_7  and  C4_10 
REMARK    5  A    between atoms: C6_12  and  C7_13 
REMARK    6  A    between atoms: C9_15  and  C10_16 
ROOT
HETATM    1  C7  UNL     1     -28.856  -3.560  -6.980  1.00  0.00    -0.029 A 
HETATM    2  C8  UNL     1     -28.142  -3.336  -8.118  1.00  0.00     0.042 A 
HETATM    3  C9  UNL     1     -27.706  -2.078  -8.495  1.00  0.00     0.077 A 
HETATM    4  N4  UNL     1     -27.990  -1.025  -7.715  1.00  0.00    -0.361 N 
ATOM      5  H4  UNL     1     -27.668  -0.098  -7.991  1.00  0.00     0.165 HD
HETATM    6  C17 UNL     1     -28.700  -1.167  -6.559  1.00  0.00     0.113 A 
HETATM    7  C18 UNL     1     -29.128  -2.444  -6.204  1.00  0.00     0.056 A 
HETATM    8 CL4  UNL     1     -30.040  -2.638  -4.720  1.00  0.00    -0.082 Cl
ENDROOT
BRANCH   1   9
HETATM    9  C6  UNL     1     -29.389  -4.855  -6.534  1.00  0.00     0.024 C 
HETATM   10  C5  UNL     1     -28.581  -5.684  -5.599  1.00  0.00     0.042 C 
HETATM   11  C4  UNL     1     -28.718  -6.850  -6.516  1.00  0.00     0.187 C 
HETATM   12  C19 UNL     1     -29.250  -5.950  -7.577  1.00  0.00     0.042 C 
BRANCH  11  13
HETATM   13  N1  UNL     1     -29.674  -7.817  -5.988  1.00  0.00    -0.067 N 
ATOM     14  H12 UNL     1     -30.440  -7.988  -6.638  1.00  0.00     0.277 HD
ATOM     15  H11 UNL     1     -30.215  -7.432  -5.214  1.00  0.00     0.277 HD
BRANCH  13  16
HETATM   16  C3  UNL     1     -28.993  -9.045  -5.616  1.00  0.00     0.286 C 
BRANCH  16  17
HETATM   17  C2  UNL     1     -28.875  -9.065  -4.114  1.00  0.00     0.154 C 
HETATM   18  C1  UNL     1     -27.399  -9.223  -3.759  1.00  0.00     0.066 C 
HETATM   19 CL1  UNL     1     -29.537  -7.574  -3.411  1.00  0.00    -0.087 Cl
BRANCH  17  20
HETATM   20  O1  UNL     1     -29.581 -10.133  -3.550  1.00  0.00    -0.374 OA
ATOM     21  H1  UNL     1     -28.975 -10.655  -3.037  1.00  0.00     0.212 HD
ENDBRANCH  17  20
ENDBRANCH  16  17
ENDBRANCH  13  16
ENDBRANCH  11  13
ENDBRANCH   1   9
BRANCH   3  22
HETATM   22  C10 UNL     1     -26.963  -1.853  -9.727  1.00  0.00     0.133 A 
HETATM   23  N2  UNL     1     -25.672  -1.524  -9.880  1.00  0.00    -0.339 N 
HETATM   24  C11 UNL     1     -25.443  -1.415 -11.200  1.00  0.00     0.062 A 
ATOM     25  H2  UNL     1     -24.990  -1.383  -9.133  1.00  0.00     0.167 HD
HETATM   26  C12 UNL     1     -24.296  -1.095 -11.915  1.00  0.00     0.057 A 
HETATM   27  C16 UNL     1     -26.598  -1.676 -11.904  1.00  0.00     0.062 A 
HETATM   28  C13 UNL     1     -24.279  -1.033 -13.289  1.00  0.00     0.058 A 
HETATM   29 CL2  UNL     1     -22.792  -0.622 -14.141  1.00  0.00    -0.082 Cl
HETATM   30  C14 UNL     1     -25.444  -1.297 -13.975  1.00  0.00     0.058 A 
HETATM   31 CL3  UNL     1     -25.457  -1.224 -15.716  1.00  0.00    -0.082 Cl
HETATM   32  C15 UNL     1     -26.587  -1.615 -13.287  1.00  0.00     0.057 A 
HETATM   33  N3  UNL     1     -27.531  -1.947 -10.956  1.00  0.00    -0.339 N 
ATOM     34  H3  UNL     1     -28.505  -2.185 -11.139  1.00  0.00     0.167 HD
ENDBRANCH   3  22
TORSDOF 6
ENDMDL
