MODEL 1
REMARK VINA RESULT: -6.940470515      0.000      0.000
REMARK  6 active torsions:
REMARK  status: ('A' for Active; 'I' for Inactive)
REMARK    1  A    between atoms: C2_2  and  C3_3 
REMARK    2  A    between atoms: C3_3  and  C4_4 
REMARK    3  A    between atoms: C4_4  and  C5_5 
REMARK    4  A    between atoms: C5_5  and  C6_6 
REMARK    5  A    between atoms: C5_5  and  N1_8 
REMARK    6  A    between atoms: C11_19  and  C12_20 
ROOT
HETATM    1  N1  UNL     1     -12.961  -4.493 -13.771  1.00  0.00    -0.376 N 
ATOM      2  H1  UNL     1     -13.394  -4.734 -12.879  1.00  0.00     0.160 HD
HETATM    3  C7  UNL     1     -13.115  -3.304 -14.064  1.00  0.00     0.117 C 
HETATM    4  S1  UNL     1     -12.441  -2.656 -15.580  1.00  0.00    -0.055 SA
HETATM    5  C8  UNL     1     -12.393  -0.883 -15.612  1.00  0.00     0.067 C 
HETATM    6  N2  UNL     1     -11.437  -0.337 -16.251  1.00  0.00    -0.396 N 
ATOM      7  H21 UNL     1     -11.409   0.682 -16.269  1.00  0.00     0.156 HD
ATOM      8  H22 UNL     1     -10.782  -0.984 -16.691  1.00  0.00     0.156 HD
HETATM    9  C9  UNL     1     -13.348   0.061 -14.970  1.00  0.00     0.177 C 
HETATM   10  C10 UNL     1     -12.775   0.637 -13.781  1.00  0.00     0.073 C 
HETATM   11  N3  UNL     1     -12.290   1.102 -12.827  1.00  0.00    -0.196 NA
HETATM   12  C11 UNL     1     -14.645  -0.684 -14.610  1.00  0.00     0.158 C 
HETATM   13  N4  UNL     1     -14.546  -1.277 -13.326  1.00  0.00    -0.286 N 
HETATM   14  C17 UNL     1     -13.878  -2.446 -13.104  1.00  0.00     0.145 A 
HETATM   15  N5  UNL     1     -13.815  -2.998 -11.890  1.00  0.00    -0.344 N 
ATOM     16  H5  UNL     1     -13.315  -3.873 -11.736  1.00  0.00     0.167 HD
HETATM   17  C18 UNL     1     -14.438  -2.359 -10.867  1.00  0.00     0.012 A 
HETATM   18  C19 UNL     1     -14.390  -2.957  -9.493  1.00  0.00     0.068 C 
HETATM   19  C20 UNL     1     -15.111  -1.191 -11.054  1.00  0.00     0.099 A 
HETATM   20  C21 UNL     1     -15.161  -0.638 -12.330  1.00  0.00     0.251 A 
HETATM   21  O1  UNL     1     -15.780   0.444 -12.509  1.00  0.00    -0.268 OA
ENDROOT
BRANCH  12  22
HETATM   22  C12 UNL     1     -15.771   0.208 -14.914  1.00  0.00     0.008 A 
HETATM   23  C13 UNL     1     -17.115   0.006 -15.018  1.00  0.00     0.018 A 
HETATM   24  C14 UNL     1     -17.897   1.057 -15.285  1.00  0.00     0.015 A 
HETATM   25  C15 UNL     1     -17.284   2.276 -15.439  1.00  0.00    -0.021 A 
HETATM   26  C16 UNL     1     -17.935   3.605 -15.741  1.00  0.00     0.056 C 
HETATM   27  S2  UNL     1     -15.637   1.895 -15.202  1.00  0.00    -0.098 SA
ENDBRANCH  12  22
BRANCH   1  28
HETATM   28  C5  UNL     1     -12.338  -5.581 -14.368  1.00  0.00     0.096 C 
BRANCH  28  29
HETATM   29  C4  UNL     1     -11.644  -6.594 -13.517  1.00  0.00     0.030 C 
BRANCH  29  30
HETATM   30  C3  UNL     1     -12.002  -6.414 -12.041  1.00  0.00     0.028 C 
BRANCH  30  31
HETATM   31  C2  UNL     1     -12.975  -7.501 -11.660  1.00  0.00    -0.037 C 
HETATM   32  C1  UNL     1     -12.780  -8.735 -12.076  1.00  0.00     0.007 C 
ENDBRANCH  30  31
ENDBRANCH  29  30
ENDBRANCH  28  29
BRANCH  28  33
HETATM   33  C6  UNL     1     -13.397  -6.313 -15.232  1.00  0.00     0.139 C 
HETATM   34 CL1  UNL     1     -14.974  -6.277 -14.412  1.00  0.00    -0.128 Cl
ENDBRANCH  28  33
ENDBRANCH   1  28
TORSDOF 6
ENDMDL
MODEL 2
REMARK VINA RESULT: -6.726642077      0.878      1.100
REMARK  6 active torsions:
REMARK  status: ('A' for Active; 'I' for Inactive)
REMARK    1  A    between atoms: C2_2  and  C3_3 
REMARK    2  A    between atoms: C3_3  and  C4_4 
REMARK    3  A    between atoms: C4_4  and  C5_5 
REMARK    4  A    between atoms: C5_5  and  C6_6 
REMARK    5  A    between atoms: C5_5  and  N1_8 
REMARK    6  A    between atoms: C11_19  and  C12_20 
ROOT
HETATM    1  N1  UNL     1     -13.003  -3.985 -14.044  1.00  0.00    -0.376 N 
ATOM      2  H1  UNL     1     -13.469  -4.303 -13.195  1.00  0.00     0.160 HD
HETATM    3  C7  UNL     1     -13.132  -2.772 -14.228  1.00  0.00     0.117 C 
HETATM    4  S1  UNL     1     -12.396  -1.992 -15.651  1.00  0.00    -0.055 SA
HETATM    5  C8  UNL     1     -12.327  -0.225 -15.512  1.00  0.00     0.067 C 
HETATM    6  N2  UNL     1     -11.342   0.364 -16.063  1.00  0.00    -0.396 N 
ATOM      7  H21 UNL     1     -11.301   1.380 -15.983  1.00  0.00     0.156 HD
ATOM      8  H22 UNL     1     -10.679  -0.248 -16.540  1.00  0.00     0.156 HD
HETATM    9  C9  UNL     1     -13.293   0.667 -14.816  1.00  0.00     0.177 C 
HETATM   10  C10 UNL     1     -12.756   1.120 -13.559  1.00  0.00     0.073 C 
HETATM   11  N3  UNL     1     -12.300   1.484 -12.548  1.00  0.00    -0.196 NA
HETATM   12  C11 UNL     1     -14.611  -0.089 -14.574  1.00  0.00     0.158 C 
HETATM   13  N4  UNL     1     -14.564  -0.802 -13.349  1.00  0.00    -0.286 N 
HETATM   14  C17 UNL     1     -13.919  -1.997 -13.217  1.00  0.00     0.145 A 
HETATM   15  N5  UNL     1     -13.906  -2.662 -12.060  1.00  0.00    -0.344 N 
ATOM     16  H5  UNL     1     -13.421  -3.555 -11.973  1.00  0.00     0.167 HD
HETATM   17  C18 UNL     1     -14.557  -2.114 -11.002  1.00  0.00     0.012 A 
HETATM   18  C19 UNL     1     -14.565  -2.841  -9.691  1.00  0.00     0.068 C 
HETATM   19  C20 UNL     1     -15.209  -0.924 -11.101  1.00  0.00     0.099 A 
HETATM   20  C21 UNL     1     -15.207  -0.252 -12.318  1.00  0.00     0.251 A 
HETATM   21  O1  UNL     1     -15.807   0.852 -12.415  1.00  0.00    -0.268 OA
ENDROOT
BRANCH  12  22
HETATM   22  C12 UNL     1     -15.714   0.845 -14.830  1.00  0.00     0.008 A 
HETATM   23  C13 UNL     1     -15.761   2.187 -15.064  1.00  0.00     0.018 A 
HETATM   24  C14 UNL     1     -16.951   2.751 -15.296  1.00  0.00     0.015 A 
HETATM   25  C15 UNL     1     -18.051   1.931 -15.282  1.00  0.00    -0.021 A 
HETATM   26  C16 UNL     1     -19.493   2.315 -15.513  1.00  0.00     0.056 C 
HETATM   27  S2  UNL     1     -17.369   0.403 -14.942  1.00  0.00    -0.098 SA
ENDBRANCH  12  22
BRANCH   1  28
HETATM   28  C5  UNL     1     -12.372  -5.020 -14.721  1.00  0.00     0.096 C 
BRANCH  28  29
HETATM   29  C4  UNL     1     -11.536  -5.998 -13.962  1.00  0.00     0.030 C 
BRANCH  29  30
HETATM   30  C3  UNL     1     -11.544  -5.687 -12.464  1.00  0.00     0.028 C 
BRANCH  30  31
HETATM   31  C2  UNL     1     -12.451  -6.680 -11.785  1.00  0.00    -0.037 C 
HETATM   32  C1  UNL     1     -13.512  -6.261 -11.127  1.00  0.00     0.007 C 
ENDBRANCH  30  31
ENDBRANCH  29  30
ENDBRANCH  28  29
BRANCH  28  33
HETATM   33  C6  UNL     1     -13.460  -5.808 -15.496  1.00  0.00     0.139 C 
HETATM   34 CL1  UNL     1     -14.921  -5.962 -14.495  1.00  0.00    -0.128 Cl
ENDBRANCH  28  33
ENDBRANCH   1  28
TORSDOF 6
ENDMDL
MODEL 3
REMARK VINA RESULT: -6.652606584      3.419      6.638
REMARK  6 active torsions:
REMARK  status: ('A' for Active; 'I' for Inactive)
REMARK    1  A    between atoms: C2_2  and  C3_3 
REMARK    2  A    between atoms: C3_3  and  C4_4 
REMARK    3  A    between atoms: C4_4  and  C5_5 
REMARK    4  A    between atoms: C5_5  and  C6_6 
REMARK    5  A    between atoms: C5_5  and  N1_8 
REMARK    6  A    between atoms: C11_19  and  C12_20 
ROOT
HETATM    1  N1  UNL     1     -12.852  -3.604 -16.415  1.00  0.00    -0.376 N 
ATOM      2  H1  UNL     1     -13.132  -2.625 -16.471  1.00  0.00     0.160 HD
HETATM    3  C7  UNL     1     -13.171  -4.126 -15.343  1.00  0.00     0.117 C 
HETATM    4  S1  UNL     1     -12.787  -5.835 -15.022  1.00  0.00    -0.055 SA
HETATM    5  C8  UNL     1     -13.685  -6.498 -13.644  1.00  0.00     0.067 C 
HETATM    6  N2  UNL     1     -14.003  -7.730 -13.694  1.00  0.00    -0.396 N 
ATOM      7  H21 UNL     1     -14.520  -8.112 -12.902  1.00  0.00     0.156 HD
ATOM      8  H22 UNL     1     -13.702  -8.224 -14.535  1.00  0.00     0.156 HD
HETATM    9  C9  UNL     1     -14.123  -5.779 -12.417  1.00  0.00     0.177 C 
HETATM   10  C10 UNL     1     -15.534  -5.496 -12.468  1.00  0.00     0.073 C 
HETATM   11  N3  UNL     1     -16.681  -5.285 -12.522  1.00  0.00    -0.196 NA
HETATM   12  C11 UNL     1     -13.337  -4.464 -12.283  1.00  0.00     0.158 C 
HETATM   13  N4  UNL     1     -13.982  -3.416 -12.988  1.00  0.00    -0.286 N 
HETATM   14  C17 UNL     1     -13.885  -3.271 -14.341  1.00  0.00     0.145 A 
HETATM   15  N5  UNL     1     -14.484  -2.266 -14.983  1.00  0.00    -0.344 N 
ATOM     16  H5  UNL     1     -14.403  -2.166 -15.995  1.00  0.00     0.167 HD
HETATM   17  C18 UNL     1     -15.202  -1.379 -14.248  1.00  0.00     0.012 A 
HETATM   18  C19 UNL     1     -15.881  -0.235 -14.940  1.00  0.00     0.068 C 
HETATM   19  C20 UNL     1     -15.320  -1.496 -12.898  1.00  0.00     0.099 A 
HETATM   20  C21 UNL     1     -14.686  -2.553 -12.254  1.00  0.00     0.251 A 
HETATM   21  O1  UNL     1     -14.793  -2.668 -11.005  1.00  0.00    -0.268 OA
ENDROOT
BRANCH  12  22
HETATM   22  C12 UNL     1     -13.003  -4.287 -10.864  1.00  0.00     0.008 A 
HETATM   23  C13 UNL     1     -13.442  -4.890  -9.724  1.00  0.00     0.018 A 
HETATM   24  C14 UNL     1     -12.906  -4.514  -8.558  1.00  0.00     0.015 A 
HETATM   25  C15 UNL     1     -11.942  -3.536  -8.593  1.00  0.00    -0.021 A 
HETATM   26  C16 UNL     1     -11.188  -2.941  -7.429  1.00  0.00     0.056 C 
HETATM   27  S2  UNL     1     -11.831  -3.187 -10.261  1.00  0.00    -0.098 SA
ENDBRANCH  12  22
BRANCH   1  28
HETATM   28  C5  UNL     1     -12.203  -4.036 -17.564  1.00  0.00     0.096 C 
BRANCH  28  29
HETATM   29  C4  UNL     1     -12.995  -4.642 -18.676  1.00  0.00     0.030 C 
BRANCH  29  30
HETATM   30  C3  UNL     1     -13.011  -3.731 -19.904  1.00  0.00     0.028 C 
BRANCH  30  31
HETATM   31  C2  UNL     1     -13.898  -4.365 -20.946  1.00  0.00    -0.037 C 
HETATM   32  C1  UNL     1     -13.378  -4.803 -22.073  1.00  0.00     0.007 C 
ENDBRANCH  30  31
ENDBRANCH  29  30
ENDBRANCH  28  29
BRANCH  28  33
HETATM   33  C6  UNL     1     -11.403  -2.836 -18.132  1.00  0.00     0.139 C 
HETATM   34 CL1  UNL     1     -11.568  -1.435 -17.051  1.00  0.00    -0.128 Cl
ENDBRANCH  28  33
ENDBRANCH   1  28
TORSDOF 6
ENDMDL
MODEL 4
REMARK VINA RESULT: -6.481181351      1.183      1.426
REMARK  6 active torsions:
REMARK  status: ('A' for Active; 'I' for Inactive)
REMARK    1  A    between atoms: C2_2  and  C3_3 
REMARK    2  A    between atoms: C3_3  and  C4_4 
REMARK    3  A    between atoms: C4_4  and  C5_5 
REMARK    4  A    between atoms: C5_5  and  C6_6 
REMARK    5  A    between atoms: C5_5  and  N1_8 
REMARK    6  A    between atoms: C11_19  and  C12_20 
ROOT
HETATM    1  N1  UNL     1     -13.397  -5.062 -13.578  1.00  0.00    -0.376 N 
ATOM      2  H1  UNL     1     -13.809  -5.201 -12.656  1.00  0.00     0.160 HD
HETATM    3  C7  UNL     1     -13.432  -3.882 -13.938  1.00  0.00     0.117 C 
HETATM    4  S1  UNL     1     -12.766  -3.401 -15.518  1.00  0.00    -0.055 SA
HETATM    5  C8  UNL     1     -12.524  -1.649 -15.662  1.00  0.00     0.067 C 
HETATM    6  N2  UNL     1     -11.546  -1.253 -16.373  1.00  0.00    -0.396 N 
ATOM      7  H21 UNL     1     -11.406  -0.245 -16.456  1.00  0.00     0.156 HD
ATOM      8  H22 UNL     1     -10.989  -1.993 -16.800  1.00  0.00     0.156 HD
HETATM    9  C9  UNL     1     -13.337  -0.569 -15.040  1.00  0.00     0.177 C 
HETATM   10  C10 UNL     1     -12.647   0.006 -13.914  1.00  0.00     0.073 C 
HETATM   11  N3  UNL     1     -12.067   0.466 -13.012  1.00  0.00    -0.196 NA
HETATM   12  C11 UNL     1     -14.689  -1.141 -14.581  1.00  0.00     0.158 C 
HETATM   13  N4  UNL     1     -14.593  -1.667 -13.267  1.00  0.00    -0.286 N 
HETATM   14  C17 UNL     1     -14.049  -2.889 -13.002  1.00  0.00     0.145 A 
HETATM   15  N5  UNL     1     -13.988  -3.375 -11.760  1.00  0.00    -0.344 N 
ATOM     16  H5  UNL     1     -13.580  -4.291 -11.573  1.00  0.00     0.167 HD
HETATM   17  C18 UNL     1     -14.486  -2.612 -10.753  1.00  0.00     0.012 A 
HETATM   18  C19 UNL     1     -14.437  -3.133  -9.347  1.00  0.00     0.068 C 
HETATM   19  C20 UNL     1     -15.034  -1.388 -10.983  1.00  0.00     0.099 A 
HETATM   20  C21 UNL     1     -15.085  -0.907 -12.288  1.00  0.00     0.251 A 
HETATM   21  O1  UNL     1     -15.589   0.226 -12.507  1.00  0.00    -0.268 OA
ENDROOT
BRANCH  12  22
HETATM   22  C12 UNL     1     -15.723  -0.146 -14.892  1.00  0.00     0.008 A 
HETATM   23  C13 UNL     1     -17.083  -0.207 -14.954  1.00  0.00     0.018 A 
HETATM   24  C14 UNL     1     -17.757   0.911 -15.243  1.00  0.00     0.015 A 
HETATM   25  C15 UNL     1     -17.025   2.052 -15.459  1.00  0.00    -0.021 A 
HETATM   26  C16 UNL     1     -17.540   3.430 -15.797  1.00  0.00     0.056 C 
HETATM   27  S2  UNL     1     -15.420   1.506 -15.248  1.00  0.00    -0.098 SA
ENDBRANCH  12  22
BRANCH   1  28
HETATM   28  C5  UNL     1     -12.928  -6.245 -14.133  1.00  0.00     0.096 C 
BRANCH  28  29
HETATM   29  C4  UNL     1     -11.505  -6.647 -13.920  1.00  0.00     0.030 C 
BRANCH  29  30
HETATM   30  C3  UNL     1     -10.906  -7.255 -15.189  1.00  0.00     0.028 C 
BRANCH  30  31
HETATM   31  C2  UNL     1     -10.631  -8.713 -14.925  1.00  0.00    -0.037 C 
HETATM   32  C1  UNL     1     -10.293  -9.111 -13.716  1.00  0.00     0.007 C 
ENDBRANCH  30  31
ENDBRANCH  29  30
ENDBRANCH  28  29
BRANCH  28  33
HETATM   33  C6  UNL     1     -13.840  -7.394 -13.632  1.00  0.00     0.139 C 
HETATM   34 CL1  UNL     1     -13.305  -7.931 -12.023  1.00  0.00    -0.128 Cl
ENDBRANCH  28  33
ENDBRANCH   1  28
TORSDOF 6
ENDMDL
MODEL 5
REMARK VINA RESULT: -6.458963640      3.149      7.706
REMARK  6 active torsions:
REMARK  status: ('A' for Active; 'I' for Inactive)
REMARK    1  A    between atoms: C2_2  and  C3_3 
REMARK    2  A    between atoms: C3_3  and  C4_4 
REMARK    3  A    between atoms: C4_4  and  C5_5 
REMARK    4  A    between atoms: C5_5  and  C6_6 
REMARK    5  A    between atoms: C5_5  and  N1_8 
REMARK    6  A    between atoms: C11_19  and  C12_20 
ROOT
HETATM    1  N1  UNL     1     -14.119  -1.344 -14.294  1.00  0.00    -0.376 N 
ATOM      2  H1  UNL     1     -13.182  -0.986 -14.112  1.00  0.00     0.160 HD
HETATM    3  C7  UNL     1     -14.246  -2.526 -13.962  1.00  0.00     0.117 C 
HETATM    4  S1  UNL     1     -15.802  -3.363 -14.184  1.00  0.00    -0.055 SA
HETATM    5  C8  UNL     1     -15.907  -4.881 -13.272  1.00  0.00     0.067 C 
HETATM    6  N2  UNL     1     -17.053  -5.217 -12.831  1.00  0.00    -0.396 N 
ATOM      7  H21 UNL     1     -17.114  -6.090 -12.306  1.00  0.00     0.156 HD
ATOM      8  H22 UNL     1     -17.812  -4.572 -13.052  1.00  0.00     0.156 HD
HETATM    9  C9  UNL     1     -14.801  -5.822 -12.951  1.00  0.00     0.177 C 
HETATM   10  C10 UNL     1     -14.400  -5.689 -11.574  1.00  0.00     0.073 C 
HETATM   11  N3  UNL     1     -14.097  -5.573 -10.453  1.00  0.00    -0.196 NA
HETATM   12  C11 UNL     1     -13.600  -5.539 -13.869  1.00  0.00     0.158 C 
HETATM   13  N4  UNL     1     -12.760  -4.543 -13.307  1.00  0.00    -0.286 N 
HETATM   14  C17 UNL     1     -13.053  -3.212 -13.371  1.00  0.00     0.145 A 
HETATM   15  N5  UNL     1     -12.239  -2.290 -12.855  1.00  0.00    -0.344 N 
ATOM     16  H5  UNL     1     -12.467  -1.297 -12.910  1.00  0.00     0.167 HD
HETATM   17  C18 UNL     1     -11.097  -2.712 -12.254  1.00  0.00     0.012 A 
HETATM   18  C19 UNL     1     -10.159  -1.699 -11.669  1.00  0.00     0.068 C 
HETATM   19  C20 UNL     1     -10.777  -4.032 -12.171  1.00  0.00     0.099 A 
HETATM   20  C21 UNL     1     -11.643  -4.972 -12.719  1.00  0.00     0.251 A 
HETATM   21  O1  UNL     1     -11.353  -6.196 -12.643  1.00  0.00    -0.268 OA
ENDROOT
BRANCH  12  22
HETATM   22  C12 UNL     1     -13.028  -6.831 -14.267  1.00  0.00     0.008 A 
HETATM   23  C13 UNL     1     -13.067  -8.075 -13.713  1.00  0.00     0.018 A 
HETATM   24  C14 UNL     1     -12.454  -9.077 -14.352  1.00  0.00     0.015 A 
HETATM   25  C15 UNL     1     -11.821  -8.777 -15.533  1.00  0.00    -0.021 A 
HETATM   26  C16 UNL     1     -11.064  -9.717 -16.440  1.00  0.00     0.056 C 
HETATM   27  S2  UNL     1     -12.114  -7.102 -15.694  1.00  0.00    -0.098 SA
ENDBRANCH  12  22
BRANCH   1  28
HETATM   28  C5  UNL     1     -14.952  -0.386 -14.857  1.00  0.00     0.096 C 
BRANCH  28  29
HETATM   29  C4  UNL     1     -16.171   0.060 -14.116  1.00  0.00     0.030 C 
BRANCH  29  30
HETATM   30  C3  UNL     1     -17.406   0.036 -15.017  1.00  0.00     0.028 C 
BRANCH  30  31
HETATM   31  C2  UNL     1     -18.238   1.253 -14.703  1.00  0.00    -0.037 C 
HETATM   32  C1  UNL     1     -19.552   1.169 -14.695  1.00  0.00     0.007 C 
ENDBRANCH  30  31
ENDBRANCH  29  30
ENDBRANCH  28  29
BRANCH  28  33
HETATM   33  C6  UNL     1     -14.089   0.862 -15.172  1.00  0.00     0.139 C 
HETATM   34 CL1  UNL     1     -14.551   1.532 -16.753  1.00  0.00    -0.128 Cl
ENDBRANCH  28  33
ENDBRANCH   1  28
TORSDOF 6
ENDMDL
