MODEL 1
REMARK VINA RESULT: -8.285327674      0.000      0.000
REMARK  7 active torsions:
REMARK  status: ('A' for Active; 'I' for Inactive)
REMARK    1  A    between atoms: C2_2  and  C3_3 
REMARK    2  A    between atoms: C3_3  and  C4_4 
REMARK    3  A    between atoms: C4_4  and  C5_5 
REMARK    4  A    between atoms: C5_5  and  C6_6 
REMARK    5  A    between atoms: C7_8  and  O2_9 
REMARK    6  A    between atoms: C17_24  and  C18_25 
REMARK    7  A    between atoms: C17_24  and  C20_27 
ROOT
HETATM    1  C6  UNL     1     -16.665   1.122 -15.203  1.00  0.00     0.068 A 
HETATM    2  O1  UNL     1     -16.943   2.290 -15.819  1.00  0.00    -0.291 OA
HETATM    3  C7  UNL     1     -15.966   3.117 -15.777  1.00  0.00     0.198 A 
HETATM    4  C8  UNL     1     -14.925   2.522 -15.098  1.00  0.00     0.074 A 
HETATM    5  C9  UNL     1     -13.686   2.969 -14.758  1.00  0.00     0.133 A 
HETATM    6  F1  UNL     1     -13.321   4.215 -15.130  1.00  0.00    -0.205 F 
HETATM    7  C10 UNL     1     -12.890   2.122 -14.045  1.00  0.00     0.061 A 
HETATM    8  C11 UNL     1     -13.311   0.864 -13.684  1.00  0.00     0.051 A 
HETATM    9  C12 UNL     1     -12.438   0.054 -13.012  1.00  0.00     0.266 A 
HETATM   10  O3  UNL     1     -11.297   0.505 -12.694  1.00  0.00    -0.267 OA
HETATM   11  N1  UNL     1     -12.841  -1.188 -12.721  1.00  0.00    -0.242 N 
HETATM   12  C13 UNL     1     -14.007  -1.678 -13.038  1.00  0.00     0.083 A 
HETATM   13  C14 UNL     1     -14.998  -0.860 -13.744  1.00  0.00     0.208 A 
HETATM   14  O4  UNL     1     -16.083  -1.531 -13.932  1.00  0.00    -0.285 OA
HETATM   15  C15 UNL     1     -14.583   0.392 -14.032  1.00  0.00     0.046 A 
HETATM   16  C16 UNL     1     -15.405   1.253 -14.752  1.00  0.00     0.027 A 
HETATM   17  C17 UNL     1     -14.375  -3.158 -12.940  1.00  0.00     0.012 C 
HETATM   18  C22 UNL     1     -13.151  -3.955 -12.451  1.00  0.00     0.078 C 
HETATM   19  C23 UNL     1     -12.426  -3.189 -11.413  1.00  0.00     0.075 C 
HETATM   20  N2  UNL     1     -12.288  -3.636 -10.239  1.00  0.00    -0.393 N 
ATOM     21  H2  UNL     1     -12.696  -4.547 -10.033  1.00  0.00     0.159 HD
HETATM   22  C24 UNL     1     -11.607  -2.968  -9.179  1.00  0.00     0.146 C 
HETATM   23  C25 UNL     1     -11.910  -1.910 -11.861  1.00  0.00     0.277 C 
HETATM   24  O5  UNL     1     -10.809  -1.428 -11.574  1.00  0.00    -0.265 OA
ENDROOT
BRANCH   1  25
HETATM   25  C5  UNL     1     -17.698   0.135 -15.185  1.00  0.00     0.066 C 
BRANCH  25  26
HETATM   26  C4  UNL     1     -19.092   0.778 -15.323  1.00  0.00     0.006 C 
BRANCH  26  27
HETATM   27  C3  UNL     1     -19.777   1.158 -14.102  1.00  0.00     0.000 C 
BRANCH  27  28
HETATM   28  C2  UNL     1     -21.287   1.211 -14.199  1.00  0.00    -0.005 C 
HETATM   29  C1  UNL     1     -21.891   0.019 -13.448  1.00  0.00     0.005 C 
ENDBRANCH  27  28
ENDBRANCH  26  27
ENDBRANCH  25  26
ENDBRANCH   1  25
BRANCH   3  30
HETATM   30  O2  UNL     1     -15.885   4.411 -16.296  1.00  0.00    -0.340 OA
ATOM     31  H2  UNL     1     -15.554   5.202 -15.885  1.00  0.00     0.220 HD
ENDBRANCH   3  30
BRANCH  17  32
HETATM   32  C18 UNL     1     -15.411  -3.306 -11.927  1.00  0.00     0.012 C 
HETATM   33  C19 UNL     1     -16.041  -4.651 -11.738  1.00  0.00     0.006 C 
ENDBRANCH  17  32
BRANCH  17  34
HETATM   34  C20 UNL     1     -14.544  -3.647 -14.333  1.00  0.00     0.012 C 
HETATM   35  C21 UNL     1     -13.328  -3.908 -15.151  1.00  0.00     0.006 C 
ENDBRANCH  17  34
TORSDOF 7
ENDMDL
MODEL 2
REMARK VINA RESULT: -7.823703141      1.470      1.603
REMARK  7 active torsions:
REMARK  status: ('A' for Active; 'I' for Inactive)
REMARK    1  A    between atoms: C2_2  and  C3_3 
REMARK    2  A    between atoms: C3_3  and  C4_4 
REMARK    3  A    between atoms: C4_4  and  C5_5 
REMARK    4  A    between atoms: C5_5  and  C6_6 
REMARK    5  A    between atoms: C7_8  and  O2_9 
REMARK    6  A    between atoms: C17_24  and  C18_25 
REMARK    7  A    between atoms: C17_24  and  C20_27 
ROOT
HETATM    1  C6  UNL     1     -16.576   2.712 -14.769  1.00  0.00     0.068 A 
HETATM    2  O1  UNL     1     -16.814   3.854 -15.446  1.00  0.00    -0.291 OA
HETATM    3  C7  UNL     1     -15.776   4.293 -16.057  1.00  0.00     0.198 A 
HETATM    4  C8  UNL     1     -14.733   3.426 -15.813  1.00  0.00     0.074 A 
HETATM    5  C9  UNL     1     -13.429   3.442 -16.199  1.00  0.00     0.133 A 
HETATM    6  F1  UNL     1     -12.995   4.452 -16.983  1.00  0.00    -0.205 F 
HETATM    7  C10 UNL     1     -12.634   2.427 -15.754  1.00  0.00     0.061 A 
HETATM    8  C11 UNL     1     -13.122   1.423 -14.951  1.00  0.00     0.051 A 
HETATM    9  C12 UNL     1     -12.275   0.413 -14.586  1.00  0.00     0.266 A 
HETATM   10  O3  UNL     1     -11.061   0.464 -14.946  1.00  0.00    -0.267 OA
HETATM   11  N1  UNL     1     -12.781  -0.588 -13.855  1.00  0.00    -0.242 N 
HETATM   12  C13 UNL     1     -14.024  -0.666 -13.473  1.00  0.00     0.083 A 
HETATM   13  C14 UNL     1     -14.983   0.390 -13.816  1.00  0.00     0.208 A 
HETATM   14  O4  UNL     1     -16.142   0.124 -13.317  1.00  0.00    -0.285 OA
HETATM   15  C15 UNL     1     -14.464   1.396 -14.552  1.00  0.00     0.046 A 
HETATM   16  C16 UNL     1     -15.280   2.432 -14.995  1.00  0.00     0.027 A 
HETATM   17  C17 UNL     1     -14.662  -1.915 -12.867  1.00  0.00     0.012 C 
HETATM   18  C22 UNL     1     -13.620  -3.047 -12.822  1.00  0.00     0.078 C 
HETATM   19  C23 UNL     1     -12.294  -2.505 -12.451  1.00  0.00     0.075 C 
HETATM   20  N2  UNL     1     -11.696  -2.883 -11.404  1.00  0.00    -0.393 N 
ATOM     21  H2  UNL     1     -12.162  -3.579 -10.823  1.00  0.00     0.159 HD
HETATM   22  C24 UNL     1     -10.421  -2.415 -10.969  1.00  0.00     0.146 C 
HETATM   23  C25 UNL     1     -11.767  -1.520 -13.376  1.00  0.00     0.277 C 
HETATM   24  O5  UNL     1     -10.593  -1.429 -13.752  1.00  0.00    -0.265 OA
ENDROOT
BRANCH   1  25
HETATM   25  C5  UNL     1     -17.669   2.147 -14.043  1.00  0.00     0.066 C 
BRANCH  25  26
HETATM   26  C4  UNL     1     -18.915   1.989 -14.936  1.00  0.00     0.006 C 
BRANCH  26  27
HETATM   27  C3  UNL     1     -19.789   0.862 -14.669  1.00  0.00     0.000 C 
BRANCH  27  28
HETATM   28  C2  UNL     1     -21.194   1.224 -14.234  1.00  0.00    -0.005 C 
HETATM   29  C1  UNL     1     -21.850   0.014 -13.564  1.00  0.00     0.005 C 
ENDBRANCH  27  28
ENDBRANCH  26  27
ENDBRANCH  25  26
ENDBRANCH   1  25
BRANCH   3  30
HETATM   30  O2  UNL     1     -15.637   5.437 -16.847  1.00  0.00    -0.340 OA
ATOM     31  H2  UNL     1     -16.291   6.086 -17.080  1.00  0.00     0.220 HD
ENDBRANCH   3  30
BRANCH  17  32
HETATM   32  C18 UNL     1     -15.029  -1.620 -11.489  1.00  0.00     0.012 C 
HETATM   33  C19 UNL     1     -15.318  -2.760 -10.563  1.00  0.00     0.006 C 
ENDBRANCH  17  32
BRANCH  17  34
HETATM   34  C20 UNL     1     -15.642  -2.418 -13.864  1.00  0.00     0.012 C 
HETATM   35  C21 UNL     1     -15.930  -3.878 -13.911  1.00  0.00     0.006 C 
ENDBRANCH  17  34
TORSDOF 7
ENDMDL
MODEL 3
REMARK VINA RESULT: -7.577883782      0.879      1.069
REMARK  7 active torsions:
REMARK  status: ('A' for Active; 'I' for Inactive)
REMARK    1  A    between atoms: C2_2  and  C3_3 
REMARK    2  A    between atoms: C3_3  and  C4_4 
REMARK    3  A    between atoms: C4_4  and  C5_5 
REMARK    4  A    between atoms: C5_5  and  C6_6 
REMARK    5  A    between atoms: C7_8  and  O2_9 
REMARK    6  A    between atoms: C17_24  and  C18_25 
REMARK    7  A    between atoms: C17_24  and  C20_27 
ROOT
HETATM    1  C6  UNL     1     -15.629   2.059 -15.334  1.00  0.00     0.068 A 
HETATM    2  O1  UNL     1     -15.686   3.297 -15.867  1.00  0.00    -0.291 OA
HETATM    3  C7  UNL     1     -14.615   3.971 -15.668  1.00  0.00     0.198 A 
HETATM    4  C8  UNL     1     -13.735   3.185 -14.955  1.00  0.00     0.074 A 
HETATM    5  C9  UNL     1     -12.488   3.425 -14.470  1.00  0.00     0.133 A 
HETATM    6  F1  UNL     1     -11.923   4.631 -14.699  1.00  0.00    -0.205 F 
HETATM    7  C10 UNL     1     -11.887   2.423 -13.767  1.00  0.00     0.061 A 
HETATM    8  C11 UNL     1     -12.507   1.214 -13.556  1.00  0.00     0.051 A 
HETATM    9  C12 UNL     1     -11.821   0.241 -12.884  1.00  0.00     0.266 A 
HETATM   10  O3  UNL     1     -10.666   0.500 -12.429  1.00  0.00    -0.267 OA
HETATM   11  N1  UNL     1     -12.414  -0.950 -12.739  1.00  0.00    -0.242 N 
HETATM   12  C13 UNL     1     -13.598  -1.244 -13.198  1.00  0.00     0.083 A 
HETATM   13  C14 UNL     1     -14.396  -0.243 -13.913  1.00  0.00     0.208 A 
HETATM   14  O4  UNL     1     -15.537  -0.737 -14.253  1.00  0.00    -0.285 OA
HETATM   15  C15 UNL     1     -13.790   0.955 -14.054  1.00  0.00     0.046 A 
HETATM   16  C16 UNL     1     -14.413   1.975 -14.765  1.00  0.00     0.027 A 
HETATM   17  C17 UNL     1     -14.170  -2.660 -13.262  1.00  0.00     0.012 C 
HETATM   18  C22 UNL     1     -13.118  -3.656 -12.740  1.00  0.00     0.078 C 
HETATM   19  C23 UNL     1     -12.402  -3.081 -11.579  1.00  0.00     0.075 C 
HETATM   20  N2  UNL     1     -12.442  -3.629 -10.442  1.00  0.00    -0.393 N 
ATOM     21  H2  UNL     1     -12.988  -4.486 -10.353  1.00  0.00     0.159 HD
HETATM   22  C24 UNL     1     -11.786  -3.145  -9.271  1.00  0.00     0.146 C 
HETATM   23  C25 UNL     1     -11.678  -1.858 -11.868  1.00  0.00     0.277 C 
HETATM   24  O5  UNL     1     -10.556  -1.561 -11.444  1.00  0.00    -0.265 OA
ENDROOT
BRANCH   1  25
HETATM   25  C5  UNL     1     -16.782   1.230 -15.492  1.00  0.00     0.066 C 
BRANCH  25  26
HETATM   26  C4  UNL     1     -18.080   2.018 -15.230  1.00  0.00     0.006 C 
BRANCH  26  27
HETATM   27  C3  UNL     1     -18.882   1.622 -14.087  1.00  0.00     0.000 C 
BRANCH  27  28
HETATM   28  C2  UNL     1     -20.057   0.721 -14.404  1.00  0.00    -0.005 C 
HETATM   29  C1  UNL     1     -21.362   1.510 -14.258  1.00  0.00     0.005 C 
ENDBRANCH  27  28
ENDBRANCH  26  27
ENDBRANCH  25  26
ENDBRANCH   1  25
BRANCH   3  30
HETATM   30  O2  UNL     1     -14.310   5.276 -16.062  1.00  0.00    -0.340 OA
ATOM     31  H2  UNL     1     -14.226   6.059 -15.530  1.00  0.00     0.220 HD
ENDBRANCH   3  30
BRANCH  17  32
HETATM   32  C18 UNL     1     -15.311  -2.734 -12.361  1.00  0.00     0.012 C 
HETATM   33  C19 UNL     1     -15.894  -4.078 -12.051  1.00  0.00     0.006 C 
ENDBRANCH  17  32
BRANCH  17  34
HETATM   34  C20 UNL     1     -14.264  -3.015 -14.702  1.00  0.00     0.012 C 
HETATM   35  C21 UNL     1     -13.020  -3.379 -15.432  1.00  0.00     0.006 C 
ENDBRANCH  17  34
TORSDOF 7
ENDMDL
MODEL 4
REMARK VINA RESULT: -7.395942749      3.019      6.814
REMARK  7 active torsions:
REMARK  status: ('A' for Active; 'I' for Inactive)
REMARK    1  A    between atoms: C2_2  and  C3_3 
REMARK    2  A    between atoms: C3_3  and  C4_4 
REMARK    3  A    between atoms: C4_4  and  C5_5 
REMARK    4  A    between atoms: C5_5  and  C6_6 
REMARK    5  A    between atoms: C7_8  and  O2_9 
REMARK    6  A    between atoms: C17_24  and  C18_25 
REMARK    7  A    between atoms: C17_24  and  C20_27 
ROOT
HETATM    1  C6  UNL     1     -14.533  -3.927 -10.857  1.00  0.00     0.068 A 
HETATM    2  O1  UNL     1     -14.050  -4.775  -9.925  1.00  0.00    -0.291 OA
HETATM    3  C7  UNL     1     -12.786  -4.657  -9.756  1.00  0.00     0.198 A 
HETATM    4  C8  UNL     1     -12.326  -3.674 -10.605  1.00  0.00     0.074 A 
HETATM    5  C9  UNL     1     -11.079  -3.182 -10.837  1.00  0.00     0.133 A 
HETATM    6  F1  UNL     1     -10.042  -3.685 -10.133  1.00  0.00    -0.205 F 
HETATM    7  C10 UNL     1     -10.958  -2.208 -11.784  1.00  0.00     0.061 A 
HETATM    8  C11 UNL     1     -12.046  -1.733 -12.478  1.00  0.00     0.051 A 
HETATM    9  C12 UNL     1     -11.852  -0.722 -13.377  1.00  0.00     0.266 A 
HETATM   10  O3  UNL     1     -10.676  -0.295 -13.584  1.00  0.00    -0.267 OA
HETATM   11  N1  UNL     1     -12.929  -0.230 -14.001  1.00  0.00    -0.242 N 
HETATM   12  C13 UNL     1     -14.148  -0.647 -13.805  1.00  0.00     0.083 A 
HETATM   13  C14 UNL     1     -14.427  -1.740 -12.868  1.00  0.00     0.208 A 
HETATM   14  O4  UNL     1     -15.688  -2.006 -12.850  1.00  0.00    -0.285 OA
HETATM   15  C15 UNL     1     -13.334  -2.231 -12.245  1.00  0.00     0.046 A 
HETATM   16  C16 UNL     1     -13.466  -3.230 -11.286  1.00  0.00     0.027 A 
HETATM   17  C17 UNL     1     -15.397   0.073 -14.312  1.00  0.00     0.012 C 
HETATM   18  C22 UNL     1     -14.978   1.363 -15.042  1.00  0.00     0.078 C 
HETATM   19  C23 UNL     1     -13.753   1.124 -15.837  1.00  0.00     0.075 C 
HETATM   20  N2  UNL     1     -13.744   1.262 -17.093  1.00  0.00    -0.393 N 
ATOM     21  H2  UNL     1     -14.616   1.546 -17.540  1.00  0.00     0.159 HD
HETATM   22  C24 UNL     1     -12.613   1.053 -17.937  1.00  0.00     0.146 C 
HETATM   23  C25 UNL     1     -12.600   0.721 -15.056  1.00  0.00     0.277 C 
HETATM   24  O5  UNL     1     -11.437   1.105 -15.224  1.00  0.00    -0.265 OA
ENDROOT
BRANCH   1  25
HETATM   25  C5  UNL     1     -15.935  -3.989 -11.129  1.00  0.00     0.066 C 
BRANCH  25  26
HETATM   26  C4  UNL     1     -16.299  -5.267 -11.908  1.00  0.00     0.006 C 
BRANCH  26  27
HETATM   27  C3  UNL     1     -15.552  -5.546 -13.121  1.00  0.00     0.000 C 
BRANCH  27  28
HETATM   28  C2  UNL     1     -14.689  -6.789 -13.075  1.00  0.00    -0.005 C 
HETATM   29  C1  UNL     1     -13.221  -6.402 -13.282  1.00  0.00     0.005 C 
ENDBRANCH  27  28
ENDBRANCH  26  27
ENDBRANCH  25  26
ENDBRANCH   1  25
BRANCH   3  30
HETATM   30  O2  UNL     1     -11.944  -5.360  -8.890  1.00  0.00    -0.340 OA
ATOM     31  H2  UNL     1     -11.044  -5.634  -9.022  1.00  0.00     0.220 HD
ENDBRANCH   3  30
BRANCH  17  32
HETATM   32  C18 UNL     1     -16.050  -0.780 -15.296  1.00  0.00     0.012 C 
HETATM   33  C19 UNL     1     -17.539  -0.707 -15.433  1.00  0.00     0.006 C 
ENDBRANCH  17  32
BRANCH  17  34
HETATM   34  C20 UNL     1     -16.103   0.595 -13.114  1.00  0.00     0.012 C 
HETATM   35  C21 UNL     1     -16.985   1.785 -13.264  1.00  0.00     0.006 C 
ENDBRANCH  17  34
TORSDOF 7
ENDMDL
MODEL 5
REMARK VINA RESULT: -7.248970874      3.364      6.524
REMARK  7 active torsions:
REMARK  status: ('A' for Active; 'I' for Inactive)
REMARK    1  A    between atoms: C2_2  and  C3_3 
REMARK    2  A    between atoms: C3_3  and  C4_4 
REMARK    3  A    between atoms: C4_4  and  C5_5 
REMARK    4  A    between atoms: C5_5  and  C6_6 
REMARK    5  A    between atoms: C7_8  and  O2_9 
REMARK    6  A    between atoms: C17_24  and  C18_25 
REMARK    7  A    between atoms: C17_24  and  C20_27 
ROOT
HETATM    1  C6  UNL     1     -16.880   0.151 -15.067  1.00  0.00     0.068 A 
HETATM    2  O1  UNL     1     -18.174  -0.055 -14.743  1.00  0.00    -0.291 OA
HETATM    3  C7  UNL     1     -18.892   0.998 -14.878  1.00  0.00     0.198 A 
HETATM    4  C8  UNL     1     -18.081   2.019 -15.323  1.00  0.00     0.074 A 
HETATM    5  C9  UNL     1     -18.334   3.327 -15.598  1.00  0.00     0.133 A 
HETATM    6  F1  UNL     1     -19.594   3.790 -15.448  1.00  0.00    -0.205 F 
HETATM    7  C10 UNL     1     -17.282   4.095 -16.003  1.00  0.00     0.061 A 
HETATM    8  C11 UNL     1     -16.015   3.577 -16.134  1.00  0.00     0.051 A 
HETATM    9  C12 UNL     1     -15.022   4.398 -16.592  1.00  0.00     0.266 A 
HETATM   10  O3  UNL     1     -15.284   5.616 -16.823  1.00  0.00    -0.267 OA
HETATM   11  N1  UNL     1     -13.808   3.863 -16.772  1.00  0.00    -0.242 N 
HETATM   12  C13 UNL     1     -13.512   2.615 -16.544  1.00  0.00     0.083 A 
HETATM   13  C14 UNL     1     -14.524   1.683 -16.037  1.00  0.00     0.208 A 
HETATM   14  O4  UNL     1     -14.010   0.514 -15.859  1.00  0.00    -0.285 OA
HETATM   15  C15 UNL     1     -15.745   2.231 -15.857  1.00  0.00     0.046 A 
HETATM   16  C16 UNL     1     -16.811   1.442 -15.436  1.00  0.00     0.027 A 
HETATM   17  C17 UNL     1     -12.212   1.943 -16.987  1.00  0.00     0.012 C 
HETATM   18  C22 UNL     1     -11.353   2.960 -17.760  1.00  0.00     0.078 C 
HETATM   19  C23 UNL     1     -11.447   4.294 -17.126  1.00  0.00     0.075 C 
HETATM   20  N2  UNL     1     -10.429   4.874 -16.653  1.00  0.00    -0.393 N 
ATOM     21  H2  UNL     1      -9.536   4.386 -16.726  1.00  0.00     0.159 HD
HETATM   22  C24 UNL     1     -10.427   6.155 -16.026  1.00  0.00     0.146 C 
HETATM   23  C25 UNL     1     -12.786   4.851 -17.097  1.00  0.00     0.277 C 
HETATM   24  O5  UNL     1     -13.088   6.030 -17.310  1.00  0.00    -0.265 OA
ENDROOT
BRANCH   1  25
HETATM   25  C5  UNL     1     -15.993  -0.962 -14.938  1.00  0.00     0.066 C 
BRANCH  25  26
HETATM   26  C4  UNL     1     -15.666  -1.250 -13.460  1.00  0.00     0.006 C 
BRANCH  26  27
HETATM   27  C3  UNL     1     -15.227  -2.592 -13.123  1.00  0.00     0.000 C 
BRANCH  27  28
HETATM   28  C2  UNL     1     -15.396  -2.979 -11.669  1.00  0.00    -0.005 C 
HETATM   29  C1  UNL     1     -16.041  -4.366 -11.580  1.00  0.00     0.005 C 
ENDBRANCH  27  28
ENDBRANCH  26  27
ENDBRANCH  25  26
ENDBRANCH   1  25
BRANCH   3  30
HETATM   30  O2  UNL     1     -20.257   1.169 -14.636  1.00  0.00    -0.340 OA
ATOM     31  H2  UNL     1     -20.998   0.809 -15.108  1.00  0.00     0.220 HD
ENDBRANCH   3  30
BRANCH  17  32
HETATM   32  C18 UNL     1     -11.461   1.570 -15.796  1.00  0.00     0.012 C 
HETATM   33  C19 UNL     1     -10.376   0.547 -15.924  1.00  0.00     0.006 C 
ENDBRANCH  17  32
BRANCH  17  34
HETATM   34  C20 UNL     1     -12.578   0.962 -18.040  1.00  0.00     0.012 C 
HETATM   35  C21 UNL     1     -13.048   1.469 -19.358  1.00  0.00     0.006 C 
ENDBRANCH  17  34
TORSDOF 7
ENDMDL
