MODEL 1
REMARK VINA RESULT: -6.699607050      0.000      0.000
REMARK  10 active torsions:
REMARK  status: ('A' for Active; 'I' for Inactive)
REMARK    1  A    between atoms: C2_2  and  N1_3 
REMARK    2  A    between atoms: N1_3  and  C3_4 
REMARK    3  A    between atoms: N1_3  and  C5_6 
REMARK    4  A    between atoms: C5_6  and  C6_7 
REMARK    5  A    between atoms: C6_7  and  C7_8 
REMARK    6  A    between atoms: C7_8  and  N2_9 
REMARK    7  A    between atoms: C8_10  and  O1_11 
REMARK    8  A    between atoms: C9_13  and  N3_14 
REMARK       I    between atoms: N4_16  and  C10_18 
REMARK    9  A    between atoms: C10_18  and  C11_20 
REMARK   10  A    between atoms: C20_31  and  O3_32 
ROOT
HETATM    1  N2  UNL     1     -14.859  -4.952 -12.805  1.00  0.00    -0.323 N 
HETATM    2  C8  UNL     1     -14.852  -4.779 -11.456  1.00  0.00     0.172 A 
HETATM    3  C9  UNL     1     -13.959  -5.628 -10.850  1.00  0.00     0.112 A 
HETATM    4  C15 UNL     1     -13.379  -6.366 -11.863  1.00  0.00     0.028 A 
HETATM    5  C16 UNL     1     -12.419  -7.347 -11.664  1.00  0.00     0.040 C 
HETATM    6  C17 UNL     1     -11.459  -7.773 -12.552  1.00  0.00     0.036 C 
HETATM    7 CL1  UNL     1     -10.170  -8.747 -11.905  1.00  0.00    -0.084 Cl
HETATM    8  C18 UNL     1     -11.418  -7.503 -13.918  1.00  0.00     0.050 C 
HETATM    9  C19 UNL     1     -12.449  -7.051 -14.706  1.00  0.00     0.068 C 
HETATM   10  S1  UNL     1     -12.296  -7.291 -16.315  1.00  0.00    -0.077 SA
HETATM   11  C20 UNL     1     -13.615  -6.406 -14.311  1.00  0.00     0.115 C 
HETATM   12  C21 UNL     1     -13.965  -5.912 -13.048  1.00  0.00     0.084 A 
ENDROOT
BRANCH   3  13
HETATM   13  N3  UNL     1     -13.653  -5.769  -9.485  1.00  0.00    -0.293 N 
HETATM   14  N4  UNL     1     -12.960  -5.027  -8.766  1.00  0.00    -0.269 N 
HETATM   15  C10 UNL     1     -12.296  -3.840  -9.135  1.00  0.00     0.243 C 
ATOM     16  H4  UNL     1     -12.861  -5.312  -7.792  1.00  0.00     0.190 HD
HETATM   17  O2  UNL     1     -12.691  -3.090 -10.062  1.00  0.00    -0.271 OA
ATOM     18  H3  UNL     1     -14.050  -6.588  -9.023  1.00  0.00     0.187 HD
BRANCH  15  19
HETATM   19  C11 UNL     1     -11.047  -3.403  -8.412  1.00  0.00     0.032 C 
HETATM   20  C12 UNL     1     -10.446  -4.567  -7.695  1.00  0.00     0.025 C 
HETATM   21  C13 UNL     1     -10.043  -2.890  -9.451  1.00  0.00     0.025 C 
HETATM   22  C14 UNL     1     -11.334  -2.271  -7.480  1.00  0.00     0.025 C 
ENDBRANCH  15  19
ENDBRANCH   3  13
BRANCH   2  23
HETATM   23  O1  UNL     1     -15.660  -3.853 -10.814  1.00  0.00    -0.344 OA
ATOM     24  H1  UNL     1     -15.324  -3.227 -10.182  1.00  0.00     0.219 HD
ENDBRANCH   2  23
BRANCH   1  25
HETATM   25  C7  UNL     1     -15.664  -4.218 -13.755  1.00  0.00     0.133 C 
BRANCH  25  26
HETATM   26  C6  UNL     1     -15.088  -2.874 -14.132  1.00  0.00     0.040 C 
BRANCH  26  27
HETATM   27  C5  UNL     1     -16.253  -2.001 -14.566  1.00  0.00     0.123 C 
BRANCH  27  28
HETATM   28  N1  UNL     1     -16.070  -0.617 -14.345  1.00  0.00    -0.394 N 
BRANCH  28  29
HETATM   29  C2  UNL     1     -14.956  -0.195 -13.596  1.00  0.00     0.117 C 
HETATM   30  C1  UNL     1     -15.476   0.381 -12.273  1.00  0.00     0.026 C 
ENDBRANCH  28  29
BRANCH  28  31
HETATM   31  C3  UNL     1     -16.696   0.303 -15.198  1.00  0.00     0.053 C 
HETATM   32  C4  UNL     1     -18.164   0.547 -14.955  1.00  0.00     0.054 C 
ENDBRANCH  28  31
ENDBRANCH  27  28
ENDBRANCH  26  27
ENDBRANCH  25  26
ENDBRANCH   1  25
BRANCH  11  33
HETATM   33  O3  UNL     1     -14.572  -6.219 -15.288  1.00  0.00    -0.357 OA
ATOM     34  H3  UNL     1     -15.133  -5.460 -15.188  1.00  0.00     0.218 HD
ENDBRANCH  11  33
TORSDOF 10
ENDMDL
MODEL 2
REMARK VINA RESULT: -6.631986845      3.079      7.134
REMARK  10 active torsions:
REMARK  status: ('A' for Active; 'I' for Inactive)
REMARK    1  A    between atoms: C2_2  and  N1_3 
REMARK    2  A    between atoms: N1_3  and  C3_4 
REMARK    3  A    between atoms: N1_3  and  C5_6 
REMARK    4  A    between atoms: C5_6  and  C6_7 
REMARK    5  A    between atoms: C6_7  and  C7_8 
REMARK    6  A    between atoms: C7_8  and  N2_9 
REMARK    7  A    between atoms: C8_10  and  O1_11 
REMARK    8  A    between atoms: C9_13  and  N3_14 
REMARK       I    between atoms: N4_16  and  C10_18 
REMARK    9  A    between atoms: C10_18  and  C11_20 
REMARK   10  A    between atoms: C20_31  and  O3_32 
ROOT
HETATM    1  N2  UNL     1     -14.988  -3.316 -12.527  1.00  0.00    -0.323 N 
HETATM    2  C8  UNL     1     -15.480  -2.741 -13.658  1.00  0.00     0.172 A 
HETATM    3  C9  UNL     1     -14.649  -1.746 -14.111  1.00  0.00     0.112 A 
HETATM    4  C15 UNL     1     -13.590  -1.694 -13.227  1.00  0.00     0.028 A 
HETATM    5  C16 UNL     1     -12.528  -0.808 -13.331  1.00  0.00     0.040 C 
HETATM    6  C17 UNL     1     -11.250  -0.971 -12.851  1.00  0.00     0.036 C 
HETATM    7 CL1  UNL     1     -10.042   0.132 -13.446  1.00  0.00    -0.084 Cl
HETATM    8  C18 UNL     1     -10.827  -1.931 -11.934  1.00  0.00     0.050 C 
HETATM    9  C19 UNL     1     -11.615  -2.683 -11.096  1.00  0.00     0.068 C 
HETATM   10  S1  UNL     1     -10.874  -3.347  -9.801  1.00  0.00    -0.077 SA
HETATM   11  C20 UNL     1     -12.973  -2.957 -11.208  1.00  0.00     0.115 C 
HETATM   12  C21 UNL     1     -13.843  -2.681 -12.270  1.00  0.00     0.084 A 
ENDROOT
BRANCH   3  13
HETATM   13  N3  UNL     1     -14.792  -0.912 -15.234  1.00  0.00    -0.293 N 
HETATM   14  N4  UNL     1     -15.496   0.106 -15.357  1.00  0.00    -0.269 N 
HETATM   15  C10 UNL     1     -16.342   0.695 -14.396  1.00  0.00     0.243 C 
ATOM     16  H4  UNL     1     -15.457   0.570 -16.264  1.00  0.00     0.190 HD
HETATM   17  O2  UNL     1     -16.144   0.605 -13.158  1.00  0.00    -0.271 OA
ATOM     18  H3  UNL     1     -14.247  -1.176 -16.055  1.00  0.00     0.187 HD
BRANCH  15  19
HETATM   19  C11 UNL     1     -17.556   1.483 -14.820  1.00  0.00     0.032 C 
HETATM   20  C12 UNL     1     -18.599   0.555 -15.350  1.00  0.00     0.025 C 
HETATM   21  C13 UNL     1     -18.115   2.205 -13.590  1.00  0.00     0.025 C 
HETATM   22  C14 UNL     1     -17.192   2.531 -15.820  1.00  0.00     0.025 C 
ENDBRANCH  15  19
ENDBRANCH   3  13
BRANCH   2  23
HETATM   23  O1  UNL     1     -16.671  -3.139 -14.245  1.00  0.00    -0.344 OA
ATOM     24  H1  UNL     1     -16.773  -3.974 -14.687  1.00  0.00     0.219 HD
ENDBRANCH   2  23
BRANCH   1  25
HETATM   25  C7  UNL     1     -15.593  -4.403 -11.791  1.00  0.00     0.133 C 
BRANCH  25  26
HETATM   26  C6  UNL     1     -15.609  -5.713 -12.541  1.00  0.00     0.040 C 
BRANCH  26  27
HETATM   27  C5  UNL     1     -14.271  -6.386 -12.281  1.00  0.00     0.123 C 
BRANCH  27  28
HETATM   28  N1  UNL     1     -13.600  -6.834 -13.441  1.00  0.00    -0.394 N 
BRANCH  28  29
HETATM   29  C2  UNL     1     -13.169  -8.173 -13.496  1.00  0.00     0.117 C 
HETATM   30  C1  UNL     1     -12.903  -8.636 -12.057  1.00  0.00     0.026 C 
ENDBRANCH  28  29
BRANCH  28  31
HETATM   31  C3  UNL     1     -13.756  -6.127 -14.641  1.00  0.00     0.053 C 
HETATM   32  C4  UNL     1     -12.735  -5.054 -14.923  1.00  0.00     0.054 C 
ENDBRANCH  28  31
ENDBRANCH  27  28
ENDBRANCH  26  27
ENDBRANCH  25  26
ENDBRANCH   1  25
BRANCH  11  33
HETATM   33  O3  UNL     1     -13.560  -3.589 -10.131  1.00  0.00    -0.357 OA
ATOM     34  H3  UNL     1     -14.416  -3.270  -9.871  1.00  0.00     0.218 HD
ENDBRANCH  11  33
TORSDOF 10
ENDMDL
MODEL 3
REMARK VINA RESULT: -6.610827357      3.082      7.180
REMARK  10 active torsions:
REMARK  status: ('A' for Active; 'I' for Inactive)
REMARK    1  A    between atoms: C2_2  and  N1_3 
REMARK    2  A    between atoms: N1_3  and  C3_4 
REMARK    3  A    between atoms: N1_3  and  C5_6 
REMARK    4  A    between atoms: C5_6  and  C6_7 
REMARK    5  A    between atoms: C6_7  and  C7_8 
REMARK    6  A    between atoms: C7_8  and  N2_9 
REMARK    7  A    between atoms: C8_10  and  O1_11 
REMARK    8  A    between atoms: C9_13  and  N3_14 
REMARK       I    between atoms: N4_16  and  C10_18 
REMARK    9  A    between atoms: C10_18  and  C11_20 
REMARK   10  A    between atoms: C20_31  and  O3_32 
ROOT
HETATM    1  N2  UNL     1     -15.094  -3.262 -12.503  1.00  0.00    -0.323 N 
HETATM    2  C8  UNL     1     -15.562  -2.683 -13.641  1.00  0.00     0.172 A 
HETATM    3  C9  UNL     1     -14.700  -1.716 -14.098  1.00  0.00     0.112 A 
HETATM    4  C15 UNL     1     -13.644  -1.688 -13.209  1.00  0.00     0.028 A 
HETATM    5  C16 UNL     1     -12.555  -0.835 -13.315  1.00  0.00     0.040 C 
HETATM    6  C17 UNL     1     -11.285  -1.032 -12.827  1.00  0.00     0.036 C 
HETATM    7 CL1  UNL     1     -10.042   0.029 -13.424  1.00  0.00    -0.084 Cl
HETATM    8  C18 UNL     1     -10.896  -1.997 -11.900  1.00  0.00     0.050 C 
HETATM    9  C19 UNL     1     -11.710  -2.718 -11.060  1.00  0.00     0.068 C 
HETATM   10  S1  UNL     1     -10.996  -3.393  -9.755  1.00  0.00    -0.077 SA
HETATM   11  C20 UNL     1     -13.075  -2.952 -11.177  1.00  0.00     0.115 C 
HETATM   12  C21 UNL     1     -13.931  -2.660 -12.245  1.00  0.00     0.084 A 
ENDROOT
BRANCH   3  13
HETATM   13  N3  UNL     1     -14.812  -0.888 -15.229  1.00  0.00    -0.293 N 
HETATM   14  N4  UNL     1     -15.484   0.150 -15.363  1.00  0.00    -0.269 N 
HETATM   15  C10 UNL     1     -16.315   0.773 -14.411  1.00  0.00     0.243 C 
ATOM     16  H4  UNL     1     -15.427   0.605 -16.274  1.00  0.00     0.190 HD
HETATM   17  O2  UNL     1     -16.125   0.687 -13.172  1.00  0.00    -0.271 OA
ATOM     18  H3  UNL     1     -14.272  -1.176 -16.045  1.00  0.00     0.187 HD
BRANCH  15  19
HETATM   19  C11 UNL     1     -17.502   1.594 -14.847  1.00  0.00     0.032 C 
HETATM   20  C12 UNL     1     -18.572   0.694 -15.372  1.00  0.00     0.025 C 
HETATM   21  C13 UNL     1     -18.043   2.346 -13.627  1.00  0.00     0.025 C 
HETATM   22  C14 UNL     1     -17.103   2.621 -15.857  1.00  0.00     0.025 C 
ENDBRANCH  15  19
ENDBRANCH   3  13
BRANCH   2  23
HETATM   23  O1  UNL     1     -16.762  -3.049 -14.231  1.00  0.00    -0.344 OA
ATOM     24  H1  UNL     1     -17.147  -3.911 -14.121  1.00  0.00     0.219 HD
ENDBRANCH   2  23
BRANCH   1  25
HETATM   25  C7  UNL     1     -15.734  -4.324 -11.761  1.00  0.00     0.133 C 
BRANCH  25  26
HETATM   26  C6  UNL     1     -15.805  -5.634 -12.509  1.00  0.00     0.040 C 
BRANCH  26  27
HETATM   27  C5  UNL     1     -14.455  -6.310 -12.343  1.00  0.00     0.123 C 
BRANCH  27  28
HETATM   28  N1  UNL     1     -13.929  -6.878 -13.525  1.00  0.00    -0.394 N 
BRANCH  28  29
HETATM   29  C2  UNL     1     -13.735  -6.047 -14.645  1.00  0.00     0.117 C 
HETATM   30  C1  UNL     1     -12.486  -5.196 -14.383  1.00  0.00     0.026 C 
ENDBRANCH  28  29
BRANCH  28  31
HETATM   31  C3  UNL     1     -13.217  -8.084 -13.450  1.00  0.00     0.053 C 
HETATM   32  C4  UNL     1     -12.879  -8.575 -12.065  1.00  0.00     0.054 C 
ENDBRANCH  28  31
ENDBRANCH  27  28
ENDBRANCH  26  27
ENDBRANCH  25  26
ENDBRANCH   1  25
BRANCH  11  33
HETATM   33  O3  UNL     1     -13.686  -3.557 -10.097  1.00  0.00    -0.357 OA
ATOM     34  H3  UNL     1     -14.625  -3.682 -10.161  1.00  0.00     0.218 HD
ENDBRANCH  11  33
TORSDOF 10
ENDMDL
MODEL 4
REMARK VINA RESULT: -6.610183962      2.012      2.974
REMARK  10 active torsions:
REMARK  status: ('A' for Active; 'I' for Inactive)
REMARK    1  A    between atoms: C2_2  and  N1_3 
REMARK    2  A    between atoms: N1_3  and  C3_4 
REMARK    3  A    between atoms: N1_3  and  C5_6 
REMARK    4  A    between atoms: C5_6  and  C6_7 
REMARK    5  A    between atoms: C6_7  and  C7_8 
REMARK    6  A    between atoms: C7_8  and  N2_9 
REMARK    7  A    between atoms: C8_10  and  O1_11 
REMARK    8  A    between atoms: C9_13  and  N3_14 
REMARK       I    between atoms: N4_16  and  C10_18 
REMARK    9  A    between atoms: C10_18  and  C11_20 
REMARK   10  A    between atoms: C20_31  and  O3_32 
ROOT
HETATM    1  N2  UNL     1     -14.701  -1.562 -13.202  1.00  0.00    -0.323 N 
HETATM    2  C8  UNL     1     -14.890  -1.266 -11.888  1.00  0.00     0.172 A 
HETATM    3  C9  UNL     1     -14.726  -2.378 -11.099  1.00  0.00     0.112 A 
HETATM    4  C15 UNL     1     -14.419  -3.417 -11.956  1.00  0.00     0.028 A 
HETATM    5  C16 UNL     1     -14.182  -4.722 -11.547  1.00  0.00     0.040 C 
HETATM    6  C17 UNL     1     -13.425  -5.675 -12.186  1.00  0.00     0.036 C 
HETATM    7 CL1  UNL     1     -13.007  -7.091 -11.265  1.00  0.00    -0.084 Cl
HETATM    8  C18 UNL     1     -12.960  -5.620 -13.498  1.00  0.00     0.050 C 
HETATM    9  C19 UNL     1     -13.407  -4.796 -14.503  1.00  0.00     0.068 C 
HETATM   10  S1  UNL     1     -13.066  -5.260 -16.032  1.00  0.00    -0.077 SA
HETATM   11  C20 UNL     1     -14.116  -3.606 -14.389  1.00  0.00     0.115 C 
HETATM   12  C21 UNL     1     -14.414  -2.864 -13.240  1.00  0.00     0.084 A 
ENDROOT
BRANCH   3  13
HETATM   13  N3  UNL     1     -14.836  -2.501  -9.703  1.00  0.00    -0.293 N 
HETATM   14  N4  UNL     1     -13.932  -2.677  -8.868  1.00  0.00    -0.269 N 
HETATM   15  C10 UNL     1     -12.548  -2.800  -9.104  1.00  0.00     0.243 C 
ATOM     16  H4  UNL     1     -14.227  -2.741  -7.894  1.00  0.00     0.190 HD
HETATM   17  O2  UNL     1     -11.966  -2.263 -10.080  1.00  0.00    -0.271 OA
ATOM     18  H3  UNL     1     -15.782  -2.438  -9.325  1.00  0.00     0.187 HD
BRANCH  15  19
HETATM   19  C11 UNL     1     -11.677  -3.603  -8.171  1.00  0.00     0.032 C 
HETATM   20  C12 UNL     1     -12.388  -4.854  -7.769  1.00  0.00     0.025 C 
HETATM   21  C13 UNL     1     -10.392  -3.981  -8.914  1.00  0.00     0.025 C 
HETATM   22  C14 UNL     1     -11.276  -2.792  -6.981  1.00  0.00     0.025 C 
ENDBRANCH  15  19
ENDBRANCH   3  13
BRANCH   2  23
HETATM   23  O1  UNL     1     -15.209   0.009 -11.445  1.00  0.00    -0.344 OA
ATOM     24  H1  UNL     1     -16.019   0.207 -10.989  1.00  0.00     0.219 HD
ENDBRANCH   2  23
BRANCH   1  25
HETATM   25  C7  UNL     1     -14.780  -0.632 -14.306  1.00  0.00     0.133 C 
BRANCH  25  26
HETATM   26  C6  UNL     1     -16.180  -0.429 -14.834  1.00  0.00     0.040 C 
BRANCH  26  27
HETATM   27  C5  UNL     1     -16.418   1.071 -14.887  1.00  0.00     0.123 C 
BRANCH  27  28
HETATM   28  N1  UNL     1     -17.707   1.450 -15.323  1.00  0.00    -0.394 N 
BRANCH  28  29
HETATM   29  C2  UNL     1     -18.741   0.496 -15.281  1.00  0.00     0.117 C 
HETATM   30  C1  UNL     1     -19.930   1.128 -14.547  1.00  0.00     0.026 C 
ENDBRANCH  28  29
BRANCH  28  31
HETATM   31  C3  UNL     1     -18.047   2.810 -15.361  1.00  0.00     0.053 C 
HETATM   32  C4  UNL     1     -16.963   3.757 -15.812  1.00  0.00     0.054 C 
ENDBRANCH  28  31
ENDBRANCH  27  28
ENDBRANCH  26  27
ENDBRANCH  25  26
ENDBRANCH   1  25
BRANCH  11  33
HETATM   33  O3  UNL     1     -14.601  -3.068 -15.564  1.00  0.00    -0.357 OA
ATOM     34  H3  UNL     1     -14.702  -2.124 -15.584  1.00  0.00     0.218 HD
ENDBRANCH  11  33
TORSDOF 10
ENDMDL
MODEL 5
REMARK VINA RESULT: -6.365742750      3.973      6.348
REMARK  10 active torsions:
REMARK  status: ('A' for Active; 'I' for Inactive)
REMARK    1  A    between atoms: C2_2  and  N1_3 
REMARK    2  A    between atoms: N1_3  and  C3_4 
REMARK    3  A    between atoms: N1_3  and  C5_6 
REMARK    4  A    between atoms: C5_6  and  C6_7 
REMARK    5  A    between atoms: C6_7  and  C7_8 
REMARK    6  A    between atoms: C7_8  and  N2_9 
REMARK    7  A    between atoms: C8_10  and  O1_11 
REMARK    8  A    between atoms: C9_13  and  N3_14 
REMARK       I    between atoms: N4_16  and  C10_18 
REMARK    9  A    between atoms: C10_18  and  C11_20 
REMARK   10  A    between atoms: C20_31  and  O3_32 
ROOT
HETATM    1  N2  UNL     1     -15.865   0.245 -15.096  1.00  0.00    -0.323 N 
HETATM    2  C8  UNL     1     -15.946  -1.097 -14.890  1.00  0.00     0.172 A 
HETATM    3  C9  UNL     1     -14.735  -1.616 -14.503  1.00  0.00     0.112 A 
HETATM    4  C15 UNL     1     -13.855  -0.552 -14.463  1.00  0.00     0.028 A 
HETATM    5  C16 UNL     1     -12.515  -0.660 -14.119  1.00  0.00     0.040 C 
HETATM    6  C17 UNL     1     -11.707   0.316 -13.584  1.00  0.00     0.036 C 
HETATM    7 CL1  UNL     1     -10.186  -0.206 -12.916  1.00  0.00    -0.084 Cl
HETATM    8  C18 UNL     1     -11.984   1.680 -13.526  1.00  0.00     0.050 C 
HETATM    9  C19 UNL     1     -12.930   2.366 -14.247  1.00  0.00     0.068 C 
HETATM   10  S1  UNL     1     -12.722   3.982 -14.372  1.00  0.00    -0.077 SA
HETATM   11  C20 UNL     1     -14.056   1.862 -14.889  1.00  0.00     0.115 C 
HETATM   12  C21 UNL     1     -14.598   0.572 -14.835  1.00  0.00     0.084 A 
ENDROOT
BRANCH   3  13
HETATM   13  N3  UNL     1     -14.394  -2.945 -14.198  1.00  0.00    -0.293 N 
HETATM   14  N4  UNL     1     -14.274  -3.476 -13.080  1.00  0.00    -0.269 N 
HETATM   15  C10 UNL     1     -14.451  -2.880 -11.815  1.00  0.00     0.243 C 
ATOM     16  H4  UNL     1     -14.017  -4.463 -13.078  1.00  0.00     0.190 HD
HETATM   17  O2  UNL     1     -15.223  -1.909 -11.614  1.00  0.00    -0.271 OA
ATOM     18  H3  UNL     1     -14.222  -3.554 -14.999  1.00  0.00     0.187 HD
BRANCH  15  19
HETATM   19  C11 UNL     1     -13.702  -3.395 -10.612  1.00  0.00     0.032 C 
HETATM   20  C12 UNL     1     -13.794  -4.884 -10.560  1.00  0.00     0.025 C 
HETATM   21  C13 UNL     1     -12.230  -2.994 -10.751  1.00  0.00     0.025 C 
HETATM   22  C14 UNL     1     -14.212  -2.769  -9.355  1.00  0.00     0.025 C 
ENDBRANCH  15  19
ENDBRANCH   3  13
BRANCH   2  23
HETATM   23  O1  UNL     1     -17.121  -1.812 -15.062  1.00  0.00    -0.344 OA
ATOM     24  H1  UNL     1     -17.357  -2.225 -15.885  1.00  0.00     0.219 HD
ENDBRANCH   2  23
BRANCH   1  25
HETATM   25  C7  UNL     1     -16.949   1.114 -15.494  1.00  0.00     0.133 C 
BRANCH  25  26
HETATM   26  C6  UNL     1     -17.897   1.459 -14.372  1.00  0.00     0.040 C 
BRANCH  26  27
HETATM   27  C5  UNL     1     -19.273   0.968 -14.792  1.00  0.00     0.123 C 
BRANCH  27  28
HETATM   28  N1  UNL     1     -20.345   1.795 -14.387  1.00  0.00    -0.394 N 
BRANCH  28  29
HETATM   29  C2  UNL     1     -20.229   3.186 -14.566  1.00  0.00     0.117 C 
HETATM   30  C1  UNL     1     -21.591   3.813 -14.238  1.00  0.00     0.026 C 
ENDBRANCH  28  29
BRANCH  28  31
HETATM   31  C3  UNL     1     -21.624   1.238 -14.240  1.00  0.00     0.053 C 
HETATM   32  C4  UNL     1     -21.704  -0.061 -13.478  1.00  0.00     0.054 C 
ENDBRANCH  28  31
ENDBRANCH  27  28
ENDBRANCH  26  27
ENDBRANCH  25  26
ENDBRANCH   1  25
BRANCH  11  33
HETATM   33  O3  UNL     1     -14.745   2.743 -15.697  1.00  0.00    -0.357 OA
ATOM     34  H3  UNL     1     -15.629   2.492 -15.936  1.00  0.00     0.218 HD
ENDBRANCH  11  33
TORSDOF 10
ENDMDL
