MODEL 1
REMARK VINA RESULT: -6.809177717      0.000      0.000
REMARK  6 active torsions:
REMARK  status: ('A' for Active; 'I' for Inactive)
REMARK    1  A    between atoms: C2_2  and  S1_7 
REMARK    2  A    between atoms: C3_3  and  C4_4 
REMARK    3  A    between atoms: S1_7  and  C5_8 
REMARK    4  A    between atoms: C6_10  and  C7_11 
REMARK    5  A    between atoms: C7_11  and  C8_13 
REMARK    6  A    between atoms: C11_16  and  N1_17 
ROOT
HETATM    1  C5  UNL     1     -14.877  -2.058 -14.508  1.00  0.00     0.069 A 
HETATM    2  S2  UNL     1     -16.439  -1.442 -14.765  1.00  0.00    -0.075 SA
HETATM    3  C6  UNL     1     -16.063   0.209 -14.925  1.00  0.00     0.080 A 
HETATM    4  C11 UNL     1     -14.702   0.242 -14.770  1.00  0.00     0.077 A 
HETATM    5  C17 UNL     1     -14.085  -0.948 -14.552  1.00  0.00     0.096 A 
HETATM    6  C18 UNL     1     -12.629  -1.104 -14.363  1.00  0.00     0.103 C 
HETATM    7  N3  UNL     1     -11.478  -1.207 -14.219  1.00  0.00    -0.191 NA
ENDROOT
BRANCH   1   8
HETATM    8  S1  UNL     1     -14.421  -3.781 -14.241  1.00  0.00    -0.086 SA
BRANCH   8   9
HETATM    9  C2  UNL     1     -14.827  -4.193 -12.551  1.00  0.00    -0.014 C 
HETATM   10  C1  UNL     1     -16.129  -4.856 -12.221  1.00  0.00     0.056 C 
HETATM   11  C3  UNL     1     -13.968  -3.907 -11.606  1.00  0.00     0.098 C 
BRANCH  11  12
HETATM   12  C4  UNL     1     -14.146  -4.176 -10.192  1.00  0.00     0.199 C 
HETATM   13  O1  UNL     1     -13.782  -5.292  -9.686  1.00  0.00    -0.644 OA
HETATM   14  O2  UNL     1     -14.703  -3.269  -9.328  1.00  0.00    -0.644 OA
ENDBRANCH  11  12
ENDBRANCH   8   9
ENDBRANCH   1   8
BRANCH   4  15
HETATM   15  N1  UNL     1     -13.986   1.517 -14.844  1.00  0.00    -0.339 N 
HETATM   16  C12 UNL     1     -13.582   1.957 -15.985  1.00  0.00     0.123 A 
HETATM   17  N2  UNL     1     -13.830   1.229 -17.081  1.00  0.00    -0.350 N 
HETATM   18  C16 UNL     1     -12.905   3.148 -16.109  1.00  0.00     0.057 A 
HETATM   19  C13 UNL     1     -13.431   1.636 -18.320  1.00  0.00     0.113 A 
ATOM     20  H2  UNL     1     -14.332   0.347 -16.987  1.00  0.00     0.166 HD
HETATM   21  C14 UNL     1     -12.749   2.837 -18.440  1.00  0.00     0.050 A 
HETATM   22 CL1  UNL     1     -12.250   3.328 -20.065  1.00  0.00    -0.083 Cl
HETATM   23  C15 UNL     1     -12.469   3.622 -17.341  1.00  0.00     0.048 A 
HETATM   24  S3  UNL     1     -12.566   4.133 -14.641  1.00  0.00    -0.049 SA
ATOM     25  H1  UNL     1     -13.809   2.055 -13.996  1.00  0.00     0.167 HD
ENDBRANCH   4  15
BRANCH   3  26
HETATM   26  C7  UNL     1     -16.965   1.363 -15.173  1.00  0.00     0.172 C 
HETATM   27  O3  UNL     1     -16.726   2.207 -16.044  1.00  0.00    -0.291 OA
BRANCH  26  28
HETATM   28  C8  UNL     1     -18.168   1.428 -14.306  1.00  0.00     0.053 C 
HETATM   29  C9  UNL     1     -18.396   2.841 -13.787  1.00  0.00     0.018 C 
HETATM   30  C10 UNL     1     -19.377   0.841 -14.955  1.00  0.00     0.018 C 
ENDBRANCH  26  28
ENDBRANCH   3  26
TORSDOF 6
ENDMDL
MODEL 2
REMARK VINA RESULT: -6.765796092      3.720      6.456
REMARK  6 active torsions:
REMARK  status: ('A' for Active; 'I' for Inactive)
REMARK    1  A    between atoms: C2_2  and  S1_7 
REMARK    2  A    between atoms: C3_3  and  C4_4 
REMARK    3  A    between atoms: S1_7  and  C5_8 
REMARK    4  A    between atoms: C6_10  and  C7_11 
REMARK    5  A    between atoms: C7_11  and  C8_13 
REMARK    6  A    between atoms: C11_16  and  N1_17 
ROOT
HETATM    1  C5  UNL     1     -14.174   1.660 -15.871  1.00  0.00     0.069 A 
HETATM    2  S2  UNL     1     -15.805   2.133 -15.913  1.00  0.00    -0.075 SA
HETATM    3  C6  UNL     1     -16.528   0.674 -15.422  1.00  0.00     0.080 A 
HETATM    4  C11 UNL     1     -15.461  -0.164 -15.233  1.00  0.00     0.077 A 
HETATM    5  C17 UNL     1     -14.229   0.357 -15.470  1.00  0.00     0.096 A 
HETATM    6  C18 UNL     1     -12.969  -0.395 -15.320  1.00  0.00     0.103 C 
HETATM    7  N3  UNL     1     -11.985  -1.006 -15.192  1.00  0.00    -0.191 NA
ENDROOT
BRANCH   1   8
HETATM    8  S1  UNL     1     -12.740   2.676 -16.272  1.00  0.00    -0.086 SA
BRANCH   8   9
HETATM    9  C2  UNL     1     -11.773   2.860 -14.781  1.00  0.00    -0.014 C 
HETATM   10  C1  UNL     1     -10.366   2.348 -14.718  1.00  0.00     0.056 C 
HETATM   11  C3  UNL     1     -12.314   3.449 -13.745  1.00  0.00     0.098 C 
BRANCH  11  12
HETATM   12  C4  UNL     1     -11.665   3.676 -12.467  1.00  0.00     0.199 C 
HETATM   13  O1  UNL     1     -12.025   3.029 -11.425  1.00  0.00    -0.644 OA
HETATM   14  O2  UNL     1     -10.646   4.578 -12.301  1.00  0.00    -0.644 OA
ENDBRANCH  11  12
ENDBRANCH   8   9
ENDBRANCH   1   8
BRANCH   4  15
HETATM   15  N1  UNL     1     -15.680  -1.544 -14.798  1.00  0.00    -0.339 N 
HETATM   16  C12 UNL     1     -15.457  -1.870 -13.573  1.00  0.00     0.123 A 
HETATM   17  N2  UNL     1     -15.028  -0.928 -12.723  1.00  0.00    -0.350 N 
HETATM   18  C16 UNL     1     -15.647  -3.153 -13.113  1.00  0.00     0.057 A 
HETATM   19  C13 UNL     1     -14.773  -1.205 -11.413  1.00  0.00     0.113 A 
ATOM     20  H2  UNL     1     -14.888   0.022 -13.066  1.00  0.00     0.166 HD
HETATM   21  C14 UNL     1     -14.965  -2.499 -10.954  1.00  0.00     0.050 A 
HETATM   22 CL1  UNL     1     -14.622  -2.814  -9.247  1.00  0.00    -0.083 Cl
HETATM   23  C15 UNL     1     -15.405  -3.504 -11.790  1.00  0.00     0.048 A 
HETATM   24  S3  UNL     1     -16.223  -4.426 -14.248  1.00  0.00    -0.049 SA
ATOM     25  H1  UNL     1     -16.008  -2.245 -15.463  1.00  0.00     0.167 HD
ENDBRANCH   4  15
BRANCH   3  26
HETATM   26  C7  UNL     1     -17.967   0.351 -15.232  1.00  0.00     0.172 C 
HETATM   27  O3  UNL     1     -18.435  -0.753 -15.533  1.00  0.00    -0.291 OA
BRANCH  26  28
HETATM   28  C8  UNL     1     -18.794   1.441 -14.659  1.00  0.00     0.053 C 
HETATM   29  C9  UNL     1     -20.229   0.985 -14.440  1.00  0.00     0.018 C 
HETATM   30  C10 UNL     1     -18.181   2.049 -13.442  1.00  0.00     0.018 C 
ENDBRANCH  26  28
ENDBRANCH   3  26
TORSDOF 6
ENDMDL
MODEL 3
REMARK VINA RESULT: -6.516095435      1.226      1.522
REMARK  6 active torsions:
REMARK  status: ('A' for Active; 'I' for Inactive)
REMARK    1  A    between atoms: C2_2  and  S1_7 
REMARK    2  A    between atoms: C3_3  and  C4_4 
REMARK    3  A    between atoms: S1_7  and  C5_8 
REMARK    4  A    between atoms: C6_10  and  C7_11 
REMARK    5  A    between atoms: C7_11  and  C8_13 
REMARK    6  A    between atoms: C11_16  and  N1_17 
ROOT
HETATM    1  C5  UNL     1     -14.166  -2.359 -14.779  1.00  0.00     0.069 A 
HETATM    2  S2  UNL     1     -15.768  -1.882 -14.473  1.00  0.00    -0.075 SA
HETATM    3  C6  UNL     1     -15.547  -0.196 -14.414  1.00  0.00     0.080 A 
HETATM    4  C11 UNL     1     -14.205  -0.042 -14.638  1.00  0.00     0.077 A 
HETATM    5  C17 UNL     1     -13.485  -1.178 -14.829  1.00  0.00     0.096 A 
HETATM    6  C18 UNL     1     -12.032  -1.204 -15.083  1.00  0.00     0.103 C 
HETATM    7  N3  UNL     1     -10.884  -1.204 -15.285  1.00  0.00    -0.191 NA
ENDROOT
BRANCH   1   8
HETATM    8  S1  UNL     1     -13.556  -4.043 -14.982  1.00  0.00    -0.086 SA
BRANCH   8   9
HETATM    9  C2  UNL     1     -14.236  -5.028 -13.656  1.00  0.00    -0.014 C 
HETATM   10  C1  UNL     1     -14.693  -6.432 -13.908  1.00  0.00     0.056 C 
HETATM   11  C3  UNL     1     -14.327  -4.502 -12.461  1.00  0.00     0.098 C 
BRANCH  11  12
HETATM   12  C4  UNL     1     -14.852  -5.167 -11.283  1.00  0.00     0.199 C 
HETATM   13  O1  UNL     1     -16.095  -5.098 -10.991  1.00  0.00    -0.644 OA
HETATM   14  O2  UNL     1     -14.067  -5.897 -10.429  1.00  0.00    -0.644 OA
ENDBRANCH  11  12
ENDBRANCH   8   9
ENDBRANCH   1   8
BRANCH   4  15
HETATM   15  N1  UNL     1     -13.615   1.298 -14.663  1.00  0.00    -0.339 N 
HETATM   16  C12 UNL     1     -13.460   1.906 -15.787  1.00  0.00     0.123 A 
HETATM   17  N2  UNL     1     -13.848   1.292 -16.912  1.00  0.00    -0.350 N 
HETATM   18  C16 UNL     1     -12.911   3.165 -15.866  1.00  0.00     0.057 A 
HETATM   19  C13 UNL     1     -13.714   1.879 -18.135  1.00  0.00     0.113 A 
ATOM     20  H2  UNL     1     -14.255   0.358 -16.851  1.00  0.00     0.166 HD
HETATM   21  C14 UNL     1     -13.160   3.147 -18.209  1.00  0.00     0.050 A 
HETATM   22 CL1  UNL     1     -13.004   3.872 -19.816  1.00  0.00    -0.083 Cl
HETATM   23  C15 UNL     1     -12.745   3.822 -17.080  1.00  0.00     0.048 A 
HETATM   24  S3  UNL     1     -12.386   3.999 -14.359  1.00  0.00    -0.049 SA
ATOM     25  H1  UNL     1     -13.327   1.747 -13.793  1.00  0.00     0.167 HD
ENDBRANCH   4  15
BRANCH   3  26
HETATM   26  C7  UNL     1     -16.547   0.878 -14.178  1.00  0.00     0.172 C 
HETATM   27  O3  UNL     1     -16.646   1.454 -13.089  1.00  0.00    -0.291 OA
BRANCH  26  28
HETATM   28  C8  UNL     1     -17.411   1.209 -15.339  1.00  0.00     0.053 C 
HETATM   29  C9  UNL     1     -18.821   0.671 -15.145  1.00  0.00     0.018 C 
HETATM   30  C10 UNL     1     -17.380   2.661 -15.683  1.00  0.00     0.018 C 
ENDBRANCH  26  28
ENDBRANCH   3  26
TORSDOF 6
ENDMDL
MODEL 4
REMARK VINA RESULT: -6.466789297      4.166      7.917
REMARK  6 active torsions:
REMARK  status: ('A' for Active; 'I' for Inactive)
REMARK    1  A    between atoms: C2_2  and  S1_7 
REMARK    2  A    between atoms: C3_3  and  C4_4 
REMARK    3  A    between atoms: S1_7  and  C5_8 
REMARK    4  A    between atoms: C6_10  and  C7_11 
REMARK    5  A    between atoms: C7_11  and  C8_13 
REMARK    6  A    between atoms: C11_16  and  N1_17 
ROOT
HETATM    1  C5  UNL     1     -14.224  -0.779 -13.450  1.00  0.00     0.069 A 
HETATM    2  S2  UNL     1     -15.420  -1.905 -13.888  1.00  0.00    -0.075 SA
HETATM    3  C6  UNL     1     -14.540  -3.344 -13.661  1.00  0.00     0.080 A 
HETATM    4  C11 UNL     1     -13.313  -2.904 -13.241  1.00  0.00     0.077 A 
HETATM    5  C17 UNL     1     -13.152  -1.560 -13.132  1.00  0.00     0.096 A 
HETATM    6  C18 UNL     1     -11.902  -0.908 -12.696  1.00  0.00     0.103 C 
HETATM    7  N3  UNL     1     -10.907  -0.413 -12.347  1.00  0.00    -0.191 NA
ENDROOT
BRANCH   1   8
HETATM    8  S1  UNL     1     -14.383   1.016 -13.428  1.00  0.00    -0.086 SA
BRANCH   8   9
HETATM    9  C2  UNL     1     -15.946   1.431 -14.186  1.00  0.00    -0.014 C 
HETATM   10  C1  UNL     1     -16.049   1.606 -15.670  1.00  0.00     0.056 C 
HETATM   11  C3  UNL     1     -16.999   1.579 -13.424  1.00  0.00     0.098 C 
BRANCH  11  12
HETATM   12  C4  UNL     1     -18.335   1.913 -13.882  1.00  0.00     0.199 C 
HETATM   13  O1  UNL     1     -18.750   3.122 -13.866  1.00  0.00    -0.644 OA
HETATM   14  O2  UNL     1     -19.215   0.973 -14.354  1.00  0.00    -0.644 OA
ENDBRANCH  11  12
ENDBRANCH   8   9
ENDBRANCH   1   8
BRANCH   4  15
HETATM   15  N1  UNL     1     -12.254  -3.868 -12.935  1.00  0.00    -0.339 N 
HETATM   16  C12 UNL     1     -12.011  -4.182 -11.710  1.00  0.00     0.123 A 
HETATM   17  N2  UNL     1     -12.741  -3.613 -10.742  1.00  0.00    -0.350 N 
HETATM   18  C16 UNL     1     -11.028  -5.081 -11.368  1.00  0.00     0.057 A 
HETATM   19  C13 UNL     1     -12.537  -3.900  -9.425  1.00  0.00     0.113 A 
ATOM     20  H2  UNL     1     -13.469  -2.946 -10.997  1.00  0.00     0.166 HD
HETATM   21  C14 UNL     1     -11.544  -4.806  -9.085  1.00  0.00     0.050 A 
HETATM   22 CL1  UNL     1     -11.313  -5.150  -7.365  1.00  0.00    -0.083 Cl
HETATM   23  C15 UNL     1     -10.766  -5.419 -10.045  1.00  0.00     0.048 A 
HETATM   24  S3  UNL     1     -10.042  -5.851 -12.663  1.00  0.00    -0.049 SA
ATOM     25  H1  UNL     1     -11.712  -4.290 -13.689  1.00  0.00     0.167 HD
ENDBRANCH   4  15
BRANCH   3  26
HETATM   26  C7  UNL     1     -14.969  -4.753 -13.859  1.00  0.00     0.172 C 
HETATM   27  O3  UNL     1     -14.849  -5.327 -14.947  1.00  0.00    -0.291 OA
BRANCH  26  28
HETATM   28  C8  UNL     1     -15.547  -5.416 -12.664  1.00  0.00     0.053 C 
HETATM   29  C9  UNL     1     -14.598  -6.470 -12.108  1.00  0.00     0.018 C 
HETATM   30  C10 UNL     1     -16.009  -4.442 -11.633  1.00  0.00     0.018 C 
ENDBRANCH  26  28
ENDBRANCH   3  26
TORSDOF 6
ENDMDL
MODEL 5
REMARK VINA RESULT: -6.461279287      2.100      2.610
REMARK  6 active torsions:
REMARK  status: ('A' for Active; 'I' for Inactive)
REMARK    1  A    between atoms: C2_2  and  S1_7 
REMARK    2  A    between atoms: C3_3  and  C4_4 
REMARK    3  A    between atoms: S1_7  and  C5_8 
REMARK    4  A    between atoms: C6_10  and  C7_11 
REMARK    5  A    between atoms: C7_11  and  C8_13 
REMARK    6  A    between atoms: C11_16  and  N1_17 
ROOT
HETATM    1  C5  UNL     1     -14.422  -1.937 -14.437  1.00  0.00     0.069 A 
HETATM    2  S2  UNL     1     -15.972  -1.241 -14.399  1.00  0.00    -0.075 SA
HETATM    3  C6  UNL     1     -15.587   0.320 -14.954  1.00  0.00     0.080 A 
HETATM    4  C11 UNL     1     -14.233   0.261 -15.160  1.00  0.00     0.077 A 
HETATM    5  C17 UNL     1     -13.627  -0.923 -14.887  1.00  0.00     0.096 A 
HETATM    6  C18 UNL     1     -12.182  -1.170 -15.049  1.00  0.00     0.103 C 
HETATM    7  N3  UNL     1     -11.038  -1.346 -15.187  1.00  0.00    -0.191 NA
ENDROOT
BRANCH   1   8
HETATM    8  S1  UNL     1     -13.979  -3.623 -13.979  1.00  0.00    -0.086 SA
BRANCH   8   9
HETATM    9  C2  UNL     1     -14.578  -3.908 -12.320  1.00  0.00    -0.014 C 
HETATM   10  C1  UNL     1     -15.935  -4.499 -12.092  1.00  0.00     0.056 C 
HETATM   11  C3  UNL     1     -13.811  -3.591 -11.308  1.00  0.00     0.098 C 
BRANCH  11  12
HETATM   12  C4  UNL     1     -14.149  -3.759  -9.907  1.00  0.00     0.199 C 
HETATM   13  O1  UNL     1     -14.628  -2.788  -9.227  1.00  0.00    -0.644 OA
HETATM   14  O2  UNL     1     -13.981  -4.945  -9.239  1.00  0.00    -0.644 OA
ENDBRANCH  11  12
ENDBRANCH   8   9
ENDBRANCH   1   8
BRANCH   4  15
HETATM   15  N1  UNL     1     -13.514   1.439 -15.650  1.00  0.00    -0.339 N 
HETATM   16  C12 UNL     1     -12.883   2.192 -14.819  1.00  0.00     0.123 A 
HETATM   17  N2  UNL     1     -12.900   1.874 -13.518  1.00  0.00    -0.350 N 
HETATM   18  C16 UNL     1     -12.192   3.310 -15.227  1.00  0.00     0.057 A 
HETATM   19  C13 UNL     1     -12.252   2.627 -12.585  1.00  0.00     0.113 A 
ATOM     20  H2  UNL     1     -13.413   1.045 -13.218  1.00  0.00     0.166 HD
HETATM   21  C14 UNL     1     -11.558   3.753 -13.001  1.00  0.00     0.050 A 
HETATM   22 CL1  UNL     1     -10.731   4.702 -11.758  1.00  0.00    -0.083 Cl
HETATM   23  C15 UNL     1     -11.510   4.123 -14.329  1.00  0.00     0.048 A 
HETATM   24  S3  UNL     1     -12.163   3.745 -16.973  1.00  0.00    -0.049 SA
ATOM     25  H1  UNL     1     -13.514   1.661 -16.646  1.00  0.00     0.167 HD
ENDBRANCH   4  15
BRANCH   3  26
HETATM   26  C7  UNL     1     -16.477   1.489 -15.175  1.00  0.00     0.172 C 
HETATM   27  O3  UNL     1     -16.160   2.423 -15.920  1.00  0.00    -0.291 OA
BRANCH  26  28
HETATM   28  C8  UNL     1     -17.768   1.454 -14.443  1.00  0.00     0.053 C 
HETATM   29  C9  UNL     1     -18.099   2.815 -13.847  1.00  0.00     0.018 C 
HETATM   30  C10 UNL     1     -18.878   0.887 -15.263  1.00  0.00     0.018 C 
ENDBRANCH  26  28
ENDBRANCH   3  26
TORSDOF 6
ENDMDL
