MODEL 1
REMARK VINA RESULT: -7.930917466      0.000      0.000
REMARK  9 active torsions:
REMARK  status: ('A' for Active; 'I' for Inactive)
REMARK    1  A    between atoms: N1_1  and  C1_5 
REMARK    2  A    between atoms: C1_5  and  C2_6 
REMARK    3  A    between atoms: C2_6  and  C3_7 
REMARK    4  A    between atoms: C3_7  and  N2_8 
REMARK    5  A    between atoms: N2_8  and  C4_10 
REMARK    6  A    between atoms: C5_13  and  N4_14 
REMARK    7  A    between atoms: N6_26  and  C15_27 
REMARK    8  A    between atoms: C15_27  and  O1_28 
REMARK    9  A    between atoms: C15_27  and  N7_30 
ROOT
HETATM    1  C4  UNL     1      33.861 -21.556  57.570  1.00  0.00     0.125 A 
HETATM    2  N3  UNL     1      32.944 -20.631  57.291  1.00  0.00    -0.176 N 
ATOM      3  H3  UNL     1      32.828 -20.299  56.333  1.00  0.00     0.186 HD
HETATM    4  C5  UNL     1      32.158 -20.127  58.291  1.00  0.00     0.682 A 
HETATM    5  N5  UNL     1      32.290 -20.548  59.559  1.00  0.00    -0.193 N 
ATOM      6  H5  UNL     1      31.690 -20.156  60.286  1.00  0.00     0.184 HD
HETATM    7  C11 UNL     1      33.205 -21.481  59.881  1.00  0.00     0.054 A 
HETATM    8  C12 UNL     1      33.983 -21.974  58.869  1.00  0.00     0.013 A 
HETATM    9  C13 UNL     1      35.040 -23.008  59.181  1.00  0.00     0.064 C 
HETATM   10  C14 UNL     1      35.721 -22.556  60.465  1.00  0.00     0.131 C 
HETATM   11  N6  UNL     1      34.701 -22.452  61.521  1.00  0.00    -0.342 N 
HETATM   12  C20 UNL     1      33.377 -21.993  61.264  1.00  0.00     0.184 C 
ENDROOT
BRANCH   1  13
HETATM   13  N2  UNL     1      34.606 -22.042  56.667  1.00  0.00    -0.375 N 
ATOM     14  H2  UNL     1      34.576 -23.053  56.537  1.00  0.00     0.161 HD
BRANCH  13  15
HETATM   15  C3  UNL     1      35.484 -21.305  55.812  1.00  0.00     0.123 C 
BRANCH  15  16
HETATM   16  C2  UNL     1      35.079 -21.596  54.368  1.00  0.00     0.047 C 
BRANCH  16  17
HETATM   17  C1  UNL     1      34.804 -23.066  54.178  1.00  0.00     0.231 C 
BRANCH  17  18
HETATM   18  N1  UNL     1      34.462 -23.281  52.793  1.00  0.00    -0.079 N 
ATOM     19  H13 UNL     1      33.581 -23.781  52.677  1.00  0.00     0.274 HD
ATOM     20  H12 UNL     1      34.196 -22.420  52.314  1.00  0.00     0.274 HD
ATOM     21  H11 UNL     1      35.246 -23.755  52.345  1.00  0.00     0.274 HD
ENDBRANCH  17  18
ENDBRANCH  16  17
ENDBRANCH  15  16
ENDBRANCH  13  15
ENDBRANCH   1  13
BRANCH   4  22
HETATM   22  N4  UNL     1      31.171 -19.135  58.005  1.00  0.00    -0.218 N 
HETATM   23  C6  UNL     1      30.381 -18.609  59.070  1.00  0.00     0.141 C 
HETATM   24  C7  UNL     1      29.417 -17.537  58.704  1.00  0.00     0.020 C 
HETATM   25  C8  UNL     1      29.082 -17.431  57.256  1.00  0.00     0.003 C 
HETATM   26  C9  UNL     1      30.412 -17.348  56.505  1.00  0.00     0.020 C 
HETATM   27  C10 UNL     1      31.033 -18.716  56.613  1.00  0.00     0.141 C 
ENDBRANCH   4  22
BRANCH  11  28
HETATM   28  C15 UNL     1      35.138 -22.847  62.800  1.00  0.00     0.217 C 
BRANCH  28  29
HETATM   29  O1  UNL     1      34.564 -22.247  63.813  1.00  0.00    -0.332 OA
ATOM     30  H1  UNL     1      35.125 -22.058  64.556  1.00  0.00     0.220 HD
ENDBRANCH  28  29
BRANCH  28  31
HETATM   31  N7  UNL     1      36.113 -23.807  63.074  1.00  0.00    -0.347 N 
HETATM   32  C16 UNL     1      37.537 -23.740  63.128  1.00  0.00     0.126 C 
HETATM   33  C17 UNL     1      37.991 -25.055  63.814  1.00  0.00     0.021 C 
HETATM   34  C18 UNL     1      36.721 -25.445  64.531  1.00  0.00     0.021 C 
HETATM   35  C19 UNL     1      35.720 -25.219  63.387  1.00  0.00     0.126 C 
ENDBRANCH  28  31
ENDBRANCH  11  28
TORSDOF 9
ENDMDL
MODEL 2
REMARK VINA RESULT: -7.875500553      1.908      2.298
REMARK  9 active torsions:
REMARK  status: ('A' for Active; 'I' for Inactive)
REMARK    1  A    between atoms: N1_1  and  C1_5 
REMARK    2  A    between atoms: C1_5  and  C2_6 
REMARK    3  A    between atoms: C2_6  and  C3_7 
REMARK    4  A    between atoms: C3_7  and  N2_8 
REMARK    5  A    between atoms: N2_8  and  C4_10 
REMARK    6  A    between atoms: C5_13  and  N4_14 
REMARK    7  A    between atoms: N6_26  and  C15_27 
REMARK    8  A    between atoms: C15_27  and  O1_28 
REMARK    9  A    between atoms: C15_27  and  N7_30 
ROOT
HETATM    1  C4  UNL     1      34.079 -21.137  56.937  1.00  0.00     0.125 A 
HETATM    2  N3  UNL     1      33.167 -20.166  56.939  1.00  0.00    -0.176 N 
ATOM      3  H3  UNL     1      33.233 -19.400  56.270  1.00  0.00     0.186 HD
HETATM    4  C5  UNL     1      32.139 -20.200  57.842  1.00  0.00     0.682 A 
HETATM    5  N5  UNL     1      32.028 -21.198  58.733  1.00  0.00    -0.193 N 
ATOM      6  H5  UNL     1      31.251 -21.200  59.395  1.00  0.00     0.184 HD
HETATM    7  C11 UNL     1      32.929 -22.197  58.762  1.00  0.00     0.054 A 
HETATM    8  C12 UNL     1      33.951 -22.148  57.853  1.00  0.00     0.013 A 
HETATM    9  C13 UNL     1      35.003 -23.233  57.857  1.00  0.00     0.064 C 
HETATM   10  C14 UNL     1      35.343 -23.499  59.317  1.00  0.00     0.131 C 
HETATM   11  N6  UNL     1      34.112 -23.900  60.016  1.00  0.00    -0.342 N 
HETATM   12  C20 UNL     1      32.841 -23.332  59.715  1.00  0.00     0.184 C 
ENDROOT
BRANCH   1  13
HETATM   13  N2  UNL     1      35.044 -21.135  56.114  1.00  0.00    -0.375 N 
ATOM     14  H2  UNL     1      35.086 -21.907  55.450  1.00  0.00     0.161 HD
BRANCH  13  15
HETATM   15  C3  UNL     1      36.077 -20.150  56.031  1.00  0.00     0.123 C 
BRANCH  15  16
HETATM   16  C2  UNL     1      35.777 -19.262  54.824  1.00  0.00     0.047 C 
BRANCH  16  17
HETATM   17  C1  UNL     1      35.270 -17.913  55.270  1.00  0.00     0.231 C 
BRANCH  17  18
HETATM   18  N1  UNL     1      35.393 -17.001  54.159  1.00  0.00    -0.079 N 
ATOM     19  H13 UNL     1      36.276 -17.105  53.659  1.00  0.00     0.274 HD
ATOM     20  H12 UNL     1      34.769 -17.234  53.386  1.00  0.00     0.274 HD
ATOM     21  H11 UNL     1      35.249 -16.055  54.511  1.00  0.00     0.274 HD
ENDBRANCH  17  18
ENDBRANCH  16  17
ENDBRANCH  15  16
ENDBRANCH  13  15
ENDBRANCH   1  13
BRANCH   4  22
HETATM   22  N4  UNL     1      31.154 -19.166  57.856  1.00  0.00    -0.218 N 
HETATM   23  C6  UNL     1      30.458 -18.881  59.068  1.00  0.00     0.141 C 
HETATM   24  C7  UNL     1      29.491 -17.752  59.019  1.00  0.00     0.020 C 
HETATM   25  C8  UNL     1      29.050 -17.332  57.659  1.00  0.00     0.003 C 
HETATM   26  C9  UNL     1      30.321 -17.094  56.842  1.00  0.00     0.020 C 
HETATM   27  C10 UNL     1      30.920 -18.455  56.602  1.00  0.00     0.141 C 
ENDBRANCH   4  22
BRANCH  11  28
HETATM   28  C15 UNL     1      34.292 -24.891  61.001  1.00  0.00     0.217 C 
BRANCH  28  29
HETATM   29  O1  UNL     1      33.368 -25.818  61.058  1.00  0.00    -0.332 OA
ATOM     30  H1  UNL     1      33.323 -26.407  60.315  1.00  0.00     0.220 HD
ENDBRANCH  28  29
BRANCH  28  31
HETATM   31  N7  UNL     1      35.352 -24.966  61.904  1.00  0.00    -0.347 N 
HETATM   32  C16 UNL     1      36.391 -25.927  62.088  1.00  0.00     0.126 C 
HETATM   33  C17 UNL     1      37.426 -25.248  63.023  1.00  0.00     0.021 C 
HETATM   34  C18 UNL     1      37.080 -23.795  62.810  1.00  0.00     0.021 C 
HETATM   35  C19 UNL     1      35.551 -23.892  62.931  1.00  0.00     0.126 C 
ENDBRANCH  28  31
ENDBRANCH  11  28
TORSDOF 9
ENDMDL
MODEL 3
REMARK VINA RESULT: -7.853861121      1.171      1.406
REMARK  9 active torsions:
REMARK  status: ('A' for Active; 'I' for Inactive)
REMARK    1  A    between atoms: N1_1  and  C1_5 
REMARK    2  A    between atoms: C1_5  and  C2_6 
REMARK    3  A    between atoms: C2_6  and  C3_7 
REMARK    4  A    between atoms: C3_7  and  N2_8 
REMARK    5  A    between atoms: N2_8  and  C4_10 
REMARK    6  A    between atoms: C5_13  and  N4_14 
REMARK    7  A    between atoms: N6_26  and  C15_27 
REMARK    8  A    between atoms: C15_27  and  O1_28 
REMARK    9  A    between atoms: C15_27  and  N7_30 
ROOT
HETATM    1  C4  UNL     1      34.281 -21.708  57.201  1.00  0.00     0.125 A 
HETATM    2  N3  UNL     1      33.303 -20.805  57.147  1.00  0.00    -0.176 N 
ATOM      3  H3  UNL     1      32.951 -20.486  56.244  1.00  0.00     0.186 HD
HETATM    4  C5  UNL     1      32.772 -20.306  58.305  1.00  0.00     0.682 A 
HETATM    5  N5  UNL     1      33.217 -20.710  59.505  1.00  0.00    -0.193 N 
ATOM      6  H5  UNL     1      32.803 -20.323  60.354  1.00  0.00     0.184 HD
HETATM    7  C11 UNL     1      34.203 -21.621  59.602  1.00  0.00     0.054 A 
HETATM    8  C12 UNL     1      34.724 -22.109  58.434  1.00  0.00     0.013 A 
HETATM    9  C13 UNL     1      35.847 -23.118  58.486  1.00  0.00     0.064 C 
HETATM   10  C14 UNL     1      36.809 -22.638  59.564  1.00  0.00     0.131 C 
HETATM   11  N6  UNL     1      36.073 -22.543  60.835  1.00  0.00    -0.342 N 
HETATM   12  C20 UNL     1      34.717 -22.113  60.904  1.00  0.00     0.184 C 
ENDROOT
BRANCH   1  13
HETATM   13  N2  UNL     1      34.795 -22.189  56.146  1.00  0.00    -0.375 N 
ATOM     14  H2  UNL     1      35.121 -23.154  56.190  1.00  0.00     0.161 HD
BRANCH  13  15
HETATM   15  C3  UNL     1      34.958 -21.505  54.901  1.00  0.00     0.123 C 
BRANCH  15  16
HETATM   16  C2  UNL     1      34.651 -22.498  53.781  1.00  0.00     0.047 C 
BRANCH  16  17
HETATM   17  C1  UNL     1      34.798 -23.916  54.273  1.00  0.00     0.231 C 
BRANCH  17  18
HETATM   18  N1  UNL     1      34.592 -24.800  53.151  1.00  0.00    -0.079 N 
ATOM     19  H13 UNL     1      34.151 -24.335  52.358  1.00  0.00     0.274 HD
ATOM     20  H12 UNL     1      35.464 -25.061  52.690  1.00  0.00     0.274 HD
ATOM     21  H11 UNL     1      34.062 -25.607  53.480  1.00  0.00     0.274 HD
ENDBRANCH  17  18
ENDBRANCH  16  17
ENDBRANCH  15  16
ENDBRANCH  13  15
ENDBRANCH   1  13
BRANCH   4  22
HETATM   22  N4  UNL     1      31.723 -19.337  58.261  1.00  0.00    -0.218 N 
HETATM   23  C6  UNL     1      30.971 -19.068  59.444  1.00  0.00     0.141 C 
HETATM   24  C7  UNL     1      29.937 -18.006  59.336  1.00  0.00     0.020 C 
HETATM   25  C8  UNL     1      29.514 -17.648  57.952  1.00  0.00     0.003 C 
HETATM   26  C9  UNL     1      30.793 -17.348  57.169  1.00  0.00     0.020 C 
HETATM   27  C10 UNL     1      31.484 -18.673  56.983  1.00  0.00     0.141 C 
ENDBRANCH   4  22
BRANCH  11  28
HETATM   28  C15 UNL     1      36.816 -22.915  61.972  1.00  0.00     0.217 C 
BRANCH  28  29
HETATM   29  O1  UNL     1      37.754 -22.080  62.344  1.00  0.00    -0.332 OA
ATOM     30  H1  UNL     1      38.371 -22.407  62.987  1.00  0.00     0.220 HD
ENDBRANCH  28  29
BRANCH  28  31
HETATM   31  N7  UNL     1      36.640 -24.079  62.721  1.00  0.00    -0.347 N 
HETATM   32  C16 UNL     1      35.510 -24.922  62.933  1.00  0.00     0.126 C 
HETATM   33  C17 UNL     1      36.070 -26.216  63.580  1.00  0.00     0.021 C 
HETATM   34  C18 UNL     1      37.516 -26.133  63.157  1.00  0.00     0.021 C 
HETATM   35  C19 UNL     1      37.783 -24.659  63.500  1.00  0.00     0.126 C 
ENDBRANCH  28  31
ENDBRANCH  11  28
TORSDOF 9
ENDMDL
MODEL 4
REMARK VINA RESULT: -7.839972891      0.908      1.429
REMARK  9 active torsions:
REMARK  status: ('A' for Active; 'I' for Inactive)
REMARK    1  A    between atoms: N1_1  and  C1_5 
REMARK    2  A    between atoms: C1_5  and  C2_6 
REMARK    3  A    between atoms: C2_6  and  C3_7 
REMARK    4  A    between atoms: C3_7  and  N2_8 
REMARK    5  A    between atoms: N2_8  and  C4_10 
REMARK    6  A    between atoms: C5_13  and  N4_14 
REMARK    7  A    between atoms: N6_26  and  C15_27 
REMARK    8  A    between atoms: C15_27  and  O1_28 
REMARK    9  A    between atoms: C15_27  and  N7_30 
ROOT
HETATM    1  C4  UNL     1      33.780 -21.682  57.644  1.00  0.00     0.125 A 
HETATM    2  N3  UNL     1      32.890 -20.731  57.364  1.00  0.00    -0.176 N 
ATOM      3  H3  UNL     1      32.758 -20.421  56.401  1.00  0.00     0.186 HD
HETATM    4  C5  UNL     1      32.152 -20.171  58.371  1.00  0.00     0.682 A 
HETATM    5  N5  UNL     1      32.305 -20.563  59.646  1.00  0.00    -0.193 N 
ATOM      6  H5  UNL     1      31.741 -20.129  60.378  1.00  0.00     0.184 HD
HETATM    7  C11 UNL     1      33.194 -21.521  59.969  1.00  0.00     0.054 A 
HETATM    8  C12 UNL     1      33.924 -22.069  58.950  1.00  0.00     0.013 A 
HETATM    9  C13 UNL     1      34.951 -23.133  59.261  1.00  0.00     0.064 C 
HETATM   10  C14 UNL     1      35.684 -22.673  60.513  1.00  0.00     0.131 C 
HETATM   11  N6  UNL     1      34.700 -22.502  61.593  1.00  0.00    -0.342 N 
HETATM   12  C20 UNL     1      33.387 -22.000  61.360  1.00  0.00     0.184 C 
ENDROOT
BRANCH   1  13
HETATM   13  N2  UNL     1      34.480 -22.220  56.734  1.00  0.00    -0.375 N 
ATOM     14  H2  UNL     1      34.676 -23.216  56.830  1.00  0.00     0.161 HD
BRANCH  13  15
HETATM   15  C3  UNL     1      35.020 -21.561  55.586  1.00  0.00     0.123 C 
BRANCH  15  16
HETATM   16  C2  UNL     1      35.996 -20.494  56.079  1.00  0.00     0.047 C 
BRANCH  16  17
HETATM   17  C1  UNL     1      35.891 -19.248  55.235  1.00  0.00     0.231 C 
BRANCH  17  18
HETATM   18  N1  UNL     1      35.015 -18.323  55.912  1.00  0.00    -0.079 N 
ATOM     19  H13 UNL     1      34.256 -17.991  55.318  1.00  0.00     0.274 HD
ATOM     20  H12 UNL     1      34.442 -18.773  56.627  1.00  0.00     0.274 HD
ATOM     21  H11 UNL     1      35.586 -17.564  56.285  1.00  0.00     0.274 HD
ENDBRANCH  17  18
ENDBRANCH  16  17
ENDBRANCH  15  16
ENDBRANCH  13  15
ENDBRANCH   1  13
BRANCH   4  22
HETATM   22  N4  UNL     1      31.194 -19.151  58.085  1.00  0.00    -0.218 N 
HETATM   23  C6  UNL     1      30.376 -18.646  59.139  1.00  0.00     0.141 C 
HETATM   24  C7  UNL     1      29.446 -17.544  58.777  1.00  0.00     0.020 C 
HETATM   25  C8  UNL     1      29.165 -17.382  57.322  1.00  0.00     0.003 C 
HETATM   26  C9  UNL     1      30.522 -17.300  56.622  1.00  0.00     0.020 C 
HETATM   27  C10 UNL     1      31.114 -18.683  56.704  1.00  0.00     0.141 C 
ENDBRANCH   4  22
BRANCH  11  28
HETATM   28  C15 UNL     1      35.159 -22.878  62.871  1.00  0.00     0.217 C 
BRANCH  28  29
HETATM   29  O1  UNL     1      34.600 -22.266  63.885  1.00  0.00    -0.332 OA
ATOM     30  H1  UNL     1      34.186 -21.434  63.691  1.00  0.00     0.220 HD
ENDBRANCH  28  29
BRANCH  28  31
HETATM   31  N7  UNL     1      36.141 -23.832  63.141  1.00  0.00    -0.347 N 
HETATM   32  C16 UNL     1      37.566 -23.765  63.154  1.00  0.00     0.126 C 
HETATM   33  C17 UNL     1      38.038 -25.063  63.860  1.00  0.00     0.021 C 
HETATM   34  C18 UNL     1      36.789 -25.433  64.621  1.00  0.00     0.021 C 
HETATM   35  C19 UNL     1      35.756 -25.235  63.500  1.00  0.00     0.126 C 
ENDBRANCH  28  31
ENDBRANCH  11  28
TORSDOF 9
ENDMDL
MODEL 5
REMARK VINA RESULT: -7.819095430      1.452      1.729
REMARK  9 active torsions:
REMARK  status: ('A' for Active; 'I' for Inactive)
REMARK    1  A    between atoms: N1_1  and  C1_5 
REMARK    2  A    between atoms: C1_5  and  C2_6 
REMARK    3  A    between atoms: C2_6  and  C3_7 
REMARK    4  A    between atoms: C3_7  and  N2_8 
REMARK    5  A    between atoms: N2_8  and  C4_10 
REMARK    6  A    between atoms: C5_13  and  N4_14 
REMARK    7  A    between atoms: N6_26  and  C15_27 
REMARK    8  A    between atoms: C15_27  and  O1_28 
REMARK    9  A    between atoms: C15_27  and  N7_30 
ROOT
HETATM    1  C4  UNL     1      34.117 -21.285  57.180  1.00  0.00     0.125 A 
HETATM    2  N3  UNL     1      33.218 -20.312  57.039  1.00  0.00    -0.176 N 
ATOM      3  H3  UNL     1      33.307 -19.641  56.277  1.00  0.00     0.186 HD
HETATM    4  C5  UNL     1      32.175 -20.216  57.919  1.00  0.00     0.682 A 
HETATM    5  N5  UNL     1      32.035 -21.089  58.930  1.00  0.00    -0.193 N 
ATOM      6  H5  UNL     1      31.248 -20.995  59.572  1.00  0.00     0.184 HD
HETATM    7  C11 UNL     1      32.923 -22.086  59.106  1.00  0.00     0.054 A 
HETATM    8  C12 UNL     1      33.960 -22.166  58.217  1.00  0.00     0.013 A 
HETATM    9  C13 UNL     1      34.996 -23.254  58.382  1.00  0.00     0.064 C 
HETATM   10  C14 UNL     1      35.309 -23.331  59.869  1.00  0.00     0.131 C 
HETATM   11  N6  UNL     1      34.060 -23.624  60.592  1.00  0.00    -0.342 N 
HETATM   12  C20 UNL     1      32.803 -23.085  60.196  1.00  0.00     0.184 C 
ENDROOT
BRANCH   1  13
HETATM   13  N2  UNL     1      35.096 -21.401  56.381  1.00  0.00    -0.375 N 
ATOM     14  H2  UNL     1      36.029 -21.400  56.791  1.00  0.00     0.161 HD
BRANCH  13  15
HETATM   15  C3  UNL     1      35.011 -21.532  54.960  1.00  0.00     0.123 C 
BRANCH  15  16
HETATM   16  C2  UNL     1      35.107 -23.020  54.624  1.00  0.00     0.047 C 
BRANCH  16  17
HETATM   17  C1  UNL     1      34.488 -23.302  53.279  1.00  0.00     0.231 C 
BRANCH  17  18
HETATM   18  N1  UNL     1      34.526 -24.728  53.061  1.00  0.00    -0.079 N 
ATOM     19  H13 UNL     1      35.335 -25.172  53.493  1.00  0.00     0.274 HD
ATOM     20  H12 UNL     1      33.802 -25.226  53.581  1.00  0.00     0.274 HD
ATOM     21  H11 UNL     1      34.475 -24.894  52.056  1.00  0.00     0.274 HD
ENDBRANCH  17  18
ENDBRANCH  16  17
ENDBRANCH  15  16
ENDBRANCH  13  15
ENDBRANCH   1  13
BRANCH   4  22
HETATM   22  N4  UNL     1      31.204 -19.179  57.780  1.00  0.00    -0.218 N 
HETATM   23  C6  UNL     1      30.449 -18.770  58.920  1.00  0.00     0.141 C 
HETATM   24  C7  UNL     1      29.501 -17.645  58.711  1.00  0.00     0.020 C 
HETATM   25  C8  UNL     1      29.137 -17.356  57.294  1.00  0.00     0.003 C 
HETATM   26  C9  UNL     1      30.451 -17.209  56.527  1.00  0.00     0.020 C 
HETATM   27  C10 UNL     1      31.044 -18.591  56.453  1.00  0.00     0.141 C 
ENDBRANCH   4  22
BRANCH  11  28
HETATM   28  C15 UNL     1      34.210 -24.480  61.700  1.00  0.00     0.217 C 
BRANCH  28  29
HETATM   29  O1  UNL     1      33.639 -24.087  62.811  1.00  0.00    -0.332 OA
ATOM     30  H1  UNL     1      34.059 -24.364  63.616  1.00  0.00     0.220 HD
ENDBRANCH  28  29
BRANCH  28  31
HETATM   31  N7  UNL     1      34.906 -25.690  61.713  1.00  0.00    -0.347 N 
HETATM   32  C16 UNL     1      34.803 -26.864  60.911  1.00  0.00     0.126 C 
HETATM   33  C17 UNL     1      36.079 -27.692  61.217  1.00  0.00     0.021 C 
HETATM   34  C18 UNL     1      36.984 -26.613  61.758  1.00  0.00     0.021 C 
HETATM   35  C19 UNL     1      35.996 -25.926  62.714  1.00  0.00     0.126 C 
ENDBRANCH  28  31
ENDBRANCH  11  28
TORSDOF 9
ENDMDL
