MODEL 1
REMARK VINA RESULT: -8.751494872      0.000      0.000
REMARK  8 active torsions:
REMARK  status: ('A' for Active; 'I' for Inactive)
REMARK       I    between atoms: N1_2  and  C3_4 
REMARK    1  A    between atoms: C3_4  and  O2_6 
REMARK    2  A    between atoms: O2_6  and  C4_7 
REMARK       I    between atoms: C4_7  and  N2_9 
REMARK    3  A    between atoms: N3_12  and  C7_13 
REMARK    4  A    between atoms: C7_13  and  C8_14 
REMARK       I    between atoms: C8_14  and  N4_16 
REMARK    5  A    between atoms: N4_16  and  C9_18 
REMARK    6  A    between atoms: C9_18  and  C10_19 
REMARK    7  A    between atoms: C10_19  and  C11_20 
REMARK    8  A    between atoms: C11_20  and  O5_21 
ROOT
HETATM    1  C7  UNL     1      32.067 -19.285  58.619  1.00  0.00     0.239 C 
HETATM    2  C12 UNL     1      32.581 -18.015  59.249  1.00  0.00     0.052 C 
HETATM    3  C13 UNL     1      31.743 -16.812  58.825  1.00  0.00     0.003 C 
HETATM    4  C14 UNL     1      30.410 -16.928  59.498  1.00  0.00     0.000 C 
HETATM    5  C15 UNL     1      29.828 -18.283  59.168  1.00  0.00     0.003 C 
HETATM    6  C16 UNL     1      30.659 -19.047  58.180  1.00  0.00     0.052 C 
ENDROOT
BRANCH   1   7
HETATM    7  N3  UNL     1      32.291 -20.425  59.407  1.00  0.00     0.110 N 
HETATM    8  C6  UNL     1      32.825 -21.606  58.811  1.00  0.00     0.294 C 
HETATM    9  C5  UNL     1      32.276 -22.758  59.671  1.00  0.00     0.158 C 
HETATM   10  N2  UNL     1      32.922 -22.600  60.956  1.00  0.00    -0.324 N 
HETATM   11  C4  UNL     1      33.462 -23.740  61.592  1.00  0.00     0.371 C 
HETATM   12  C18 UNL     1      33.018 -21.320  61.566  1.00  0.00     0.158 C 
HETATM   13  O3  UNL     1      33.398 -24.899  61.063  1.00  0.00    -0.238 OA
HETATM   14  C17 UNL     1      33.050 -20.171  60.620  1.00  0.00     0.294 C 
BRANCH  11  15
HETATM   15  O2  UNL     1      34.100 -23.701  62.828  1.00  0.00    -0.209 OA
BRANCH  15  16
HETATM   16  C3  UNL     1      35.482 -23.618  62.970  1.00  0.00     0.370 C 
HETATM   17  N1  UNL     1      36.317 -24.700  63.291  1.00  0.00    -0.336 N 
HETATM   18  C1  UNL     1      35.746 -26.003  63.490  1.00  0.00     0.154 C 
HETATM   19  C2  UNL     1      37.732 -24.506  63.422  1.00  0.00     0.154 C 
HETATM   20  O1  UNL     1      35.991 -22.481  62.792  1.00  0.00    -0.238 OA
ENDBRANCH  15  16
ENDBRANCH  11  15
ENDBRANCH   1   7
BRANCH   1  21
HETATM   21  C8  UNL     1      32.886 -19.426  57.347  1.00  0.00     0.257 C 
HETATM   22  O4  UNL     1      32.221 -19.697  56.340  1.00  0.00    -0.271 OA
HETATM   23  N4  UNL     1      34.270 -19.259  57.323  1.00  0.00    -0.359 N 
ATOM     24  H4  UNL     1      34.671 -19.021  58.230  1.00  0.00     0.162 HD
BRANCH  23  25
HETATM   25  C9  UNL     1      35.228 -19.355  56.285  1.00  0.00     0.125 C 
BRANCH  25  26
HETATM   26  C10 UNL     1      35.428 -18.274  55.318  1.00  0.00     0.046 C 
BRANCH  26  27
HETATM   27  C11 UNL     1      34.592 -17.065  55.327  1.00  0.00     0.165 C 
BRANCH  27  28
HETATM   28  O5  UNL     1      35.261 -15.907  54.881  1.00  0.00    -0.401 OA
ATOM     29  H5  UNL     1      34.904 -15.543  54.079  1.00  0.00     0.209 HD
ENDBRANCH  27  28
ENDBRANCH  26  27
ENDBRANCH  25  26
ENDBRANCH  23  25
ENDBRANCH   1  21
TORSDOF 8
ENDMDL
MODEL 2
REMARK VINA RESULT: -8.687290796      2.448      3.635
REMARK  8 active torsions:
REMARK  status: ('A' for Active; 'I' for Inactive)
REMARK       I    between atoms: N1_2  and  C3_4 
REMARK    1  A    between atoms: C3_4  and  O2_6 
REMARK    2  A    between atoms: O2_6  and  C4_7 
REMARK       I    between atoms: C4_7  and  N2_9 
REMARK    3  A    between atoms: N3_12  and  C7_13 
REMARK    4  A    between atoms: C7_13  and  C8_14 
REMARK       I    between atoms: C8_14  and  N4_16 
REMARK    5  A    between atoms: N4_16  and  C9_18 
REMARK    6  A    between atoms: C9_18  and  C10_19 
REMARK    7  A    between atoms: C10_19  and  C11_20 
REMARK    8  A    between atoms: C11_20  and  O5_21 
ROOT
HETATM    1  C7  UNL     1      31.950 -18.668  58.228  1.00  0.00     0.239 C 
HETATM    2  C12 UNL     1      32.333 -18.963  56.800  1.00  0.00     0.052 C 
HETATM    3  C13 UNL     1      32.870 -17.715  56.105  1.00  0.00     0.003 C 
HETATM    4  C14 UNL     1      34.216 -17.415  56.689  1.00  0.00     0.000 C 
HETATM    5  C15 UNL     1      34.072 -17.319  58.190  1.00  0.00     0.003 C 
HETATM    6  C16 UNL     1      32.645 -17.412  58.643  1.00  0.00     0.052 C 
ENDROOT
BRANCH   1   7
HETATM    7  N3  UNL     1      32.097 -19.773  59.081  1.00  0.00     0.110 N 
HETATM    8  C6  UNL     1      32.506 -21.031  58.549  1.00  0.00     0.294 C 
HETATM    9  C5  UNL     1      31.885 -22.074  59.493  1.00  0.00     0.158 C 
HETATM   10  N2  UNL     1      32.581 -21.897  60.749  1.00  0.00    -0.324 N 
HETATM   11  C4  UNL     1      33.037 -23.040  61.442  1.00  0.00     0.371 C 
HETATM   12  C18 UNL     1      32.808 -20.596  61.274  1.00  0.00     0.158 C 
HETATM   13  O3  UNL     1      32.856 -24.219  60.989  1.00  0.00    -0.238 OA
HETATM   14  C17 UNL     1      32.912 -19.515  60.256  1.00  0.00     0.294 C 
BRANCH  11  15
HETATM   15  O2  UNL     1      33.714 -22.984  62.657  1.00  0.00    -0.209 OA
BRANCH  15  16
HETATM   16  C3  UNL     1      35.101 -22.931  62.755  1.00  0.00     0.370 C 
HETATM   17  N1  UNL     1      35.931 -24.049  62.936  1.00  0.00    -0.336 N 
HETATM   18  C1  UNL     1      35.348 -25.359  63.024  1.00  0.00     0.154 C 
HETATM   19  C2  UNL     1      37.352 -23.886  63.032  1.00  0.00     0.154 C 
HETATM   20  O1  UNL     1      35.620 -21.787  62.673  1.00  0.00    -0.238 OA
ENDBRANCH  15  16
ENDBRANCH  11  15
ENDBRANCH   1   7
BRANCH   1  21
HETATM   21  C8  UNL     1      30.472 -18.326  58.153  1.00  0.00     0.257 C 
HETATM   22  O4  UNL     1      29.837 -18.581  59.183  1.00  0.00    -0.271 OA
HETATM   23  N4  UNL     1      29.886 -17.771  57.016  1.00  0.00    -0.359 N 
ATOM     24  H4  UNL     1      30.545 -17.604  56.255  1.00  0.00     0.162 HD
BRANCH  23  25
HETATM   25  C9  UNL     1      28.557 -17.392  56.711  1.00  0.00     0.125 C 
BRANCH  25  26
HETATM   26  C10 UNL     1      28.253 -16.432  55.648  1.00  0.00     0.046 C 
BRANCH  26  27
HETATM   27  C11 UNL     1      27.723 -15.093  55.945  1.00  0.00     0.165 C 
BRANCH  27  28
HETATM   28  O5  UNL     1      26.321 -15.054  56.082  1.00  0.00    -0.401 OA
ATOM     29  H5  UNL     1      25.889 -14.501  55.441  1.00  0.00     0.209 HD
ENDBRANCH  27  28
ENDBRANCH  26  27
ENDBRANCH  25  26
ENDBRANCH  23  25
ENDBRANCH   1  21
TORSDOF 8
ENDMDL
MODEL 3
REMARK VINA RESULT: -8.597712615      2.392      3.343
REMARK  8 active torsions:
REMARK  status: ('A' for Active; 'I' for Inactive)
REMARK       I    between atoms: N1_2  and  C3_4 
REMARK    1  A    between atoms: C3_4  and  O2_6 
REMARK    2  A    between atoms: O2_6  and  C4_7 
REMARK       I    between atoms: C4_7  and  N2_9 
REMARK    3  A    between atoms: N3_12  and  C7_13 
REMARK    4  A    between atoms: C7_13  and  C8_14 
REMARK       I    between atoms: C8_14  and  N4_16 
REMARK    5  A    between atoms: N4_16  and  C9_18 
REMARK    6  A    between atoms: C9_18  and  C10_19 
REMARK    7  A    between atoms: C10_19  and  C11_20 
REMARK    8  A    between atoms: C11_20  and  O5_21 
ROOT
HETATM    1  C7  UNL     1      31.144 -18.515  57.232  1.00  0.00     0.239 C 
HETATM    2  C12 UNL     1      29.794 -18.257  57.854  1.00  0.00     0.052 C 
HETATM    3  C13 UNL     1      28.919 -17.408  56.935  1.00  0.00     0.003 C 
HETATM    4  C14 UNL     1      28.522 -18.262  55.770  1.00  0.00     0.000 C 
HETATM    5  C15 UNL     1      29.777 -18.825  55.145  1.00  0.00     0.003 C 
HETATM    6  C16 UNL     1      31.029 -18.276  55.762  1.00  0.00     0.052 C 
ENDROOT
BRANCH   1   7
HETATM    7  N3  UNL     1      31.709 -19.738  57.624  1.00  0.00     0.110 N 
HETATM    8  C6  UNL     1      33.126 -19.866  57.723  1.00  0.00     0.294 C 
HETATM    9  C5  UNL     1      33.404 -21.353  57.444  1.00  0.00     0.158 C 
HETATM   10  N2  UNL     1      32.834 -22.054  58.574  1.00  0.00    -0.324 N 
HETATM   11  C4  UNL     1      33.584 -23.080  59.189  1.00  0.00     0.371 C 
HETATM   12  C18 UNL     1      31.543 -21.713  59.062  1.00  0.00     0.158 C 
HETATM   13  O3  UNL     1      34.748 -23.401  58.778  1.00  0.00    -0.238 OA
HETATM   14  C17 UNL     1      31.138 -20.297  58.838  1.00  0.00     0.294 C 
BRANCH  11  15
HETATM   15  O2  UNL     1      33.130 -23.819  60.278  1.00  0.00    -0.209 OA
BRANCH  15  16
HETATM   16  C3  UNL     1      33.821 -23.905  61.482  1.00  0.00     0.370 C 
HETATM   17  N1  UNL     1      34.662 -24.969  61.845  1.00  0.00    -0.336 N 
HETATM   18  C1  UNL     1      34.854 -26.064  60.935  1.00  0.00     0.154 C 
HETATM   19  C2  UNL     1      35.324 -24.965  63.116  1.00  0.00     0.154 C 
HETATM   20  O1  UNL     1      33.662 -22.946  62.282  1.00  0.00    -0.238 OA
ENDBRANCH  15  16
ENDBRANCH  11  15
ENDBRANCH   1   7
BRANCH   1  21
HETATM   21  C8  UNL     1      32.020 -17.398  57.774  1.00  0.00     0.257 C 
HETATM   22  O4  UNL     1      32.557 -16.704  56.902  1.00  0.00    -0.271 OA
HETATM   23  N4  UNL     1      32.197 -17.177  59.139  1.00  0.00    -0.359 N 
ATOM     24  H4  UNL     1      31.673 -17.823  59.731  1.00  0.00     0.162 HD
BRANCH  23  25
HETATM   25  C9  UNL     1      32.960 -16.232  59.865  1.00  0.00     0.125 C 
BRANCH  25  26
HETATM   26  C10 UNL     1      34.337 -16.508  60.280  1.00  0.00     0.046 C 
BRANCH  26  27
HETATM   27  C11 UNL     1      35.229 -15.442  60.759  1.00  0.00     0.165 C 
BRANCH  27  28
HETATM   28  O5  UNL     1      36.455 -15.373  60.069  1.00  0.00    -0.401 OA
ATOM     29  H5  UNL     1      36.365 -15.415  59.124  1.00  0.00     0.209 HD
ENDBRANCH  27  28
ENDBRANCH  26  27
ENDBRANCH  25  26
ENDBRANCH  23  25
ENDBRANCH   1  21
TORSDOF 8
ENDMDL
MODEL 4
REMARK VINA RESULT: -8.578596115      2.225      3.161
REMARK  8 active torsions:
REMARK  status: ('A' for Active; 'I' for Inactive)
REMARK       I    between atoms: N1_2  and  C3_4 
REMARK    1  A    between atoms: C3_4  and  O2_6 
REMARK    2  A    between atoms: O2_6  and  C4_7 
REMARK       I    between atoms: C4_7  and  N2_9 
REMARK    3  A    between atoms: N3_12  and  C7_13 
REMARK    4  A    between atoms: C7_13  and  C8_14 
REMARK       I    between atoms: C8_14  and  N4_16 
REMARK    5  A    between atoms: N4_16  and  C9_18 
REMARK    6  A    between atoms: C9_18  and  C10_19 
REMARK    7  A    between atoms: C10_19  and  C11_20 
REMARK    8  A    between atoms: C11_20  and  O5_21 
ROOT
HETATM    1  C7  UNL     1      32.165 -18.846  58.478  1.00  0.00     0.239 C 
HETATM    2  C12 UNL     1      33.223 -18.235  57.595  1.00  0.00     0.052 C 
HETATM    3  C13 UNL     1      33.366 -16.739  57.861  1.00  0.00     0.003 C 
HETATM    4  C14 UNL     1      34.008 -16.577  59.205  1.00  0.00     0.000 C 
HETATM    5  C15 UNL     1      33.193 -17.349  60.216  1.00  0.00     0.003 C 
HETATM    6  C16 UNL     1      31.937 -17.925  59.632  1.00  0.00     0.052 C 
ENDROOT
BRANCH   1   7
HETATM    7  N3  UNL     1      32.414 -20.191  58.792  1.00  0.00     0.110 N 
HETATM    8  C6  UNL     1      33.650 -20.792  58.411  1.00  0.00     0.294 C 
HETATM    9  C5  UNL     1      33.319 -22.284  58.231  1.00  0.00     0.158 C 
HETATM   10  N2  UNL     1      33.009 -22.757  59.562  1.00  0.00    -0.324 N 
HETATM   11  C4  UNL     1      33.564 -23.981  59.998  1.00  0.00     0.371 C 
HETATM   12  C18 UNL     1      32.165 -22.002  60.421  1.00  0.00     0.158 C 
HETATM   13  O3  UNL     1      34.331 -24.674  59.251  1.00  0.00    -0.238 OA
HETATM   14  C17 UNL     1      32.179 -20.531  60.185  1.00  0.00     0.294 C 
BRANCH  11  15
HETATM   15  O2  UNL     1      33.328 -24.528  61.255  1.00  0.00    -0.209 OA
BRANCH  15  16
HETATM   16  C3  UNL     1      34.181 -24.345  62.338  1.00  0.00     0.370 C 
HETATM   17  N1  UNL     1      35.239 -25.204  62.676  1.00  0.00    -0.336 N 
HETATM   18  C1  UNL     1      35.496 -26.364  61.868  1.00  0.00     0.154 C 
HETATM   19  C2  UNL     1      36.057 -24.928  63.820  1.00  0.00     0.154 C 
HETATM   20  O1  UNL     1      33.966 -23.327  63.048  1.00  0.00    -0.238 OA
ENDBRANCH  15  16
ENDBRANCH  11  15
ENDBRANCH   1   7
BRANCH   1  21
HETATM   21  C8  UNL     1      30.901 -18.787  57.636  1.00  0.00     0.257 C 
HETATM   22  O4  UNL     1      29.853 -18.755  58.293  1.00  0.00    -0.271 OA
HETATM   23  N4  UNL     1      30.927 -18.768  56.242  1.00  0.00    -0.359 N 
ATOM     24  H4  UNL     1      31.869 -18.782  55.849  1.00  0.00     0.162 HD
BRANCH  23  25
HETATM   25  C9  UNL     1      29.903 -18.733  55.266  1.00  0.00     0.125 C 
BRANCH  25  26
HETATM   26  C10 UNL     1      28.714 -17.895  55.426  1.00  0.00     0.046 C 
BRANCH  26  27
HETATM   27  C11 UNL     1      28.811 -16.436  55.581  1.00  0.00     0.165 C 
BRANCH  27  28
HETATM   28  O5  UNL     1      27.628 -15.748  55.243  1.00  0.00    -0.401 OA
ATOM     29  H5  UNL     1      27.647 -15.356  54.378  1.00  0.00     0.209 HD
ENDBRANCH  27  28
ENDBRANCH  26  27
ENDBRANCH  25  26
ENDBRANCH  23  25
ENDBRANCH   1  21
TORSDOF 8
ENDMDL
MODEL 5
REMARK VINA RESULT: -8.532986377      2.334      3.397
REMARK  8 active torsions:
REMARK  status: ('A' for Active; 'I' for Inactive)
REMARK       I    between atoms: N1_2  and  C3_4 
REMARK    1  A    between atoms: C3_4  and  O2_6 
REMARK    2  A    between atoms: O2_6  and  C4_7 
REMARK       I    between atoms: C4_7  and  N2_9 
REMARK    3  A    between atoms: N3_12  and  C7_13 
REMARK    4  A    between atoms: C7_13  and  C8_14 
REMARK       I    between atoms: C8_14  and  N4_16 
REMARK    5  A    between atoms: N4_16  and  C9_18 
REMARK    6  A    between atoms: C9_18  and  C10_19 
REMARK    7  A    between atoms: C10_19  and  C11_20 
REMARK    8  A    between atoms: C11_20  and  O5_21 
ROOT
HETATM    1  C7  UNL     1      31.159 -18.526  57.236  1.00  0.00     0.239 C 
HETATM    2  C12 UNL     1      29.804 -18.229  57.830  1.00  0.00     0.052 C 
HETATM    3  C13 UNL     1      28.946 -17.416  56.865  1.00  0.00     0.003 C 
HETATM    4  C14 UNL     1      28.555 -18.318  55.735  1.00  0.00     0.000 C 
HETATM    5  C15 UNL     1      29.811 -18.918  55.149  1.00  0.00     0.003 C 
HETATM    6  C16 UNL     1      31.062 -18.352  55.755  1.00  0.00     0.052 C 
ENDROOT
BRANCH   1   7
HETATM    7  N3  UNL     1      31.710 -19.735  57.688  1.00  0.00     0.110 N 
HETATM    8  C6  UNL     1      33.126 -19.887  57.758  1.00  0.00     0.294 C 
HETATM    9  C5  UNL     1      33.366 -21.394  57.564  1.00  0.00     0.158 C 
HETATM   10  N2  UNL     1      32.812 -22.012  58.750  1.00  0.00    -0.324 N 
HETATM   11  C4  UNL     1      33.558 -23.015  59.407  1.00  0.00     0.371 C 
HETATM   12  C18 UNL     1      31.542 -21.613  59.249  1.00  0.00     0.158 C 
HETATM   13  O3  UNL     1      34.704 -23.385  58.987  1.00  0.00    -0.238 OA
HETATM   14  C17 UNL     1      31.161 -20.205  58.948  1.00  0.00     0.294 C 
BRANCH  11  15
HETATM   15  O2  UNL     1      33.119 -23.675  60.552  1.00  0.00    -0.209 OA
BRANCH  15  16
HETATM   16  C3  UNL     1      33.956 -24.436  61.361  1.00  0.00     0.370 C 
HETATM   17  N1  UNL     1      34.638 -23.948  62.486  1.00  0.00    -0.336 N 
HETATM   18  C1  UNL     1      34.484 -22.572  62.868  1.00  0.00     0.154 C 
HETATM   19  C2  UNL     1      35.485 -24.817  63.251  1.00  0.00     0.154 C 
HETATM   20  O1  UNL     1      34.092 -25.645  61.036  1.00  0.00    -0.238 OA
ENDBRANCH  15  16
ENDBRANCH  11  15
ENDBRANCH   1   7
BRANCH   1  21
HETATM   21  C8  UNL     1      32.038 -17.393  57.736  1.00  0.00     0.257 C 
HETATM   22  O4  UNL     1      32.577 -16.732  56.840  1.00  0.00    -0.271 OA
HETATM   23  N4  UNL     1      32.218 -17.124  59.092  1.00  0.00    -0.359 N 
ATOM     24  H4  UNL     1      31.693 -17.747  59.707  1.00  0.00     0.162 HD
BRANCH  23  25
HETATM   25  C9  UNL     1      32.985 -16.156  59.784  1.00  0.00     0.125 C 
BRANCH  25  26
HETATM   26  C10 UNL     1      34.303 -16.469  60.338  1.00  0.00     0.046 C 
BRANCH  26  27
HETATM   27  C11 UNL     1      35.235 -15.414  60.760  1.00  0.00     0.165 C 
BRANCH  27  28
HETATM   28  O5  UNL     1      36.447 -15.405  60.042  1.00  0.00    -0.401 OA
ATOM     29  H5  UNL     1      36.968 -16.191  60.160  1.00  0.00     0.209 HD
ENDBRANCH  27  28
ENDBRANCH  26  27
ENDBRANCH  25  26
ENDBRANCH  23  25
ENDBRANCH   1  21
TORSDOF 8
ENDMDL
