MODEL 1
REMARK VINA RESULT: -8.882933508      0.000      0.000
REMARK  6 active torsions:
REMARK  status: ('A' for Active; 'I' for Inactive)
REMARK    1  A    between atoms: C4_4  and  O1_5 
REMARK    2  A    between atoms: C16_18  and  C17_19 
REMARK    3  A    between atoms: C17_19  and  C18_20 
REMARK    4  A    between atoms: C17_19  and  C19_22 
REMARK    5  A    between atoms: C19_22  and  O3_23 
REMARK    6  A    between atoms: C21_26  and  O4_27 
ROOT
HETATM    1  C1  UNL     1      11.993 -28.798 -22.395  1.00  0.00     0.016 C 
HETATM    2  C2  UNL     1      11.529 -29.939 -21.519  1.00  0.00    -0.035 C 
HETATM    3  C3  UNL     1      11.972 -31.219 -22.209  1.00  0.00     0.041 C 
HETATM    4  C4  UNL     1      13.287 -31.728 -21.746  1.00  0.00     0.118 C 
HETATM    5  C5  UNL     1      14.244 -30.671 -21.293  1.00  0.00     0.032 C 
HETATM    6  C6  UNL     1      13.653 -29.698 -20.327  1.00  0.00     0.008 C 
HETATM    7  C7  UNL     1      12.167 -29.945 -20.168  1.00  0.00    -0.001 C 
HETATM    8  C8  UNL     1      11.581 -28.969 -19.176  1.00  0.00     0.001 C 
HETATM    9  C9  UNL     1      11.960 -29.313 -17.791  1.00  0.00     0.007 C 
HETATM   10  C10 UNL     1      10.874 -29.800 -16.884  1.00  0.00     0.014 C 
HETATM   11  C11 UNL     1       9.616 -29.038 -16.911  1.00  0.00    -0.016 C 
HETATM   12  C12 UNL     1       8.454 -30.054 -16.887  1.00  0.00     0.020 C 
HETATM   13  C13 UNL     1       9.454 -28.267 -18.193  1.00  0.00    -0.068 C 
HETATM   14  C14 UNL     1       8.688 -27.211 -17.991  1.00  0.00    -0.022 C 
HETATM   15  C15 UNL     1       8.275 -27.178 -16.565  1.00  0.00     0.034 C 
HETATM   16  C16 UNL     1       9.355 -28.025 -15.872  1.00  0.00     0.014 C 
HETATM   17  C20 UNL     1      10.127 -28.729 -19.409  1.00  0.00     0.048 C 
HETATM   18  C21 UNL     1       9.506 -29.933 -20.030  1.00  0.00     0.127 C 
HETATM   19  C22 UNL     1      10.022 -29.987 -21.461  1.00  0.00     0.042 C 
ENDROOT
BRANCH  16  20
HETATM   20  C17 UNL     1       8.876 -28.445 -14.541  1.00  0.00     0.076 C 
BRANCH  20  21
HETATM   21  C18 UNL     1       9.942 -28.487 -13.515  1.00  0.00     0.238 C 
HETATM   22  O2  UNL     1       9.690 -28.513 -12.324  1.00  0.00    -0.306 OA
ENDBRANCH  20  21
BRANCH  20  23
HETATM   23  C19 UNL     1       7.774 -27.562 -13.955  1.00  0.00     0.176 C 
BRANCH  23  24
HETATM   24  O3  UNL     1       8.247 -26.440 -13.310  1.00  0.00    -0.400 OA
ATOM     25  H3  UNL     1       8.321 -26.543 -12.368  1.00  0.00     0.209 HD
ENDBRANCH  23  24
ENDBRANCH  20  23
ENDBRANCH  16  20
BRANCH  18  26
HETATM   26  O4  UNL     1       8.120 -29.845 -20.136  1.00  0.00    -0.395 OA
ATOM     27  H4  UNL     1       7.731 -30.578 -20.600  1.00  0.00     0.210 HD
ENDBRANCH  18  26
BRANCH   4  28
HETATM   28  O1  UNL     1      13.890 -32.413 -22.823  1.00  0.00    -0.396 OA
ATOM     29  H1  UNL     1      14.829 -32.418 -22.676  1.00  0.00     0.210 HD
ENDBRANCH   4  28
TORSDOF 6
ENDMDL
MODEL 2
REMARK VINA RESULT: -8.657664158      2.818      4.751
REMARK  6 active torsions:
REMARK  status: ('A' for Active; 'I' for Inactive)
REMARK    1  A    between atoms: C4_4  and  O1_5 
REMARK    2  A    between atoms: C16_18  and  C17_19 
REMARK    3  A    between atoms: C17_19  and  C18_20 
REMARK    4  A    between atoms: C17_19  and  C19_22 
REMARK    5  A    between atoms: C19_22  and  O3_23 
REMARK    6  A    between atoms: C21_26  and  O4_27 
ROOT
HETATM    1  C1  UNL     1      10.235 -30.136 -18.683  1.00  0.00     0.016 C 
HETATM    2  C2  UNL     1      10.763 -29.283 -17.552  1.00  0.00    -0.035 C 
HETATM    3  C3  UNL     1      12.249 -29.586 -17.442  1.00  0.00     0.041 C 
HETATM    4  C4  UNL     1      13.111 -28.656 -18.214  1.00  0.00     0.118 C 
HETATM    5  C5  UNL     1      12.481 -28.096 -19.449  1.00  0.00     0.032 C 
HETATM    6  C6  UNL     1      11.116 -27.533 -19.226  1.00  0.00     0.008 C 
HETATM    7  C7  UNL     1      10.650 -27.817 -17.813  1.00  0.00    -0.001 C 
HETATM    8  C8  UNL     1       9.277 -27.229 -17.591  1.00  0.00     0.001 C 
HETATM    9  C9  UNL     1       9.334 -25.759 -17.460  1.00  0.00     0.007 C 
HETATM   10  C10 UNL     1       9.028 -25.177 -16.116  1.00  0.00     0.014 C 
HETATM   11  C11 UNL     1       7.848 -25.721 -15.428  1.00  0.00    -0.016 C 
HETATM   12  C12 UNL     1       8.218 -25.907 -13.941  1.00  0.00     0.020 C 
HETATM   13  C13 UNL     1       7.487 -27.094 -15.930  1.00  0.00    -0.068 C 
HETATM   14  C14 UNL     1       6.197 -27.314 -15.755  1.00  0.00    -0.022 C 
HETATM   15  C15 UNL     1       5.581 -26.117 -15.129  1.00  0.00     0.034 C 
HETATM   16  C16 UNL     1       6.567 -24.992 -15.489  1.00  0.00     0.014 C 
HETATM   17  C20 UNL     1       8.520 -27.946 -16.523  1.00  0.00     0.048 C 
HETATM   18  C21 UNL     1       9.468 -28.532 -15.535  1.00  0.00     0.127 C 
HETATM   19  C22 UNL     1      10.148 -29.699 -16.239  1.00  0.00     0.042 C 
ENDROOT
BRANCH  16  20
HETATM   20  C17 UNL     1       6.340 -23.833 -14.605  1.00  0.00     0.076 C 
BRANCH  20  21
HETATM   21  C18 UNL     1       6.092 -22.570 -15.337  1.00  0.00     0.238 C 
HETATM   22  O2  UNL     1       6.142 -21.486 -14.786  1.00  0.00    -0.306 OA
ENDBRANCH  20  21
BRANCH  20  23
HETATM   23  C19 UNL     1       5.162 -23.990 -13.643  1.00  0.00     0.176 C 
BRANCH  23  24
HETATM   24  O3  UNL     1       4.119 -23.126 -13.898  1.00  0.00    -0.400 OA
ATOM     25  H3  UNL     1       3.261 -23.524 -13.803  1.00  0.00     0.209 HD
ENDBRANCH  23  24
ENDBRANCH  20  23
ENDBRANCH  16  20
BRANCH  18  26
HETATM   26  O4  UNL     1       8.834 -29.085 -14.424  1.00  0.00    -0.395 OA
ATOM     27  H4  UNL     1       9.346 -29.016 -13.627  1.00  0.00     0.210 HD
ENDBRANCH  18  26
BRANCH   4  28
HETATM   28  O1  UNL     1      14.266 -29.365 -18.611  1.00  0.00    -0.396 OA
ATOM     29  H1  UNL     1      14.224 -29.487 -19.552  1.00  0.00     0.210 HD
ENDBRANCH   4  28
TORSDOF 6
ENDMDL
MODEL 3
REMARK VINA RESULT: -8.512037662      1.489      7.309
REMARK  6 active torsions:
REMARK  status: ('A' for Active; 'I' for Inactive)
REMARK    1  A    between atoms: C4_4  and  O1_5 
REMARK    2  A    between atoms: C16_18  and  C17_19 
REMARK    3  A    between atoms: C17_19  and  C18_20 
REMARK    4  A    between atoms: C17_19  and  C19_22 
REMARK    5  A    between atoms: C19_22  and  O3_23 
REMARK    6  A    between atoms: C21_26  and  O4_27 
ROOT
HETATM    1  C1  UNL     1       6.869 -29.010 -14.601  1.00  0.00     0.016 C 
HETATM    2  C2  UNL     1       7.759 -27.914 -15.142  1.00  0.00    -0.035 C 
HETATM    3  C3  UNL     1       7.492 -26.683 -14.291  1.00  0.00     0.041 C 
HETATM    4  C4  UNL     1       8.423 -26.529 -13.146  1.00  0.00     0.118 C 
HETATM    5  C5  UNL     1       8.941 -27.815 -12.582  1.00  0.00     0.032 C 
HETATM    6  C6  UNL     1       9.478 -28.751 -13.614  1.00  0.00     0.008 C 
HETATM    7  C7  UNL     1       9.216 -28.213 -15.005  1.00  0.00    -0.001 C 
HETATM    8  C8  UNL     1       9.778 -29.157 -16.042  1.00  0.00     0.001 C 
HETATM    9  C9  UNL     1      11.251 -29.077 -16.102  1.00  0.00     0.007 C 
HETATM   10  C10 UNL     1      11.856 -28.485 -17.337  1.00  0.00     0.014 C 
HETATM   11  C11 UNL     1      11.302 -28.950 -18.617  1.00  0.00    -0.016 C 
HETATM   12  C12 UNL     1      11.159 -27.720 -19.538  1.00  0.00     0.020 C 
HETATM   13  C13 UNL     1       9.911 -29.503 -18.459  1.00  0.00    -0.068 C 
HETATM   14  C14 UNL     1       9.666 -30.387 -19.409  1.00  0.00    -0.022 C 
HETATM   15  C15 UNL     1      10.863 -30.508 -20.279  1.00  0.00     0.034 C 
HETATM   16  C16 UNL     1      12.001 -30.005 -19.374  1.00  0.00     0.014 C 
HETATM   17  C20 UNL     1       9.069 -29.048 -17.350  1.00  0.00     0.048 C 
HETATM   18  C21 UNL     1       8.526 -27.671 -17.521  1.00  0.00     0.127 C 
HETATM   19  C22 UNL     1       7.359 -27.551 -16.551  1.00  0.00     0.042 C 
ENDROOT
BRANCH  16  20
HETATM   20  C17 UNL     1      13.174 -29.661 -20.199  1.00  0.00     0.076 C 
BRANCH  20  21
HETATM   21  C18 UNL     1      14.467 -29.938 -19.534  1.00  0.00     0.238 C 
HETATM   22  O2  UNL     1      15.449 -30.297 -20.157  1.00  0.00    -0.306 OA
ENDBRANCH  20  21
BRANCH  20  23
HETATM   23  C19 UNL     1      13.239 -30.386 -21.544  1.00  0.00     0.176 C 
BRANCH  23  24
HETATM   24  O3  UNL     1      13.559 -29.564 -22.603  1.00  0.00    -0.400 OA
ATOM     25  H3  UNL     1      12.927 -28.870 -22.752  1.00  0.00     0.209 HD
ENDBRANCH  23  24
ENDBRANCH  20  23
ENDBRANCH  16  20
BRANCH  18  26
HETATM   26  O4  UNL     1       7.985 -27.446 -18.785  1.00  0.00    -0.395 OA
ATOM     27  H4  UNL     1       7.568 -26.596 -18.869  1.00  0.00     0.210 HD
ENDBRANCH  18  26
BRANCH   4  28
HETATM   28  O1  UNL     1       7.732 -25.861 -12.112  1.00  0.00    -0.396 OA
ATOM     29  H1  UNL     1       8.377 -25.464 -11.539  1.00  0.00     0.210 HD
ENDBRANCH   4  28
TORSDOF 6
ENDMDL
MODEL 4
REMARK VINA RESULT: -8.114218509      1.882      7.532
REMARK  6 active torsions:
REMARK  status: ('A' for Active; 'I' for Inactive)
REMARK    1  A    between atoms: C4_4  and  O1_5 
REMARK    2  A    between atoms: C16_18  and  C17_19 
REMARK    3  A    between atoms: C17_19  and  C18_20 
REMARK    4  A    between atoms: C17_19  and  C19_22 
REMARK    5  A    between atoms: C19_22  and  O3_23 
REMARK    6  A    between atoms: C21_26  and  O4_27 
ROOT
HETATM    1  C1  UNL     1       8.966 -26.566 -13.889  1.00  0.00     0.016 C 
HETATM    2  C2  UNL     1       8.236 -27.293 -14.995  1.00  0.00    -0.035 C 
HETATM    3  C3  UNL     1       6.751 -27.124 -14.714  1.00  0.00     0.041 C 
HETATM    4  C4  UNL     1       6.135 -25.966 -15.409  1.00  0.00     0.118 C 
HETATM    5  C5  UNL     1       7.059 -24.813 -15.643  1.00  0.00     0.032 C 
HETATM    6  C6  UNL     1       8.362 -25.201 -16.259  1.00  0.00     0.008 C 
HETATM    7  C7  UNL     1       8.478 -26.708 -16.348  1.00  0.00    -0.001 C 
HETATM    8  C8  UNL     1       9.791 -27.093 -16.988  1.00  0.00     0.001 C 
HETATM    9  C9  UNL     1       9.779 -26.836 -18.442  1.00  0.00     0.007 C 
HETATM   10  C10 UNL     1       9.797 -28.026 -19.349  1.00  0.00     0.014 C 
HETATM   11  C11 UNL     1      10.760 -29.085 -19.010  1.00  0.00    -0.016 C 
HETATM   12  C12 UNL     1      10.051 -30.442 -19.204  1.00  0.00     0.020 C 
HETATM   13  C13 UNL     1      11.158 -29.038 -17.559  1.00  0.00    -0.068 C 
HETATM   14  C14 UNL     1      12.361 -29.559 -17.404  1.00  0.00    -0.022 C 
HETATM   15  C15 UNL     1      12.876 -29.993 -18.727  1.00  0.00     0.034 C 
HETATM   16  C16 UNL     1      12.055 -29.144 -19.713  1.00  0.00     0.014 C 
HETATM   17  C20 UNL     1      10.247 -28.452 -16.573  1.00  0.00     0.048 C 
HETATM   18  C21 UNL     1       9.070 -29.305 -16.247  1.00  0.00     0.127 C 
HETATM   19  C22 UNL     1       8.513 -28.775 -14.932  1.00  0.00     0.042 C 
ENDROOT
BRANCH  16  20
HETATM   20  C17 UNL     1      12.131 -29.740 -21.060  1.00  0.00     0.076 C 
BRANCH  20  21
HETATM   21  C18 UNL     1      11.401 -28.967 -22.091  1.00  0.00     0.238 C 
HETATM   22  O2  UNL     1      10.617 -29.495 -22.858  1.00  0.00    -0.306 OA
ENDBRANCH  20  21
BRANCH  20  23
HETATM   23  C19 UNL     1      13.552 -29.908 -21.601  1.00  0.00     0.176 C 
BRANCH  23  24
HETATM   24  O3  UNL     1      13.673 -29.615 -22.943  1.00  0.00    -0.400 OA
ATOM     25  H3  UNL     1      14.481 -29.929 -23.331  1.00  0.00     0.209 HD
ENDBRANCH  23  24
ENDBRANCH  20  23
ENDBRANCH  16  20
BRANCH  18  26
HETATM   26  O4  UNL     1       9.406 -30.634 -16.001  1.00  0.00    -0.395 OA
ATOM     27  H4  UNL     1       9.928 -31.024 -16.692  1.00  0.00     0.210 HD
ENDBRANCH  18  26
BRANCH   4  28
HETATM   28  O1  UNL     1       5.069 -25.499 -14.611  1.00  0.00    -0.396 OA
ATOM     29  H1  UNL     1       4.929 -24.583 -14.818  1.00  0.00     0.210 HD
ENDBRANCH   4  28
TORSDOF 6
ENDMDL
MODEL 5
REMARK VINA RESULT: -7.992487946      2.229      3.554
REMARK  6 active torsions:
REMARK  status: ('A' for Active; 'I' for Inactive)
REMARK    1  A    between atoms: C4_4  and  O1_5 
REMARK    2  A    between atoms: C16_18  and  C17_19 
REMARK    3  A    between atoms: C17_19  and  C18_20 
REMARK    4  A    between atoms: C17_19  and  C19_22 
REMARK    5  A    between atoms: C19_22  and  O3_23 
REMARK    6  A    between atoms: C21_26  and  O4_27 
ROOT
HETATM    1  C1  UNL     1      12.992 -30.009 -19.246  1.00  0.00     0.016 C 
HETATM    2  C2  UNL     1      12.142 -28.864 -19.747  1.00  0.00    -0.035 C 
HETATM    3  C3  UNL     1      12.591 -28.585 -21.172  1.00  0.00     0.041 C 
HETATM    4  C4  UNL     1      11.797 -29.297 -22.204  1.00  0.00     0.118 C 
HETATM    5  C5  UNL     1      11.239 -30.614 -21.767  1.00  0.00     0.032 C 
HETATM    6  C6  UNL     1      10.527 -30.560 -20.455  1.00  0.00     0.008 C 
HETATM    7  C7  UNL     1      10.687 -29.195 -19.821  1.00  0.00    -0.001 C 
HETATM    8  C8  UNL     1       9.950 -29.143 -18.503  1.00  0.00     0.001 C 
HETATM    9  C9  UNL     1       8.489 -29.067 -18.706  1.00  0.00     0.007 C 
HETATM   10  C10 UNL     1       7.810 -27.787 -18.330  1.00  0.00     0.014 C 
HETATM   11  C11 UNL     1       8.193 -27.207 -17.034  1.00  0.00    -0.016 C 
HETATM   12  C12 UNL     1       8.338 -25.683 -17.229  1.00  0.00     0.020 C 
HETATM   13  C13 UNL     1       9.544 -27.689 -16.579  1.00  0.00    -0.068 C 
HETATM   14  C14 UNL     1       9.620 -27.644 -15.262  1.00  0.00    -0.022 C 
HETATM   15  C15 UNL     1       8.335 -27.136 -14.720  1.00  0.00     0.034 C 
HETATM   16  C16 UNL     1       7.339 -27.434 -15.853  1.00  0.00     0.014 C 
HETATM   17  C20 UNL     1      10.528 -28.134 -17.569  1.00  0.00     0.048 C 
HETATM   18  C21 UNL     1      11.158 -27.028 -18.343  1.00  0.00     0.127 C 
HETATM   19  C22 UNL     1      12.424 -27.608 -18.959  1.00  0.00     0.042 C 
ENDROOT
BRANCH  16  20
HETATM   20  C17 UNL     1       6.119 -26.627 -15.664  1.00  0.00     0.076 C 
BRANCH  20  21
HETATM   21  C18 UNL     1       6.168 -25.750 -14.473  1.00  0.00     0.238 C 
HETATM   22  O2  UNL     1       5.283 -24.952 -14.222  1.00  0.00    -0.306 OA
ENDBRANCH  20  21
BRANCH  20  23
HETATM   23  C19 UNL     1       5.777 -25.708 -16.838  1.00  0.00     0.176 C 
BRANCH  23  24
HETATM   24  O3  UNL     1       5.010 -26.314 -17.811  1.00  0.00    -0.400 OA
ATOM     25  H3  UNL     1       5.504 -26.573 -18.580  1.00  0.00     0.209 HD
ENDBRANCH  23  24
ENDBRANCH  20  23
ENDBRANCH  16  20
BRANCH  18  26
HETATM   26  O4  UNL     1      11.584 -25.970 -17.543  1.00  0.00    -0.395 OA
ATOM     27  H4  UNL     1      10.892 -25.606 -17.002  1.00  0.00     0.210 HD
ENDBRANCH  18  26
BRANCH   4  28
HETATM   28  O1  UNL     1      12.640 -29.540 -23.309  1.00  0.00    -0.396 OA
ATOM     29  H1  UNL     1      13.004 -30.412 -23.212  1.00  0.00     0.210 HD
ENDBRANCH   4  28
TORSDOF 6
ENDMDL
