MODEL 1
REMARK VINA RESULT: -8.109192567      0.000      0.000
REMARK  5 active torsions:
REMARK  status: ('A' for Active; 'I' for Inactive)
REMARK    1  A    between atoms: C2_2  and  O1_3 
REMARK    2  A    between atoms: O1_3  and  C3_4 
REMARK    3  A    between atoms: C8_9  and  O2_10 
REMARK    4  A    between atoms: C10_13  and  O3_14 
REMARK    5  A    between atoms: C17_22  and  O4_23 
ROOT
HETATM    1  C3  UNL     1      12.301 -29.177 -17.551  1.00  0.00     0.127 C 
HETATM    2  C4  UNL     1      11.709 -29.319 -16.127  1.00  0.00     0.042 C 
HETATM    3  C5  UNL     1      10.238 -29.036 -16.052  1.00  0.00    -0.033 C 
HETATM    4  C6  UNL     1       9.514 -30.308 -15.863  1.00  0.00     0.016 C 
HETATM    5  C7  UNL     1       9.947 -28.173 -14.811  1.00  0.00     0.041 C 
HETATM    6  C8  UNL     1       8.495 -27.876 -14.664  1.00  0.00     0.121 C 
HETATM    7  C9  UNL     1       7.717 -27.773 -15.925  1.00  0.00     0.063 C 
HETATM    8  C10 UNL     1       8.616 -27.369 -17.063  1.00  0.00     0.125 C 
HETATM    9  C11 UNL     1       9.863 -28.183 -17.206  1.00  0.00     0.027 C 
HETATM   10  C12 UNL     1      10.037 -28.833 -18.536  1.00  0.00     0.000 C 
HETATM   11  C13 UNL     1       9.024 -29.849 -18.939  1.00  0.00     0.006 C 
HETATM   12  C14 UNL     1       9.236 -29.992 -20.449  1.00  0.00     0.006 C 
HETATM   13  C15 UNL     1      10.619 -30.424 -20.741  1.00  0.00    -0.004 C 
HETATM   14  C16 UNL     1      10.811 -30.485 -22.211  1.00  0.00     0.037 C 
HETATM   15  C17 UNL     1      11.286 -29.237 -22.864  1.00  0.00     0.118 C 
HETATM   16  C18 UNL     1      11.419 -28.070 -21.929  1.00  0.00     0.032 C 
HETATM   17  C19 UNL     1      12.058 -28.373 -20.632  1.00  0.00     0.012 C 
HETATM   18  C20 UNL     1      11.730 -29.688 -19.997  1.00  0.00    -0.034 C 
HETATM   19  C21 UNL     1      12.938 -30.599 -20.219  1.00  0.00     0.016 C 
HETATM   20  C22 UNL     1      11.351 -29.623 -18.561  1.00  0.00     0.028 C 
ENDROOT
BRANCH   1  21
HETATM   21  O1  UNL     1      13.520 -29.768 -17.467  1.00  0.00    -0.386 OA
BRANCH  21  22
HETATM   22  C2  UNL     1      14.658 -29.112 -17.727  1.00  0.00     0.163 C 
HETATM   23  C1  UNL     1      15.916 -29.906 -17.943  1.00  0.00     0.033 C 
ENDBRANCH  21  22
ENDBRANCH   1  21
BRANCH   6  24
HETATM   24  O2  UNL     1       7.899 -28.778 -13.751  1.00  0.00    -0.395 OA
ATOM     25  H2  UNL     1       7.899 -29.658 -14.108  1.00  0.00     0.210 HD
ENDBRANCH   6  24
BRANCH   8  26
HETATM   26  O3  UNL     1       7.886 -27.286 -18.275  1.00  0.00    -0.395 OA
ATOM     27  H3  UNL     1       8.474 -27.197 -19.017  1.00  0.00     0.210 HD
ENDBRANCH   8  26
BRANCH  15  28
HETATM   28  O4  UNL     1      12.543 -29.465 -23.474  1.00  0.00    -0.396 OA
ATOM     29  H4  UNL     1      12.428 -29.611 -24.406  1.00  0.00     0.210 HD
ENDBRANCH  15  28
TORSDOF 5
ENDMDL
MODEL 2
REMARK VINA RESULT: -7.300930275      1.064      1.171
REMARK  5 active torsions:
REMARK  status: ('A' for Active; 'I' for Inactive)
REMARK    1  A    between atoms: C2_2  and  O1_3 
REMARK    2  A    between atoms: O1_3  and  C3_4 
REMARK    3  A    between atoms: C8_9  and  O2_10 
REMARK    4  A    between atoms: C10_13  and  O3_14 
REMARK    5  A    between atoms: C17_22  and  O4_23 
ROOT
HETATM    1  C3  UNL     1      12.789 -28.657 -18.592  1.00  0.00     0.127 C 
HETATM    2  C4  UNL     1      12.360 -28.514 -17.110  1.00  0.00     0.042 C 
HETATM    3  C5  UNL     1      10.878 -28.613 -16.897  1.00  0.00    -0.033 C 
HETATM    4  C6  UNL     1      10.571 -29.913 -16.268  1.00  0.00     0.016 C 
HETATM    5  C7  UNL     1      10.432 -27.524 -15.905  1.00  0.00     0.041 C 
HETATM    6  C8  UNL     1       8.969 -27.585 -15.630  1.00  0.00     0.121 C 
HETATM    7  C9  UNL     1       8.113 -28.069 -16.742  1.00  0.00     0.063 C 
HETATM    8  C10 UNL     1       8.778 -27.807 -18.067  1.00  0.00     0.125 C 
HETATM    9  C11 UNL     1      10.196 -28.273 -18.170  1.00  0.00     0.027 C 
HETATM   10  C12 UNL     1      10.463 -29.223 -19.287  1.00  0.00     0.000 C 
HETATM   11  C13 UNL     1       9.765 -30.539 -19.247  1.00  0.00     0.006 C 
HETATM   12  C14 UNL     1       9.909 -31.068 -20.677  1.00  0.00     0.006 C 
HETATM   13  C15 UNL     1      11.335 -31.194 -21.044  1.00  0.00    -0.004 C 
HETATM   14  C16 UNL     1      11.438 -31.641 -22.455  1.00  0.00     0.037 C 
HETATM   15  C17 UNL     1      11.485 -30.568 -23.482  1.00  0.00     0.118 C 
HETATM   16  C18 UNL     1      11.333 -29.181 -22.926  1.00  0.00     0.032 C 
HETATM   17  C19 UNL     1      12.118 -28.905 -21.704  1.00  0.00     0.012 C 
HETATM   18  C20 UNL     1      12.230 -30.008 -20.698  1.00  0.00    -0.034 C 
HETATM   19  C21 UNL     1      13.634 -30.596 -20.844  1.00  0.00     0.016 C 
HETATM   20  C22 UNL     1      11.945 -29.616 -19.292  1.00  0.00     0.028 C 
ENDROOT
BRANCH   1  21
HETATM   21  O1  UNL     1      14.130 -28.858 -18.534  1.00  0.00    -0.386 OA
BRANCH  21  22
HETATM   22  C2  UNL     1      14.725 -29.455 -17.494  1.00  0.00     0.163 C 
HETATM   23  C1  UNL     1      16.212 -29.671 -17.540  1.00  0.00     0.033 C 
ENDBRANCH  21  22
ENDBRANCH   1  21
BRANCH   6  24
HETATM   24  O2  UNL     1       8.724 -28.293 -14.430  1.00  0.00    -0.395 OA
ATOM     25  H2  UNL     1       9.300 -29.047 -14.369  1.00  0.00     0.210 HD
ENDBRANCH   6  24
BRANCH   8  26
HETATM   26  O3  UNL     1       7.977 -28.283 -19.135  1.00  0.00    -0.395 OA
ATOM     27  H3  UNL     1       7.138 -27.835 -19.151  1.00  0.00     0.210 HD
ENDBRANCH   8  26
BRANCH  15  28
HETATM   28  O4  UNL     1      12.711 -30.633 -24.188  1.00  0.00    -0.396 OA
ATOM     29  H4  UNL     1      12.630 -30.176 -25.016  1.00  0.00     0.210 HD
ENDBRANCH  15  28
TORSDOF 5
ENDMDL
MODEL 3
REMARK VINA RESULT: -7.155031078      1.080      1.263
REMARK  5 active torsions:
REMARK  status: ('A' for Active; 'I' for Inactive)
REMARK    1  A    between atoms: C2_2  and  O1_3 
REMARK    2  A    between atoms: O1_3  and  C3_4 
REMARK    3  A    between atoms: C8_9  and  O2_10 
REMARK    4  A    between atoms: C10_13  and  O3_14 
REMARK    5  A    between atoms: C17_22  and  O4_23 
ROOT
HETATM    1  C3  UNL     1      11.825 -28.168 -17.499  1.00  0.00     0.127 C 
HETATM    2  C4  UNL     1      11.144 -28.150 -16.108  1.00  0.00     0.042 C 
HETATM    3  C5  UNL     1       9.647 -28.218 -16.166  1.00  0.00    -0.033 C 
HETATM    4  C6  UNL     1       9.211 -29.559 -15.731  1.00  0.00     0.016 C 
HETATM    5  C7  UNL     1       9.052 -27.212 -15.164  1.00  0.00     0.041 C 
HETATM    6  C8  UNL     1       7.562 -27.249 -15.155  1.00  0.00     0.121 C 
HETATM    7  C9  UNL     1       6.907 -27.597 -16.441  1.00  0.00     0.063 C 
HETATM    8  C10 UNL     1       7.800 -27.234 -17.598  1.00  0.00     0.125 C 
HETATM    9  C11 UNL     1       9.205 -27.737 -17.498  1.00  0.00     0.027 C 
HETATM   10  C12 UNL     1       9.649 -28.586 -18.640  1.00  0.00     0.000 C 
HETATM   11  C13 UNL     1       8.932 -29.876 -18.851  1.00  0.00     0.006 C 
HETATM   12  C14 UNL     1       9.317 -30.273 -20.280  1.00  0.00     0.006 C 
HETATM   13  C15 UNL     1      10.783 -30.411 -20.404  1.00  0.00    -0.004 C 
HETATM   14  C16 UNL     1      11.125 -30.727 -21.813  1.00  0.00     0.037 C 
HETATM   15  C17 UNL     1      11.371 -29.565 -22.706  1.00  0.00     0.118 C 
HETATM   16  C18 UNL     1      11.147 -28.232 -22.050  1.00  0.00     0.032 C 
HETATM   17  C19 UNL     1      11.709 -28.099 -20.690  1.00  0.00     0.012 C 
HETATM   18  C20 UNL     1      11.623 -29.294 -19.793  1.00  0.00    -0.034 C 
HETATM   19  C21 UNL     1      13.020 -29.914 -19.750  1.00  0.00     0.016 C 
HETATM   20  C22 UNL     1      11.102 -29.027 -18.426  1.00  0.00     0.028 C 
ENDROOT
BRANCH   1  21
HETATM   21  O1  UNL     1      13.131 -28.418 -17.229  1.00  0.00    -0.386 OA
BRANCH  21  22
HETATM   22  C2  UNL     1      14.050 -27.448 -17.149  1.00  0.00     0.163 C 
HETATM   23  C1  UNL     1      13.633 -26.034 -17.445  1.00  0.00     0.033 C 
ENDBRANCH  21  22
ENDBRANCH   1  21
BRANCH   6  24
HETATM   24  O2  UNL     1       7.098 -28.058 -14.091  1.00  0.00    -0.395 OA
ATOM     25  H2  UNL     1       7.657 -27.956 -13.330  1.00  0.00     0.210 HD
ENDBRANCH   6  24
BRANCH   8  26
HETATM   26  O3  UNL     1       7.191 -27.580 -18.830  1.00  0.00    -0.395 OA
ATOM     27  H3  UNL     1       6.295 -27.264 -18.863  1.00  0.00     0.210 HD
ENDBRANCH   8  26
BRANCH  15  28
HETATM   28  O4  UNL     1      12.700 -29.605 -23.191  1.00  0.00    -0.396 OA
ATOM     29  H4  UNL     1      13.219 -28.932 -22.765  1.00  0.00     0.210 HD
ENDBRANCH  15  28
TORSDOF 5
ENDMDL
MODEL 4
REMARK VINA RESULT: -7.154665637      3.498      5.980
REMARK  5 active torsions:
REMARK  status: ('A' for Active; 'I' for Inactive)
REMARK    1  A    between atoms: C2_2  and  O1_3 
REMARK    2  A    between atoms: O1_3  and  C3_4 
REMARK    3  A    between atoms: C8_9  and  O2_10 
REMARK    4  A    between atoms: C10_13  and  O3_14 
REMARK    5  A    between atoms: C17_22  and  O4_23 
ROOT
HETATM    1  C3  UNL     1       8.397 -26.078 -14.082  1.00  0.00     0.127 C 
HETATM    2  C4  UNL     1       7.287 -25.345 -13.288  1.00  0.00     0.042 C 
HETATM    3  C5  UNL     1       6.379 -24.513 -14.145  1.00  0.00    -0.033 C 
HETATM    4  C6  UNL     1       5.070 -25.185 -14.249  1.00  0.00     0.016 C 
HETATM    5  C7  UNL     1       6.128 -23.159 -13.458  1.00  0.00     0.041 C 
HETATM    6  C8  UNL     1       5.210 -22.292 -14.249  1.00  0.00     0.121 C 
HETATM    7  C9  UNL     1       5.264 -22.456 -15.724  1.00  0.00     0.063 C 
HETATM    8  C10 UNL     1       6.615 -22.971 -16.144  1.00  0.00     0.125 C 
HETATM    9  C11 UNL     1       7.094 -24.177 -15.401  1.00  0.00     0.027 C 
HETATM   10  C12 UNL     1       7.422 -25.351 -16.258  1.00  0.00     0.000 C 
HETATM   11  C13 UNL     1       6.308 -25.961 -17.038  1.00  0.00     0.006 C 
HETATM   12  C14 UNL     1       7.027 -26.816 -18.086  1.00  0.00     0.006 C 
HETATM   13  C15 UNL     1       7.882 -27.829 -17.433  1.00  0.00    -0.004 C 
HETATM   14  C16 UNL     1       8.615 -28.593 -18.472  1.00  0.00     0.037 C 
HETATM   15  C17 UNL     1       9.936 -28.047 -18.880  1.00  0.00     0.118 C 
HETATM   16  C18 UNL     1      10.286 -26.741 -18.225  1.00  0.00     0.032 C 
HETATM   17  C19 UNL     1      10.006 -26.671 -16.776  1.00  0.00     0.012 C 
HETATM   18  C20 UNL     1       8.759 -27.337 -16.285  1.00  0.00    -0.034 C 
HETATM   19  C21 UNL     1       9.191 -28.641 -15.614  1.00  0.00     0.016 C 
HETATM   20  C22 UNL     1       7.911 -26.512 -15.384  1.00  0.00     0.028 C 
ENDROOT
BRANCH   1  21
HETATM   21  O1  UNL     1       8.885 -26.993 -13.207  1.00  0.00    -0.386 OA
BRANCH  21  22
HETATM   22  C2  UNL     1       8.112 -27.616 -12.308  1.00  0.00     0.163 C 
HETATM   23  C1  UNL     1       8.187 -29.114 -12.206  1.00  0.00     0.033 C 
ENDBRANCH  21  22
ENDBRANCH   1  21
BRANCH   6  24
HETATM   24  O2  UNL     1       3.889 -22.397 -13.755  1.00  0.00    -0.395 OA
ATOM     25  H2  UNL     1       3.268 -22.410 -14.474  1.00  0.00     0.210 HD
ENDBRANCH   6  24
BRANCH   8  26
HETATM   26  O3  UNL     1       6.669 -23.148 -17.549  1.00  0.00    -0.395 OA
ATOM     27  H3  UNL     1       6.538 -24.061 -17.779  1.00  0.00     0.210 HD
ENDBRANCH   8  26
BRANCH  15  28
HETATM   28  O4  UNL     1      10.954 -28.983 -18.581  1.00  0.00    -0.396 OA
ATOM     29  H4  UNL     1      10.571 -29.840 -18.436  1.00  0.00     0.210 HD
ENDBRANCH  15  28
TORSDOF 5
ENDMDL
MODEL 5
REMARK VINA RESULT: -6.806914384      1.869      5.977
REMARK  5 active torsions:
REMARK  status: ('A' for Active; 'I' for Inactive)
REMARK    1  A    between atoms: C2_2  and  O1_3 
REMARK    2  A    between atoms: O1_3  and  C3_4 
REMARK    3  A    between atoms: C8_9  and  O2_10 
REMARK    4  A    between atoms: C10_13  and  O3_14 
REMARK    5  A    between atoms: C17_22  and  O4_23 
ROOT
HETATM    1  C3  UNL     1      11.996 -27.380 -19.204  1.00  0.00     0.127 C 
HETATM    2  C4  UNL     1      12.449 -27.681 -20.654  1.00  0.00     0.042 C 
HETATM    3  C5  UNL     1      11.813 -28.905 -21.245  1.00  0.00    -0.033 C 
HETATM    4  C6  UNL     1      10.814 -28.488 -22.249  1.00  0.00     0.016 C 
HETATM    5  C7  UNL     1      12.879 -29.723 -21.994  1.00  0.00     0.041 C 
HETATM    6  C8  UNL     1      12.304 -30.943 -22.628  1.00  0.00     0.121 C 
HETATM    7  C9  UNL     1      11.149 -31.562 -21.929  1.00  0.00     0.063 C 
HETATM    8  C10 UNL     1      11.190 -31.234 -20.460  1.00  0.00     0.125 C 
HETATM    9  C11 UNL     1      11.365 -29.784 -20.137  1.00  0.00     0.027 C 
HETATM   10  C12 UNL     1      10.296 -29.201 -19.278  1.00  0.00     0.000 C 
HETATM   11  C13 UNL     1       8.913 -29.172 -19.834  1.00  0.00     0.006 C 
HETATM   12  C14 UNL     1       8.034 -28.928 -18.603  1.00  0.00     0.006 C 
HETATM   13  C15 UNL     1       8.406 -27.660 -17.942  1.00  0.00    -0.004 C 
HETATM   14  C16 UNL     1       7.586 -27.489 -16.718  1.00  0.00     0.037 C 
HETATM   15  C17 UNL     1       8.146 -28.062 -15.466  1.00  0.00     0.118 C 
HETATM   16  C18 UNL     1       9.435 -28.809 -15.658  1.00  0.00     0.032 C 
HETATM   17  C19 UNL     1      10.423 -28.141 -16.532  1.00  0.00     0.012 C 
HETATM   18  C20 UNL     1       9.898 -27.418 -17.732  1.00  0.00    -0.034 C 
HETATM   19  C21 UNL     1       9.950 -25.925 -17.404  1.00  0.00     0.016 C 
HETATM   20  C22 UNL     1      10.594 -27.721 -19.011  1.00  0.00     0.028 C 
ENDROOT
BRANCH   1  21
HETATM   21  O1  UNL     1      12.417 -26.109 -18.980  1.00  0.00    -0.386 OA
BRANCH  21  22
HETATM   22  C2  UNL     1      13.250 -25.792 -17.981  1.00  0.00     0.163 C 
HETATM   23  C1  UNL     1      13.769 -26.891 -17.096  1.00  0.00     0.033 C 
ENDBRANCH  21  22
ENDBRANCH   1  21
BRANCH   6  24
HETATM   24  O2  UNL     1      12.025 -30.701 -23.994  1.00  0.00    -0.395 OA
ATOM     25  H2  UNL     1      11.092 -30.777 -24.158  1.00  0.00     0.210 HD
ENDBRANCH   6  24
BRANCH   8  26
HETATM   26  O3  UNL     1      10.082 -31.805 -19.787  1.00  0.00    -0.395 OA
ATOM     27  H3  UNL     1       9.331 -31.223 -19.821  1.00  0.00     0.210 HD
ENDBRANCH   8  26
BRANCH  15  28
HETATM   28  O4  UNL     1       8.365 -27.029 -14.522  1.00  0.00    -0.396 OA
ATOM     29  H4  UNL     1       9.236 -27.112 -14.152  1.00  0.00     0.210 HD
ENDBRANCH  15  28
TORSDOF 5
ENDMDL
