MODEL 1
REMARK VINA RESULT: -9.742718536      0.000      0.000
REMARK  6 active torsions:
REMARK  status: ('A' for Active; 'I' for Inactive)
REMARK    1  A    between atoms: C11_11  and  O1_12 
REMARK    2  A    between atoms: C13_15  and  O2_16 
REMARK    3  A    between atoms: C19_23  and  C20_24 
REMARK    4  A    between atoms: C20_24  and  C21_26 
REMARK    5  A    between atoms: C21_26  and  C22_27 
REMARK    6  A    between atoms: C22_27  and  O4_28 
ROOT
HETATM    1  C1  UNL     1       8.310 -26.023 -14.623  1.00  0.00     0.016 C 
HETATM    2  C2  UNL     1       7.939 -25.995 -16.047  1.00  0.00    -0.030 C 
HETATM    3  C3  UNL     1       8.839 -25.286 -16.962  1.00  0.00     0.011 C 
HETATM    4  C4  UNL     1      10.015 -26.057 -17.498  1.00  0.00     0.007 C 
HETATM    5  C5  UNL     1       9.608 -27.413 -18.027  1.00  0.00     0.001 C 
HETATM    6  C6  UNL     1       8.763 -28.196 -17.026  1.00  0.00    -0.005 C 
HETATM    7  C7  UNL     1       9.693 -28.755 -16.014  1.00  0.00     0.006 C 
HETATM    8  C8  UNL     1      10.389 -29.914 -16.750  1.00  0.00     0.006 C 
HETATM    9  C9  UNL     1      11.284 -29.298 -17.770  1.00  0.00    -0.001 C 
HETATM   10  C10 UNL     1      12.626 -28.887 -17.173  1.00  0.00     0.037 C 
HETATM   11  C11 UNL     1      13.600 -28.792 -18.300  1.00  0.00     0.121 C 
HETATM   12  C12 UNL     1      12.882 -28.511 -19.628  1.00  0.00     0.064 C 
HETATM   13  C13 UNL     1      11.803 -27.477 -19.257  1.00  0.00     0.129 C 
HETATM   14  C14 UNL     1      10.659 -28.238 -18.624  1.00  0.00    -0.010 C 
HETATM   15  C15 UNL     1      10.001 -28.993 -19.803  1.00  0.00     0.018 C 
HETATM   16  C16 UNL     1       7.647 -27.372 -16.625  1.00  0.00    -0.001 C 
HETATM   17  C17 UNL     1       6.640 -27.886 -15.670  1.00  0.00     0.006 C 
HETATM   18  C18 UNL     1       5.781 -26.632 -15.429  1.00  0.00     0.013 C 
HETATM   19  C19 UNL     1       6.500 -25.512 -16.140  1.00  0.00     0.064 C 
ENDROOT
BRANCH  19  20
HETATM   20  C20 UNL     1       6.274 -24.168 -15.699  1.00  0.00     0.133 C 
HETATM   21  O3  UNL     1       5.730 -24.079 -14.558  1.00  0.00    -0.297 OA
BRANCH  20  22
HETATM   22  C21 UNL     1       6.553 -22.872 -16.311  1.00  0.00     0.104 C 
BRANCH  22  23
HETATM   23  C22 UNL     1       5.626 -21.810 -15.731  1.00  0.00     0.171 C 
BRANCH  23  24
HETATM   24  O4  UNL     1       6.227 -21.158 -14.656  1.00  0.00    -0.400 OA
ATOM     25  H4  UNL     1       6.577 -20.316 -14.922  1.00  0.00     0.209 HD
ENDBRANCH  23  24
ENDBRANCH  22  23
ENDBRANCH  20  22
ENDBRANCH  19  20
BRANCH  13  26
HETATM   26  O2  UNL     1      12.457 -26.591 -18.444  1.00  0.00    -0.395 OA
ATOM     27  H2  UNL     1      11.864 -26.466 -17.714  1.00  0.00     0.210 HD
ENDBRANCH  13  26
BRANCH  11  28
HETATM   28  O1  UNL     1      14.297 -29.997 -18.505  1.00  0.00    -0.395 OA
ATOM     29  H1  UNL     1      15.238 -29.878 -18.465  1.00  0.00     0.210 HD
ENDBRANCH  11  28
TORSDOF 6
ENDMDL
MODEL 2
REMARK VINA RESULT: -8.945217743      0.862      1.058
REMARK  6 active torsions:
REMARK  status: ('A' for Active; 'I' for Inactive)
REMARK    1  A    between atoms: C11_11  and  O1_12 
REMARK    2  A    between atoms: C13_15  and  O2_16 
REMARK    3  A    between atoms: C19_23  and  C20_24 
REMARK    4  A    between atoms: C20_24  and  C21_26 
REMARK    5  A    between atoms: C21_26  and  C22_27 
REMARK    6  A    between atoms: C22_27  and  O4_28 
ROOT
HETATM    1  C1  UNL     1       8.394 -25.995 -14.709  1.00  0.00     0.016 C 
HETATM    2  C2  UNL     1       8.018 -25.980 -16.132  1.00  0.00    -0.030 C 
HETATM    3  C3  UNL     1       8.924 -25.293 -17.058  1.00  0.00     0.011 C 
HETATM    4  C4  UNL     1      10.088 -26.085 -17.589  1.00  0.00     0.007 C 
HETATM    5  C5  UNL     1       9.662 -27.442 -18.100  1.00  0.00     0.001 C 
HETATM    6  C6  UNL     1       8.812 -28.202 -17.086  1.00  0.00    -0.005 C 
HETATM    7  C7  UNL     1       9.739 -28.760 -16.071  1.00  0.00     0.006 C 
HETATM    8  C8  UNL     1      10.417 -29.937 -16.795  1.00  0.00     0.006 C 
HETATM    9  C9  UNL     1      11.316 -29.345 -17.825  1.00  0.00    -0.001 C 
HETATM   10  C10 UNL     1      12.665 -28.943 -17.238  1.00  0.00     0.037 C 
HETATM   11  C11 UNL     1      13.636 -28.874 -18.371  1.00  0.00     0.121 C 
HETATM   12  C12 UNL     1      12.916 -28.600 -19.699  1.00  0.00     0.064 C 
HETATM   13  C13 UNL     1      11.852 -27.548 -19.337  1.00  0.00     0.129 C 
HETATM   14  C14 UNL     1      10.701 -28.288 -18.691  1.00  0.00    -0.010 C 
HETATM   15  C15 UNL     1      10.029 -29.049 -19.857  1.00  0.00     0.018 C 
HETATM   16  C16 UNL     1       7.708 -27.360 -16.691  1.00  0.00    -0.001 C 
HETATM   17  C17 UNL     1       6.697 -27.849 -15.727  1.00  0.00     0.006 C 
HETATM   18  C18 UNL     1       5.855 -26.582 -15.497  1.00  0.00     0.013 C 
HETATM   19  C19 UNL     1       6.585 -25.480 -16.225  1.00  0.00     0.064 C 
ENDROOT
BRANCH  19  20
HETATM   20  C20 UNL     1       6.378 -24.128 -15.800  1.00  0.00     0.133 C 
HETATM   21  O3  UNL     1       6.141 -23.316 -16.742  1.00  0.00    -0.297 OA
BRANCH  20  22
HETATM   22  C21 UNL     1       6.385 -23.500 -14.481  1.00  0.00     0.104 C 
BRANCH  22  23
HETATM   23  C22 UNL     1       4.961 -23.155 -14.060  1.00  0.00     0.171 C 
BRANCH  23  24
HETATM   24  O4  UNL     1       4.345 -24.246 -13.449  1.00  0.00    -0.400 OA
ATOM     25  H4  UNL     1       3.472 -24.019 -13.150  1.00  0.00     0.209 HD
ENDBRANCH  23  24
ENDBRANCH  22  23
ENDBRANCH  20  22
ENDBRANCH  19  20
BRANCH  13  26
HETATM   26  O2  UNL     1      12.520 -26.661 -18.538  1.00  0.00    -0.395 OA
ATOM     27  H2  UNL     1      13.232 -26.350 -19.083  1.00  0.00     0.210 HD
ENDBRANCH  13  26
BRANCH  11  28
HETATM   28  O1  UNL     1      14.317 -30.090 -18.563  1.00  0.00    -0.395 OA
ATOM     29  H1  UNL     1      15.231 -29.958 -18.785  1.00  0.00     0.210 HD
ENDBRANCH  11  28
TORSDOF 6
ENDMDL
MODEL 3
REMARK VINA RESULT: -8.884896202      1.534      7.179
REMARK  6 active torsions:
REMARK  status: ('A' for Active; 'I' for Inactive)
REMARK    1  A    between atoms: C11_11  and  O1_12 
REMARK    2  A    between atoms: C13_15  and  O2_16 
REMARK    3  A    between atoms: C19_23  and  C20_24 
REMARK    4  A    between atoms: C20_24  and  C21_26 
REMARK    5  A    between atoms: C21_26  and  C22_27 
REMARK    6  A    between atoms: C22_27  and  O4_28 
ROOT
HETATM    1  C1  UNL     1       9.751 -28.271 -19.113  1.00  0.00     0.016 C 
HETATM    2  C2  UNL     1      10.071 -27.972 -17.708  1.00  0.00    -0.030 C 
HETATM    3  C3  UNL     1      10.587 -26.632 -17.408  1.00  0.00     0.011 C 
HETATM    4  C4  UNL     1       9.573 -25.541 -17.192  1.00  0.00     0.007 C 
HETATM    5  C5  UNL     1       8.482 -25.964 -16.237  1.00  0.00     0.001 C 
HETATM    6  C6  UNL     1       7.868 -27.309 -16.618  1.00  0.00    -0.005 C 
HETATM    7  C7  UNL     1       6.931 -27.058 -17.740  1.00  0.00     0.006 C 
HETATM    8  C8  UNL     1       5.720 -26.385 -17.069  1.00  0.00     0.006 C 
HETATM    9  C9  UNL     1       6.163 -25.025 -16.651  1.00  0.00    -0.001 C 
HETATM   10  C10 UNL     1       6.072 -24.021 -17.796  1.00  0.00     0.037 C 
HETATM   11  C11 UNL     1       6.013 -22.660 -17.185  1.00  0.00     0.121 C 
HETATM   12  C12 UNL     1       6.664 -22.650 -15.795  1.00  0.00     0.064 C 
HETATM   13  C13 UNL     1       7.918 -23.526 -15.964  1.00  0.00     0.129 C 
HETATM   14  C14 UNL     1       7.462 -24.967 -15.906  1.00  0.00    -0.010 C 
HETATM   15  C15 UNL     1       7.097 -25.197 -14.422  1.00  0.00     0.018 C 
HETATM   16  C16 UNL     1       8.930 -28.277 -16.748  1.00  0.00    -0.001 C 
HETATM   17  C17 UNL     1       8.627 -29.685 -17.089  1.00  0.00     0.006 C 
HETATM   18  C18 UNL     1      10.039 -30.265 -17.280  1.00  0.00     0.013 C 
HETATM   19  C19 UNL     1      10.972 -29.082 -17.192  1.00  0.00     0.064 C 
ENDROOT
BRANCH  19  20
HETATM   20  C20 UNL     1      12.253 -29.176 -17.824  1.00  0.00     0.133 C 
HETATM   21  O3  UNL     1      12.311 -30.028 -18.760  1.00  0.00    -0.297 OA
BRANCH  20  22
HETATM   22  C21 UNL     1      13.515 -28.475 -17.599  1.00  0.00     0.104 C 
BRANCH  22  23
HETATM   23  C22 UNL     1      14.684 -29.441 -17.758  1.00  0.00     0.171 C 
BRANCH  23  24
HETATM   24  O4  UNL     1      14.973 -29.654 -19.105  1.00  0.00    -0.400 OA
ATOM     25  H4  UNL     1      15.748 -29.170 -19.367  1.00  0.00     0.209 HD
ENDBRANCH  23  24
ENDBRANCH  22  23
ENDBRANCH  20  22
ENDBRANCH  19  20
BRANCH  13  26
HETATM   26  O2  UNL     1       8.456 -23.113 -17.153  1.00  0.00    -0.395 OA
ATOM     27  H2  UNL     1       8.503 -23.907 -17.673  1.00  0.00     0.210 HD
ENDBRANCH  13  26
BRANCH  11  28
HETATM   28  O1  UNL     1       4.691 -22.227 -16.978  1.00  0.00    -0.395 OA
ATOM     29  H1  UNL     1       4.496 -22.096 -16.058  1.00  0.00     0.210 HD
ENDBRANCH  11  28
TORSDOF 6
ENDMDL
MODEL 4
REMARK VINA RESULT: -8.855076995      2.361      7.475
REMARK  6 active torsions:
REMARK  status: ('A' for Active; 'I' for Inactive)
REMARK    1  A    between atoms: C11_11  and  O1_12 
REMARK    2  A    between atoms: C13_15  and  O2_16 
REMARK    3  A    between atoms: C19_23  and  C20_24 
REMARK    4  A    between atoms: C20_24  and  C21_26 
REMARK    5  A    between atoms: C21_26  and  C22_27 
REMARK    6  A    between atoms: C22_27  and  O4_28 
ROOT
HETATM    1  C1  UNL     1       9.837 -30.775 -18.570  1.00  0.00     0.016 C 
HETATM    2  C2  UNL     1      10.097 -29.431 -19.111  1.00  0.00    -0.030 C 
HETATM    3  C3  UNL     1       8.946 -28.679 -19.622  1.00  0.00     0.011 C 
HETATM    4  C4  UNL     1       8.144 -27.893 -18.621  1.00  0.00     0.007 C 
HETATM    5  C5  UNL     1       9.025 -27.056 -17.722  1.00  0.00     0.001 C 
HETATM    6  C6  UNL     1      10.158 -27.870 -17.101  1.00  0.00    -0.005 C 
HETATM    7  C7  UNL     1       9.573 -28.646 -15.980  1.00  0.00     0.006 C 
HETATM    8  C8  UNL     1       9.354 -27.596 -14.876  1.00  0.00     0.006 C 
HETATM    9  C9  UNL     1       8.241 -26.719 -15.334  1.00  0.00    -0.001 C 
HETATM   10  C10 UNL     1       6.876 -27.321 -15.016  1.00  0.00     0.037 C 
HETATM   11  C11 UNL     1       5.889 -26.200 -15.011  1.00  0.00     0.121 C 
HETATM   12  C12 UNL     1       6.374 -25.035 -15.886  1.00  0.00     0.064 C 
HETATM   13  C13 UNL     1       6.975 -25.724 -17.125  1.00  0.00     0.129 C 
HETATM   14  C14 UNL     1       8.356 -26.205 -16.737  1.00  0.00    -0.010 C 
HETATM   15  C15 UNL     1       9.199 -24.913 -16.636  1.00  0.00     0.018 C 
HETATM   16  C16 UNL     1      10.878 -28.536 -18.161  1.00  0.00    -0.001 C 
HETATM   17  C17 UNL     1      12.052 -29.383 -17.854  1.00  0.00     0.006 C 
HETATM   18  C18 UNL     1      12.359 -29.990 -19.234  1.00  0.00     0.013 C 
HETATM   19  C19 UNL     1      11.223 -29.551 -20.126  1.00  0.00     0.064 C 
ENDROOT
BRANCH  19  20
HETATM   20  C20 UNL     1      10.923 -30.337 -21.285  1.00  0.00     0.133 C 
HETATM   21  O3  UNL     1      10.051 -29.827 -22.049  1.00  0.00    -0.297 OA
BRANCH  20  22
HETATM   22  C21 UNL     1      11.432 -31.621 -21.762  1.00  0.00     0.104 C 
BRANCH  22  23
HETATM   23  C22 UNL     1      12.523 -31.396 -22.802  1.00  0.00     0.171 C 
BRANCH  23  24
HETATM   24  O4  UNL     1      11.970 -31.059 -24.037  1.00  0.00    -0.400 OA
ATOM     25  H4  UNL     1      11.057 -31.318 -24.082  1.00  0.00     0.209 HD
ENDBRANCH  23  24
ENDBRANCH  22  23
ENDBRANCH  20  22
ENDBRANCH  19  20
BRANCH  13  26
HETATM   26  O2  UNL     1       6.066 -26.698 -17.439  1.00  0.00    -0.395 OA
ATOM     27  H2  UNL     1       5.329 -26.219 -17.798  1.00  0.00     0.210 HD
ENDBRANCH  13  26
BRANCH  11  28
HETATM   28  O1  UNL     1       5.714 -25.651 -13.728  1.00  0.00    -0.395 OA
ATOM     29  H1  UNL     1       5.993 -24.744 -13.685  1.00  0.00     0.210 HD
ENDBRANCH  11  28
TORSDOF 6
ENDMDL
MODEL 5
REMARK VINA RESULT: -8.689684819      1.925      7.212
REMARK  6 active torsions:
REMARK  status: ('A' for Active; 'I' for Inactive)
REMARK    1  A    between atoms: C11_11  and  O1_12 
REMARK    2  A    between atoms: C13_15  and  O2_16 
REMARK    3  A    between atoms: C19_23  and  C20_24 
REMARK    4  A    between atoms: C20_24  and  C21_26 
REMARK    5  A    between atoms: C21_26  and  C22_27 
REMARK    6  A    between atoms: C22_27  and  O4_28 
ROOT
HETATM    1  C1  UNL     1      10.216 -30.538 -18.158  1.00  0.00     0.016 C 
HETATM    2  C2  UNL     1      10.516 -29.189 -18.667  1.00  0.00    -0.030 C 
HETATM    3  C3  UNL     1       9.439 -28.481 -19.367  1.00  0.00     0.011 C 
HETATM    4  C4  UNL     1       8.460 -27.717 -18.518  1.00  0.00     0.007 C 
HETATM    5  C5  UNL     1       9.156 -26.843 -17.499  1.00  0.00     0.001 C 
HETATM    6  C6  UNL     1      10.199 -27.614 -16.693  1.00  0.00    -0.005 C 
HETATM    7  C7  UNL     1       9.467 -28.401 -15.672  1.00  0.00     0.006 C 
HETATM    8  C8  UNL     1       9.037 -27.351 -14.631  1.00  0.00     0.006 C 
HETATM    9  C9  UNL     1       7.984 -26.516 -15.274  1.00  0.00    -0.001 C 
HETATM   10  C10 UNL     1       6.607 -27.164 -15.172  1.00  0.00     0.037 C 
HETATM   11  C11 UNL     1       5.596 -26.077 -15.341  1.00  0.00     0.121 C 
HETATM   12  C12 UNL     1       6.177 -24.903 -16.142  1.00  0.00     0.064 C 
HETATM   13  C13 UNL     1       6.993 -25.579 -17.258  1.00  0.00     0.129 C 
HETATM   14  C14 UNL     1       8.308 -26.009 -16.646  1.00  0.00    -0.010 C 
HETATM   15  C15 UNL     1       9.080 -24.688 -16.426  1.00  0.00     0.018 C 
HETATM   16  C16 UNL     1      11.103 -28.261 -17.614  1.00  0.00    -0.001 C 
HETATM   17  C17 UNL     1      12.239 -29.065 -17.111  1.00  0.00     0.006 C 
HETATM   18  C18 UNL     1      12.785 -29.671 -18.416  1.00  0.00     0.013 C 
HETATM   19  C19 UNL     1      11.795 -29.278 -19.485  1.00  0.00     0.064 C 
ENDROOT
BRANCH  19  20
HETATM   20  C20 UNL     1      11.713 -30.082 -20.667  1.00  0.00     0.133 C 
HETATM   21  O3  UNL     1      12.743 -30.783 -20.893  1.00  0.00    -0.297 OA
BRANCH  20  22
HETATM   22  C21 UNL     1      10.664 -30.253 -21.669  1.00  0.00     0.104 C 
BRANCH  22  23
HETATM   23  C22 UNL     1      10.806 -29.198 -22.759  1.00  0.00     0.171 C 
BRANCH  23  24
HETATM   24  O4  UNL     1      12.106 -29.176 -23.264  1.00  0.00    -0.400 OA
ATOM     25  H4  UNL     1      12.710 -28.808 -22.629  1.00  0.00     0.209 HD
ENDBRANCH  23  24
ENDBRANCH  22  23
ENDBRANCH  20  22
ENDBRANCH  19  20
BRANCH  13  26
HETATM   26  O2  UNL     1       6.179 -26.586 -17.702  1.00  0.00    -0.395 OA
ATOM     27  H2  UNL     1       6.333 -26.611 -18.639  1.00  0.00     0.210 HD
ENDBRANCH  13  26
BRANCH  11  28
HETATM   28  O1  UNL     1       5.197 -25.526 -14.111  1.00  0.00    -0.395 OA
ATOM     29  H1  UNL     1       4.272 -25.309 -14.097  1.00  0.00     0.210 HD
ENDBRANCH  11  28
TORSDOF 6
ENDMDL
