MODEL 1
REMARK VINA RESULT: -5.650649361      0.000      0.000
REMARK  4 active torsions:
REMARK  status: ('A' for Active; 'I' for Inactive)
REMARK    1  A    between atoms: N1_2  and  N2_3 
REMARK       I    between atoms: N1_2  and  C11_26 
REMARK    2  A    between atoms: N3_5  and  C2_7 
REMARK    3  A    between atoms: C3_8  and  C4_9 
REMARK    4  A    between atoms: C5_14  and  N5_15 
ROOT
HETATM    1  C2  UNL     1     -13.811   0.797 -15.314  1.00  0.00     0.152 A 
HETATM    2  C3  UNL     1     -12.873   1.599 -15.945  1.00  0.00     0.159 A 
HETATM    3  N4  UNL     1     -13.096   2.029 -17.210  1.00  0.00    -0.182 N 
ATOM      4  H4  UNL     1     -12.408   2.619 -17.677  1.00  0.00     0.184 HD
HETATM    5  C5  UNL     1     -14.239   1.674 -17.856  1.00  0.00     0.684 A 
HETATM    6  N7  UNL     1     -15.174   0.896 -17.274  1.00  0.00    -0.154 N 
ATOM      7  H7  UNL     1     -16.026   0.639 -17.774  1.00  0.00     0.187 HD
HETATM    8  C10 UNL     1     -14.955   0.467 -16.018  1.00  0.00     0.290 A 
HETATM    9  O3  UNL     1     -15.800  -0.267 -15.422  1.00  0.00    -0.265 OA
ENDROOT
BRANCH   1  10
HETATM   10  N3  UNL     1     -13.553   0.369 -13.999  1.00  0.00    -0.279 N 
HETATM   11  N2  UNL     1     -14.182   0.662 -12.964  1.00  0.00    -0.237 N 
ATOM     12  H2  UNL     1     -14.993   1.280 -12.992  1.00  0.00     0.208 HD
ATOM     13  H3  UNL     1     -12.756  -0.256 -13.879  1.00  0.00     0.189 HD
BRANCH  11  14
HETATM   14  N1  UNL     1     -13.731   0.109 -11.765  1.00  0.00    -0.235 N 
HETATM   15  C1  UNL     1     -12.345  -0.296 -11.672  1.00  0.00     0.184 C 
HETATM   16  C11 UNL     1     -14.558  -0.078 -10.630  1.00  0.00     0.350 C 
HETATM   17  N8  UNL     1     -15.921   0.310 -10.690  1.00  0.00    -0.038 NA
HETATM   18  O4  UNL     1     -14.138  -0.577  -9.560  1.00  0.00    -0.249 OA
ENDBRANCH  11  14
ENDBRANCH   1  10
BRANCH   2  19
HETATM   19  C4  UNL     1     -11.662   1.955 -15.221  1.00  0.00     0.230 C 
HETATM   20  O1  UNL     1     -10.513   1.725 -15.662  1.00  0.00    -0.643 OA
HETATM   21  O2  UNL     1     -11.786   2.576 -13.991  1.00  0.00    -0.643 OA
ENDBRANCH   2  19
BRANCH   5  22
HETATM   22  N5  UNL     1     -14.415   2.162 -19.176  1.00  0.00    -0.214 N 
HETATM   23  C6  UNL     1     -15.706   2.379 -19.781  1.00  0.00     0.160 C 
HETATM   24  C7  UNL     1     -15.502   3.170 -21.038  1.00  0.00     0.134 C 
HETATM   25  N6  UNL     1     -14.575   4.251 -20.916  1.00  0.00    -0.418 N 
HETATM   26  C8  UNL     1     -13.318   3.931 -20.318  1.00  0.00     0.134 C 
ATOM     27  H6  UNL     1     -14.798   5.193 -21.238  1.00  0.00     0.153 HD
HETATM   28  C9  UNL     1     -13.248   2.467 -19.975  1.00  0.00     0.160 C 
ENDBRANCH   5  22
TORSDOF 4
ENDMDL
MODEL 2
REMARK VINA RESULT: -5.397151362      1.481      1.649
REMARK  4 active torsions:
REMARK  status: ('A' for Active; 'I' for Inactive)
REMARK    1  A    between atoms: N1_2  and  N2_3 
REMARK       I    between atoms: N1_2  and  C11_26 
REMARK    2  A    between atoms: N3_5  and  C2_7 
REMARK    3  A    between atoms: C3_8  and  C4_9 
REMARK    4  A    between atoms: C5_14  and  N5_15 
ROOT
HETATM    1  C2  UNL     1     -14.093  -0.166 -15.263  1.00  0.00     0.152 A 
HETATM    2  C3  UNL     1     -13.787   1.047 -15.860  1.00  0.00     0.159 A 
HETATM    3  N4  UNL     1     -14.139   1.270 -17.149  1.00  0.00    -0.182 N 
ATOM      4  H4  UNL     1     -13.915   2.161 -17.592  1.00  0.00     0.184 HD
HETATM    5  C5  UNL     1     -14.791   0.306 -17.852  1.00  0.00     0.684 A 
HETATM    6  N7  UNL     1     -15.105  -0.886 -17.304  1.00  0.00    -0.154 N 
ATOM      7  H7  UNL     1     -15.594  -1.599 -17.846  1.00  0.00     0.187 HD
HETATM    8  C10 UNL     1     -14.757  -1.110 -16.024  1.00  0.00     0.290 A 
HETATM    9  O3  UNL     1     -15.027  -2.213 -15.457  1.00  0.00    -0.265 OA
ENDROOT
BRANCH   1  10
HETATM   10  N3  UNL     1     -13.719  -0.367 -13.922  1.00  0.00    -0.279 N 
HETATM   11  N2  UNL     1     -14.461  -0.427 -12.923  1.00  0.00    -0.237 N 
ATOM     12  H2  UNL     1     -15.472  -0.329 -13.006  1.00  0.00     0.208 HD
ATOM     13  H3  UNL     1     -12.719  -0.476 -13.747  1.00  0.00     0.189 HD
BRANCH  11  14
HETATM   14  N1  UNL     1     -13.850  -0.635 -11.685  1.00  0.00    -0.235 N 
HETATM   15  C1  UNL     1     -12.432  -0.919 -11.657  1.00  0.00     0.184 C 
HETATM   16  C11 UNL     1     -14.545  -0.584 -10.452  1.00  0.00     0.350 C 
HETATM   17  N8  UNL     1     -15.936  -0.307 -10.448  1.00  0.00    -0.038 NA
HETATM   18  O4  UNL     1     -13.983  -0.774  -9.348  1.00  0.00    -0.249 OA
ENDBRANCH  11  14
ENDBRANCH   1  10
BRANCH   2  19
HETATM   19  C4  UNL     1     -13.087   2.053 -15.076  1.00  0.00     0.230 C 
HETATM   20  O1  UNL     1     -12.026   2.597 -15.459  1.00  0.00    -0.643 OA
HETATM   21  O2  UNL     1     -13.618   2.425 -13.853  1.00  0.00    -0.643 OA
ENDBRANCH   2  19
BRANCH   5  22
HETATM   22  N5  UNL     1     -15.136   0.604 -19.195  1.00  0.00    -0.214 N 
HETATM   23  C6  UNL     1     -16.121  -0.133 -19.948  1.00  0.00     0.160 C 
HETATM   24  C7  UNL     1     -16.430   0.644 -21.192  1.00  0.00     0.134 C 
HETATM   25  N6  UNL     1     -16.584   2.050 -20.992  1.00  0.00    -0.418 N 
HETATM   26  C8  UNL     1     -15.548   2.692 -20.246  1.00  0.00     0.134 C 
ATOM     27  H6  UNL     1     -17.385   2.564 -21.359  1.00  0.00     0.153 HD
HETATM   28  C9  UNL     1     -14.478   1.705 -19.863  1.00  0.00     0.160 C 
ENDBRANCH   5  22
TORSDOF 4
ENDMDL
MODEL 3
REMARK VINA RESULT: -5.334121164      1.686      2.994
REMARK  4 active torsions:
REMARK  status: ('A' for Active; 'I' for Inactive)
REMARK    1  A    between atoms: N1_2  and  N2_3 
REMARK       I    between atoms: N1_2  and  C11_26 
REMARK    2  A    between atoms: N3_5  and  C2_7 
REMARK    3  A    between atoms: C3_8  and  C4_9 
REMARK    4  A    between atoms: C5_14  and  N5_15 
ROOT
HETATM    1  C2  UNL     1     -13.404   1.222 -14.562  1.00  0.00     0.152 A 
HETATM    2  C3  UNL     1     -13.985   0.927 -15.785  1.00  0.00     0.159 A 
HETATM    3  N4  UNL     1     -13.558   1.561 -16.903  1.00  0.00    -0.182 N 
ATOM      4  H4  UNL     1     -13.984   1.347 -17.805  1.00  0.00     0.184 HD
HETATM    5  C5  UNL     1     -12.562   2.484 -16.823  1.00  0.00     0.684 A 
HETATM    6  N7  UNL     1     -11.973   2.796 -15.650  1.00  0.00    -0.154 N 
ATOM      7  H7  UNL     1     -11.228   3.491 -15.607  1.00  0.00     0.187 HD
HETATM    8  C10 UNL     1     -12.396   2.168 -14.538  1.00  0.00     0.290 A 
HETATM    9  O3  UNL     1     -11.878   2.422 -13.408  1.00  0.00    -0.265 OA
ENDROOT
BRANCH   1  10
HETATM   10  N3  UNL     1     -13.866   0.545 -13.419  1.00  0.00    -0.279 N 
HETATM   11  N2  UNL     1     -13.316   0.467 -12.303  1.00  0.00    -0.237 N 
ATOM     12  H2  UNL     1     -12.423   0.923 -12.118  1.00  0.00     0.208 HD
ATOM     13  H3  UNL     1     -14.757   0.058 -13.515  1.00  0.00     0.189 HD
BRANCH  11  14
HETATM   14  N1  UNL     1     -13.973  -0.270 -11.317  1.00  0.00    -0.235 N 
HETATM   15  C1  UNL     1     -13.252  -1.337 -10.658  1.00  0.00     0.184 C 
HETATM   16  C11 UNL     1     -15.314  -0.030 -10.925  1.00  0.00     0.350 C 
HETATM   17  N8  UNL     1     -16.047   1.009 -11.552  1.00  0.00    -0.038 NA
HETATM   18  O4  UNL     1     -15.891  -0.701 -10.038  1.00  0.00    -0.249 OA
ENDBRANCH  11  14
ENDBRANCH   1  10
BRANCH   2  19
HETATM   19  C4  UNL     1     -15.049  -0.064 -15.830  1.00  0.00     0.230 C 
HETATM   20  O1  UNL     1     -16.185   0.179 -16.297  1.00  0.00    -0.643 OA
HETATM   21  O2  UNL     1     -14.794  -1.331 -15.334  1.00  0.00    -0.643 OA
ENDBRANCH   2  19
BRANCH   5  22
HETATM   22  N5  UNL     1     -12.157   3.108 -18.030  1.00  0.00    -0.214 N 
HETATM   23  C6  UNL     1     -12.876   2.982 -19.274  1.00  0.00     0.160 C 
HETATM   24  C7  UNL     1     -12.334   4.003 -20.228  1.00  0.00     0.134 C 
HETATM   25  N6  UNL     1     -12.112   5.293 -19.655  1.00  0.00    -0.418 N 
HETATM   26  C8  UNL     1     -11.376   5.314 -18.430  1.00  0.00     0.134 C 
ATOM     27  H6  UNL     1     -12.457   6.147 -20.094  1.00  0.00     0.153 HD
HETATM   28  C9  UNL     1     -10.961   3.922 -18.034  1.00  0.00     0.160 C 
ENDBRANCH   5  22
TORSDOF 4
ENDMDL
MODEL 4
REMARK VINA RESULT: -5.195332956      1.604      3.053
REMARK  4 active torsions:
REMARK  status: ('A' for Active; 'I' for Inactive)
REMARK    1  A    between atoms: N1_2  and  N2_3 
REMARK       I    between atoms: N1_2  and  C11_26 
REMARK    2  A    between atoms: N3_5  and  C2_7 
REMARK    3  A    between atoms: C3_8  and  C4_9 
REMARK    4  A    between atoms: C5_14  and  N5_15 
ROOT
HETATM    1  C2  UNL     1     -13.444   1.418 -14.678  1.00  0.00     0.152 A 
HETATM    2  C3  UNL     1     -14.038   0.996 -15.857  1.00  0.00     0.159 A 
HETATM    3  N4  UNL     1     -13.609   1.492 -17.041  1.00  0.00    -0.182 N 
ATOM      4  H4  UNL     1     -14.044   1.184 -17.911  1.00  0.00     0.184 HD
HETATM    5  C5  UNL     1     -12.597   2.401 -17.071  1.00  0.00     0.684 A 
HETATM    6  N7  UNL     1     -11.995   2.834 -15.945  1.00  0.00    -0.154 N 
ATOM      7  H7  UNL     1     -11.238   3.517 -15.985  1.00  0.00     0.187 HD
HETATM    8  C10 UNL     1     -12.420   2.343 -14.766  1.00  0.00     0.290 A 
HETATM    9  O3  UNL     1     -11.890   2.715 -13.675  1.00  0.00    -0.265 OA
ENDROOT
BRANCH   1  10
HETATM   10  N3  UNL     1     -13.908   0.883 -13.463  1.00  0.00    -0.279 N 
HETATM   11  N2  UNL     1     -14.080   1.478 -12.381  1.00  0.00    -0.237 N 
ATOM     12  H2  UNL     1     -13.884   2.474 -12.287  1.00  0.00     0.208 HD
ATOM     13  H3  UNL     1     -14.131  -0.113 -13.467  1.00  0.00     0.189 HD
BRANCH  11  14
HETATM   14  N1  UNL     1     -14.553   0.725 -11.306  1.00  0.00    -0.235 N 
HETATM   15  C1  UNL     1     -15.888   0.991 -10.813  1.00  0.00     0.184 C 
HETATM   16  C11 UNL     1     -13.796  -0.288 -10.668  1.00  0.00     0.350 C 
HETATM   17  N8  UNL     1     -12.485  -0.572 -11.128  1.00  0.00    -0.038 NA
HETATM   18  O4  UNL     1     -14.235  -0.955  -9.702  1.00  0.00    -0.249 OA
ENDBRANCH  11  14
ENDBRANCH   1  10
BRANCH   2  19
HETATM   19  C4  UNL     1     -15.118   0.025 -15.783  1.00  0.00     0.230 C 
HETATM   20  O1  UNL     1     -16.246   0.221 -16.293  1.00  0.00    -0.643 OA
HETATM   21  O2  UNL     1     -14.890  -1.169 -15.121  1.00  0.00    -0.643 OA
ENDBRANCH   2  19
BRANCH   5  22
HETATM   22  N5  UNL     1     -12.190   2.877 -18.344  1.00  0.00    -0.214 N 
HETATM   23  C6  UNL     1     -12.778   2.438 -19.585  1.00  0.00     0.160 C 
HETATM   24  C7  UNL     1     -12.316   3.364 -20.670  1.00  0.00     0.134 C 
HETATM   25  N6  UNL     1     -12.333   4.748 -20.317  1.00  0.00    -0.418 N 
HETATM   26  C8  UNL     1     -11.711   5.084 -19.075  1.00  0.00     0.134 C 
ATOM     27  H6  UNL     1     -12.763   5.454 -20.916  1.00  0.00     0.153 HD
HETATM   28  C9  UNL     1     -11.131   3.859 -18.422  1.00  0.00     0.160 C 
ENDBRANCH   5  22
TORSDOF 4
ENDMDL
MODEL 5
REMARK VINA RESULT: -5.184252390      1.041      1.519
REMARK  4 active torsions:
REMARK  status: ('A' for Active; 'I' for Inactive)
REMARK    1  A    between atoms: N1_2  and  N2_3 
REMARK       I    between atoms: N1_2  and  C11_26 
REMARK    2  A    between atoms: N3_5  and  C2_7 
REMARK    3  A    between atoms: C3_8  and  C4_9 
REMARK    4  A    between atoms: C5_14  and  N5_15 
ROOT
HETATM    1  C2  UNL     1     -13.991   1.071 -15.164  1.00  0.00     0.152 A 
HETATM    2  C3  UNL     1     -12.954   1.760 -15.775  1.00  0.00     0.159 A 
HETATM    3  N4  UNL     1     -13.012   2.025 -17.102  1.00  0.00    -0.182 N 
ATOM      4  H4  UNL     1     -12.250   2.531 -17.554  1.00  0.00     0.184 HD
HETATM    5  C5  UNL     1     -14.085   1.616 -17.830  1.00  0.00     0.684 A 
HETATM    6  N7  UNL     1     -15.112   0.945 -17.270  1.00  0.00    -0.154 N 
ATOM      7  H7  UNL     1     -15.909   0.645 -17.832  1.00  0.00     0.187 HD
HETATM    8  C10 UNL     1     -15.057   0.680 -15.953  1.00  0.00     0.290 A 
HETATM    9  O3  UNL     1     -15.995   0.052 -15.373  1.00  0.00    -0.265 OA
ENDROOT
BRANCH   1  10
HETATM   10  N3  UNL     1     -13.905   0.814 -13.784  1.00  0.00    -0.279 N 
HETATM   11  N2  UNL     1     -13.923  -0.292 -13.211  1.00  0.00    -0.237 N 
ATOM     12  H2  UNL     1     -14.008  -1.162 -13.737  1.00  0.00     0.208 HD
ATOM     13  H3  UNL     1     -13.817   1.632 -13.180  1.00  0.00     0.189 HD
BRANCH  11  14
HETATM   14  N1  UNL     1     -13.823  -0.292 -11.819  1.00  0.00    -0.235 N 
HETATM   15  C1  UNL     1     -12.632  -0.848 -11.214  1.00  0.00     0.184 C 
HETATM   16  C11 UNL     1     -14.827   0.224 -10.963  1.00  0.00     0.350 C 
HETATM   17  N8  UNL     1     -16.006   0.776 -11.526  1.00  0.00    -0.038 NA
HETATM   18  O4  UNL     1     -14.723   0.217  -9.714  1.00  0.00    -0.249 OA
ENDBRANCH  11  14
ENDBRANCH   1  10
BRANCH   2  19
HETATM   19  C4  UNL     1     -11.823   2.178 -14.962  1.00  0.00     0.230 C 
HETATM   20  O1  UNL     1     -11.417   3.363 -14.920  1.00  0.00    -0.643 OA
HETATM   21  O2  UNL     1     -11.166   1.227 -14.202  1.00  0.00    -0.643 OA
ENDBRANCH   2  19
BRANCH   5  22
HETATM   22  N5  UNL     1     -14.087   1.930 -19.214  1.00  0.00    -0.214 N 
HETATM   23  C6  UNL     1     -12.906   1.908 -20.039  1.00  0.00     0.160 C 
HETATM   24  C7  UNL     1     -13.338   1.992 -21.471  1.00  0.00     0.134 C 
HETATM   25  N6  UNL     1     -14.461   1.173 -21.802  1.00  0.00    -0.418 N 
HETATM   26  C8  UNL     1     -15.590   1.279 -20.932  1.00  0.00     0.134 C 
ATOM     27  H6  UNL     1     -14.457   0.551 -22.611  1.00  0.00     0.153 HD
HETATM   28  C9  UNL     1     -15.335   2.293 -19.850  1.00  0.00     0.160 C 
ENDBRANCH   5  22
TORSDOF 4
ENDMDL
