MODEL 1
REMARK VINA RESULT: -5.826953743      0.000      0.000
REMARK  6 active torsions:
REMARK  status: ('A' for Active; 'I' for Inactive)
REMARK    1  A    between atoms: C2_2  and  N1_4 
REMARK    2  A    between atoms: C7_15  and  C8_16 
REMARK    3  A    between atoms: C8_16  and  C9_17 
REMARK    4  A    between atoms: C8_16  and  S1_24 
REMARK    5  A    between atoms: C9_17  and  N5_18 
REMARK    6  A    between atoms: C9_17  and  O1_22 
ROOT
HETATM    1  N1  UNL     1     -15.222   0.991 -17.267  1.00  0.00    -0.369 N 
ATOM      2  H1  UNL     1     -16.071   0.992 -16.701  1.00  0.00     0.161 HD
HETATM    3  C4  UNL     1     -14.062   1.123 -16.708  1.00  0.00     0.147 A 
HETATM    4  N2  UNL     1     -12.880   1.138 -17.347  1.00  0.00    -0.282 N 
ATOM      5  H2  UNL     1     -12.724   1.049 -18.352  1.00  0.00     0.188 HD
HETATM    6  N3  UNL     1     -11.961   1.292 -16.412  1.00  0.00    -0.282 N 
ATOM      7  H3  UNL     1     -10.959   1.340 -16.595  1.00  0.00     0.188 HD
HETATM    8  C5  UNL     1     -12.509   1.378 -15.189  1.00  0.00     0.154 A 
HETATM    9  C6  UNL     1     -13.873   1.272 -15.341  1.00  0.00     0.125 A 
HETATM   10  N4  UNL     1     -14.410   1.358 -14.122  1.00  0.00    -0.335 N 
ATOM     11  H4  UNL     1     -15.409   1.312 -13.921  1.00  0.00     0.168 HD
HETATM   12  C7  UNL     1     -13.420   1.517 -13.168  1.00  0.00     0.131 A 
HETATM   13  N6  UNL     1     -12.269   1.526 -13.845  1.00  0.00    -0.320 N 
HETATM   14  C11 UNL     1     -10.934   1.649 -13.361  1.00  0.00     0.159 C 
ENDROOT
BRANCH  12  15
HETATM   15  C8  UNL     1     -13.648   1.629 -11.733  1.00  0.00     0.136 C 
BRANCH  15  16
HETATM   16  C9  UNL     1     -14.258   2.915 -11.250  1.00  0.00     0.365 C 
BRANCH  16  17
HETATM   17  N5  UNL     1     -15.679   2.713 -10.907  1.00  0.00    -0.048 N 
ATOM     18  H53 UNL     1     -15.791   2.295  -9.983  1.00  0.00     0.277 HD
ATOM     19  H52 UNL     1     -16.157   3.597 -10.732  1.00  0.00     0.277 HD
ATOM     20  H51 UNL     1     -16.146   2.166 -11.631  1.00  0.00     0.277 HD
ENDBRANCH  16  17
BRANCH  16  21
HETATM   21  O1  UNL     1     -13.632   3.260 -10.034  1.00  0.00    -0.366 OA
ATOM     22  H1  UNL     1     -13.846   4.166  -9.843  1.00  0.00     0.212 HD
ENDBRANCH  16  21
ENDBRANCH  15  16
BRANCH  15  23
HETATM   23  S1  UNL     1     -14.316   0.189 -10.951  1.00  0.00     0.176 S 
HETATM   24  C10 UNL     1     -13.331  -1.238 -11.002  1.00  0.00     0.166 C 
HETATM   25  O2  UNL     1     -14.675   0.473  -9.507  1.00  0.00    -0.223 OA
HETATM   26  O3  UNL     1     -15.652  -0.087 -11.632  1.00  0.00    -0.223 OA
ENDBRANCH  15  23
ENDBRANCH  12  15
BRANCH   1  27
HETATM   27  C2  UNL     1     -15.303   0.844 -18.705  1.00  0.00     0.075 C 
HETATM   28  C1  UNL     1     -15.831   2.115 -19.335  1.00  0.00     0.031 C 
HETATM   29  C3  UNL     1     -16.162  -0.348 -19.097  1.00  0.00     0.031 C 
ENDBRANCH   1  27
TORSDOF 6
ENDMDL
MODEL 2
REMARK VINA RESULT: -5.721918201      1.187      1.328
REMARK  6 active torsions:
REMARK  status: ('A' for Active; 'I' for Inactive)
REMARK    1  A    between atoms: C2_2  and  N1_4 
REMARK    2  A    between atoms: C7_15  and  C8_16 
REMARK    3  A    between atoms: C8_16  and  C9_17 
REMARK    4  A    between atoms: C8_16  and  S1_24 
REMARK    5  A    between atoms: C9_17  and  N5_18 
REMARK    6  A    between atoms: C9_17  and  O1_22 
ROOT
HETATM    1  N1  UNL     1     -15.324  -0.800 -16.851  1.00  0.00    -0.369 N 
ATOM      2  H1  UNL     1     -15.936  -1.191 -16.135  1.00  0.00     0.161 HD
HETATM    3  C4  UNL     1     -14.414   0.065 -16.533  1.00  0.00     0.147 A 
HETATM    4  N2  UNL     1     -13.554   0.648 -17.385  1.00  0.00    -0.282 N 
ATOM      5  H2  UNL     1     -13.491   0.498 -18.393  1.00  0.00     0.188 HD
HETATM    6  N3  UNL     1     -12.807   1.455 -16.654  1.00  0.00    -0.282 N 
ATOM      7  H3  UNL     1     -12.057   2.037 -17.028  1.00  0.00     0.188 HD
HETATM    8  C5  UNL     1     -13.155   1.413 -15.358  1.00  0.00     0.154 A 
HETATM    9  C6  UNL     1     -14.196   0.521 -15.240  1.00  0.00     0.125 A 
HETATM   10  N4  UNL     1     -14.536   0.486 -13.950  1.00  0.00    -0.335 N 
ATOM     11  H4  UNL     1     -15.282  -0.090 -13.560  1.00  0.00     0.168 HD
HETATM   12  C7  UNL     1     -13.734   1.341 -13.216  1.00  0.00     0.131 A 
HETATM   13  N6  UNL     1     -12.899   1.895 -14.098  1.00  0.00    -0.320 N 
HETATM   14  C11 UNL     1     -11.854   2.840 -13.886  1.00  0.00     0.159 C 
ENDROOT
BRANCH  12  15
HETATM   15  C8  UNL     1     -13.820   1.540 -11.774  1.00  0.00     0.136 C 
BRANCH  15  16
HETATM   16  C9  UNL     1     -14.407   2.842 -11.311  1.00  0.00     0.365 C 
BRANCH  16  17
HETATM   17  N5  UNL     1     -15.789   2.642 -10.833  1.00  0.00    -0.048 N 
ATOM     18  H53 UNL     1     -16.233   1.839 -11.278  1.00  0.00     0.277 HD
ATOM     19  H52 UNL     1     -15.813   2.313  -9.868  1.00  0.00     0.277 HD
ATOM     20  H51 UNL     1     -16.336   3.495 -10.957  1.00  0.00     0.277 HD
ENDBRANCH  16  17
BRANCH  16  21
HETATM   21  O1  UNL     1     -13.684   3.264 -10.176  1.00  0.00    -0.366 OA
ATOM     22  H1  UNL     1     -14.283   3.286  -9.439  1.00  0.00     0.212 HD
ENDBRANCH  16  21
ENDBRANCH  15  16
BRANCH  15  23
HETATM   23  S1  UNL     1     -14.371   0.141 -10.841  1.00  0.00     0.176 S 
HETATM   24  C10 UNL     1     -13.335  -1.250 -10.857  1.00  0.00     0.166 C 
HETATM   25  O2  UNL     1     -14.641   0.521  -9.400  1.00  0.00    -0.223 OA
HETATM   26  O3  UNL     1     -15.739  -0.234 -11.402  1.00  0.00    -0.223 OA
ENDBRANCH  15  23
ENDBRANCH  12  15
BRANCH   1  27
HETATM   27  C2  UNL     1     -15.464  -1.205 -18.233  1.00  0.00     0.075 C 
HETATM   28  C1  UNL     1     -16.927  -1.377 -18.585  1.00  0.00     0.031 C 
HETATM   29  C3  UNL     1     -14.688  -2.479 -18.524  1.00  0.00     0.031 C 
ENDBRANCH   1  27
TORSDOF 6
ENDMDL
MODEL 3
REMARK VINA RESULT: -5.583900781      2.390      4.369
REMARK  6 active torsions:
REMARK  status: ('A' for Active; 'I' for Inactive)
REMARK    1  A    between atoms: C2_2  and  N1_4 
REMARK    2  A    between atoms: C7_15  and  C8_16 
REMARK    3  A    between atoms: C8_16  and  C9_17 
REMARK    4  A    between atoms: C8_16  and  S1_24 
REMARK    5  A    between atoms: C9_17  and  N5_18 
REMARK    6  A    between atoms: C9_17  and  O1_22 
ROOT
HETATM    1  N1  UNL     1     -10.568   3.892 -14.943  1.00  0.00    -0.369 N 
ATOM      2  H1  UNL     1     -10.373   3.943 -13.943  1.00  0.00     0.161 HD
HETATM    3  C4  UNL     1     -11.498   3.110 -15.389  1.00  0.00     0.147 A 
HETATM    4  N2  UNL     1     -11.844   2.959 -16.679  1.00  0.00    -0.282 N 
ATOM      5  H2  UNL     1     -11.432   3.431 -17.484  1.00  0.00     0.188 HD
HETATM    6  N3  UNL     1     -12.825   2.075 -16.692  1.00  0.00    -0.282 N 
ATOM      7  H3  UNL     1     -13.297   1.756 -17.538  1.00  0.00     0.188 HD
HETATM    8  C5  UNL     1     -13.125   1.650 -15.455  1.00  0.00     0.154 A 
HETATM    9  C6  UNL     1     -12.284   2.299 -14.581  1.00  0.00     0.125 A 
HETATM   10  N4  UNL     1     -12.588   1.871 -13.354  1.00  0.00    -0.335 N 
ATOM     11  H4  UNL     1     -12.127   2.180 -12.498  1.00  0.00     0.168 HD
HETATM   12  C7  UNL     1     -13.618   0.949 -13.406  1.00  0.00     0.131 A 
HETATM   13  N6  UNL     1     -13.929   0.831 -14.699  1.00  0.00    -0.320 N 
HETATM   14  C11 UNL     1     -14.927   0.027 -15.322  1.00  0.00     0.159 C 
ENDROOT
BRANCH  12  15
HETATM   15  C8  UNL     1     -14.212   0.289 -12.250  1.00  0.00     0.136 C 
BRANCH  15  16
HETATM   16  C9  UNL     1     -13.408  -0.812 -11.620  1.00  0.00     0.365 C 
BRANCH  16  17
HETATM   17  N5  UNL     1     -13.090  -1.852 -12.619  1.00  0.00    -0.048 N 
ATOM     18  H53 UNL     1     -13.361  -1.570 -13.560  1.00  0.00     0.277 HD
ATOM     19  H52 UNL     1     -12.085  -1.939 -12.769  1.00  0.00     0.277 HD
ATOM     20  H51 UNL     1     -13.512  -2.742 -12.352  1.00  0.00     0.277 HD
ENDBRANCH  16  17
BRANCH  16  21
HETATM   21  O1  UNL     1     -12.161  -0.275 -11.240  1.00  0.00    -0.366 OA
ATOM     22  H1  UNL     1     -11.697  -0.027 -12.032  1.00  0.00     0.212 HD
ENDBRANCH  16  21
ENDBRANCH  15  16
BRANCH  15  23
HETATM   23  S1  UNL     1     -14.991   1.360 -11.076  1.00  0.00     0.176 S 
HETATM   24  C10 UNL     1     -14.555   3.037 -11.159  1.00  0.00     0.166 C 
HETATM   25  O2  UNL     1     -16.500   1.252 -11.161  1.00  0.00    -0.223 OA
HETATM   26  O3  UNL     1     -14.643   0.808  -9.698  1.00  0.00    -0.223 OA
ENDBRANCH  15  23
ENDBRANCH  12  15
BRANCH   1  27
HETATM   27  C2  UNL     1      -9.808   4.694 -15.877  1.00  0.00     0.075 C 
HETATM   28  C1  UNL     1      -8.395   4.893 -15.370  1.00  0.00     0.031 C 
HETATM   29  C3  UNL     1     -10.478   6.033 -16.139  1.00  0.00     0.031 C 
ENDBRANCH   1  27
TORSDOF 6
ENDMDL
MODEL 4
REMARK VINA RESULT: -5.283626234      3.747      5.383
REMARK  6 active torsions:
REMARK  status: ('A' for Active; 'I' for Inactive)
REMARK    1  A    between atoms: C2_2  and  N1_4 
REMARK    2  A    between atoms: C7_15  and  C8_16 
REMARK    3  A    between atoms: C8_16  and  C9_17 
REMARK    4  A    between atoms: C8_16  and  S1_24 
REMARK    5  A    between atoms: C9_17  and  N5_18 
REMARK    6  A    between atoms: C9_17  and  O1_22 
ROOT
HETATM    1  N1  UNL     1     -12.464  -4.760 -13.456  1.00  0.00    -0.369 N 
ATOM      2  H1  UNL     1     -12.267  -4.567 -12.474  1.00  0.00     0.161 HD
HETATM    3  C4  UNL     1     -13.033  -3.864 -14.197  1.00  0.00     0.147 A 
HETATM    4  N2  UNL     1     -13.342  -4.001 -15.497  1.00  0.00    -0.282 N 
ATOM      5  H2  UNL     1     -13.175  -4.819 -16.084  1.00  0.00     0.188 HD
HETATM    6  N3  UNL     1     -13.905  -2.864 -15.861  1.00  0.00    -0.282 N 
ATOM      7  H3  UNL     1     -14.247  -2.669 -16.802  1.00  0.00     0.188 HD
HETATM    8  C5  UNL     1     -13.971  -1.995 -14.840  1.00  0.00     0.154 A 
HETATM    9  C6  UNL     1     -13.414  -2.609 -13.741  1.00  0.00     0.125 A 
HETATM   10  N4  UNL     1     -13.483  -1.739 -12.731  1.00  0.00    -0.335 N 
ATOM     11  H4  UNL     1     -13.147  -1.918 -11.785  1.00  0.00     0.168 HD
HETATM   12  C7  UNL     1     -14.077  -0.561 -13.148  1.00  0.00     0.131 A 
HETATM   13  N6  UNL     1     -14.365  -0.742 -14.438  1.00  0.00    -0.320 N 
HETATM   14  C11 UNL     1     -14.972   0.154 -15.366  1.00  0.00     0.159 C 
ENDROOT
BRANCH  12  15
HETATM   15  C8  UNL     1     -14.298   0.609 -12.308  1.00  0.00     0.136 C 
BRANCH  15  16
HETATM   16  C9  UNL     1     -15.005   0.374 -11.003  1.00  0.00     0.365 C 
BRANCH  16  17
HETATM   17  N5  UNL     1     -15.861   1.528 -10.666  1.00  0.00    -0.048 N 
ATOM     18  H53 UNL     1     -15.387   2.183 -10.043  1.00  0.00     0.277 HD
ATOM     19  H52 UNL     1     -15.994   2.148 -11.465  1.00  0.00     0.277 HD
ATOM     20  H51 UNL     1     -16.750   1.211 -10.278  1.00  0.00     0.277 HD
ENDBRANCH  16  17
BRANCH  16  21
HETATM   21  O1  UNL     1     -15.896  -0.704 -11.181  1.00  0.00    -0.366 OA
ATOM     22  H1  UNL     1     -16.440  -0.764 -10.405  1.00  0.00     0.212 HD
ENDBRANCH  16  21
ENDBRANCH  15  16
BRANCH  15  23
HETATM   23  S1  UNL     1     -12.935   1.730 -12.184  1.00  0.00     0.176 S 
HETATM   24  C10 UNL     1     -12.402   2.458 -13.667  1.00  0.00     0.166 C 
HETATM   25  O2  UNL     1     -13.227   2.833 -11.188  1.00  0.00    -0.223 OA
HETATM   26  O3  UNL     1     -11.788   0.942 -11.560  1.00  0.00    -0.223 OA
ENDBRANCH  15  23
ENDBRANCH  12  15
BRANCH   1  27
HETATM   27  C2  UNL     1     -12.109  -6.037 -14.036  1.00  0.00     0.075 C 
HETATM   28  C1  UNL     1     -12.712  -7.167 -13.227  1.00  0.00     0.031 C 
HETATM   29  C3  UNL     1     -10.602  -6.201 -14.148  1.00  0.00     0.031 C 
ENDBRANCH   1  27
TORSDOF 6
ENDMDL
MODEL 5
REMARK VINA RESULT: -5.227354797      2.544      4.936
REMARK  6 active torsions:
REMARK  status: ('A' for Active; 'I' for Inactive)
REMARK    1  A    between atoms: C2_2  and  N1_4 
REMARK    2  A    between atoms: C7_15  and  C8_16 
REMARK    3  A    between atoms: C8_16  and  C9_17 
REMARK    4  A    between atoms: C8_16  and  S1_24 
REMARK    5  A    between atoms: C9_17  and  N5_18 
REMARK    6  A    between atoms: C9_17  and  O1_22 
ROOT
HETATM    1  N1  UNL     1      -9.621   3.896 -14.629  1.00  0.00    -0.369 N 
ATOM      2  H1  UNL     1      -9.677   3.828 -13.613  1.00  0.00     0.161 HD
HETATM    3  C4  UNL     1     -10.553   3.390 -15.371  1.00  0.00     0.147 A 
HETATM    4  N2  UNL     1     -10.588   3.416 -16.714  1.00  0.00    -0.282 N 
ATOM      5  H2  UNL     1      -9.896   3.832 -17.338  1.00  0.00     0.188 HD
HETATM    6  N3  UNL     1     -11.700   2.794 -17.063  1.00  0.00    -0.282 N 
ATOM      7  H3  UNL     1     -12.001   2.656 -18.027  1.00  0.00     0.188 HD
HETATM    8  C5  UNL     1     -12.384   2.366 -15.990  1.00  0.00     0.154 A 
HETATM    9  C6  UNL     1     -11.671   2.735 -14.873  1.00  0.00     0.125 A 
HETATM   10  N4  UNL     1     -12.359   2.306 -13.811  1.00  0.00    -0.335 N 
ATOM     11  H4  UNL     1     -12.072   2.436 -12.841  1.00  0.00     0.168 HD
HETATM   12  C7  UNL     1     -13.515   1.661 -14.213  1.00  0.00     0.131 A 
HETATM   13  N6  UNL     1     -13.508   1.712 -15.547  1.00  0.00    -0.320 N 
HETATM   14  C11 UNL     1     -14.465   1.213 -16.478  1.00  0.00     0.159 C 
ENDROOT
BRANCH  12  15
HETATM   15  C8  UNL     1     -14.507   1.082 -13.316  1.00  0.00     0.136 C 
BRANCH  15  16
HETATM   16  C9  UNL     1     -14.876  -0.353 -13.562  1.00  0.00     0.365 C 
BRANCH  16  17
HETATM   17  N5  UNL     1     -13.996  -1.250 -12.787  1.00  0.00    -0.048 N 
ATOM     18  H53 UNL     1     -13.205  -1.578 -13.341  1.00  0.00     0.277 HD
ATOM     19  H52 UNL     1     -13.478  -0.746 -12.068  1.00  0.00     0.277 HD
ATOM     20  H51 UNL     1     -14.532  -2.025 -12.396  1.00  0.00     0.277 HD
ENDBRANCH  16  17
BRANCH  16  21
HETATM   21  O1  UNL     1     -16.168  -0.564 -13.037  1.00  0.00    -0.366 OA
ATOM     22  H1  UNL     1     -16.221  -0.113 -12.203  1.00  0.00     0.212 HD
ENDBRANCH  16  21
ENDBRANCH  15  16
BRANCH  15  23
HETATM   23  S1  UNL     1     -14.314   1.482 -11.603  1.00  0.00     0.176 S 
HETATM   24  C10 UNL     1     -14.588   3.138 -11.165  1.00  0.00     0.166 C 
HETATM   25  O2  UNL     1     -15.196   0.605 -10.738  1.00  0.00    -0.223 OA
HETATM   26  O3  UNL     1     -12.890   1.083 -11.229  1.00  0.00    -0.223 OA
ENDBRANCH  15  23
ENDBRANCH  12  15
BRANCH   1  27
HETATM   27  C2  UNL     1      -8.498   4.558 -15.257  1.00  0.00     0.075 C 
HETATM   28  C1  UNL     1      -7.229   4.297 -14.472  1.00  0.00     0.031 C 
HETATM   29  C3  UNL     1      -8.740   6.051 -15.405  1.00  0.00     0.031 C 
ENDBRANCH   1  27
TORSDOF 6
ENDMDL
