MODEL 1
REMARK VINA RESULT: -6.345025015      0.000      0.000
REMARK  5 active torsions:
REMARK  status: ('A' for Active; 'I' for Inactive)
REMARK    1  A    between atoms: C2_2  and  N1_3 
REMARK    2  A    between atoms: C6_13  and  S1_14 
REMARK    3  A    between atoms: S1_14  and  C7_15 
REMARK    4  A    between atoms: C7_15  and  C8_16 
REMARK       I    between atoms: C8_16  and  N4_18 
REMARK    5  A    between atoms: N4_18  and  N5_20 
REMARK       I    between atoms: N5_20  and  C9_22 
ROOT
HETATM    1  N1  UNL     1     -14.473   1.283 -11.793  1.00  0.00    -0.283 N 
HETATM    2  C3  UNL     1     -15.354   0.237 -11.741  1.00  0.00     0.331 A 
HETATM    3  O1  UNL     1     -16.051  -0.010 -10.733  1.00  0.00    -0.246 OA
HETATM    4  N2  UNL     1     -15.442  -0.530 -12.845  1.00  0.00    -0.273 N 
ATOM      5  H2  UNL     1     -16.091  -1.318 -12.839  1.00  0.00     0.173 HD
HETATM    6  C4  UNL     1     -14.723  -0.308 -13.942  1.00  0.00     0.280 A 
HETATM    7  O2  UNL     1     -14.785  -1.016 -14.998  1.00  0.00    -0.265 OA
HETATM    8  C5  UNL     1     -13.819   0.756 -14.011  1.00  0.00     0.148 A 
HETATM    9  N3  UNL     1     -12.996   1.201 -14.968  1.00  0.00    -0.329 N 
ATOM     10  H3  UNL     1     -12.872   0.802 -15.899  1.00  0.00     0.168 HD
HETATM   11  C6  UNL     1     -12.363   2.279 -14.467  1.00  0.00     0.147 A 
HETATM   12  N6  UNL     1     -12.808   2.482 -13.204  1.00  0.00    -0.321 N 
ATOM     13  H6  UNL     1     -12.496   3.232 -12.587  1.00  0.00     0.169 HD
HETATM   14  C11 UNL     1     -13.736   1.533 -12.880  1.00  0.00     0.146 A 
ENDROOT
BRANCH  11  15
HETATM   15  S1  UNL     1     -11.171   3.283 -15.379  1.00  0.00    -0.084 SA
BRANCH  15  16
HETATM   16  C7  UNL     1      -9.544   2.437 -15.275  1.00  0.00     0.186 C 
BRANCH  16  17
HETATM   17  C8  UNL     1      -8.740   3.021 -14.176  1.00  0.00     0.245 C 
HETATM   18  O3  UNL     1      -8.252   2.261 -13.321  1.00  0.00    -0.271 OA
HETATM   19  N4  UNL     1      -8.536   4.404 -14.107  1.00  0.00    -0.267 N 
ATOM     20  H4  UNL     1      -8.942   5.013 -14.817  1.00  0.00     0.190 HD
BRANCH  19  21
HETATM   21  N5  UNL     1      -7.779   4.954 -13.070  1.00  0.00    -0.268 N 
HETATM   22  C9  UNL     1      -7.398   6.322 -13.017  1.00  0.00     0.232 C 
HETATM   23  C10 UNL     1      -6.587   6.814 -11.852  1.00  0.00     0.119 C 
HETATM   24  O4  UNL     1      -7.730   7.112 -13.923  1.00  0.00    -0.272 OA
ATOM     25  H5  UNL     1      -7.484   4.341 -12.310  1.00  0.00     0.190 HD
ENDBRANCH  19  21
ENDBRANCH  16  17
ENDBRANCH  15  16
ENDBRANCH  11  15
BRANCH   1  26
HETATM   26  C2  UNL     1     -14.415   2.105 -10.615  1.00  0.00     0.131 C 
HETATM   27  C1  UNL     1     -14.959   3.488 -10.781  1.00  0.00     0.027 C 
ENDBRANCH   1  26
TORSDOF 5
ENDMDL
MODEL 2
REMARK VINA RESULT: -6.261938179      2.909      3.474
REMARK  5 active torsions:
REMARK  status: ('A' for Active; 'I' for Inactive)
REMARK    1  A    between atoms: C2_2  and  N1_3 
REMARK    2  A    between atoms: C6_13  and  S1_14 
REMARK    3  A    between atoms: S1_14  and  C7_15 
REMARK    4  A    between atoms: C7_15  and  C8_16 
REMARK       I    between atoms: C8_16  and  N4_18 
REMARK    5  A    between atoms: N4_18  and  N5_20 
REMARK       I    between atoms: N5_20  and  C9_22 
ROOT
HETATM    1  N1  UNL     1     -14.084  -0.026 -11.216  1.00  0.00    -0.283 N 
HETATM    2  C3  UNL     1     -15.227   0.502 -10.680  1.00  0.00     0.331 A 
HETATM    3  O1  UNL     1     -16.050  -0.183 -10.035  1.00  0.00    -0.246 OA
HETATM    4  N2  UNL     1     -15.432   1.819 -10.880  1.00  0.00    -0.273 N 
ATOM      5  H2  UNL     1     -16.274   2.244 -10.493  1.00  0.00     0.173 HD
HETATM    6  C4  UNL     1     -14.586   2.590 -11.559  1.00  0.00     0.280 A 
HETATM    7  O2  UNL     1     -14.754   3.834 -11.764  1.00  0.00    -0.265 OA
HETATM    8  C5  UNL     1     -13.414   2.066 -12.112  1.00  0.00     0.148 A 
HETATM    9  N3  UNL     1     -12.411   2.603 -12.816  1.00  0.00    -0.329 N 
ATOM     10  H3  UNL     1     -12.321   3.578 -13.101  1.00  0.00     0.168 HD
HETATM   11  C6  UNL     1     -11.541   1.608 -13.076  1.00  0.00     0.147 A 
HETATM   12  N6  UNL     1     -12.024   0.469 -12.526  1.00  0.00    -0.321 N 
ATOM     13  H6  UNL     1     -11.568  -0.443 -12.570  1.00  0.00     0.169 HD
HETATM   14  C11 UNL     1     -13.214   0.722 -11.902  1.00  0.00     0.146 A 
ENDROOT
BRANCH  11  15
HETATM   15  S1  UNL     1      -9.984   1.815 -13.967  1.00  0.00    -0.084 SA
BRANCH  15  16
HETATM   16  C7  UNL     1     -10.387   1.976 -15.751  1.00  0.00     0.186 C 
BRANCH  16  17
HETATM   17  C8  UNL     1     -10.805   3.366 -16.052  1.00  0.00     0.245 C 
HETATM   18  O3  UNL     1     -11.716   3.552 -16.878  1.00  0.00    -0.271 OA
HETATM   19  N4  UNL     1     -10.183   4.445 -15.414  1.00  0.00    -0.267 N 
ATOM     20  H4  UNL     1      -9.438   4.274 -14.738  1.00  0.00     0.190 HD
BRANCH  19  21
HETATM   21  N5  UNL     1     -10.577   5.755 -15.699  1.00  0.00    -0.268 N 
HETATM   22  C9  UNL     1      -9.953   6.564 -16.686  1.00  0.00     0.232 C 
HETATM   23  C10 UNL     1     -10.459   7.960 -16.916  1.00  0.00     0.119 C 
HETATM   24  O4  UNL     1      -8.997   6.129 -17.357  1.00  0.00    -0.272 OA
ATOM     25  H5  UNL     1     -11.354   6.151 -15.170  1.00  0.00     0.190 HD
ENDBRANCH  19  21
ENDBRANCH  16  17
ENDBRANCH  15  16
ENDBRANCH  11  15
BRANCH   1  26
HETATM   26  C2  UNL     1     -13.871  -1.426 -10.967  1.00  0.00     0.131 C 
HETATM   27  C1  UNL     1     -13.218  -1.745  -9.659  1.00  0.00     0.027 C 
ENDBRANCH   1  26
TORSDOF 5
ENDMDL
MODEL 3
REMARK VINA RESULT: -6.251794475      2.366      2.573
REMARK  5 active torsions:
REMARK  status: ('A' for Active; 'I' for Inactive)
REMARK    1  A    between atoms: C2_2  and  N1_3 
REMARK    2  A    between atoms: C6_13  and  S1_14 
REMARK    3  A    between atoms: S1_14  and  C7_15 
REMARK    4  A    between atoms: C7_15  and  C8_16 
REMARK       I    between atoms: C8_16  and  N4_18 
REMARK    5  A    between atoms: N4_18  and  N5_20 
REMARK       I    between atoms: N5_20  and  C9_22 
ROOT
HETATM    1  N1  UNL     1     -14.416   1.301 -11.959  1.00  0.00    -0.283 N 
HETATM    2  C3  UNL     1     -15.300   0.305 -11.644  1.00  0.00     0.331 A 
HETATM    3  O1  UNL     1     -15.863   0.227 -10.530  1.00  0.00    -0.246 OA
HETATM    4  N2  UNL     1     -15.545  -0.606 -12.605  1.00  0.00    -0.273 N 
ATOM      5  H2  UNL     1     -16.200  -1.362 -12.404  1.00  0.00     0.173 HD
HETATM    6  C4  UNL     1     -14.972  -0.567 -13.806  1.00  0.00     0.280 A 
HETATM    7  O2  UNL     1     -15.184  -1.414 -14.731  1.00  0.00    -0.265 OA
HETATM    8  C5  UNL     1     -14.067   0.444 -14.143  1.00  0.00     0.148 A 
HETATM    9  N3  UNL     1     -13.370   0.720 -15.251  1.00  0.00    -0.329 N 
ATOM     10  H3  UNL     1     -13.376   0.189 -16.122  1.00  0.00     0.168 HD
HETATM   11  C6  UNL     1     -12.659   1.835 -14.995  1.00  0.00     0.147 A 
HETATM   12  N6  UNL     1     -12.930   2.230 -13.729  1.00  0.00    -0.321 N 
ATOM     13  H6  UNL     1     -12.528   3.047 -13.271  1.00  0.00     0.169 HD
HETATM   14  C11 UNL     1     -13.824   1.369 -13.155  1.00  0.00     0.146 A 
ENDROOT
BRANCH  11  15
HETATM   15  S1  UNL     1     -11.580   2.657 -16.187  1.00  0.00    -0.084 SA
BRANCH  15  16
HETATM   16  C7  UNL     1      -9.984   2.998 -15.344  1.00  0.00     0.186 C 
BRANCH  16  17
HETATM   17  C8  UNL     1      -9.628   4.428 -15.496  1.00  0.00     0.245 C 
HETATM   18  O3  UNL     1      -8.437   4.765 -15.375  1.00  0.00    -0.271 OA
HETATM   19  N4  UNL     1     -10.618   5.378 -15.772  1.00  0.00    -0.267 N 
ATOM     20  H4  UNL     1     -11.590   5.084 -15.870  1.00  0.00     0.190 HD
BRANCH  19  21
HETATM   21  N5  UNL     1     -10.281   6.726 -15.914  1.00  0.00    -0.268 N 
HETATM   22  C9  UNL     1     -10.478   7.461 -17.115  1.00  0.00     0.232 C 
HETATM   23  C10 UNL     1     -10.086   8.911 -17.160  1.00  0.00     0.119 C 
HETATM   24  O4  UNL     1     -10.969   6.917 -18.123  1.00  0.00    -0.272 OA
ATOM     25  H5  UNL     1      -9.873   7.209 -15.114  1.00  0.00     0.190 HD
ENDBRANCH  19  21
ENDBRANCH  16  17
ENDBRANCH  15  16
ENDBRANCH  11  15
BRANCH   1  26
HETATM   26  C2  UNL     1     -14.190   2.279 -10.928  1.00  0.00     0.131 C 
HETATM   27  C1  UNL     1     -14.945   3.559 -11.094  1.00  0.00     0.027 C 
ENDBRANCH   1  26
TORSDOF 5
ENDMDL
MODEL 4
REMARK VINA RESULT: -6.201543161      3.653      5.087
REMARK  5 active torsions:
REMARK  status: ('A' for Active; 'I' for Inactive)
REMARK    1  A    between atoms: C2_2  and  N1_3 
REMARK    2  A    between atoms: C6_13  and  S1_14 
REMARK    3  A    between atoms: S1_14  and  C7_15 
REMARK    4  A    between atoms: C7_15  and  C8_16 
REMARK       I    between atoms: C8_16  and  N4_18 
REMARK    5  A    between atoms: N4_18  and  N5_20 
REMARK       I    between atoms: N5_20  and  C9_22 
ROOT
HETATM    1  N1  UNL     1     -14.044  -0.091 -11.152  1.00  0.00    -0.283 N 
HETATM    2  C3  UNL     1     -15.193   0.464 -10.658  1.00  0.00     0.331 A 
HETATM    3  O1  UNL     1     -16.037  -0.193 -10.010  1.00  0.00    -0.246 OA
HETATM    4  N2  UNL     1     -15.380   1.776 -10.902  1.00  0.00    -0.273 N 
ATOM      5  H2  UNL     1     -16.226   2.221 -10.546  1.00  0.00     0.173 HD
HETATM    6  C4  UNL     1     -14.511   2.517 -11.585  1.00  0.00     0.280 A 
HETATM    7  O2  UNL     1     -14.662   3.757 -11.830  1.00  0.00    -0.265 OA
HETATM    8  C5  UNL     1     -13.333   1.966 -12.095  1.00  0.00     0.148 A 
HETATM    9  N3  UNL     1     -12.309   2.471 -12.793  1.00  0.00    -0.329 N 
ATOM     10  H3  UNL     1     -12.204   3.437 -13.105  1.00  0.00     0.168 HD
HETATM   11  C6  UNL     1     -11.445   1.460 -13.004  1.00  0.00     0.147 A 
HETATM   12  N6  UNL     1     -11.951   0.343 -12.430  1.00  0.00    -0.321 N 
ATOM     13  H6  UNL     1     -11.504  -0.573 -12.437  1.00  0.00     0.169 HD
HETATM   14  C11 UNL     1     -13.152   0.627 -11.841  1.00  0.00     0.146 A 
ENDROOT
BRANCH  11  15
HETATM   15  S1  UNL     1      -9.866   1.626 -13.865  1.00  0.00    -0.084 SA
BRANCH  15  16
HETATM   16  C7  UNL     1      -9.790   0.301 -15.136  1.00  0.00     0.186 C 
BRANCH  16  17
HETATM   17  C8  UNL     1     -11.131   0.096 -15.733  1.00  0.00     0.245 C 
HETATM   18  O3  UNL     1     -11.749  -0.951 -15.472  1.00  0.00    -0.271 OA
HETATM   19  N4  UNL     1     -11.686   1.067 -16.574  1.00  0.00    -0.267 N 
ATOM     20  H4  UNL     1     -11.166   1.921 -16.776  1.00  0.00     0.190 HD
BRANCH  19  21
HETATM   21  N5  UNL     1     -12.949   0.872 -17.138  1.00  0.00    -0.268 N 
HETATM   22  C9  UNL     1     -14.162   1.212 -16.480  1.00  0.00     0.232 C 
HETATM   23  C10 UNL     1     -15.469   0.966 -17.179  1.00  0.00     0.119 C 
HETATM   24  O4  UNL     1     -14.151   1.709 -15.336  1.00  0.00    -0.272 OA
ATOM     25  H5  UNL     1     -13.004   0.465 -18.071  1.00  0.00     0.190 HD
ENDBRANCH  19  21
ENDBRANCH  16  17
ENDBRANCH  15  16
ENDBRANCH  11  15
BRANCH   1  26
HETATM   26  C2  UNL     1     -13.851  -1.485 -10.856  1.00  0.00     0.131 C 
HETATM   27  C1  UNL     1     -13.211  -1.769  -9.535  1.00  0.00     0.027 C 
ENDBRANCH   1  26
TORSDOF 5
ENDMDL
MODEL 5
REMARK VINA RESULT: -6.195912582      1.602      1.749
REMARK  5 active torsions:
REMARK  status: ('A' for Active; 'I' for Inactive)
REMARK    1  A    between atoms: C2_2  and  N1_3 
REMARK    2  A    between atoms: C6_13  and  S1_14 
REMARK    3  A    between atoms: S1_14  and  C7_15 
REMARK    4  A    between atoms: C7_15  and  C8_16 
REMARK       I    between atoms: C8_16  and  N4_18 
REMARK    5  A    between atoms: N4_18  and  N5_20 
REMARK       I    between atoms: N5_20  and  C9_22 
ROOT
HETATM    1  N1  UNL     1     -14.478   1.293 -11.846  1.00  0.00    -0.283 N 
HETATM    2  C3  UNL     1     -15.349   0.257 -11.654  1.00  0.00     0.331 A 
HETATM    3  O1  UNL     1     -15.966   0.082 -10.580  1.00  0.00    -0.246 OA
HETATM    4  N2  UNL     1     -15.521  -0.584 -12.692  1.00  0.00    -0.273 N 
ATOM      5  H2  UNL     1     -16.166  -1.368 -12.582  1.00  0.00     0.173 HD
HETATM    6  C4  UNL     1     -14.889  -0.440 -13.855  1.00  0.00     0.280 A 
HETATM    7  O2  UNL     1     -15.032  -1.219 -14.851  1.00  0.00    -0.265 OA
HETATM    8  C5  UNL     1     -13.996   0.613 -14.067  1.00  0.00     0.148 A 
HETATM    9  N3  UNL     1     -13.251   0.990 -15.113  1.00  0.00    -0.329 N 
ATOM     10  H3  UNL     1     -13.199   0.527 -16.020  1.00  0.00     0.168 HD
HETATM   11  C6  UNL     1     -12.584   2.098 -14.737  1.00  0.00     0.147 A 
HETATM   12  N6  UNL     1     -12.929   2.388 -13.461  1.00  0.00    -0.321 N 
ATOM     13  H6  UNL     1     -12.572   3.177 -12.923  1.00  0.00     0.169 HD
HETATM   14  C11 UNL     1     -13.828   1.466 -13.001  1.00  0.00     0.146 A 
ENDROOT
BRANCH  11  15
HETATM   15  S1  UNL     1     -11.468   3.032 -15.806  1.00  0.00    -0.084 SA
BRANCH  15  16
HETATM   16  C7  UNL     1      -9.954   3.403 -14.834  1.00  0.00     0.186 C 
BRANCH  16  17
HETATM   17  C8  UNL     1      -9.154   4.443 -15.523  1.00  0.00     0.245 C 
HETATM   18  O3  UNL     1      -8.144   4.096 -16.162  1.00  0.00    -0.271 OA
HETATM   19  N4  UNL     1      -9.531   5.788 -15.452  1.00  0.00    -0.267 N 
ATOM     20  H4  UNL     1     -10.363   6.055 -14.925  1.00  0.00     0.190 HD
BRANCH  19  21
HETATM   21  N5  UNL     1      -8.776   6.768 -16.100  1.00  0.00    -0.268 N 
HETATM   22  C9  UNL     1      -7.938   7.691 -15.418  1.00  0.00     0.232 C 
HETATM   23  C10 UNL     1      -7.162   8.703 -16.212  1.00  0.00     0.119 C 
HETATM   24  O4  UNL     1      -7.842   7.667 -14.175  1.00  0.00    -0.272 OA
ATOM     25  H5  UNL     1      -8.828   6.824 -17.117  1.00  0.00     0.190 HD
ENDBRANCH  19  21
ENDBRANCH  16  17
ENDBRANCH  15  16
ENDBRANCH  11  15
BRANCH   1  26
HETATM   26  C2  UNL     1     -14.330   2.195 -10.735  1.00  0.00     0.131 C 
HETATM   27  C1  UNL     1     -14.971   3.534 -10.917  1.00  0.00     0.027 C 
ENDBRANCH   1  26
TORSDOF 5
ENDMDL
