MODEL 1
REMARK VINA RESULT: -5.286526394      0.000      0.000
REMARK  6 active torsions:
REMARK  status: ('A' for Active; 'I' for Inactive)
REMARK    1  A    between atoms: C4_4  and  C5_5 
REMARK    2  A    between atoms: C5_5  and  O1_6 
REMARK    3  A    between atoms: C7_13  and  N1_14 
REMARK       I    between atoms: N1_14  and  C8_16 
REMARK    4  A    between atoms: C8_16  and  C9_18 
REMARK    5  A    between atoms: C9_18  and  N2_19 
REMARK    6  A    between atoms: C9_18  and  C10_23 
ROOT
HETATM    1  C5  UNL     1     -12.856   1.639 -12.922  1.00  0.00     0.160 C 
HETATM    2  S1  UNL     1     -13.814   2.555 -11.639  1.00  0.00     0.008 SA
HETATM    3  S2  UNL     1     -14.914   0.856 -10.989  1.00  0.00     0.204 S 
HETATM    4  O2  UNL     1     -14.608   0.534  -9.578  1.00  0.00    -0.216 OA
HETATM    5  O3  UNL     1     -16.354   1.007 -11.296  1.00  0.00    -0.216 OA
HETATM    6  C6  UNL     1     -14.113  -0.297 -12.123  1.00  0.00     0.181 C 
HETATM    7  C7  UNL     1     -13.874   0.589 -13.321  1.00  0.00     0.149 C 
ENDROOT
BRANCH   7   8
HETATM    8  N1  UNL     1     -13.503  -0.141 -14.484  1.00  0.00    -0.350 N 
HETATM    9  C8  UNL     1     -14.475  -0.455 -15.468  1.00  0.00     0.249 C 
HETATM   10  O4  UNL     1     -15.658  -0.070 -15.272  1.00  0.00    -0.271 OA
ATOM     11  H1  UNL     1     -12.536  -0.438 -14.612  1.00  0.00     0.163 HD
BRANCH   9  12
HETATM   12  C9  UNL     1     -14.147  -1.215 -16.704  1.00  0.00     0.284 C 
BRANCH  12  13
HETATM   13  N2  UNL     1     -15.369  -1.509 -17.417  1.00  0.00    -0.066 N 
ATOM     14  H23 UNL     1     -16.192  -1.439 -16.820  1.00  0.00     0.275 HD
ATOM     15  H22 UNL     1     -15.613  -0.778 -18.085  1.00  0.00     0.275 HD
ATOM     16  H21 UNL     1     -15.287  -2.425 -17.858  1.00  0.00     0.275 HD
ENDBRANCH  12  13
BRANCH  12  17
HETATM   17  C10 UNL     1     -13.438  -2.504 -16.412  1.00  0.00     0.128 C 
HETATM   18  S3  UNL     1     -14.617  -3.585 -15.539  1.00  0.00    -0.095 SA
ENDBRANCH  12  17
ENDBRANCH   9  12
ENDBRANCH   7   8
BRANCH   1  19
HETATM   19  C4  UNL     1     -12.554   2.485 -14.076  1.00  0.00     0.027 C 
HETATM   20  C2  UNL     1     -11.308   2.615 -14.560  1.00  0.00    -0.088 C 
HETATM   21  C1  UNL     1     -11.016   3.478 -15.735  1.00  0.00     0.042 C 
HETATM   22  C3  UNL     1     -10.155   1.902 -13.947  1.00  0.00     0.042 C 
ENDBRANCH   1  19
BRANCH   1  23
HETATM   23  O1  UNL     1     -11.773   1.001 -12.368  1.00  0.00    -0.373 OA
ATOM     24  H1  UNL     1     -11.025   1.558 -12.189  1.00  0.00     0.212 HD
ENDBRANCH   1  23
TORSDOF 6
ENDMDL
MODEL 2
REMARK VINA RESULT: -5.251995190      2.628      4.421
REMARK  6 active torsions:
REMARK  status: ('A' for Active; 'I' for Inactive)
REMARK    1  A    between atoms: C4_4  and  C5_5 
REMARK    2  A    between atoms: C5_5  and  O1_6 
REMARK    3  A    between atoms: C7_13  and  N1_14 
REMARK       I    between atoms: N1_14  and  C8_16 
REMARK    4  A    between atoms: C8_16  and  C9_18 
REMARK    5  A    between atoms: C9_18  and  N2_19 
REMARK    6  A    between atoms: C9_18  and  C10_23 
ROOT
HETATM    1  C5  UNL     1     -13.189  -0.837 -13.004  1.00  0.00     0.160 C 
HETATM    2  S1  UNL     1     -13.274  -0.972 -11.166  1.00  0.00     0.008 SA
HETATM    3  S2  UNL     1     -14.751   0.541 -10.943  1.00  0.00     0.204 S 
HETATM    4  O2  UNL     1     -16.000  -0.016 -10.378  1.00  0.00    -0.216 OA
HETATM    5  O3  UNL     1     -14.207   1.711 -10.221  1.00  0.00    -0.216 OA
HETATM    6  C6  UNL     1     -14.912   0.870 -12.711  1.00  0.00     0.181 C 
HETATM    7  C7  UNL     1     -13.497   0.636 -13.181  1.00  0.00     0.149 C 
ENDROOT
BRANCH   7   8
HETATM    8  N1  UNL     1     -13.270   1.103 -14.506  1.00  0.00    -0.350 N 
HETATM    9  C8  UNL     1     -12.396   2.196 -14.736  1.00  0.00     0.249 C 
HETATM   10  O4  UNL     1     -11.841   2.727 -13.738  1.00  0.00    -0.271 OA
ATOM     11  H1  UNL     1     -13.736   0.650 -15.292  1.00  0.00     0.163 HD
BRANCH   9  12
HETATM   12  C9  UNL     1     -12.120   2.728 -16.097  1.00  0.00     0.284 C 
BRANCH  12  13
HETATM   13  N2  UNL     1     -11.616   1.660 -16.930  1.00  0.00    -0.066 N 
ATOM     14  H23 UNL     1     -10.881   1.124 -16.469  1.00  0.00     0.275 HD
ATOM     15  H22 UNL     1     -12.293   0.906 -17.044  1.00  0.00     0.275 HD
ATOM     16  H21 UNL     1     -11.312   2.047 -17.823  1.00  0.00     0.275 HD
ENDBRANCH  12  13
BRANCH  12  17
HETATM   17  C10 UNL     1     -11.115   3.842 -16.083  1.00  0.00     0.128 C 
HETATM   18  S3  UNL     1     -11.333   4.786 -17.627  1.00  0.00    -0.095 SA
ENDBRANCH  12  17
ENDBRANCH   9  12
ENDBRANCH   7   8
BRANCH   1  19
HETATM   19  C4  UNL     1     -11.843  -1.115 -13.503  1.00  0.00     0.027 C 
HETATM   20  C2  UNL     1     -11.464  -2.344 -13.890  1.00  0.00    -0.088 C 
HETATM   21  C1  UNL     1     -10.091  -2.611 -14.397  1.00  0.00     0.042 C 
HETATM   22  C3  UNL     1     -12.396  -3.502 -13.833  1.00  0.00     0.042 C 
ENDBRANCH   1  19
BRANCH   1  23
HETATM   23  O1  UNL     1     -14.192  -1.562 -13.599  1.00  0.00    -0.373 OA
ATOM     24  H1  UNL     1     -14.215  -2.484 -13.370  1.00  0.00     0.212 HD
ENDBRANCH   1  23
TORSDOF 6
ENDMDL
MODEL 3
REMARK VINA RESULT: -5.239454318      1.408      1.512
REMARK  6 active torsions:
REMARK  status: ('A' for Active; 'I' for Inactive)
REMARK    1  A    between atoms: C4_4  and  C5_5 
REMARK    2  A    between atoms: C5_5  and  O1_6 
REMARK    3  A    between atoms: C7_13  and  N1_14 
REMARK       I    between atoms: N1_14  and  C8_16 
REMARK    4  A    between atoms: C8_16  and  C9_18 
REMARK    5  A    between atoms: C9_18  and  N2_19 
REMARK    6  A    between atoms: C9_18  and  C10_23 
ROOT
HETATM    1  C5  UNL     1     -12.917   1.610 -12.989  1.00  0.00     0.160 C 
HETATM    2  S1  UNL     1     -13.777   2.492 -11.615  1.00  0.00     0.008 SA
HETATM    3  S2  UNL     1     -14.919   0.806 -11.005  1.00  0.00     0.204 S 
HETATM    4  O2  UNL     1     -14.564   0.394  -9.629  1.00  0.00    -0.216 OA
HETATM    5  O3  UNL     1     -16.363   1.032 -11.235  1.00  0.00    -0.216 OA
HETATM    6  C6  UNL     1     -14.220  -0.315 -12.235  1.00  0.00     0.181 C 
HETATM    7  C7  UNL     1     -13.996   0.625 -13.394  1.00  0.00     0.149 C 
ENDROOT
BRANCH   7   8
HETATM    8  N1  UNL     1     -13.710  -0.054 -14.610  1.00  0.00    -0.350 N 
HETATM    9  C8  UNL     1     -14.752  -0.342 -15.528  1.00  0.00     0.249 C 
HETATM   10  O4  UNL     1     -15.919   0.022 -15.227  1.00  0.00    -0.271 OA
ATOM     11  H1  UNL     1     -12.752  -0.335 -14.823  1.00  0.00     0.163 HD
BRANCH   9  12
HETATM   12  C9  UNL     1     -14.513  -1.049 -16.815  1.00  0.00     0.284 C 
BRANCH  12  13
HETATM   13  N2  UNL     1     -13.331  -0.505 -17.442  1.00  0.00    -0.066 N 
ATOM     14  H23 UNL     1     -13.348   0.514 -17.483  1.00  0.00     0.275 HD
ATOM     15  H22 UNL     1     -12.500  -0.611 -16.861  1.00  0.00     0.275 HD
ATOM     16  H21 UNL     1     -13.217  -0.927 -18.364  1.00  0.00     0.275 HD
ENDBRANCH  12  13
BRANCH  12  17
HETATM   17  C10 UNL     1     -15.667  -0.914 -17.764  1.00  0.00     0.128 C 
HETATM   18  S3  UNL     1     -15.380   0.588 -18.755  1.00  0.00    -0.095 SA
ENDBRANCH  12  17
ENDBRANCH   9  12
ENDBRANCH   7   8
BRANCH   1  19
HETATM   19  C4  UNL     1     -12.631   2.504 -14.108  1.00  0.00     0.027 C 
HETATM   20  C2  UNL     1     -11.381   2.723 -14.547  1.00  0.00    -0.088 C 
HETATM   21  C1  UNL     1     -11.105   3.635 -15.689  1.00  0.00     0.042 C 
HETATM   22  C3  UNL     1     -10.206   2.064 -13.914  1.00  0.00     0.042 C 
ENDBRANCH   1  19
BRANCH   1  23
HETATM   23  O1  UNL     1     -11.839   0.899 -12.520  1.00  0.00    -0.373 OA
ATOM     24  H1  UNL     1     -11.786   0.823 -11.575  1.00  0.00     0.212 HD
ENDBRANCH   1  23
TORSDOF 6
ENDMDL
MODEL 4
REMARK VINA RESULT: -5.219847775      2.553      3.977
REMARK  6 active torsions:
REMARK  status: ('A' for Active; 'I' for Inactive)
REMARK    1  A    between atoms: C4_4  and  C5_5 
REMARK    2  A    between atoms: C5_5  and  O1_6 
REMARK    3  A    between atoms: C7_13  and  N1_14 
REMARK       I    between atoms: N1_14  and  C8_16 
REMARK    4  A    between atoms: C8_16  and  C9_18 
REMARK    5  A    between atoms: C9_18  and  N2_19 
REMARK    6  A    between atoms: C9_18  and  C10_23 
ROOT
HETATM    1  C5  UNL     1     -13.198  -0.927 -12.937  1.00  0.00     0.160 C 
HETATM    2  S1  UNL     1     -13.278  -1.089 -11.101  1.00  0.00     0.008 SA
HETATM    3  S2  UNL     1     -14.867   0.303 -10.866  1.00  0.00     0.204 S 
HETATM    4  O2  UNL     1     -16.071  -0.355 -10.311  1.00  0.00    -0.216 OA
HETATM    5  O3  UNL     1     -14.417   1.504 -10.129  1.00  0.00    -0.216 OA
HETATM    6  C6  UNL     1     -15.049   0.639 -12.631  1.00  0.00     0.181 C 
HETATM    7  C7  UNL     1     -13.619   0.520 -13.099  1.00  0.00     0.149 C 
ENDROOT
BRANCH   7   8
HETATM    8  N1  UNL     1     -13.425   1.018 -14.417  1.00  0.00    -0.350 N 
HETATM    9  C8  UNL     1     -12.540   2.102 -14.646  1.00  0.00     0.249 C 
HETATM   10  O4  UNL     1     -11.944   2.596 -13.653  1.00  0.00    -0.271 OA
ATOM     11  H1  UNL     1     -13.924   0.594 -15.200  1.00  0.00     0.163 HD
BRANCH   9  12
HETATM   12  C9  UNL     1     -12.297   2.665 -16.002  1.00  0.00     0.284 C 
BRANCH  12  13
HETATM   13  N2  UNL     1     -13.027   1.887 -16.976  1.00  0.00    -0.066 N 
ATOM     14  H23 UNL     1     -12.529   1.812 -17.863  1.00  0.00     0.275 HD
ATOM     15  H22 UNL     1     -13.051   0.895 -16.740  1.00  0.00     0.275 HD
ATOM     16  H21 UNL     1     -13.960   2.283 -17.088  1.00  0.00     0.275 HD
ENDBRANCH  12  13
BRANCH  12  17
HETATM   17  C10 UNL     1     -10.843   2.659 -16.372  1.00  0.00     0.128 C 
HETATM   18  S3  UNL     1     -10.323   0.916 -16.492  1.00  0.00    -0.095 SA
ENDBRANCH  12  17
ENDBRANCH   9  12
ENDBRANCH   7   8
BRANCH   1  19
HETATM   19  C4  UNL     1     -11.834  -1.094 -13.435  1.00  0.00     0.027 C 
HETATM   20  C2  UNL     1     -11.376  -2.275 -13.882  1.00  0.00    -0.088 C 
HETATM   21  C1  UNL     1      -9.986  -2.431 -14.386  1.00  0.00     0.042 C 
HETATM   22  C3  UNL     1     -12.235  -3.490 -13.896  1.00  0.00     0.042 C 
ENDBRANCH   1  19
BRANCH   1  23
HETATM   23  O1  UNL     1     -14.142  -1.720 -13.544  1.00  0.00    -0.373 OA
ATOM     24  H1  UNL     1     -14.572  -2.345 -12.971  1.00  0.00     0.212 HD
ENDBRANCH   1  23
TORSDOF 6
ENDMDL
MODEL 5
REMARK VINA RESULT: -5.151038703      1.429      1.557
REMARK  6 active torsions:
REMARK  status: ('A' for Active; 'I' for Inactive)
REMARK    1  A    between atoms: C4_4  and  C5_5 
REMARK    2  A    between atoms: C5_5  and  O1_6 
REMARK    3  A    between atoms: C7_13  and  N1_14 
REMARK       I    between atoms: N1_14  and  C8_16 
REMARK    4  A    between atoms: C8_16  and  C9_18 
REMARK    5  A    between atoms: C9_18  and  N2_19 
REMARK    6  A    between atoms: C9_18  and  C10_23 
ROOT
HETATM    1  C5  UNL     1     -12.892   1.297 -13.757  1.00  0.00     0.160 C 
HETATM    2  S1  UNL     1     -13.539   2.288 -12.343  1.00  0.00     0.008 SA
HETATM    3  S2  UNL     1     -14.619   0.677 -11.472  1.00  0.00     0.204 S 
HETATM    4  O2  UNL     1     -14.087   0.344 -10.132  1.00  0.00    -0.216 OA
HETATM    5  O3  UNL     1     -16.076   0.927 -11.520  1.00  0.00    -0.216 OA
HETATM    6  C6  UNL     1     -14.115  -0.540 -12.707  1.00  0.00     0.181 C 
HETATM    7  C7  UNL     1     -14.034   0.318 -13.946  1.00  0.00     0.149 C 
ENDROOT
BRANCH   7   8
HETATM    8  N1  UNL     1     -13.929  -0.445 -15.142  1.00  0.00    -0.350 N 
HETATM    9  C8  UNL     1     -15.004  -0.471 -16.067  1.00  0.00     0.249 C 
HETATM   10  O4  UNL     1     -16.035   0.196 -15.791  1.00  0.00    -0.271 OA
ATOM     11  H1  UNL     1     -13.078  -0.974 -15.335  1.00  0.00     0.163 HD
BRANCH   9  12
HETATM   12  C9  UNL     1     -14.952  -1.250 -17.333  1.00  0.00     0.284 C 
BRANCH  12  13
HETATM   13  N2  UNL     1     -13.610  -1.200 -17.866  1.00  0.00    -0.066 N 
ATOM     14  H23 UNL     1     -13.414  -1.977 -18.496  1.00  0.00     0.275 HD
ATOM     15  H22 UNL     1     -13.486  -0.439 -18.534  1.00  0.00     0.275 HD
ATOM     16  H21 UNL     1     -12.945  -1.150 -17.094  1.00  0.00     0.275 HD
ENDBRANCH  12  13
BRANCH  12  17
HETATM   17  C10 UNL     1     -15.901  -0.723 -18.369  1.00  0.00     0.128 C 
HETATM   18  S3  UNL     1     -17.136  -2.026 -18.684  1.00  0.00    -0.095 SA
ENDBRANCH  12  17
ENDBRANCH   9  12
ENDBRANCH   7   8
BRANCH   1  19
HETATM   19  C4  UNL     1     -12.745   2.110 -14.963  1.00  0.00     0.027 C 
HETATM   20  C2  UNL     1     -11.636   2.826 -15.211  1.00  0.00    -0.088 C 
HETATM   21  C1  UNL     1     -11.500   3.648 -16.443  1.00  0.00     0.042 C 
HETATM   22  C3  UNL     1     -10.485   2.834 -14.267  1.00  0.00     0.042 C 
ENDBRANCH   1  19
BRANCH   1  23
HETATM   23  O1  UNL     1     -11.773   0.588 -13.392  1.00  0.00    -0.373 OA
ATOM     24  H1  UNL     1     -10.948   1.038 -13.529  1.00  0.00     0.212 HD
ENDBRANCH   1  23
TORSDOF 6
ENDMDL
