MODEL 1
REMARK VINA RESULT: -5.702833034      0.000      0.000
REMARK  4 active torsions:
REMARK  status: ('A' for Active; 'I' for Inactive)
REMARK    1  A    between atoms: C2_5  and  C3_6 
REMARK    2  A    between atoms: C4_9  and  S1_10 
REMARK    3  A    between atoms: S1_10  and  C5_11 
REMARK    4  A    between atoms: C8_19  and  C9_20 
ROOT
HETATM    1  S1  UNL     1     -12.386   2.009 -13.843  1.00  0.00    -0.122 SA
ENDROOT
BRANCH   1   2
HETATM    2  C4  UNL     1     -12.849   2.006 -15.584  1.00  0.00     0.022 C 
HETATM    3  C2  UNL     1     -12.039   2.653 -16.403  1.00  0.00     0.125 C 
HETATM    4  N2  UNL     1     -12.218   2.758 -17.792  1.00  0.00    -0.333 N 
HETATM    5  C1  UNL     1     -13.163   2.250 -18.468  1.00  0.00     0.155 C 
ATOM      6  H2  UNL     1     -11.520   3.295 -18.307  1.00  0.00     0.168 HD
HETATM    7  N1  UNL     1     -13.272   2.413 -19.878  1.00  0.00    -0.075 NA
HETATM    8  S2  UNL     1     -14.370   1.220 -17.678  1.00  0.00    -0.092 SA
HETATM    9  C10 UNL     1     -14.109   1.321 -15.903  1.00  0.00     0.130 C 
BRANCH   3  10
HETATM   10  C3  UNL     1     -10.849   3.320 -15.852  1.00  0.00     0.228 C 
HETATM   11  O1  UNL     1     -10.889   4.531 -15.602  1.00  0.00    -0.643 OA
HETATM   12  O2  UNL     1      -9.694   2.604 -15.614  1.00  0.00    -0.643 OA
ENDBRANCH   3  10
ENDBRANCH   1   2
BRANCH   1  13
HETATM   13  C5  UNL     1     -13.347   0.870 -12.841  1.00  0.00     0.099 C 
HETATM   14  C6  UNL     1     -12.314   0.096 -12.009  1.00  0.00     0.142 C 
HETATM   15  N3  UNL     1     -12.929  -0.889 -11.167  1.00  0.00    -0.342 N 
HETATM   16  C7  UNL     1     -14.120  -0.525 -10.488  1.00  0.00     0.316 C 
ATOM     17  H3  UNL     1     -12.524  -1.819 -11.060  1.00  0.00     0.164 HD
HETATM   18  O3  UNL     1     -14.696  -1.320  -9.674  1.00  0.00    -0.247 OA
HETATM   19  N4  UNL     1     -14.640   0.751 -10.750  1.00  0.00    -0.331 N 
HETATM   20  C8  UNL     1     -14.319   1.563 -11.919  1.00  0.00     0.163 C 
ATOM     21  H4  UNL     1     -15.293   1.142 -10.071  1.00  0.00     0.165 HD
BRANCH  20  22
HETATM   22  C9  UNL     1     -13.839   2.871 -11.415  1.00  0.00     0.257 C 
HETATM   23  O4  UNL     1     -13.756   3.133 -10.232  1.00  0.00    -0.305 OA
ENDBRANCH  20  22
ENDBRANCH   1  13
TORSDOF 4
ENDMDL
MODEL 2
REMARK VINA RESULT: -5.533040396      1.091      1.091
REMARK  4 active torsions:
REMARK  status: ('A' for Active; 'I' for Inactive)
REMARK    1  A    between atoms: C2_5  and  C3_6 
REMARK    2  A    between atoms: C4_9  and  S1_10 
REMARK    3  A    between atoms: S1_10  and  C5_11 
REMARK    4  A    between atoms: C8_19  and  C9_20 
ROOT
HETATM    1  S1  UNL     1     -13.509   2.178 -13.716  1.00  0.00    -0.122 SA
ENDROOT
BRANCH   1   2
HETATM    2  C4  UNL     1     -13.159   1.648 -15.402  1.00  0.00     0.022 C 
HETATM    3  C2  UNL     1     -11.941   1.898 -15.849  1.00  0.00     0.125 C 
HETATM    4  N2  UNL     1     -11.469   1.555 -17.127  1.00  0.00    -0.333 N 
HETATM    5  C1  UNL     1     -12.124   0.956 -18.033  1.00  0.00     0.155 C 
ATOM      6  H2  UNL     1     -10.507   1.813 -17.348  1.00  0.00     0.168 HD
HETATM    7  N1  UNL     1     -11.567   0.653 -19.308  1.00  0.00    -0.075 NA
HETATM    8  S2  UNL     1     -13.769   0.380 -17.712  1.00  0.00    -0.092 SA
HETATM    9  C10 UNL     1     -14.285   1.035 -16.120  1.00  0.00     0.130 C 
BRANCH   3  10
HETATM   10  C3  UNL     1     -10.981   2.578 -14.966  1.00  0.00     0.228 C 
HETATM   11  O1  UNL     1     -10.871   3.810 -15.018  1.00  0.00    -0.643 OA
HETATM   12  O2  UNL     1     -10.205   1.853 -14.086  1.00  0.00    -0.643 OA
ENDBRANCH   3  10
ENDBRANCH   1   2
BRANCH   1  13
HETATM   13  C5  UNL     1     -14.001   0.836 -12.628  1.00  0.00     0.099 C 
HETATM   14  C6  UNL     1     -12.690   0.296 -12.038  1.00  0.00     0.142 C 
HETATM   15  N3  UNL     1     -12.913  -0.816 -11.160  1.00  0.00    -0.342 N 
HETATM   16  C7  UNL     1     -14.008  -0.738 -10.262  1.00  0.00     0.316 C 
ATOM     17  H3  UNL     1     -12.305  -1.635 -11.180  1.00  0.00     0.164 HD
HETATM   18  O3  UNL     1     -14.239  -1.656  -9.406  1.00  0.00    -0.247 OA
HETATM   19  N4  UNL     1     -14.829   0.396 -10.353  1.00  0.00    -0.331 N 
HETATM   20  C8  UNL     1     -14.912   1.279 -11.510  1.00  0.00     0.163 C 
ATOM     21  H4  UNL     1     -15.414   0.620  -9.547  1.00  0.00     0.165 HD
BRANCH  20  22
HETATM   22  C9  UNL     1     -14.639   2.652 -11.024  1.00  0.00     0.257 C 
HETATM   23  O4  UNL     1     -13.857   2.891 -10.126  1.00  0.00    -0.305 OA
ENDBRANCH  20  22
ENDBRANCH   1  13
TORSDOF 4
ENDMDL
MODEL 3
REMARK VINA RESULT: -5.424618717      2.580      2.937
REMARK  4 active torsions:
REMARK  status: ('A' for Active; 'I' for Inactive)
REMARK    1  A    between atoms: C2_5  and  C3_6 
REMARK    2  A    between atoms: C4_9  and  S1_10 
REMARK    3  A    between atoms: S1_10  and  C5_11 
REMARK    4  A    between atoms: C8_19  and  C9_20 
ROOT
HETATM    1  S1  UNL     1     -13.533   1.737 -14.216  1.00  0.00    -0.122 SA
ENDROOT
BRANCH   1   2
HETATM    2  C4  UNL     1     -12.746   0.892 -15.599  1.00  0.00     0.022 C 
HETATM    3  C2  UNL     1     -13.555   0.453 -16.548  1.00  0.00     0.125 C 
HETATM    4  N2  UNL     1     -13.138  -0.219 -17.709  1.00  0.00    -0.333 N 
HETATM    5  C1  UNL     1     -11.942  -0.496 -18.028  1.00  0.00     0.155 C 
ATOM      6  H2  UNL     1     -13.867  -0.512 -18.359  1.00  0.00     0.168 HD
HETATM    7  N1  UNL     1     -11.608  -1.189 -19.226  1.00  0.00    -0.075 NA
HETATM    8  S2  UNL     1     -10.598   0.056 -17.013  1.00  0.00    -0.092 SA
HETATM    9  C10 UNL     1     -11.289   0.739 -15.501  1.00  0.00     0.130 C 
BRANCH   3  10
HETATM   10  C3  UNL     1     -15.003   0.672 -16.412  1.00  0.00     0.228 C 
HETATM   11  O1  UNL     1     -15.520   1.669 -16.932  1.00  0.00    -0.643 OA
HETATM   12  O2  UNL     1     -15.783  -0.223 -15.710  1.00  0.00    -0.643 OA
ENDBRANCH   3  10
ENDBRANCH   1   2
BRANCH   1  13
HETATM   13  C5  UNL     1     -14.067   0.631 -12.906  1.00  0.00     0.099 C 
HETATM   14  C6  UNL     1     -12.790  -0.078 -12.434  1.00  0.00     0.142 C 
HETATM   15  N3  UNL     1     -13.056  -1.032 -11.396  1.00  0.00    -0.342 N 
HETATM   16  C7  UNL     1     -13.968  -0.659 -10.376  1.00  0.00     0.316 C 
ATOM     17  H3  UNL     1     -12.605  -1.947 -11.391  1.00  0.00     0.164 HD
HETATM   18  O3  UNL     1     -14.213  -1.424  -9.384  1.00  0.00    -0.247 OA
HETATM   19  N4  UNL     1     -14.591   0.592 -10.502  1.00  0.00    -0.331 N 
HETATM   20  C8  UNL     1     -14.704   1.349 -11.742  1.00  0.00     0.163 C 
ATOM     21  H4  UNL     1     -14.996   1.003  -9.661  1.00  0.00     0.165 HD
BRANCH  20  22
HETATM   22  C9  UNL     1     -14.132   2.691 -11.481  1.00  0.00     0.257 C 
HETATM   23  O4  UNL     1     -13.803   3.063 -10.372  1.00  0.00    -0.305 OA
ENDBRANCH  20  22
ENDBRANCH   1  13
TORSDOF 4
ENDMDL
MODEL 4
REMARK VINA RESULT: -5.340417254      1.254      1.473
REMARK  4 active torsions:
REMARK  status: ('A' for Active; 'I' for Inactive)
REMARK    1  A    between atoms: C2_5  and  C3_6 
REMARK    2  A    between atoms: C4_9  and  S1_10 
REMARK    3  A    between atoms: S1_10  and  C5_11 
REMARK    4  A    between atoms: C8_19  and  C9_20 
ROOT
HETATM    1  S1  UNL     1     -12.116   1.914 -13.499  1.00  0.00    -0.122 SA
ENDROOT
BRANCH   1   2
HETATM    2  C4  UNL     1     -12.034   1.923 -15.299  1.00  0.00     0.022 C 
HETATM    3  C2  UNL     1     -10.850   2.185 -15.825  1.00  0.00     0.125 C 
HETATM    4  N2  UNL     1     -10.577   2.227 -17.202  1.00  0.00    -0.333 N 
HETATM    5  C1  UNL     1     -11.405   2.016 -18.139  1.00  0.00     0.155 C 
ATOM      6  H2  UNL     1      -9.619   2.449 -17.475  1.00  0.00     0.168 HD
HETATM    7  N1  UNL     1     -11.042   2.087 -19.514  1.00  0.00    -0.075 NA
HETATM    8  S2  UNL     1     -13.067   1.528 -17.767  1.00  0.00    -0.092 SA
HETATM    9  C10 UNL     1     -13.306   1.684 -15.992  1.00  0.00     0.130 C 
BRANCH   3  10
HETATM   10  C3  UNL     1      -9.713   2.450 -14.931  1.00  0.00     0.228 C 
HETATM   11  O1  UNL     1      -9.008   1.508 -14.545  1.00  0.00    -0.643 OA
HETATM   12  O2  UNL     1      -9.430   3.736 -14.522  1.00  0.00    -0.643 OA
ENDBRANCH   3  10
ENDBRANCH   1   2
BRANCH   1  13
HETATM   13  C5  UNL     1     -13.548   1.046 -12.849  1.00  0.00     0.099 C 
HETATM   14  C6  UNL     1     -12.978  -0.008 -11.890  1.00  0.00     0.142 C 
HETATM   15  N3  UNL     1     -14.008  -0.817 -11.304  1.00  0.00    -0.342 N 
HETATM   16  C7  UNL     1     -15.191  -0.165 -10.872  1.00  0.00     0.316 C 
ATOM     17  H3  UNL     1     -13.893  -1.825 -11.201  1.00  0.00     0.164 HD
HETATM   18  O3  UNL     1     -16.129  -0.801 -10.285  1.00  0.00    -0.247 OA
HETATM   19  N4  UNL     1     -15.288   1.213 -11.116  1.00  0.00    -0.331 N 
HETATM   20  C8  UNL     1     -14.500   1.946 -12.100  1.00  0.00     0.163 C 
ATOM     21  H4  UNL     1     -15.961   1.743 -10.562  1.00  0.00     0.165 HD
BRANCH  20  22
HETATM   22  C9  UNL     1     -13.834   3.055 -11.378  1.00  0.00     0.257 C 
HETATM   23  O4  UNL     1     -13.789   3.120 -10.166  1.00  0.00    -0.305 OA
ENDBRANCH  20  22
ENDBRANCH   1  13
TORSDOF 4
ENDMDL
MODEL 5
REMARK VINA RESULT: -5.208360444      2.458      2.747
REMARK  4 active torsions:
REMARK  status: ('A' for Active; 'I' for Inactive)
REMARK    1  A    between atoms: C2_5  and  C3_6 
REMARK    2  A    between atoms: C4_9  and  S1_10 
REMARK    3  A    between atoms: S1_10  and  C5_11 
REMARK    4  A    between atoms: C8_19  and  C9_20 
ROOT
HETATM    1  S1  UNL     1     -11.701   1.234 -13.465  1.00  0.00    -0.122 SA
ENDROOT
BRANCH   1   2
HETATM    2  C4  UNL     1     -11.054   0.336 -14.887  1.00  0.00     0.022 C 
HETATM    3  C2  UNL     1     -11.411   0.793 -16.074  1.00  0.00     0.125 C 
HETATM    4  N2  UNL     1     -11.005   0.241 -17.301  1.00  0.00    -0.333 N 
HETATM    5  C1  UNL     1     -10.239  -0.757 -17.458  1.00  0.00     0.155 C 
ATOM      6  H2  UNL     1     -11.361   0.687 -18.147  1.00  0.00     0.168 HD
HETATM    7  N1  UNL     1      -9.884  -1.255 -18.744  1.00  0.00    -0.075 NA
HETATM    8  S2  UNL     1      -9.492  -1.538 -16.054  1.00  0.00    -0.092 SA
HETATM    9  C10 UNL     1     -10.232  -0.840 -14.572  1.00  0.00     0.130 C 
BRANCH   3  10
HETATM   10  C3  UNL     1     -12.294   1.966 -16.153  1.00  0.00     0.228 C 
HETATM   11  O1  UNL     1     -13.520   1.805 -16.209  1.00  0.00    -0.643 OA
HETATM   12  O2  UNL     1     -11.765   3.240 -16.167  1.00  0.00    -0.643 OA
ENDBRANCH   3  10
ENDBRANCH   1   2
BRANCH   1  13
HETATM   13  C5  UNL     1     -13.245   0.568 -12.835  1.00  0.00     0.099 C 
HETATM   14  C6  UNL     1     -12.840  -0.367 -11.686  1.00  0.00     0.142 C 
HETATM   15  N3  UNL     1     -13.976  -1.011 -11.090  1.00  0.00    -0.342 N 
HETATM   16  C7  UNL     1     -15.137  -0.227 -10.869  1.00  0.00     0.316 C 
ATOM     17  H3  UNL     1     -13.949  -1.998 -10.835  1.00  0.00     0.164 HD
HETATM   18  O3  UNL     1     -16.167  -0.706 -10.288  1.00  0.00    -0.247 OA
HETATM   19  N4  UNL     1     -15.105   1.103 -11.315  1.00  0.00    -0.331 N 
HETATM   20  C8  UNL     1     -14.183   1.628 -12.315  1.00  0.00     0.163 C 
ATOM     21  H4  UNL     1     -15.778   1.752 -10.908  1.00  0.00     0.165 HD
BRANCH  20  22
HETATM   22  C9  UNL     1     -13.495   2.787 -11.700  1.00  0.00     0.257 C 
HETATM   23  O4  UNL     1     -13.701   3.147 -10.557  1.00  0.00    -0.305 OA
ENDBRANCH  20  22
ENDBRANCH   1  13
TORSDOF 4
ENDMDL
