MODEL 1
REMARK VINA RESULT: -5.632777067      0.000      0.000
REMARK  7 active torsions:
REMARK  status: ('A' for Active; 'I' for Inactive)
REMARK    1  A    between atoms: C5_12  and  C6_13 
REMARK    2  A    between atoms: C6_13  and  N4_14 
REMARK    3  A    between atoms: N4_14  and  C7_15 
REMARK    4  A    between atoms: C7_15  and  C8_16 
REMARK    5  A    between atoms: C8_16  and  N5_17 
REMARK       I    between atoms: N5_17  and  C9_19 
REMARK    6  A    between atoms: C9_19  and  C10_21 
REMARK    7  A    between atoms: C10_21  and  N6_24 
ROOT
HETATM    1  C1  UNL     1     -12.340   2.735 -12.980  1.00  0.00     0.163 C 
HETATM    2  N1  UNL     1     -13.291   1.962 -12.218  1.00  0.00    -0.288 N 
HETATM    3  C2  UNL     1     -14.155   2.468 -11.336  1.00  0.00     0.330 A 
HETATM    4  O1  UNL     1     -14.120   3.732 -11.170  1.00  0.00    -0.246 OA
HETATM    5  N2  UNL     1     -15.040   1.749 -10.631  1.00  0.00    -0.273 N 
ATOM      6  H2  UNL     1     -15.673   2.204  -9.974  1.00  0.00     0.173 HD
HETATM    7  C3  UNL     1     -15.078   0.413 -10.808  1.00  0.00     0.280 A 
HETATM    8  O2  UNL     1     -15.855  -0.356 -10.209  1.00  0.00    -0.265 OA
HETATM    9  C4  UNL     1     -14.204  -0.165 -11.709  1.00  0.00     0.147 A 
HETATM   10  N3  UNL     1     -13.971  -1.425 -12.121  1.00  0.00    -0.333 N 
ATOM     11  H3  UNL     1     -14.466  -2.253 -11.792  1.00  0.00     0.168 HD
HETATM   12  C5  UNL     1     -12.988  -1.422 -13.030  1.00  0.00     0.136 A 
HETATM   13  N7  UNL     1     -12.590  -0.170 -13.201  1.00  0.00    -0.324 N 
ATOM     14  H7  UNL     1     -11.852   0.138 -13.834  1.00  0.00     0.169 HD
HETATM   15  C13 UNL     1     -13.321   0.627 -12.402  1.00  0.00     0.145 A 
ENDROOT
BRANCH  12  16
HETATM   16  C6  UNL     1     -12.444  -2.617 -13.715  1.00  0.00     0.230 C 
BRANCH  16  17
HETATM   17  N4  UNL     1     -12.984  -3.203 -14.571  1.00  0.00    -0.425 NA
BRANCH  17  18
HETATM   18  C7  UNL     1     -13.702  -3.720 -15.538  1.00  0.00     0.198 C 
BRANCH  18  19
HETATM   19  C8  UNL     1     -14.682  -3.104 -16.246  1.00  0.00     0.122 C 
BRANCH  19  20
HETATM   20  N5  UNL     1     -14.446  -1.911 -16.944  1.00  0.00    -0.333 N 
HETATM   21  C9  UNL     1     -14.700  -0.651 -16.388  1.00  0.00     0.257 C 
HETATM   22  O3  UNL     1     -15.161  -0.575 -15.214  1.00  0.00    -0.270 OA
ATOM     23  H5  UNL     1     -14.075  -1.962 -17.892  1.00  0.00     0.168 HD
BRANCH  21  24
HETATM   24  C10 UNL     1     -14.459   0.630 -17.101  1.00  0.00     0.196 C 
HETATM   25  C11 UNL     1     -13.515   1.461 -16.240  1.00  0.00     0.056 C 
HETATM   26  C12 UNL     1     -15.733   1.433 -17.249  1.00  0.00     0.056 C 
BRANCH  24  27
HETATM   27  N6  UNL     1     -13.809   0.427 -18.375  1.00  0.00    -0.062 N 
ATOM     28  H63 UNL     1     -12.883   0.017 -18.256  1.00  0.00     0.275 HD
ATOM     29  H62 UNL     1     -14.252  -0.326 -18.901  1.00  0.00     0.275 HD
ATOM     30  H61 UNL     1     -13.766   1.285 -18.924  1.00  0.00     0.275 HD
ENDBRANCH  24  27
ENDBRANCH  21  24
ENDBRANCH  19  20
ENDBRANCH  18  19
ENDBRANCH  17  18
ENDBRANCH  16  17
ENDBRANCH  12  16
TORSDOF 7
ENDMDL
MODEL 2
REMARK VINA RESULT: -5.534678821      1.594      2.178
REMARK  7 active torsions:
REMARK  status: ('A' for Active; 'I' for Inactive)
REMARK    1  A    between atoms: C5_12  and  C6_13 
REMARK    2  A    between atoms: C6_13  and  N4_14 
REMARK    3  A    between atoms: N4_14  and  C7_15 
REMARK    4  A    between atoms: C7_15  and  C8_16 
REMARK    5  A    between atoms: C8_16  and  N5_17 
REMARK       I    between atoms: N5_17  and  C9_19 
REMARK    6  A    between atoms: C9_19  and  C10_21 
REMARK    7  A    between atoms: C10_21  and  N6_24 
ROOT
HETATM    1  C1  UNL     1     -12.568   2.769 -13.251  1.00  0.00     0.163 C 
HETATM    2  N1  UNL     1     -13.500   1.985 -12.477  1.00  0.00    -0.288 N 
HETATM    3  C2  UNL     1     -13.960   2.318 -11.269  1.00  0.00     0.330 A 
HETATM    4  O1  UNL     1     -13.529   3.414 -10.781  1.00  0.00    -0.246 OA
HETATM    5  N2  UNL     1     -14.829   1.590 -10.553  1.00  0.00    -0.273 N 
ATOM      6  H2  UNL     1     -15.138   1.907  -9.635  1.00  0.00     0.173 HD
HETATM    7  C3  UNL     1     -15.285   0.431 -11.070  1.00  0.00     0.280 A 
HETATM    8  O2  UNL     1     -16.092  -0.327 -10.497  1.00  0.00    -0.265 OA
HETATM    9  C4  UNL     1     -14.841   0.038 -12.317  1.00  0.00     0.147 A 
HETATM   10  N3  UNL     1     -15.077  -1.024 -13.110  1.00  0.00    -0.333 N 
ATOM     11  H3  UNL     1     -15.700  -1.799 -12.886  1.00  0.00     0.168 HD
HETATM   12  C5  UNL     1     -14.368  -0.903 -14.241  1.00  0.00     0.136 A 
HETATM   13  N7  UNL     1     -13.680   0.227 -14.174  1.00  0.00    -0.324 N 
ATOM     14  H7  UNL     1     -13.049   0.581 -14.893  1.00  0.00     0.169 HD
HETATM   15  C13 UNL     1     -13.951   0.829 -13.002  1.00  0.00     0.145 A 
ENDROOT
BRANCH  12  16
HETATM   16  C6  UNL     1     -14.358  -1.873 -15.360  1.00  0.00     0.230 C 
BRANCH  16  17
HETATM   17  N4  UNL     1     -14.937  -1.740 -16.367  1.00  0.00    -0.425 NA
BRANCH  17  18
HETATM   18  C7  UNL     1     -15.487  -1.442 -17.519  1.00  0.00     0.198 C 
BRANCH  18  19
HETATM   19  C8  UNL     1     -15.549  -0.218 -18.102  1.00  0.00     0.122 C 
BRANCH  19  20
HETATM   20  N5  UNL     1     -14.395   0.446 -18.541  1.00  0.00    -0.333 N 
HETATM   21  C9  UNL     1     -13.751   1.424 -17.773  1.00  0.00     0.257 C 
HETATM   22  O3  UNL     1     -14.220   1.728 -16.640  1.00  0.00    -0.270 OA
ATOM     23  H5  UNL     1     -14.009   0.208 -19.455  1.00  0.00     0.168 HD
BRANCH  21  24
HETATM   24  C10 UNL     1     -12.527   2.144 -18.210  1.00  0.00     0.196 C 
HETATM   25  C11 UNL     1     -11.940   2.831 -16.983  1.00  0.00     0.056 C 
HETATM   26  C12 UNL     1     -12.849   3.236 -19.207  1.00  0.00     0.056 C 
BRANCH  24  27
HETATM   27  N6  UNL     1     -11.520   1.242 -18.718  1.00  0.00    -0.062 N 
ATOM     28  H63 UNL     1     -10.608   1.434 -18.302  1.00  0.00     0.275 HD
ATOM     29  H62 UNL     1     -11.660   0.295 -18.366  1.00  0.00     0.275 HD
ATOM     30  H61 UNL     1     -11.472   1.255 -19.736  1.00  0.00     0.275 HD
ENDBRANCH  24  27
ENDBRANCH  21  24
ENDBRANCH  19  20
ENDBRANCH  18  19
ENDBRANCH  17  18
ENDBRANCH  16  17
ENDBRANCH  12  16
TORSDOF 7
ENDMDL
MODEL 3
REMARK VINA RESULT: -5.512925635      2.791      4.060
REMARK  7 active torsions:
REMARK  status: ('A' for Active; 'I' for Inactive)
REMARK    1  A    between atoms: C5_12  and  C6_13 
REMARK    2  A    between atoms: C6_13  and  N4_14 
REMARK    3  A    between atoms: N4_14  and  C7_15 
REMARK    4  A    between atoms: C7_15  and  C8_16 
REMARK    5  A    between atoms: C8_16  and  N5_17 
REMARK       I    between atoms: N5_17  and  C9_19 
REMARK    6  A    between atoms: C9_19  and  C10_21 
REMARK    7  A    between atoms: C10_21  and  N6_24 
ROOT
HETATM    1  C1  UNL     1     -12.554   2.787 -13.250  1.00  0.00     0.163 C 
HETATM    2  N1  UNL     1     -13.492   2.019 -12.468  1.00  0.00    -0.288 N 
HETATM    3  C2  UNL     1     -13.963   2.377 -11.272  1.00  0.00     0.330 A 
HETATM    4  O1  UNL     1     -13.538   3.484 -10.804  1.00  0.00    -0.246 OA
HETATM    5  N2  UNL     1     -14.838   1.664 -10.548  1.00  0.00    -0.273 N 
ATOM      6  H2  UNL     1     -15.156   2.000  -9.639  1.00  0.00     0.173 HD
HETATM    7  C3  UNL     1     -15.288   0.493 -11.043  1.00  0.00     0.280 A 
HETATM    8  O2  UNL     1     -16.100  -0.253 -10.461  1.00  0.00    -0.265 OA
HETATM    9  C4  UNL     1     -14.832   0.074 -12.278  1.00  0.00     0.147 A 
HETATM   10  N3  UNL     1     -15.061  -1.005 -13.050  1.00  0.00    -0.333 N 
ATOM     11  H3  UNL     1     -15.685  -1.776 -12.815  1.00  0.00     0.168 HD
HETATM   12  C5  UNL     1     -14.341  -0.908 -14.176  1.00  0.00     0.136 A 
HETATM   13  N7  UNL     1     -13.655   0.224 -14.128  1.00  0.00    -0.324 N 
ATOM     14  H7  UNL     1     -13.018   0.563 -14.848  1.00  0.00     0.169 HD
HETATM   15  C13 UNL     1     -13.937   0.851 -12.972  1.00  0.00     0.145 A 
ENDROOT
BRANCH  12  16
HETATM   16  C6  UNL     1     -14.321  -1.902 -15.274  1.00  0.00     0.230 C 
BRANCH  16  17
HETATM   17  N4  UNL     1     -14.204  -3.057 -15.130  1.00  0.00    -0.425 NA
BRANCH  17  18
HETATM   18  C7  UNL     1     -14.026  -4.312 -14.800  1.00  0.00     0.198 C 
BRANCH  18  19
HETATM   19  C8  UNL     1     -14.468  -5.404 -15.475  1.00  0.00     0.122 C 
BRANCH  19  20
HETATM   20  N5  UNL     1     -15.808  -5.814 -15.413  1.00  0.00    -0.333 N 
HETATM   21  C9  UNL     1     -16.754  -5.443 -16.376  1.00  0.00     0.257 C 
HETATM   22  O3  UNL     1     -16.398  -4.709 -17.341  1.00  0.00    -0.270 OA
ATOM     23  H5  UNL     1     -16.104  -6.405 -14.637  1.00  0.00     0.168 HD
BRANCH  21  24
HETATM   24  C10 UNL     1     -18.178  -5.863 -16.339  1.00  0.00     0.196 C 
HETATM   25  C11 UNL     1     -18.235  -7.322 -16.775  1.00  0.00     0.056 C 
HETATM   26  C12 UNL     1     -19.015  -5.081 -17.329  1.00  0.00     0.056 C 
BRANCH  24  27
HETATM   27  N6  UNL     1     -18.729  -5.792 -15.006  1.00  0.00    -0.062 N 
ATOM     28  H63 UNL     1     -18.385  -6.555 -14.423  1.00  0.00     0.275 HD
ATOM     29  H62 UNL     1     -18.342  -5.005 -14.487  1.00  0.00     0.275 HD
ATOM     30  H61 UNL     1     -19.748  -5.764 -15.014  1.00  0.00     0.275 HD
ENDBRANCH  24  27
ENDBRANCH  21  24
ENDBRANCH  19  20
ENDBRANCH  18  19
ENDBRANCH  17  18
ENDBRANCH  16  17
ENDBRANCH  12  16
TORSDOF 7
ENDMDL
MODEL 4
REMARK VINA RESULT: -5.427402871      1.527      3.775
REMARK  7 active torsions:
REMARK  status: ('A' for Active; 'I' for Inactive)
REMARK    1  A    between atoms: C5_12  and  C6_13 
REMARK    2  A    between atoms: C6_13  and  N4_14 
REMARK    3  A    between atoms: N4_14  and  C7_15 
REMARK    4  A    between atoms: C7_15  and  C8_16 
REMARK    5  A    between atoms: C8_16  and  N5_17 
REMARK       I    between atoms: N5_17  and  C9_19 
REMARK    6  A    between atoms: C9_19  and  C10_21 
REMARK    7  A    between atoms: C10_21  and  N6_24 
ROOT
HETATM    1  C1  UNL     1     -12.896  -1.518 -11.619  1.00  0.00     0.163 C 
HETATM    2  N1  UNL     1     -13.557  -0.261 -11.359  1.00  0.00    -0.288 N 
HETATM    3  C2  UNL     1     -14.515  -0.076 -10.448  1.00  0.00     0.330 A 
HETATM    4  O1  UNL     1     -14.856  -1.100  -9.769  1.00  0.00    -0.246 OA
HETATM    5  N2  UNL     1     -15.126   1.092 -10.205  1.00  0.00    -0.273 N 
ATOM      6  H2  UNL     1     -15.850   1.161  -9.491  1.00  0.00     0.173 HD
HETATM    7  C3  UNL     1     -14.764   2.175 -10.923  1.00  0.00     0.280 A 
HETATM    8  O2  UNL     1     -15.261   3.310 -10.786  1.00  0.00    -0.265 OA
HETATM    9  C4  UNL     1     -13.777   2.040 -11.881  1.00  0.00     0.147 A 
HETATM   10  N3  UNL     1     -13.189   2.880 -12.753  1.00  0.00    -0.333 N 
ATOM     11  H3  UNL     1     -13.407   3.870 -12.854  1.00  0.00     0.168 HD
HETATM   12  C5  UNL     1     -12.273   2.211 -13.467  1.00  0.00     0.136 A 
HETATM   13  N7  UNL     1     -12.274   0.951 -13.058  1.00  0.00    -0.324 N 
ATOM     14  H7  UNL     1     -11.679   0.208 -13.423  1.00  0.00     0.169 HD
HETATM   15  C13 UNL     1     -13.189   0.815 -12.081  1.00  0.00     0.145 A 
ENDROOT
BRANCH  12  16
HETATM   16  C6  UNL     1     -11.420   2.789 -14.530  1.00  0.00     0.230 C 
BRANCH  16  17
HETATM   17  N4  UNL     1     -11.669   2.775 -15.672  1.00  0.00    -0.425 NA
BRANCH  17  18
HETATM   18  C7  UNL     1     -12.078   2.641 -16.910  1.00  0.00     0.198 C 
BRANCH  18  19
HETATM   19  C8  UNL     1     -13.068   1.829 -17.359  1.00  0.00     0.122 C 
BRANCH  19  20
HETATM   20  N5  UNL     1     -13.089   0.459 -17.060  1.00  0.00    -0.333 N 
HETATM   21  C9  UNL     1     -13.883  -0.077 -16.040  1.00  0.00     0.257 C 
HETATM   22  O3  UNL     1     -14.612   0.695 -15.354  1.00  0.00    -0.270 OA
ATOM     23  H5  UNL     1     -12.503  -0.171 -17.607  1.00  0.00     0.168 HD
BRANCH  21  24
HETATM   24  C10 UNL     1     -13.927  -1.522 -15.701  1.00  0.00     0.196 C 
HETATM   25  C11 UNL     1     -12.495  -1.974 -15.441  1.00  0.00     0.056 C 
HETATM   26  C12 UNL     1     -14.441  -2.351 -16.859  1.00  0.00     0.056 C 
BRANCH  24  27
HETATM   27  N6  UNL     1     -14.681  -1.773 -14.494  1.00  0.00    -0.062 N 
ATOM     28  H63 UNL     1     -14.388  -1.152 -13.739  1.00  0.00     0.275 HD
ATOM     29  H62 UNL     1     -15.648  -1.464 -14.591  1.00  0.00     0.275 HD
ATOM     30  H61 UNL     1     -14.632  -2.751 -14.208  1.00  0.00     0.275 HD
ENDBRANCH  24  27
ENDBRANCH  21  24
ENDBRANCH  19  20
ENDBRANCH  18  19
ENDBRANCH  17  18
ENDBRANCH  16  17
ENDBRANCH  12  16
TORSDOF 7
ENDMDL
MODEL 5
REMARK VINA RESULT: -5.385278234      1.686      3.834
REMARK  7 active torsions:
REMARK  status: ('A' for Active; 'I' for Inactive)
REMARK    1  A    between atoms: C5_12  and  C6_13 
REMARK    2  A    between atoms: C6_13  and  N4_14 
REMARK    3  A    between atoms: N4_14  and  C7_15 
REMARK    4  A    between atoms: C7_15  and  C8_16 
REMARK    5  A    between atoms: C8_16  and  N5_17 
REMARK       I    between atoms: N5_17  and  C9_19 
REMARK    6  A    between atoms: C9_19  and  C10_21 
REMARK    7  A    between atoms: C10_21  and  N6_24 
ROOT
HETATM    1  C1  UNL     1     -13.057  -1.516 -11.738  1.00  0.00     0.163 C 
HETATM    2  N1  UNL     1     -13.675  -0.241 -11.464  1.00  0.00    -0.288 N 
HETATM    3  C2  UNL     1     -14.688  -0.050 -10.616  1.00  0.00     0.330 A 
HETATM    4  O1  UNL     1     -15.126  -1.085 -10.015  1.00  0.00    -0.246 OA
HETATM    5  N2  UNL     1     -15.259   1.136 -10.360  1.00  0.00    -0.273 N 
ATOM      6  H2  UNL     1     -16.030   1.209  -9.697  1.00  0.00     0.173 HD
HETATM    7  C3  UNL     1     -14.795   2.231 -10.996  1.00  0.00     0.280 A 
HETATM    8  O2  UNL     1     -15.246   3.382 -10.839  1.00  0.00    -0.265 OA
HETATM    9  C4  UNL     1     -13.748   2.090 -11.886  1.00  0.00     0.147 A 
HETATM   10  N3  UNL     1     -13.058   2.938 -12.671  1.00  0.00    -0.333 N 
ATOM     11  H3  UNL     1     -13.220   3.942 -12.739  1.00  0.00     0.168 HD
HETATM   12  C5  UNL     1     -12.124   2.258 -13.350  1.00  0.00     0.136 A 
HETATM   13  N7  UNL     1     -12.214   0.982 -13.005  1.00  0.00    -0.324 N 
ATOM     14  H7  UNL     1     -11.630   0.227 -13.363  1.00  0.00     0.169 HD
HETATM   15  C13 UNL     1     -13.204   0.847 -12.104  1.00  0.00     0.145 A 
ENDROOT
BRANCH  12  16
HETATM   16  C6  UNL     1     -11.168   2.840 -14.319  1.00  0.00     0.230 C 
BRANCH  16  17
HETATM   17  N4  UNL     1     -11.411   3.084 -15.437  1.00  0.00    -0.425 NA
BRANCH  17  18
HETATM   18  C7  UNL     1     -11.767   3.197 -16.694  1.00  0.00     0.198 C 
BRANCH  18  19
HETATM   19  C8  UNL     1     -12.266   2.220 -17.492  1.00  0.00     0.122 C 
BRANCH  19  20
HETATM   20  N5  UNL     1     -13.446   1.536 -17.167  1.00  0.00    -0.333 N 
HETATM   21  C9  UNL     1     -13.447   0.346 -16.428  1.00  0.00     0.257 C 
HETATM   22  O3  UNL     1     -12.348  -0.139 -16.036  1.00  0.00    -0.270 OA
ATOM     23  H5  UNL     1     -14.337   1.919 -17.480  1.00  0.00     0.168 HD
BRANCH  21  24
HETATM   24  C10 UNL     1     -14.679  -0.400 -16.067  1.00  0.00     0.196 C 
HETATM   25  C11 UNL     1     -14.305  -1.874 -15.958  1.00  0.00     0.056 C 
HETATM   26  C12 UNL     1     -15.731  -0.298 -17.151  1.00  0.00     0.056 C 
BRANCH  24  27
HETATM   27  N6  UNL     1     -15.201   0.004 -14.782  1.00  0.00    -0.062 N 
ATOM     28  H63 UNL     1     -15.367  -0.802 -14.180  1.00  0.00     0.275 HD
ATOM     29  H62 UNL     1     -14.489   0.476 -14.226  1.00  0.00     0.275 HD
ATOM     30  H61 UNL     1     -16.039   0.577 -14.872  1.00  0.00     0.275 HD
ENDBRANCH  24  27
ENDBRANCH  21  24
ENDBRANCH  19  20
ENDBRANCH  18  19
ENDBRANCH  17  18
ENDBRANCH  16  17
ENDBRANCH  12  16
TORSDOF 7
ENDMDL
