MODEL 1
REMARK VINA RESULT: -6.099400574      0.000      0.000
REMARK  5 active torsions:
REMARK  status: ('A' for Active; 'I' for Inactive)
REMARK    1  A    between atoms: C2_2  and  N1_5 
REMARK       I    between atoms: N1_5  and  C5_7 
REMARK    2  A    between atoms: C5_7  and  C6_9 
REMARK    3  A    between atoms: C6_9  and  S1_10 
REMARK    4  A    between atoms: S1_10  and  C7_11 
REMARK    5  A    between atoms: C7_11  and  N2_13 
ROOT
HETATM    1  C6  UNL     1      -8.328  29.369  50.301  1.00  0.00     0.184 C 
ENDROOT
BRANCH   1   2
HETATM    2  C5  UNL     1      -9.412  28.860  51.169  1.00  0.00     0.227 C 
HETATM    3  N1  UNL     1      -9.309  28.779  52.574  1.00  0.00    -0.352 N 
ATOM      4  H1  UNL     1      -8.436  29.090  52.999  1.00  0.00     0.163 HD
HETATM    5  O1  UNL     1     -10.481  28.480  50.632  1.00  0.00    -0.273 OA
BRANCH   3   6
HETATM    6  C2  UNL     1     -10.328  28.297  53.446  1.00  0.00     0.022 C 
HETATM    7  C1  UNL     1     -10.826  26.918  53.072  1.00  0.00     0.037 C 
HETATM    8  C3  UNL     1     -11.465  29.267  53.525  1.00  0.00     0.037 C 
HETATM    9  C4  UNL     1      -9.721  28.194  54.841  1.00  0.00     0.037 C 
ENDBRANCH   3   6
ENDBRANCH   1   2
BRANCH   1  10
HETATM   10  S1  UNL     1      -7.959  28.211  48.978  1.00  0.00    -0.091 SA
BRANCH  10  11
HETATM   11  C7  UNL     1      -6.529  28.756  48.072  1.00  0.00     0.137 C 
HETATM   12  S2  UNL     1      -5.795  30.161  48.422  1.00  0.00    -0.053 SA
BRANCH  11  13
HETATM   13  N2  UNL     1      -6.033  27.950  47.035  1.00  0.00    -0.356 N 
HETATM   14  C8  UNL     1      -6.619  26.661  46.784  1.00  0.00     0.136 C 
HETATM   15  C9  UNL     1      -7.708  26.737  45.723  1.00  0.00     0.106 C 
HETATM   16  S3  UNL     1      -6.965  27.230  44.125  1.00  0.00    -0.094 SA
HETATM   17  S4  UNL     1      -4.928  27.758  44.568  1.00  0.00    -0.078 SA
HETATM   18  C10 UNL     1      -4.931  28.454  46.240  1.00  0.00     0.210 C 
ENDBRANCH  11  13
ENDBRANCH  10  11
ENDBRANCH   1  10
TORSDOF 5
ENDMDL
MODEL 2
REMARK VINA RESULT: -5.958506470      0.205      1.016
REMARK  5 active torsions:
REMARK  status: ('A' for Active; 'I' for Inactive)
REMARK    1  A    between atoms: C2_2  and  N1_5 
REMARK       I    between atoms: N1_5  and  C5_7 
REMARK    2  A    between atoms: C5_7  and  C6_9 
REMARK    3  A    between atoms: C6_9  and  S1_10 
REMARK    4  A    between atoms: S1_10  and  C7_11 
REMARK    5  A    between atoms: C7_11  and  N2_13 
ROOT
HETATM    1  C6  UNL     1      -8.265  29.440  50.218  1.00  0.00     0.184 C 
ENDROOT
BRANCH   1   2
HETATM    2  C5  UNL     1      -9.275  28.904  51.157  1.00  0.00     0.227 C 
HETATM    3  N1  UNL     1      -9.061  28.790  52.547  1.00  0.00    -0.352 N 
ATOM      4  H1  UNL     1      -8.159  29.097  52.909  1.00  0.00     0.163 HD
HETATM    5  O1  UNL     1     -10.381  28.529  50.697  1.00  0.00    -0.273 OA
BRANCH   3   6
HETATM    6  C2  UNL     1     -10.006  28.281  53.485  1.00  0.00     0.022 C 
HETATM    7  C1  UNL     1     -11.311  29.047  53.488  1.00  0.00     0.037 C 
HETATM    8  C3  UNL     1      -9.418  28.233  54.860  1.00  0.00     0.037 C 
HETATM    9  C4  UNL     1     -10.324  26.847  53.077  1.00  0.00     0.037 C 
ENDBRANCH   3   6
ENDBRANCH   1   2
BRANCH   1  10
HETATM   10  S1  UNL     1      -7.904  28.261  48.912  1.00  0.00    -0.091 SA
BRANCH  10  11
HETATM   11  C7  UNL     1      -6.446  28.762  48.024  1.00  0.00     0.137 C 
HETATM   12  S2  UNL     1      -5.664  30.136  48.397  1.00  0.00    -0.053 SA
BRANCH  11  13
HETATM   13  N2  UNL     1      -5.971  27.950  46.983  1.00  0.00    -0.356 N 
HETATM   14  C8  UNL     1      -6.578  26.669  46.737  1.00  0.00     0.136 C 
HETATM   15  C9  UNL     1      -7.674  26.762  45.685  1.00  0.00     0.106 C 
HETATM   16  S3  UNL     1      -6.936  27.244  44.081  1.00  0.00    -0.094 SA
HETATM   17  S4  UNL     1      -4.889  27.742  44.507  1.00  0.00    -0.078 SA
HETATM   18  C10 UNL     1      -4.868  28.438  46.180  1.00  0.00     0.210 C 
ENDBRANCH  11  13
ENDBRANCH  10  11
ENDBRANCH   1  10
TORSDOF 5
ENDMDL
MODEL 3
REMARK VINA RESULT: -5.731224479      1.980      3.026
REMARK  5 active torsions:
REMARK  status: ('A' for Active; 'I' for Inactive)
REMARK    1  A    between atoms: C2_2  and  N1_5 
REMARK       I    between atoms: N1_5  and  C5_7 
REMARK    2  A    between atoms: C5_7  and  C6_9 
REMARK    3  A    between atoms: C6_9  and  S1_10 
REMARK    4  A    between atoms: S1_10  and  C7_11 
REMARK    5  A    between atoms: C7_11  and  N2_13 
ROOT
HETATM    1  C6  UNL     1      -8.824  27.308  47.967  1.00  0.00     0.184 C 
ENDROOT
BRANCH   1   2
HETATM    2  C5  UNL     1      -9.038  27.969  49.272  1.00  0.00     0.227 C 
HETATM    3  N1  UNL     1      -9.321  27.268  50.462  1.00  0.00    -0.352 N 
ATOM      4  H1  UNL     1      -9.379  26.252  50.406  1.00  0.00     0.163 HD
HETATM    5  O1  UNL     1      -8.964  29.221  49.328  1.00  0.00    -0.273 OA
BRANCH   3   6
HETATM    6  C2  UNL     1      -9.532  27.866  51.739  1.00  0.00     0.022 C 
HETATM    7  C1  UNL     1     -10.807  28.677  51.810  1.00  0.00     0.037 C 
HETATM    8  C3  UNL     1      -8.354  28.695  52.141  1.00  0.00     0.037 C 
HETATM    9  C4  UNL     1      -9.660  26.736  52.755  1.00  0.00     0.037 C 
ENDBRANCH   3   6
ENDBRANCH   1   2
BRANCH   1  10
HETATM   10  S1  UNL     1      -7.114  26.793  47.772  1.00  0.00    -0.091 SA
BRANCH  10  11
HETATM   11  C7  UNL     1      -6.755  26.505  46.055  1.00  0.00     0.137 C 
HETATM   12  S2  UNL     1      -7.283  25.169  45.297  1.00  0.00    -0.053 SA
BRANCH  11  13
HETATM   13  N2  UNL     1      -5.998  27.453  45.349  1.00  0.00    -0.356 N 
HETATM   14  C8  UNL     1      -5.533  28.640  46.015  1.00  0.00     0.136 C 
HETATM   15  C9  UNL     1      -4.127  28.457  46.568  1.00  0.00     0.106 C 
HETATM   16  S3  UNL     1      -2.957  28.211  45.182  1.00  0.00    -0.094 SA
HETATM   17  S4  UNL     1      -4.174  28.002  43.422  1.00  0.00    -0.078 SA
HETATM   18  C10 UNL     1      -5.709  27.199  43.952  1.00  0.00     0.210 C 
ENDBRANCH  11  13
ENDBRANCH  10  11
ENDBRANCH   1  10
TORSDOF 5
ENDMDL
MODEL 4
REMARK VINA RESULT: -5.667394564      1.080      1.517
REMARK  5 active torsions:
REMARK  status: ('A' for Active; 'I' for Inactive)
REMARK    1  A    between atoms: C2_2  and  N1_5 
REMARK       I    between atoms: N1_5  and  C5_7 
REMARK    2  A    between atoms: C5_7  and  C6_9 
REMARK    3  A    between atoms: C6_9  and  S1_10 
REMARK    4  A    between atoms: S1_10  and  C7_11 
REMARK    5  A    between atoms: C7_11  and  N2_13 
ROOT
HETATM    1  C6  UNL     1      -7.722  29.120  50.648  1.00  0.00     0.184 C 
ENDROOT
BRANCH   1   2
HETATM    2  C5  UNL     1      -8.957  28.631  51.298  1.00  0.00     0.227 C 
HETATM    3  N1  UNL     1      -8.984  28.065  52.590  1.00  0.00    -0.352 N 
ATOM      4  H1  UNL     1      -8.098  27.995  53.090  1.00  0.00     0.163 HD
HETATM    5  O1  UNL     1     -10.041  28.724  50.672  1.00  0.00    -0.273 OA
BRANCH   3   6
HETATM    6  C2  UNL     1     -10.151  27.584  53.253  1.00  0.00     0.022 C 
HETATM    7  C1  UNL     1     -10.839  26.463  52.504  1.00  0.00     0.037 C 
HETATM    8  C3  UNL     1     -11.106  28.701  53.529  1.00  0.00     0.037 C 
HETATM    9  C4  UNL     1      -9.709  27.021  54.599  1.00  0.00     0.037 C 
ENDBRANCH   3   6
ENDBRANCH   1   2
BRANCH   1  10
HETATM   10  S1  UNL     1      -7.991  29.434  48.899  1.00  0.00    -0.091 SA
BRANCH  10  11
HETATM   11  C7  UNL     1      -7.771  27.934  47.969  1.00  0.00     0.137 C 
HETATM   12  S2  UNL     1      -8.959  26.832  47.857  1.00  0.00    -0.053 SA
BRANCH  11  13
HETATM   13  N2  UNL     1      -6.545  27.706  47.326  1.00  0.00    -0.356 N 
HETATM   14  C8  UNL     1      -6.324  26.473  46.619  1.00  0.00     0.136 C 
HETATM   15  C9  UNL     1      -6.668  26.605  45.142  1.00  0.00     0.106 C 
HETATM   16  S3  UNL     1      -5.527  27.802  44.358  1.00  0.00    -0.094 SA
HETATM   17  S4  UNL     1      -4.414  28.688  45.970  1.00  0.00    -0.078 SA
HETATM   18  C10 UNL     1      -5.529  28.736  47.397  1.00  0.00     0.210 C 
ENDBRANCH  11  13
ENDBRANCH  10  11
ENDBRANCH   1  10
TORSDOF 5
ENDMDL
MODEL 5
REMARK VINA RESULT: -5.655927343      1.855      2.726
REMARK  5 active torsions:
REMARK  status: ('A' for Active; 'I' for Inactive)
REMARK    1  A    between atoms: C2_2  and  N1_5 
REMARK       I    between atoms: N1_5  and  C5_7 
REMARK    2  A    between atoms: C5_7  and  C6_9 
REMARK    3  A    between atoms: C6_9  and  S1_10 
REMARK    4  A    between atoms: S1_10  and  C7_11 
REMARK    5  A    between atoms: C7_11  and  N2_13 
ROOT
HETATM    1  C6  UNL     1      -8.619  27.446  47.856  1.00  0.00     0.184 C 
ENDROOT
BRANCH   1   2
HETATM    2  C5  UNL     1      -8.946  28.052  49.165  1.00  0.00     0.227 C 
HETATM    3  N1  UNL     1      -9.203  27.298  50.328  1.00  0.00    -0.352 N 
ATOM      4  H1  UNL     1      -9.158  26.282  50.249  1.00  0.00     0.163 HD
HETATM    5  O1  UNL     1      -9.000  29.303  49.249  1.00  0.00    -0.273 OA
BRANCH   3   6
HETATM    6  C2  UNL     1      -9.522  27.841  51.607  1.00  0.00     0.022 C 
HETATM    7  C1  UNL     1     -10.824  28.610  51.618  1.00  0.00     0.037 C 
HETATM    8  C3  UNL     1      -8.401  28.689  52.120  1.00  0.00     0.037 C 
HETATM    9  C4  UNL     1      -9.682  26.670  52.571  1.00  0.00     0.037 C 
ENDBRANCH   3   6
ENDBRANCH   1   2
BRANCH   1  10
HETATM   10  S1  UNL     1      -6.882  26.996  47.767  1.00  0.00    -0.091 SA
BRANCH  10  11
HETATM   11  C7  UNL     1      -5.925  28.372  47.173  1.00  0.00     0.137 C 
HETATM   12  S2  UNL     1      -5.611  29.651  48.122  1.00  0.00    -0.053 SA
BRANCH  11  13
HETATM   13  N2  UNL     1      -5.437  28.344  45.857  1.00  0.00    -0.356 N 
HETATM   14  C8  UNL     1      -4.549  29.379  45.399  1.00  0.00     0.136 C 
HETATM   15  C9  UNL     1      -3.090  28.979  45.569  1.00  0.00     0.106 C 
HETATM   16  S3  UNL     1      -2.725  27.543  44.495  1.00  0.00    -0.094 SA
HETATM   17  S4  UNL     1      -4.622  26.904  43.711  1.00  0.00    -0.078 SA
HETATM   18  C10 UNL     1      -5.852  27.258  44.993  1.00  0.00     0.210 C 
ENDBRANCH  11  13
ENDBRANCH  10  11
ENDBRANCH   1  10
TORSDOF 5
ENDMDL
