MODEL 1
REMARK VINA RESULT: -4.974506364      0.000      0.000
REMARK  3 active torsions:
REMARK  status: ('A' for Active; 'I' for Inactive)
REMARK    1  A    between atoms: O1_2  and  C2_3 
REMARK    2  A    between atoms: C8_10  and  S1_11 
REMARK    3  A    between atoms: N1_14  and  O3_16 
ROOT
HETATM    1  C2  UNL     1     -10.830  27.664  53.115  1.00  0.00     0.129 C 
HETATM    2  C3  UNL     1     -11.281  29.110  53.068  1.00  0.00     0.034 C 
HETATM    3  C4  UNL     1     -11.986  29.399  54.352  1.00  0.00     0.020 C 
HETATM    4  C5  UNL     1     -11.268  29.059  55.582  1.00  0.00     0.032 C 
HETATM    5  C6  UNL     1     -12.292  28.763  56.672  1.00  0.00     0.025 C 
HETATM    6  C7  UNL     1     -10.526  30.284  56.065  1.00  0.00     0.155 C 
HETATM    7  O2  UNL     1     -10.729  31.438  55.734  1.00  0.00    -0.295 OA
HETATM    8  C8  UNL     1      -9.528  29.723  57.013  1.00  0.00     0.165 C 
HETATM    9  C10 UNL     1      -9.074  28.517  56.289  1.00  0.00     0.041 C 
HETATM   10  N1  UNL     1      -7.877  28.046  56.340  1.00  0.00    -0.275 N 
ATOM     11  H1  UNL     1      -7.662  27.206  55.804  1.00  0.00     0.193 HD
HETATM   12  C11 UNL     1     -10.249  28.003  55.543  1.00  0.00     0.022 C 
HETATM   13  C12 UNL     1     -10.674  26.729  56.281  1.00  0.00     0.024 C 
HETATM   14  C13 UNL     1      -9.771  27.586  54.187  1.00  0.00    -0.008 C 
HETATM   15  C14 UNL     1      -8.596  28.423  53.700  1.00  0.00     0.018 C 
HETATM   16  C15 UNL     1      -9.280  26.137  54.195  1.00  0.00     0.018 C 
ENDROOT
BRANCH   8  17
HETATM   17  S1  UNL     1      -8.142  30.862  57.269  1.00  0.00    -0.155 SA
HETATM   18  C9  UNL     1      -8.602  32.260  58.277  1.00  0.00     0.091 C 
ENDBRANCH   8  17
BRANCH  10  19
HETATM   19  O3  UNL     1      -6.882  28.619  57.079  1.00  0.00    -0.290 OA
ATOM     20  H3  UNL     1      -6.276  29.258  56.725  1.00  0.00     0.244 HD
ENDBRANCH  10  19
BRANCH   1  21
HETATM   21  O1  UNL     1     -10.260  27.266  51.915  1.00  0.00    -0.390 OA
HETATM   22  C1  UNL     1     -10.925  27.734  50.803  1.00  0.00     0.202 C 
ENDBRANCH   1  21
TORSDOF 3
ENDMDL
MODEL 2
REMARK VINA RESULT: -4.775868273      2.509      4.553
REMARK  3 active torsions:
REMARK  status: ('A' for Active; 'I' for Inactive)
REMARK    1  A    between atoms: O1_2  and  C2_3 
REMARK    2  A    between atoms: C8_10  and  S1_11 
REMARK    3  A    between atoms: N1_14  and  O3_16 
ROOT
HETATM    1  C2  UNL     1      -9.025  29.988  56.094  1.00  0.00     0.129 C 
HETATM    2  C3  UNL     1     -10.492  30.039  56.469  1.00  0.00     0.034 C 
HETATM    3  C4  UNL     1     -11.280  29.886  55.209  1.00  0.00     0.020 C 
HETATM    4  C5  UNL     1     -10.941  28.740  54.363  1.00  0.00     0.032 C 
HETATM    5  C6  UNL     1     -11.284  29.088  52.919  1.00  0.00     0.025 C 
HETATM    6  C7  UNL     1     -11.855  27.590  54.716  1.00  0.00     0.155 C 
HETATM    7  O2  UNL     1     -12.908  27.654  55.325  1.00  0.00    -0.295 OA
HETATM    8  C8  UNL     1     -11.153  26.411  54.143  1.00  0.00     0.165 C 
HETATM    9  C10 UNL     1      -9.747  26.699  54.499  1.00  0.00     0.041 C 
HETATM   10  N1  UNL     1      -8.873  25.800  54.787  1.00  0.00    -0.275 N 
ATOM     11  H1  UNL     1      -7.925  26.100  55.019  1.00  0.00     0.193 HD
HETATM   12  C11 UNL     1      -9.589  28.174  54.441  1.00  0.00     0.022 C 
HETATM   13  C12 UNL     1      -8.751  28.443  53.186  1.00  0.00     0.024 C 
HETATM   14  C13 UNL     1      -8.759  28.581  55.618  1.00  0.00    -0.008 C 
HETATM   15  C14 UNL     1      -8.965  27.668  56.820  1.00  0.00     0.018 C 
HETATM   16  C15 UNL     1      -7.266  28.516  55.292  1.00  0.00     0.018 C 
ENDROOT
BRANCH   8  17
HETATM   17  S1  UNL     1     -11.697  24.869  54.923  1.00  0.00    -0.155 SA
HETATM   18  C9  UNL     1     -11.828  25.025  56.696  1.00  0.00     0.091 C 
ENDBRANCH   8  17
BRANCH  10  19
HETATM   19  O3  UNL     1      -9.152  24.464  54.797  1.00  0.00    -0.290 OA
ATOM     20  H3  UNL     1      -9.317  23.963  54.007  1.00  0.00     0.244 HD
ENDBRANCH  10  19
BRANCH   1  21
HETATM   21  O1  UNL     1      -8.208  30.234  57.188  1.00  0.00    -0.390 OA
HETATM   22  C1  UNL     1      -7.994  31.574  57.430  1.00  0.00     0.202 C 
ENDBRANCH   1  21
TORSDOF 3
ENDMDL
MODEL 3
REMARK VINA RESULT: -4.616202329      2.457      3.894
REMARK  3 active torsions:
REMARK  status: ('A' for Active; 'I' for Inactive)
REMARK    1  A    between atoms: O1_2  and  C2_3 
REMARK    2  A    between atoms: C8_10  and  S1_11 
REMARK    3  A    between atoms: N1_14  and  O3_16 
ROOT
HETATM    1  C2  UNL     1      -8.703  28.884  52.576  1.00  0.00     0.129 C 
HETATM    2  C3  UNL     1      -7.725  28.730  53.723  1.00  0.00     0.034 C 
HETATM    3  C4  UNL     1      -8.309  29.433  54.905  1.00  0.00     0.020 C 
HETATM    4  C5  UNL     1      -9.681  29.072  55.266  1.00  0.00     0.032 C 
HETATM    5  C6  UNL     1     -10.327  30.266  55.960  1.00  0.00     0.025 C 
HETATM    6  C7  UNL     1      -9.637  27.986  56.316  1.00  0.00     0.155 C 
HETATM    7  O2  UNL     1      -8.684  27.682  57.012  1.00  0.00    -0.295 OA
HETATM    8  C8  UNL     1     -11.009  27.417  56.273  1.00  0.00     0.165 C 
HETATM    9  C10 UNL     1     -11.268  27.372  54.817  1.00  0.00     0.041 C 
HETATM   10  N1  UNL     1     -11.973  26.468  54.233  1.00  0.00    -0.275 N 
ATOM     11  H1  UNL     1     -12.094  26.525  53.221  1.00  0.00     0.193 HD
HETATM   12  C11 UNL     1     -10.575  28.544  54.228  1.00  0.00     0.022 C 
HETATM   13  C12 UNL     1     -11.690  29.522  53.839  1.00  0.00     0.024 C 
HETATM   14  C13 UNL     1      -9.928  28.089  52.957  1.00  0.00    -0.008 C 
HETATM   15  C14 UNL     1      -9.500  26.628  53.011  1.00  0.00     0.018 C 
HETATM   16  C15 UNL     1     -10.892  28.200  51.774  1.00  0.00     0.018 C 
ENDROOT
BRANCH   8  17
HETATM   17  S1  UNL     1     -11.058  25.747  56.972  1.00  0.00    -0.155 SA
HETATM   18  C9  UNL     1     -12.266  25.602  58.277  1.00  0.00     0.091 C 
ENDBRANCH   8  17
BRANCH  10  19
HETATM   19  O3  UNL     1     -12.566  25.437  54.902  1.00  0.00    -0.290 OA
ATOM     20  H3  UNL     1     -12.093  24.857  55.487  1.00  0.00     0.244 HD
ENDBRANCH  10  19
BRANCH   1  21
HETATM   21  O1  UNL     1      -8.196  28.357  51.398  1.00  0.00    -0.390 OA
HETATM   22  C1  UNL     1      -7.668  29.305  50.549  1.00  0.00     0.202 C 
ENDBRANCH   1  21
TORSDOF 3
ENDMDL
MODEL 4
REMARK VINA RESULT: -4.455934689      2.535      4.868
REMARK  3 active torsions:
REMARK  status: ('A' for Active; 'I' for Inactive)
REMARK    1  A    between atoms: O1_2  and  C2_3 
REMARK    2  A    between atoms: C8_10  and  S1_11 
REMARK    3  A    between atoms: N1_14  and  O3_16 
ROOT
HETATM    1  C2  UNL     1     -11.367  29.929  55.389  1.00  0.00     0.129 C 
HETATM    2  C3  UNL     1     -11.995  29.500  54.078  1.00  0.00     0.034 C 
HETATM    3  C4  UNL     1     -10.890  29.045  53.182  1.00  0.00     0.020 C 
HETATM    4  C5  UNL     1      -9.972  28.047  53.735  1.00  0.00     0.032 C 
HETATM    5  C6  UNL     1      -8.619  28.204  53.050  1.00  0.00     0.025 C 
HETATM    6  C7  UNL     1     -10.454  26.671  53.336  1.00  0.00     0.155 C 
HETATM    7  O2  UNL     1     -11.239  26.402  52.445  1.00  0.00    -0.295 OA
HETATM    8  C8  UNL     1      -9.739  25.775  54.283  1.00  0.00     0.165 C 
HETATM    9  C10 UNL     1      -9.849  26.530  55.549  1.00  0.00     0.041 C 
HETATM   10  N1  UNL     1      -9.958  25.987  56.711  1.00  0.00    -0.275 N 
ATOM     11  H1  UNL     1     -10.027  26.596  57.527  1.00  0.00     0.193 HD
HETATM   12  C11 UNL     1      -9.797  27.969  55.190  1.00  0.00     0.022 C 
HETATM   13  C12 UNL     1      -8.421  28.455  55.659  1.00  0.00     0.024 C 
HETATM   14  C13 UNL     1     -10.820  28.675  56.025  1.00  0.00    -0.008 C 
HETATM   15  C14 UNL     1     -12.018  27.792  56.350  1.00  0.00     0.018 C 
HETATM   16  C15 UNL     1     -10.236  29.102  57.373  1.00  0.00     0.018 C 
ENDROOT
BRANCH   8  17
HETATM   17  S1  UNL     1     -10.568  24.171  54.433  1.00  0.00    -0.155 SA
HETATM   18  C9  UNL     1     -10.264  23.125  53.020  1.00  0.00     0.091 C 
ENDBRANCH   8  17
BRANCH  10  19
HETATM   19  O3  UNL     1      -9.987  24.636  56.903  1.00  0.00    -0.290 OA
ATOM     20  H3  UNL     1     -10.792  24.144  57.007  1.00  0.00     0.244 HD
ENDBRANCH  10  19
BRANCH   1  21
HETATM   21  O1  UNL     1     -12.306  30.476  56.251  1.00  0.00    -0.390 OA
HETATM   22  C1  UNL     1     -12.471  31.836  56.101  1.00  0.00     0.202 C 
ENDBRANCH   1  21
TORSDOF 3
ENDMDL
MODEL 5
REMARK VINA RESULT: -4.358117039      2.157      2.988
REMARK  3 active torsions:
REMARK  status: ('A' for Active; 'I' for Inactive)
REMARK    1  A    between atoms: O1_2  and  C2_3 
REMARK    2  A    between atoms: C8_10  and  S1_11 
REMARK    3  A    between atoms: N1_14  and  O3_16 
ROOT
HETATM    1  C2  UNL     1     -11.362  25.157  53.154  1.00  0.00     0.129 C 
HETATM    2  C3  UNL     1     -10.403  25.828  52.193  1.00  0.00     0.034 C 
HETATM    3  C4  UNL     1     -10.679  27.295  52.238  1.00  0.00     0.020 C 
HETATM    4  C5  UNL     1     -10.694  27.915  53.565  1.00  0.00     0.032 C 
HETATM    5  C6  UNL     1     -11.612  29.132  53.519  1.00  0.00     0.025 C 
HETATM    6  C7  UNL     1      -9.320  28.473  53.855  1.00  0.00     0.155 C 
HETATM    7  O2  UNL     1      -8.439  28.700  53.046  1.00  0.00    -0.295 OA
HETATM    8  C8  UNL     1      -9.336  28.663  55.329  1.00  0.00     0.165 C 
HETATM    9  C10 UNL     1     -10.016  27.430  55.781  1.00  0.00     0.041 C 
HETATM   10  N1  UNL     1      -9.757  26.821  56.885  1.00  0.00    -0.275 N 
ATOM     11  H1  UNL     1     -10.283  25.976  57.109  1.00  0.00     0.193 HD
HETATM   12  C11 UNL     1     -11.010  27.086  54.734  1.00  0.00     0.022 C 
HETATM   13  C12 UNL     1     -12.376  27.409  55.350  1.00  0.00     0.024 C 
HETATM   14  C13 UNL     1     -10.957  25.603  54.537  1.00  0.00    -0.008 C 
HETATM   15  C14 UNL     1      -9.568  25.031  54.790  1.00  0.00     0.018 C 
HETATM   16  C15 UNL     1     -11.892  24.882  55.509  1.00  0.00     0.018 C 
ENDROOT
BRANCH   8  17
HETATM   17  S1  UNL     1      -7.658  28.741  56.007  1.00  0.00    -0.155 SA
HETATM   18  C9  UNL     1      -7.304  30.329  56.740  1.00  0.00     0.091 C 
ENDBRANCH   8  17
BRANCH  10  19
HETATM   19  O3  UNL     1      -8.813  27.253  57.771  1.00  0.00    -0.290 OA
ATOM     20  H3  UNL     1      -8.867  27.095  58.706  1.00  0.00     0.244 HD
ENDBRANCH  10  19
BRANCH   1  21
HETATM   21  O1  UNL     1     -11.258  23.775  53.099  1.00  0.00    -0.390 OA
HETATM   22  C1  UNL     1     -11.393  23.258  51.829  1.00  0.00     0.202 C 
ENDBRANCH   1  21
TORSDOF 3
ENDMDL
