MODEL 1
REMARK VINA RESULT: -8.791000020      0.000      0.000
REMARK  6 active torsions:
REMARK  status: ('A' for Active; 'I' for Inactive)
REMARK    1  A    between atoms: C2_2  and  N1_4 
REMARK    2  A    between atoms: C6_7  and  N2_8 
REMARK    3  A    between atoms: N2_8  and  N3_10 
REMARK    4  A    between atoms: N3_10  and  C7_12 
REMARK    5  A    between atoms: C9_14  and  C10_15 
REMARK    6  A    between atoms: N5_21  and  O1_22 
ROOT
HETATM    1  N3  UNL     1      -7.394  27.346  46.752  1.00  0.00    -0.282 N 
ATOM      2  H3  UNL     1      -8.363  27.574  46.531  1.00  0.00     0.188 HD
ENDROOT
BRANCH   1   3
HETATM    3  N2  UNL     1      -7.205  27.096  48.064  1.00  0.00    -0.307 N 
ATOM      4  H2  UNL     1      -6.570  26.369  48.392  1.00  0.00     0.186 HD
BRANCH   3   5
HETATM    5  C6  UNL     1      -7.896  27.854  48.897  1.00  0.00     0.007 C 
HETATM    6  C5  UNL     1      -9.360  27.651  49.071  1.00  0.00     0.084 C 
HETATM    7  C4  UNL     1      -9.710  27.537  50.545  1.00  0.00     0.278 C 
HETATM    8  N1  UNL     1      -8.845  28.362  51.328  1.00  0.00     0.093 N 
HETATM    9  C15 UNL     1      -8.280  29.477  50.613  1.00  0.00     0.278 C 
HETATM   10  C14 UNL     1      -7.224  28.912  49.647  1.00  0.00     0.084 C 
BRANCH   8  11
HETATM   11  C2  UNL     1      -9.377  28.704  52.609  1.00  0.00     0.215 C 
HETATM   12  C1  UNL     1     -10.494  27.726  52.912  1.00  0.00     0.042 C 
HETATM   13  C3  UNL     1      -8.361  28.672  53.706  1.00  0.00     0.042 C 
ENDBRANCH   8  11
ENDBRANCH   3   5
ENDBRANCH   1   3
BRANCH   1  14
HETATM   14  C7  UNL     1      -6.650  27.362  45.739  1.00  0.00     0.168 A 
HETATM   15  C8  UNL     1      -5.352  27.903  45.751  1.00  0.00     0.081 A 
HETATM   16  C9  UNL     1      -4.797  27.774  44.494  1.00  0.00     0.039 A 
HETATM   17  N4  UNL     1      -5.739  27.171  43.756  1.00  0.00    -0.276 N 
HETATM   18  N5  UNL     1      -6.829  26.931  44.493  1.00  0.00    -0.145 N 
ATOM     19  H4  UNL     1      -5.640  26.928  42.770  1.00  0.00     0.189 HD
BRANCH  16  20
HETATM   20  C10 UNL     1      -3.422  28.229  44.086  1.00  0.00    -0.007 C 
HETATM   21  C11 UNL     1      -3.243  28.149  42.601  1.00  0.00     0.021 C 
HETATM   22  C12 UNL     1      -3.134  29.548  44.702  1.00  0.00     0.021 C 
HETATM   23  C13 UNL     1      -2.476  27.179  44.687  1.00  0.00     0.021 C 
ENDBRANCH  16  20
BRANCH  18  24
HETATM   24  O1  UNL     1      -7.971  26.320  44.016  1.00  0.00    -0.266 OA
ATOM     25  H1  UNL     1      -8.244  25.432  44.217  1.00  0.00     0.247 HD
ENDBRANCH  18  24
ENDBRANCH   1  14
TORSDOF 6
ENDMDL
MODEL 2
REMARK VINA RESULT: -8.443641040      1.819      8.084
REMARK  6 active torsions:
REMARK  status: ('A' for Active; 'I' for Inactive)
REMARK    1  A    between atoms: C2_2  and  N1_4 
REMARK    2  A    between atoms: C6_7  and  N2_8 
REMARK    3  A    between atoms: N2_8  and  N3_10 
REMARK    4  A    between atoms: N3_10  and  C7_12 
REMARK    5  A    between atoms: C9_14  and  C10_15 
REMARK    6  A    between atoms: N5_21  and  O1_22 
ROOT
HETATM    1  N3  UNL     1      -8.278  27.673  48.332  1.00  0.00    -0.282 N 
ATOM      2  H3  UNL     1      -9.086  27.750  47.714  1.00  0.00     0.188 HD
ENDROOT
BRANCH   1   3
HETATM    3  N2  UNL     1      -7.272  26.960  47.785  1.00  0.00    -0.307 N 
ATOM      4  H2  UNL     1      -6.983  26.056  48.158  1.00  0.00     0.186 HD
BRANCH   3   5
HETATM    5  C6  UNL     1      -6.686  27.507  46.736  1.00  0.00     0.007 C 
HETATM    6  C5  UNL     1      -5.743  28.647  46.902  1.00  0.00     0.084 C 
HETATM    7  C4  UNL     1      -4.441  28.373  46.169  1.00  0.00     0.278 C 
HETATM    8  N1  UNL     1      -4.687  27.611  44.985  1.00  0.00     0.093 N 
HETATM    9  C15 UNL     1      -6.017  27.755  44.452  1.00  0.00     0.278 C 
HETATM   10  C14 UNL     1      -6.972  27.004  45.395  1.00  0.00     0.084 C 
BRANCH   8  11
HETATM   11  C2  UNL     1      -3.655  27.717  44.004  1.00  0.00     0.215 C 
HETATM   12  C1  UNL     1      -3.352  29.191  43.824  1.00  0.00     0.042 C 
HETATM   13  C3  UNL     1      -2.405  26.982  44.369  1.00  0.00     0.042 C 
ENDBRANCH   8  11
ENDBRANCH   3   5
ENDBRANCH   1   3
BRANCH   1  14
HETATM   14  C7  UNL     1      -8.450  28.264  49.428  1.00  0.00     0.168 A 
HETATM   15  C8  UNL     1      -8.984  27.628  50.564  1.00  0.00     0.081 A 
HETATM   16  C9  UNL     1      -9.049  28.537  51.601  1.00  0.00     0.039 A 
HETATM   17  N4  UNL     1      -8.565  29.680  51.094  1.00  0.00    -0.276 N 
HETATM   18  N5  UNL     1      -8.214  29.514  49.814  1.00  0.00    -0.145 N 
ATOM     19  H4  UNL     1      -8.477  30.555  51.613  1.00  0.00     0.189 HD
BRANCH  16  20
HETATM   20  C10 UNL     1      -9.563  28.258  52.987  1.00  0.00    -0.007 C 
HETATM   21  C11 UNL     1      -8.559  28.652  54.026  1.00  0.00     0.021 C 
HETATM   22  C12 UNL     1     -10.917  28.846  53.141  1.00  0.00     0.021 C 
HETATM   23  C13 UNL     1      -9.670  26.728  53.056  1.00  0.00     0.021 C 
ENDBRANCH  16  20
BRANCH  18  24
HETATM   24  O1  UNL     1      -7.682  30.509  49.019  1.00  0.00    -0.266 OA
ATOM     25  H1  UNL     1      -7.302  31.321  49.335  1.00  0.00     0.247 HD
ENDBRANCH  18  24
ENDBRANCH   1  14
TORSDOF 6
ENDMDL
MODEL 3
REMARK VINA RESULT: -8.426506338      2.035      8.228
REMARK  6 active torsions:
REMARK  status: ('A' for Active; 'I' for Inactive)
REMARK    1  A    between atoms: C2_2  and  N1_4 
REMARK    2  A    between atoms: C6_7  and  N2_8 
REMARK    3  A    between atoms: N2_8  and  N3_10 
REMARK    4  A    between atoms: N3_10  and  C7_12 
REMARK    5  A    between atoms: C9_14  and  C10_15 
REMARK    6  A    between atoms: N5_21  and  O1_22 
ROOT
HETATM    1  N3  UNL     1      -8.464  27.425  49.057  1.00  0.00    -0.282 N 
ATOM      2  H3  UNL     1      -8.331  26.420  49.169  1.00  0.00     0.188 HD
ENDROOT
BRANCH   1   3
HETATM    3  N2  UNL     1      -8.271  27.836  47.787  1.00  0.00    -0.307 N 
ATOM      4  H2  UNL     1      -9.031  28.201  47.214  1.00  0.00     0.186 HD
BRANCH   3   5
HETATM    5  C6  UNL     1      -7.035  27.735  47.334  1.00  0.00     0.007 C 
HETATM    6  C5  UNL     1      -6.615  26.553  46.532  1.00  0.00     0.084 C 
HETATM    7  C4  UNL     1      -5.930  26.995  45.250  1.00  0.00     0.278 C 
HETATM    8  N1  UNL     1      -5.202  28.206  45.466  1.00  0.00     0.093 N 
HETATM    9  C15 UNL     1      -4.798  28.420  46.831  1.00  0.00     0.278 C 
HETATM   10  C14 UNL     1      -6.061  28.782  47.630  1.00  0.00     0.084 C 
BRANCH   8  11
HETATM   11  C2  UNL     1      -4.164  28.433  44.511  1.00  0.00     0.215 C 
HETATM   12  C1  UNL     1      -3.281  29.537  45.058  1.00  0.00     0.042 C 
HETATM   13  C3  UNL     1      -3.341  27.219  44.223  1.00  0.00     0.042 C 
ENDBRANCH   8  11
ENDBRANCH   3   5
ENDBRANCH   1   3
BRANCH   1  14
HETATM   14  C7  UNL     1      -8.771  27.994  50.134  1.00  0.00     0.168 A 
HETATM   15  C8  UNL     1      -9.417  27.331  51.194  1.00  0.00     0.081 A 
HETATM   16  C9  UNL     1      -9.617  28.221  52.229  1.00  0.00     0.039 A 
HETATM   17  N4  UNL     1      -9.102  29.381  51.797  1.00  0.00    -0.276 N 
HETATM   18  N5  UNL     1      -8.606  29.243  50.563  1.00  0.00    -0.145 N 
ATOM     19  H4  UNL     1      -9.091  30.248  52.334  1.00  0.00     0.189 HD
BRANCH  16  20
HETATM   20  C10 UNL     1     -10.279  27.910  53.544  1.00  0.00    -0.007 C 
HETATM   21  C11 UNL     1      -9.263  27.643  54.612  1.00  0.00     0.021 C 
HETATM   22  C12 UNL     1     -11.281  28.959  53.855  1.00  0.00     0.021 C 
HETATM   23  C13 UNL     1     -11.005  26.579  53.303  1.00  0.00     0.021 C 
ENDBRANCH  16  20
BRANCH  18  24
HETATM   24  O1  UNL     1      -8.008  30.260  49.847  1.00  0.00    -0.266 OA
ATOM     25  H1  UNL     1      -8.040  30.360  48.903  1.00  0.00     0.247 HD
ENDBRANCH  18  24
ENDBRANCH   1  14
TORSDOF 6
ENDMDL
MODEL 4
REMARK VINA RESULT: -8.313828028      4.263      7.665
REMARK  6 active torsions:
REMARK  status: ('A' for Active; 'I' for Inactive)
REMARK    1  A    between atoms: C2_2  and  N1_4 
REMARK    2  A    between atoms: C6_7  and  N2_8 
REMARK    3  A    between atoms: N2_8  and  N3_10 
REMARK    4  A    between atoms: N3_10  and  C7_12 
REMARK    5  A    between atoms: C9_14  and  C10_15 
REMARK    6  A    between atoms: N5_21  and  O1_22 
ROOT
HETATM    1  N3  UNL     1      -9.856  25.748  46.490  1.00  0.00    -0.282 N 
ATOM      2  H3  UNL     1     -10.108  26.404  45.750  1.00  0.00     0.188 HD
ENDROOT
BRANCH   1   3
HETATM    3  N2  UNL     1      -9.159  26.332  47.485  1.00  0.00    -0.307 N 
ATOM      4  H2  UNL     1      -9.581  26.549  48.388  1.00  0.00     0.186 HD
BRANCH   3   5
HETATM    5  C6  UNL     1      -7.894  26.605  47.218  1.00  0.00     0.007 C 
HETATM    6  C5  UNL     1      -7.064  25.655  46.427  1.00  0.00     0.084 C 
HETATM    7  C4  UNL     1      -6.368  26.379  45.287  1.00  0.00     0.278 C 
HETATM    8  N1  UNL     1      -6.036  27.714  45.673  1.00  0.00     0.093 N 
HETATM    9  C15 UNL     1      -5.888  27.902  47.093  1.00  0.00     0.278 C 
HETATM   10  C14 UNL     1      -7.295  27.842  47.712  1.00  0.00     0.084 C 
BRANCH   8  11
HETATM   11  C2  UNL     1      -4.986  28.295  44.899  1.00  0.00     0.215 C 
HETATM   12  C1  UNL     1      -4.131  29.119  45.841  1.00  0.00     0.042 C 
HETATM   13  C3  UNL     1      -4.137  27.288  44.191  1.00  0.00     0.042 C 
ENDBRANCH   8  11
ENDBRANCH   3   5
ENDBRANCH   1   3
BRANCH   1  14
HETATM   14  C7  UNL     1     -10.267  24.583  46.262  1.00  0.00     0.168 A 
HETATM   15  C8  UNL     1     -10.902  23.792  47.237  1.00  0.00     0.081 A 
HETATM   16  C9  UNL     1     -11.231  22.571  46.684  1.00  0.00     0.039 A 
HETATM   17  N4  UNL     1     -10.805  22.636  45.414  1.00  0.00    -0.276 N 
HETATM   18  N5  UNL     1     -10.238  23.823  45.171  1.00  0.00    -0.145 N 
ATOM     19  H4  UNL     1     -10.901  21.886  44.730  1.00  0.00     0.189 HD
BRANCH  16  20
HETATM   20  C10 UNL     1     -11.920  21.438  47.395  1.00  0.00    -0.007 C 
HETATM   21  C11 UNL     1     -13.319  21.809  47.779  1.00  0.00     0.021 C 
HETATM   22  C12 UNL     1     -11.778  20.194  46.598  1.00  0.00     0.021 C 
HETATM   23  C13 UNL     1     -11.144  21.281  48.710  1.00  0.00     0.021 C 
ENDBRANCH  16  20
BRANCH  18  24
HETATM   24  O1  UNL     1      -9.703  24.193  43.954  1.00  0.00    -0.266 OA
ATOM     25  H1  UNL     1      -9.604  23.622  43.200  1.00  0.00     0.247 HD
ENDBRANCH  18  24
ENDBRANCH   1  14
TORSDOF 6
ENDMDL
MODEL 5
REMARK VINA RESULT: -8.251871256      2.220      8.195
REMARK  6 active torsions:
REMARK  status: ('A' for Active; 'I' for Inactive)
REMARK    1  A    between atoms: C2_2  and  N1_4 
REMARK    2  A    between atoms: C6_7  and  N2_8 
REMARK    3  A    between atoms: N2_8  and  N3_10 
REMARK    4  A    between atoms: N3_10  and  C7_12 
REMARK    5  A    between atoms: C9_14  and  C10_15 
REMARK    6  A    between atoms: N5_21  and  O1_22 
ROOT
HETATM    1  N3  UNL     1      -7.849  29.899  50.264  1.00  0.00    -0.282 N 
ATOM      2  H3  UNL     1      -7.261  30.619  50.682  1.00  0.00     0.188 HD
ENDROOT
BRANCH   1   3
HETATM    3  N2  UNL     1      -7.806  29.913  48.916  1.00  0.00    -0.307 N 
ATOM      4  H2  UNL     1      -8.483  30.432  48.357  1.00  0.00     0.186 HD
BRANCH   3   5
HETATM    5  C6  UNL     1      -6.831  29.211  48.365  1.00  0.00     0.007 C 
HETATM    6  C5  UNL     1      -7.039  27.785  47.996  1.00  0.00     0.084 C 
HETATM    7  C4  UNL     1      -6.607  27.539  46.560  1.00  0.00     0.278 C 
HETATM    8  N1  UNL     1      -5.498  28.374  46.223  1.00  0.00     0.093 N 
HETATM    9  C15 UNL     1      -4.705  28.792  47.350  1.00  0.00     0.278 C 
HETATM   10  C14 UNL     1      -5.531  29.832  48.128  1.00  0.00     0.084 C 
BRANCH   8  11
HETATM   11  C2  UNL     1      -4.728  27.895  45.119  1.00  0.00     0.215 C 
HETATM   12  C1  UNL     1      -5.699  27.333  44.100  1.00  0.00     0.042 C 
HETATM   13  C3  UNL     1      -3.876  28.946  44.484  1.00  0.00     0.042 C 
ENDBRANCH   8  11
ENDBRANCH   3   5
ENDBRANCH   1   3
BRANCH   1  14
HETATM   14  C7  UNL     1      -8.447  29.203  51.122  1.00  0.00     0.168 A 
HETATM   15  C8  UNL     1      -8.060  29.158  52.474  1.00  0.00     0.081 A 
HETATM   16  C9  UNL     1      -8.906  28.309  53.158  1.00  0.00     0.039 A 
HETATM   17  N4  UNL     1      -9.773  27.863  52.238  1.00  0.00    -0.276 N 
HETATM   18  N5  UNL     1      -9.498  28.392  51.041  1.00  0.00    -0.145 N 
ATOM     19  H4  UNL     1     -10.536  27.212  52.424  1.00  0.00     0.189 HD
BRANCH  16  20
HETATM   20  C10 UNL     1      -8.831  27.983  54.625  1.00  0.00    -0.007 C 
HETATM   21  C11 UNL     1      -9.254  26.570  54.889  1.00  0.00     0.021 C 
HETATM   22  C12 UNL     1      -7.498  28.367  55.151  1.00  0.00     0.021 C 
HETATM   23  C13 UNL     1      -9.901  28.875  55.272  1.00  0.00     0.021 C 
ENDBRANCH  16  20
BRANCH  18  24
HETATM   24  O1  UNL     1     -10.214  28.126  49.891  1.00  0.00    -0.266 OA
ATOM     25  H1  UNL     1     -11.162  28.108  49.825  1.00  0.00     0.247 HD
ENDBRANCH  18  24
ENDBRANCH   1  14
TORSDOF 6
ENDMDL
