MODEL 1
REMARK VINA RESULT: -5.233273598      0.000      0.000
REMARK  4 active torsions:
REMARK  status: ('A' for Active; 'I' for Inactive)
REMARK    1  A    between atoms: C8_8  and  C9_9 
REMARK    2  A    between atoms: C9_9  and  O1_10 
REMARK    3  A    between atoms: C9_9  and  C10_12 
REMARK    4  A    between atoms: C10_12  and  O2_13 
ROOT
HETATM    1  C1  UNL     1      24.370  31.973  -6.601  1.00  0.00     0.010 C 
HETATM    2  C2  UNL     1      25.124  33.316  -6.576  1.00  0.00    -0.014 C 
HETATM    3  C3  UNL     1      26.143  33.215  -5.502  1.00  0.00     0.005 C 
HETATM    4  C4  UNL     1      25.501  33.639  -4.202  1.00  0.00     0.010 C 
HETATM    5  C5  UNL     1      25.216  35.118  -4.359  1.00  0.00    -0.041 C 
HETATM    6  C6  UNL     1      26.592  35.739  -4.692  1.00  0.00     0.015 C 
HETATM    7  C7  UNL     1      24.859  35.629  -2.992  1.00  0.00     0.015 C 
HETATM    8  C8  UNL     1      24.233  35.421  -5.435  1.00  0.00     0.028 C 
HETATM    9  C11 UNL     1      24.217  34.471  -6.581  1.00  0.00    -0.008 C 
HETATM   10  C12 UNL     1      24.346  35.232  -7.908  1.00  0.00     0.011 C 
ENDROOT
BRANCH   8  11
HETATM   11  C9  UNL     1      22.830  35.722  -4.962  1.00  0.00     0.147 C 
BRANCH  11  12
HETATM   12  O1  UNL     1      22.612  37.113  -5.167  1.00  0.00    -0.393 OA
ATOM     13  H1  UNL     1      21.674  37.236  -5.260  1.00  0.00     0.210 HD
ENDBRANCH  11  12
BRANCH  11  14
HETATM   14  C10 UNL     1      21.737  35.056  -5.743  1.00  0.00     0.196 C 
BRANCH  14  15
HETATM   15  O2  UNL     1      21.001  36.055  -6.379  1.00  0.00    -0.398 OA
ATOM     16  H2  UNL     1      20.081  35.835  -6.294  1.00  0.00     0.209 HD
ENDBRANCH  14  15
ENDBRANCH  11  14
ENDBRANCH   8  11
TORSDOF 4
ENDMDL
MODEL 2
REMARK VINA RESULT: -5.215206452      1.895      3.760
REMARK  4 active torsions:
REMARK  status: ('A' for Active; 'I' for Inactive)
REMARK    1  A    between atoms: C8_8  and  C9_9 
REMARK    2  A    between atoms: C9_9  and  O1_10 
REMARK    3  A    between atoms: C9_9  and  C10_12 
REMARK    4  A    between atoms: C10_12  and  O2_13 
ROOT
HETATM    1  C1  UNL     1      25.505  34.168  -8.745  1.00  0.00     0.010 C 
HETATM    2  C2  UNL     1      24.371  33.823  -7.762  1.00  0.00    -0.014 C 
HETATM    3  C3  UNL     1      23.163  34.547  -8.230  1.00  0.00     0.005 C 
HETATM    4  C4  UNL     1      23.173  35.926  -7.616  1.00  0.00     0.010 C 
HETATM    5  C5  UNL     1      22.969  35.706  -6.131  1.00  0.00    -0.041 C 
HETATM    6  C6  UNL     1      21.646  34.912  -6.041  1.00  0.00     0.015 C 
HETATM    7  C7  UNL     1      22.676  37.055  -5.537  1.00  0.00     0.015 C 
HETATM    8  C8  UNL     1      24.077  34.947  -5.487  1.00  0.00     0.028 C 
HETATM    9  C11 UNL     1      24.781  33.967  -6.359  1.00  0.00    -0.008 C 
HETATM   10  C12 UNL     1      24.827  32.589  -5.683  1.00  0.00     0.011 C 
ENDROOT
BRANCH   8  11
HETATM   11  C9  UNL     1      25.065  35.785  -4.708  1.00  0.00     0.147 C 
BRANCH  11  12
HETATM   12  O1  UNL     1      24.780  35.584  -3.328  1.00  0.00    -0.393 OA
ATOM     13  H1  UNL     1      25.584  35.756  -2.852  1.00  0.00     0.210 HD
ENDBRANCH  11  12
BRANCH  11  14
HETATM   14  C10 UNL     1      26.500  35.377  -4.854  1.00  0.00     0.196 C 
BRANCH  14  15
HETATM   15  O2  UNL     1      27.288  36.416  -4.360  1.00  0.00    -0.398 OA
ATOM     16  H2  UNL     1      27.435  36.253  -3.436  1.00  0.00     0.209 HD
ENDBRANCH  14  15
ENDBRANCH  11  14
ENDBRANCH   8  11
TORSDOF 4
ENDMDL
MODEL 3
REMARK VINA RESULT: -4.935763637      1.548      3.403
REMARK  4 active torsions:
REMARK  status: ('A' for Active; 'I' for Inactive)
REMARK    1  A    between atoms: C8_8  and  C9_9 
REMARK    2  A    between atoms: C9_9  and  O1_10 
REMARK    3  A    between atoms: C9_9  and  C10_12 
REMARK    4  A    between atoms: C10_12  and  O2_13 
ROOT
HETATM    1  C1  UNL     1      24.995  36.731  -3.791  1.00  0.00     0.010 C 
HETATM    2  C2  UNL     1      24.309  35.416  -4.205  1.00  0.00    -0.014 C 
HETATM    3  C3  UNL     1      25.389  34.436  -4.478  1.00  0.00     0.005 C 
HETATM    4  C4  UNL     1      25.805  34.584  -5.923  1.00  0.00     0.010 C 
HETATM    5  C5  UNL     1      24.614  34.117  -6.733  1.00  0.00    -0.041 C 
HETATM    6  C6  UNL     1      24.347  32.680  -6.228  1.00  0.00     0.015 C 
HETATM    7  C7  UNL     1      25.095  33.968  -8.149  1.00  0.00     0.015 C 
HETATM    8  C8  UNL     1      23.404  34.966  -6.552  1.00  0.00     0.028 C 
HETATM    9  C11 UNL     1      23.268  35.620  -5.221  1.00  0.00    -0.008 C 
HETATM   10  C12 UNL     1      21.885  35.326  -4.621  1.00  0.00     0.011 C 
ENDROOT
BRANCH   8  11
HETATM   11  C9  UNL     1      23.132  35.948  -7.667  1.00  0.00     0.147 C 
BRANCH  11  12
HETATM   12  O1  UNL     1      21.958  35.500  -8.337  1.00  0.00    -0.393 OA
ATOM     13  H1  UNL     1      22.239  35.107  -9.154  1.00  0.00     0.210 HD
ENDBRANCH  11  12
BRANCH  11  14
HETATM   14  C10 UNL     1      22.797  37.340  -7.223  1.00  0.00     0.196 C 
BRANCH  14  15
HETATM   15  O2  UNL     1      22.055  37.943  -8.240  1.00  0.00    -0.398 OA
ATOM     16  H2  UNL     1      22.600  38.612  -8.636  1.00  0.00     0.209 HD
ENDBRANCH  14  15
ENDBRANCH  11  14
ENDBRANCH   8  11
TORSDOF 4
ENDMDL
MODEL 4
REMARK VINA RESULT: -4.384520729      4.831      7.256
REMARK  4 active torsions:
REMARK  status: ('A' for Active; 'I' for Inactive)
REMARK    1  A    between atoms: C8_8  and  C9_9 
REMARK    2  A    between atoms: C9_9  and  O1_10 
REMARK    3  A    between atoms: C9_9  and  C10_12 
REMARK    4  A    between atoms: C10_12  and  O2_13 
ROOT
HETATM    1  C1  UNL     1      19.314  39.170  -3.331  1.00  0.00     0.010 C 
HETATM    2  C2  UNL     1      19.769  40.185  -4.396  1.00  0.00    -0.014 C 
HETATM    3  C3  UNL     1      18.559  40.577  -5.159  1.00  0.00     0.005 C 
HETATM    4  C4  UNL     1      18.375  39.592  -6.289  1.00  0.00     0.010 C 
HETATM    5  C5  UNL     1      19.543  39.828  -7.223  1.00  0.00    -0.041 C 
HETATM    6  C6  UNL     1      19.446  41.329  -7.584  1.00  0.00     0.015 C 
HETATM    7  C7  UNL     1      19.232  39.084  -8.490  1.00  0.00     0.015 C 
HETATM    8  C8  UNL     1      20.865  39.525  -6.607  1.00  0.00     0.028 C 
HETATM    9  C11 UNL     1      20.954  39.731  -5.135  1.00  0.00    -0.008 C 
HETATM   10  C12 UNL     1      22.158  40.620  -4.793  1.00  0.00     0.011 C 
ENDROOT
BRANCH   8  11
HETATM   11  C9  UNL     1      21.474  38.201  -7.006  1.00  0.00     0.147 C 
BRANCH  11  12
HETATM   12  O1  UNL     1      22.725  38.488  -7.621  1.00  0.00    -0.393 OA
ATOM     13  H1  UNL     1      22.546  38.687  -8.532  1.00  0.00     0.210 HD
ENDBRANCH  11  12
BRANCH  11  14
HETATM   14  C10 UNL     1      21.821  37.290  -5.866  1.00  0.00     0.196 C 
BRANCH  14  15
HETATM   15  O2  UNL     1      20.892  36.249  -5.858  1.00  0.00    -0.398 OA
ATOM     16  H2  UNL     1      20.215  36.471  -5.230  1.00  0.00     0.209 HD
ENDBRANCH  14  15
ENDBRANCH  11  14
ENDBRANCH   8  11
TORSDOF 4
ENDMDL
MODEL 5
REMARK VINA RESULT: -4.245342115      2.887      5.078
REMARK  4 active torsions:
REMARK  status: ('A' for Active; 'I' for Inactive)
REMARK    1  A    between atoms: C8_8  and  C9_9 
REMARK    2  A    between atoms: C9_9  and  O1_10 
REMARK    3  A    between atoms: C9_9  and  C10_12 
REMARK    4  A    between atoms: C10_12  and  O2_13 
ROOT
HETATM    1  C1  UNL     1      24.873  34.642  -7.589  1.00  0.00     0.010 C 
HETATM    2  C2  UNL     1      23.441  34.241  -7.988  1.00  0.00    -0.014 C 
HETATM    3  C3  UNL     1      23.515  33.702  -9.368  1.00  0.00     0.005 C 
HETATM    4  C4  UNL     1      23.377  34.855 -10.332  1.00  0.00     0.010 C 
HETATM    5  C5  UNL     1      21.957  35.353 -10.163  1.00  0.00    -0.041 C 
HETATM    6  C6  UNL     1      21.081  34.109 -10.435  1.00  0.00     0.015 C 
HETATM    7  C7  UNL     1      21.697  36.293 -11.306  1.00  0.00     0.015 C 
HETATM    8  C8  UNL     1      21.679  35.900  -8.806  1.00  0.00     0.028 C 
HETATM    9  C11 UNL     1      22.459  35.293  -7.692  1.00  0.00    -0.008 C 
HETATM   10  C12 UNL     1      21.518  34.831  -6.571  1.00  0.00     0.011 C 
ENDROOT
BRANCH   8  11
HETATM   11  C9  UNL     1      21.677  37.408  -8.706  1.00  0.00     0.147 C 
BRANCH  11  12
HETATM   12  O1  UNL     1      20.337  37.804  -8.437  1.00  0.00    -0.393 OA
ATOM     13  H1  UNL     1      20.241  37.834  -7.492  1.00  0.00     0.210 HD
ENDBRANCH  11  12
BRANCH  11  14
HETATM   14  C10 UNL     1      22.467  37.971  -7.562  1.00  0.00     0.196 C 
BRANCH  14  15
HETATM   15  O2  UNL     1      21.900  39.199  -7.221  1.00  0.00    -0.398 OA
ATOM     16  H2  UNL     1      22.058  39.342  -6.295  1.00  0.00     0.209 HD
ENDBRANCH  14  15
ENDBRANCH  11  14
ENDBRANCH   8  11
TORSDOF 4
ENDMDL
