MODEL 1
REMARK VINA RESULT: -5.969301080      0.000      0.000
REMARK  4 active torsions:
REMARK  status: ('A' for Active; 'I' for Inactive)
REMARK    1  A    between atoms: C2_2  and  C3_3 
REMARK    2  A    between atoms: C2_2  and  N1_14 
REMARK    3  A    between atoms: C3_3  and  C4_4 
REMARK    4  A    between atoms: N1_14  and  N2_15 
ROOT
HETATM    1  C4  UNL     1      23.516  35.154  -5.958  1.00  0.00    -0.038 C 
HETATM    2  C5  UNL     1      23.786  35.476  -7.451  1.00  0.00     0.014 C 
HETATM    3  C6  UNL     1      22.720  36.354  -8.001  1.00  0.00    -0.013 C 
HETATM    4  C7  UNL     1      22.634  37.682  -7.296  1.00  0.00     0.009 C 
HETATM    5  C8  UNL     1      22.419  37.411  -5.824  1.00  0.00    -0.013 C 
HETATM    6  C9  UNL     1      21.122  36.690  -5.581  1.00  0.00     0.009 C 
HETATM    7  C10 UNL     1      21.116  35.458  -6.433  1.00  0.00    -0.013 C 
HETATM    8  C11 UNL     1      21.342  35.701  -7.883  1.00  0.00     0.009 C 
HETATM    9  C12 UNL     1      22.195  34.504  -5.913  1.00  0.00     0.014 C 
HETATM   10  C13 UNL     1      23.526  36.530  -5.287  1.00  0.00     0.014 C 
ENDROOT
BRANCH   1  11
HETATM   11  C3  UNL     1      24.711  34.424  -5.520  1.00  0.00     0.032 C 
BRANCH  11  12
HETATM   12  C2  UNL     1      25.522  34.861  -4.389  1.00  0.00     0.095 C 
HETATM   13  C1  UNL     1      25.530  33.871  -3.253  1.00  0.00     0.029 C 
BRANCH  12  14
HETATM   14  N1  UNL     1      26.917  35.080  -4.825  1.00  0.00    -0.144 NA
BRANCH  14  15
HETATM   15  N2  UNL     1      27.367  36.335  -4.482  1.00  0.00    -0.348 N 
ATOM     16  H22 UNL     1      26.892  37.195  -4.756  1.00  0.00     0.172 HD
ATOM     17  H21 UNL     1      28.223  36.291  -3.928  1.00  0.00     0.172 HD
ENDBRANCH  14  15
ENDBRANCH  12  14
ENDBRANCH  11  12
ENDBRANCH   1  11
TORSDOF 4
ENDMDL
MODEL 2
REMARK VINA RESULT: -5.920446456      0.120      1.894
REMARK  4 active torsions:
REMARK  status: ('A' for Active; 'I' for Inactive)
REMARK    1  A    between atoms: C2_2  and  C3_3 
REMARK    2  A    between atoms: C2_2  and  N1_14 
REMARK    3  A    between atoms: C3_3  and  C4_4 
REMARK    4  A    between atoms: N1_14  and  N2_15 
ROOT
HETATM    1  C4  UNL     1      23.663  35.125  -6.128  1.00  0.00    -0.038 C 
HETATM    2  C5  UNL     1      23.626  36.440  -5.306  1.00  0.00     0.014 C 
HETATM    3  C6  UNL     1      22.507  37.309  -5.754  1.00  0.00    -0.013 C 
HETATM    4  C7  UNL     1      21.158  36.667  -5.574  1.00  0.00     0.009 C 
HETATM    5  C8  UNL     1      21.167  35.353  -6.323  1.00  0.00    -0.013 C 
HETATM    6  C9  UNL     1      21.371  35.563  -7.798  1.00  0.00     0.009 C 
HETATM    7  C10 UNL     1      22.617  36.374  -7.978  1.00  0.00    -0.013 C 
HETATM    8  C11 UNL     1      22.634  37.664  -7.237  1.00  0.00     0.009 C 
HETATM    9  C12 UNL     1      23.815  35.528  -7.536  1.00  0.00     0.014 C 
HETATM   10  C13 UNL     1      22.305  34.482  -5.835  1.00  0.00     0.014 C 
ENDROOT
BRANCH   1  11
HETATM   11  C3  UNL     1      24.701  34.316  -5.478  1.00  0.00     0.032 C 
BRANCH  11  12
HETATM   12  C2  UNL     1      25.504  34.821  -4.371  1.00  0.00     0.095 C 
HETATM   13  C1  UNL     1      25.526  33.889  -3.187  1.00  0.00     0.029 C 
BRANCH  12  14
HETATM   14  N1  UNL     1      26.896  35.038  -4.818  1.00  0.00    -0.144 NA
BRANCH  14  15
HETATM   15  N2  UNL     1      27.346  36.298  -4.491  1.00  0.00    -0.348 N 
ATOM     16  H22 UNL     1      26.752  37.013  -4.073  1.00  0.00     0.172 HD
ATOM     17  H21 UNL     1      28.334  36.417  -4.717  1.00  0.00     0.172 HD
ENDBRANCH  14  15
ENDBRANCH  12  14
ENDBRANCH  11  12
ENDBRANCH   1  11
TORSDOF 4
ENDMDL
MODEL 3
REMARK VINA RESULT: -5.817738225      0.157      1.912
REMARK  4 active torsions:
REMARK  status: ('A' for Active; 'I' for Inactive)
REMARK    1  A    between atoms: C2_2  and  C3_3 
REMARK    2  A    between atoms: C2_2  and  N1_14 
REMARK    3  A    between atoms: C3_3  and  C4_4 
REMARK    4  A    between atoms: N1_14  and  N2_15 
ROOT
HETATM    1  C4  UNL     1      23.622  35.440  -5.960  1.00  0.00    -0.038 C 
HETATM    2  C5  UNL     1      22.301  34.645  -5.790  1.00  0.00     0.014 C 
HETATM    3  C6  UNL     1      21.155  35.402  -6.358  1.00  0.00    -0.013 C 
HETATM    4  C7  UNL     1      21.298  35.664  -7.833  1.00  0.00     0.009 C 
HETATM    5  C8  UNL     1      22.603  36.397  -8.049  1.00  0.00    -0.013 C 
HETATM    6  C9  UNL     1      22.604  37.732  -7.355  1.00  0.00     0.009 C 
HETATM    7  C10 UNL     1      22.268  37.499  -5.914  1.00  0.00    -0.013 C 
HETATM    8  C11 UNL     1      20.996  36.765  -5.681  1.00  0.00     0.009 C 
HETATM    9  C12 UNL     1      23.418  36.723  -5.266  1.00  0.00     0.014 C 
HETATM   10  C13 UNL     1      23.754  35.597  -7.477  1.00  0.00     0.014 C 
ENDROOT
BRANCH   1  11
HETATM   11  C3  UNL     1      24.667  34.515  -5.504  1.00  0.00     0.032 C 
BRANCH  11  12
HETATM   12  C2  UNL     1      25.531  34.813  -4.368  1.00  0.00     0.095 C 
HETATM   13  C1  UNL     1      25.559  33.708  -3.344  1.00  0.00     0.029 C 
BRANCH  12  14
HETATM   14  N1  UNL     1      26.914  35.049  -4.837  1.00  0.00    -0.144 NA
BRANCH  14  15
HETATM   15  N2  UNL     1      27.370  36.296  -4.472  1.00  0.00    -0.348 N 
ATOM     16  H22 UNL     1      28.128  36.442  -3.807  1.00  0.00     0.172 HD
ATOM     17  H21 UNL     1      26.857  37.039  -4.947  1.00  0.00     0.172 HD
ENDBRANCH  14  15
ENDBRANCH  12  14
ENDBRANCH  11  12
ENDBRANCH   1  11
TORSDOF 4
ENDMDL
MODEL 4
REMARK VINA RESULT: -5.703339914      2.502      4.842
REMARK  4 active torsions:
REMARK  status: ('A' for Active; 'I' for Inactive)
REMARK    1  A    between atoms: C2_2  and  C3_3 
REMARK    2  A    between atoms: C2_2  and  N1_14 
REMARK    3  A    between atoms: C3_3  and  C4_4 
REMARK    4  A    between atoms: N1_14  and  N2_15 
ROOT
HETATM    1  C4  UNL     1      23.991  34.934  -5.535  1.00  0.00    -0.038 C 
HETATM    2  C5  UNL     1      23.888  35.321  -4.037  1.00  0.00     0.014 C 
HETATM    3  C6  UNL     1      25.128  34.945  -3.310  1.00  0.00    -0.013 C 
HETATM    4  C7  UNL     1      26.353  35.643  -3.838  1.00  0.00     0.009 C 
HETATM    5  C8  UNL     1      26.464  35.331  -5.313  1.00  0.00    -0.013 C 
HETATM    6  C9  UNL     1      26.651  33.857  -5.550  1.00  0.00     0.009 C 
HETATM    7  C10 UNL     1      25.536  33.136  -4.858  1.00  0.00    -0.013 C 
HETATM    8  C11 UNL     1      25.400  33.443  -3.408  1.00  0.00     0.009 C 
HETATM    9  C12 UNL     1      24.222  33.480  -5.566  1.00  0.00     0.014 C 
HETATM   10  C13 UNL     1      25.196  35.740  -6.031  1.00  0.00     0.014 C 
ENDROOT
BRANCH   1  11
HETATM   11  C3  UNL     1      22.782  35.500  -6.144  1.00  0.00     0.032 C 
BRANCH  11  12
HETATM   12  C2  UNL     1      22.756  36.834  -6.733  1.00  0.00     0.095 C 
HETATM   13  C1  UNL     1      22.171  36.853  -8.122  1.00  0.00     0.029 C 
BRANCH  12  14
HETATM   14  N1  UNL     1      21.962  37.745  -5.881  1.00  0.00    -0.144 NA
BRANCH  14  15
HETATM   15  N2  UNL     1      20.899  37.097  -5.295  1.00  0.00    -0.348 N 
ATOM     16  H22 UNL     1      20.003  36.955  -5.761  1.00  0.00     0.172 HD
ATOM     17  H21 UNL     1      21.121  36.785  -4.349  1.00  0.00     0.172 HD
ENDBRANCH  14  15
ENDBRANCH  12  14
ENDBRANCH  11  12
ENDBRANCH   1  11
TORSDOF 4
ENDMDL
MODEL 5
REMARK VINA RESULT: -5.657421372      2.533      4.879
REMARK  4 active torsions:
REMARK  status: ('A' for Active; 'I' for Inactive)
REMARK    1  A    between atoms: C2_2  and  C3_3 
REMARK    2  A    between atoms: C2_2  and  N1_14 
REMARK    3  A    between atoms: C3_3  and  C4_4 
REMARK    4  A    between atoms: N1_14  and  N2_15 
ROOT
HETATM    1  C4  UNL     1      24.115  35.239  -5.500  1.00  0.00    -0.038 C 
HETATM    2  C5  UNL     1      24.128  33.696  -5.655  1.00  0.00     0.014 C 
HETATM    3  C6  UNL     1      25.311  33.109  -4.974  1.00  0.00    -0.013 C 
HETATM    4  C7  UNL     1      25.331  33.380  -3.494  1.00  0.00     0.009 C 
HETATM    5  C8  UNL     1      25.269  34.878  -3.296  1.00  0.00    -0.013 C 
HETATM    6  C9  UNL     1      26.471  35.559  -3.893  1.00  0.00     0.009 C 
HETATM    7  C10 UNL     1      26.572  35.139  -5.326  1.00  0.00    -0.013 C 
HETATM    8  C11 UNL     1      26.617  33.668  -5.543  1.00  0.00     0.009 C 
HETATM    9  C12 UNL     1      25.377  35.719  -6.088  1.00  0.00     0.014 C 
HETATM   10  C13 UNL     1      24.047  35.447  -3.984  1.00  0.00     0.014 C 
ENDROOT
BRANCH   1  11
HETATM   11  C3  UNL     1      22.831  35.654  -6.075  1.00  0.00     0.032 C 
BRANCH  11  12
HETATM   12  C2  UNL     1      22.658  36.930  -6.761  1.00  0.00     0.095 C 
HETATM   13  C1  UNL     1      22.043  36.785  -8.129  1.00  0.00     0.029 C 
BRANCH  12  14
HETATM   14  N1  UNL     1      21.797  37.822  -5.955  1.00  0.00    -0.144 NA
BRANCH  14  15
HETATM   15  N2  UNL     1      20.864  37.113  -5.233  1.00  0.00    -0.348 N 
ATOM     16  H22 UNL     1      20.956  36.920  -4.236  1.00  0.00     0.172 HD
ATOM     17  H21 UNL     1      20.083  36.812  -5.816  1.00  0.00     0.172 HD
ENDBRANCH  14  15
ENDBRANCH  12  14
ENDBRANCH  11  12
ENDBRANCH   1  11
TORSDOF 4
ENDMDL
