MODEL 1
REMARK VINA RESULT: -6.534195098      0.000      0.000
REMARK  4 active torsions:
REMARK  status: ('A' for Active; 'I' for Inactive)
REMARK    1  A    between atoms: C3_3  and  C4_4 
REMARK    2  A    between atoms: C4_4  and  C5_5 
REMARK    3  A    between atoms: C6_6  and  O1_7 
REMARK    4  A    between atoms: C12_14  and  O2_16 
ROOT
HETATM    1  C5  UNL     1      23.373  35.243  -6.176  1.00  0.00     0.024 C 
HETATM    2  C6  UNL     1      21.992  34.929  -6.704  1.00  0.00     0.134 C 
HETATM    3  C7  UNL     1      22.495  35.480  -8.043  1.00  0.00     0.017 C 
HETATM    4  C8  UNL     1      23.273  34.509  -8.862  1.00  0.00     0.021 C 
HETATM    5  C9  UNL     1      23.447  36.331  -7.188  1.00  0.00     0.006 C 
HETATM    6  C10 UNL     1      22.679  37.577  -6.963  1.00  0.00     0.009 C 
HETATM    7  C11 UNL     1      21.653  37.729  -8.043  1.00  0.00     0.038 C 
HETATM    8  C12 UNL     1      21.575  36.405  -8.743  1.00  0.00     0.064 C 
HETATM    9  C13 UNL     1      20.141  35.931  -8.769  1.00  0.00     0.047 C 
ENDROOT
BRANCH   1  10
HETATM   10  C4  UNL     1      23.479  35.577  -4.732  1.00  0.00     0.034 C 
BRANCH  10  11
HETATM   11  C3  UNL     1      24.900  35.909  -4.433  1.00  0.00    -0.031 C 
HETATM   12  C2  UNL     1      25.745  35.125  -3.815  1.00  0.00    -0.035 C 
HETATM   13  C1  UNL     1      25.458  33.783  -3.303  1.00  0.00     0.036 C 
ENDBRANCH  10  11
ENDBRANCH   1  10
BRANCH   2  14
HETATM   14  O1  UNL     1      20.947  35.613  -6.145  1.00  0.00    -0.394 OA
ATOM     15  H1  UNL     1      20.102  35.525  -6.570  1.00  0.00     0.210 HD
ENDBRANCH   2  14
BRANCH   8  16
HETATM   16  O2  UNL     1      22.011  36.549 -10.060  1.00  0.00    -0.389 OA
ATOM     17  H2  UNL     1      21.729  37.398 -10.378  1.00  0.00     0.210 HD
ENDBRANCH   8  16
TORSDOF 4
ENDMDL
MODEL 2
REMARK VINA RESULT: -6.190103932      3.480      5.313
REMARK  4 active torsions:
REMARK  status: ('A' for Active; 'I' for Inactive)
REMARK    1  A    between atoms: C3_3  and  C4_4 
REMARK    2  A    between atoms: C4_4  and  C5_5 
REMARK    3  A    between atoms: C6_6  and  O1_7 
REMARK    4  A    between atoms: C12_14  and  O2_16 
ROOT
HETATM    1  C5  UNL     1      21.126  38.921  -7.030  1.00  0.00     0.024 C 
HETATM    2  C6  UNL     1      20.289  38.353  -5.907  1.00  0.00     0.134 C 
HETATM    3  C7  UNL     1      19.808  39.791  -5.681  1.00  0.00     0.017 C 
HETATM    4  C8  UNL     1      18.705  40.227  -6.582  1.00  0.00     0.021 C 
HETATM    5  C9  UNL     1      21.166  40.200  -6.271  1.00  0.00     0.006 C 
HETATM    6  C10 UNL     1      22.038  40.303  -5.078  1.00  0.00     0.009 C 
HETATM    7  C11 UNL     1      21.192  40.533  -3.864  1.00  0.00     0.038 C 
HETATM    8  C12 UNL     1      19.779  40.242  -4.271  1.00  0.00     0.064 C 
HETATM    9  C13 UNL     1      19.178  39.233  -3.322  1.00  0.00     0.047 C 
ENDROOT
BRANCH   1  10
HETATM   10  C4  UNL     1      22.395  38.216  -7.344  1.00  0.00     0.034 C 
BRANCH  10  11
HETATM   11  C3  UNL     1      22.081  37.061  -8.230  1.00  0.00    -0.031 C 
HETATM   12  C2  UNL     1      22.367  35.812  -7.972  1.00  0.00    -0.035 C 
HETATM   13  C1  UNL     1      23.046  35.313  -6.773  1.00  0.00     0.036 C 
ENDBRANCH  10  11
ENDBRANCH   1  10
BRANCH   2  14
HETATM   14  O1  UNL     1      20.962  37.788  -4.859  1.00  0.00    -0.394 OA
ATOM     15  H1  UNL     1      21.619  37.137  -5.072  1.00  0.00     0.210 HD
ENDBRANCH   2  14
BRANCH   8  16
HETATM   16  O2  UNL     1      19.024  41.413  -4.198  1.00  0.00    -0.389 OA
ATOM     17  H2  UNL     1      18.599  41.550  -5.036  1.00  0.00     0.210 HD
ENDBRANCH   8  16
TORSDOF 4
ENDMDL
MODEL 3
REMARK VINA RESULT: -6.065782778      1.429      2.195
REMARK  4 active torsions:
REMARK  status: ('A' for Active; 'I' for Inactive)
REMARK    1  A    between atoms: C3_3  and  C4_4 
REMARK    2  A    between atoms: C4_4  and  C5_5 
REMARK    3  A    between atoms: C6_6  and  O1_7 
REMARK    4  A    between atoms: C12_14  and  O2_16 
ROOT
HETATM    1  C5  UNL     1      23.445  36.472  -5.470  1.00  0.00     0.024 C 
HETATM    2  C6  UNL     1      23.697  36.105  -6.914  1.00  0.00     0.134 C 
HETATM    3  C7  UNL     1      22.384  36.836  -7.217  1.00  0.00     0.017 C 
HETATM    4  C8  UNL     1      22.509  38.315  -7.339  1.00  0.00     0.021 C 
HETATM    5  C9  UNL     1      21.991  36.455  -5.781  1.00  0.00     0.006 C 
HETATM    6  C10 UNL     1      21.306  35.152  -5.952  1.00  0.00     0.009 C 
HETATM    7  C11 UNL     1      20.797  35.039  -7.355  1.00  0.00     0.038 C 
HETATM    8  C12 UNL     1      21.458  36.135  -8.136  1.00  0.00     0.064 C 
HETATM    9  C13 UNL     1      22.135  35.550  -9.352  1.00  0.00     0.047 C 
ENDROOT
BRANCH   1  10
HETATM   10  C4  UNL     1      23.985  35.549  -4.438  1.00  0.00     0.034 C 
BRANCH  10  11
HETATM   11  C3  UNL     1      25.470  35.552  -4.539  1.00  0.00    -0.031 C 
HETATM   12  C2  UNL     1      26.215  34.499  -4.753  1.00  0.00    -0.035 C 
HETATM   13  C1  UNL     1      25.735  33.127  -4.933  1.00  0.00     0.036 C 
ENDBRANCH  10  11
ENDBRANCH   1  10
BRANCH   2  14
HETATM   14  O1  UNL     1      23.710  34.772  -7.220  1.00  0.00    -0.394 OA
ATOM     15  H1  UNL     1      23.919  34.539  -8.116  1.00  0.00     0.210 HD
ENDBRANCH   2  14
BRANCH   8  16
HETATM   16  O2  UNL     1      20.493  37.045  -8.569  1.00  0.00    -0.389 OA
ATOM     17  H2  UNL     1      19.809  37.092  -7.912  1.00  0.00     0.210 HD
ENDBRANCH   8  16
TORSDOF 4
ENDMDL
MODEL 4
REMARK VINA RESULT: -5.891687758      3.647      5.524
REMARK  4 active torsions:
REMARK  status: ('A' for Active; 'I' for Inactive)
REMARK    1  A    between atoms: C3_3  and  C4_4 
REMARK    2  A    between atoms: C4_4  and  C5_5 
REMARK    3  A    between atoms: C6_6  and  O1_7 
REMARK    4  A    between atoms: C12_14  and  O2_16 
ROOT
HETATM    1  C5  UNL     1      21.614  39.006  -6.494  1.00  0.00     0.024 C 
HETATM    2  C6  UNL     1      20.602  40.114  -6.316  1.00  0.00     0.134 C 
HETATM    3  C7  UNL     1      20.916  40.015  -4.818  1.00  0.00     0.017 C 
HETATM    4  C8  UNL     1      22.136  40.755  -4.388  1.00  0.00     0.021 C 
HETATM    5  C9  UNL     1      21.267  38.550  -5.122  1.00  0.00     0.006 C 
HETATM    6  C10 UNL     1      19.985  37.841  -4.900  1.00  0.00     0.009 C 
HETATM    7  C11 UNL     1      19.120  38.655  -3.989  1.00  0.00     0.038 C 
HETATM    8  C12 UNL     1      19.743  40.016  -3.916  1.00  0.00     0.064 C 
HETATM    9  C13 UNL     1      18.710  41.063  -4.263  1.00  0.00     0.047 C 
ENDROOT
BRANCH   1  10
HETATM   10  C4  UNL     1      21.409  38.088  -7.645  1.00  0.00     0.034 C 
BRANCH  10  11
HETATM   11  C3  UNL     1      22.646  37.280  -7.824  1.00  0.00    -0.031 C 
HETATM   12  C2  UNL     1      22.812  36.051  -7.409  1.00  0.00    -0.035 C 
HETATM   13  C1  UNL     1      21.822  35.242  -6.696  1.00  0.00     0.036 C 
ENDBRANCH  10  11
ENDBRANCH   1  10
BRANCH   2  14
HETATM   14  O1  UNL     1      19.310  39.833  -6.663  1.00  0.00    -0.394 OA
ATOM     15  H1  UNL     1      18.842  40.499  -7.152  1.00  0.00     0.210 HD
ENDBRANCH   2  14
BRANCH   8  16
HETATM   16  O2  UNL     1      20.187  40.256  -2.615  1.00  0.00    -0.389 OA
ATOM     17  H2  UNL     1      21.050  39.872  -2.517  1.00  0.00     0.210 HD
ENDBRANCH   8  16
TORSDOF 4
ENDMDL
MODEL 5
REMARK VINA RESULT: -5.812020486      1.637      2.337
REMARK  4 active torsions:
REMARK  status: ('A' for Active; 'I' for Inactive)
REMARK    1  A    between atoms: C3_3  and  C4_4 
REMARK    2  A    between atoms: C4_4  and  C5_5 
REMARK    3  A    between atoms: C6_6  and  O1_7 
REMARK    4  A    between atoms: C12_14  and  O2_16 
ROOT
HETATM    1  C5  UNL     1      23.722  34.695  -5.891  1.00  0.00     0.024 C 
HETATM    2  C6  UNL     1      22.954  35.705  -5.070  1.00  0.00     0.134 C 
HETATM    3  C7  UNL     1      21.963  35.742  -6.239  1.00  0.00     0.017 C 
HETATM    4  C8  UNL     1      20.957  34.643  -6.237  1.00  0.00     0.021 C 
HETATM    5  C9  UNL     1      23.170  35.352  -7.106  1.00  0.00     0.006 C 
HETATM    6  C10 UNL     1      23.720  36.661  -7.530  1.00  0.00     0.009 C 
HETATM    7  C11 UNL     1      22.645  37.700  -7.451  1.00  0.00     0.038 C 
HETATM    8  C12 UNL     1      21.524  37.091  -6.664  1.00  0.00     0.064 C 
HETATM    9  C13 UNL     1      21.160  38.002  -5.515  1.00  0.00     0.047 C 
ENDROOT
BRANCH   1  10
HETATM   10  C4  UNL     1      25.193  34.645  -5.690  1.00  0.00     0.034 C 
BRANCH  10  11
HETATM   11  C3  UNL     1      25.528  33.364  -5.009  1.00  0.00    -0.031 C 
HETATM   12  C2  UNL     1      25.642  33.202  -3.716  1.00  0.00    -0.035 C 
HETATM   13  C1  UNL     1      25.463  34.241  -2.700  1.00  0.00     0.036 C 
ENDBRANCH  10  11
ENDBRANCH   1  10
BRANCH   2  14
HETATM   14  O1  UNL     1      23.585  36.888  -4.798  1.00  0.00    -0.394 OA
ATOM     15  H1  UNL     1      23.223  37.416  -4.096  1.00  0.00     0.210 HD
ENDBRANCH   2  14
BRANCH   8  16
HETATM   16  O2  UNL     1      20.403  36.952  -7.482  1.00  0.00    -0.389 OA
ATOM     17  H2  UNL     1      19.910  36.194  -7.193  1.00  0.00     0.210 HD
ENDBRANCH   8  16
TORSDOF 4
ENDMDL
