MODEL 1
REMARK VINA RESULT: -6.145327039      0.000      0.000
REMARK  4 active torsions:
REMARK  status: ('A' for Active; 'I' for Inactive)
REMARK    1  A    between atoms: C3_3  and  O1_4 
REMARK    2  A    between atoms: C8_10  and  C10_12 
REMARK    3  A    between atoms: C10_12  and  O2_13 
REMARK    4  A    between atoms: C10_12  and  C11_15 
ROOT
HETATM    1  C1  UNL     1      20.340  36.353  -9.730  1.00  0.00     0.015 C 
HETATM    2  C2  UNL     1      20.921  36.200  -8.678  1.00  0.00    -0.078 C 
HETATM    3  C3  UNL     1      21.603  36.001  -7.401  1.00  0.00     0.130 C 
HETATM    4  C4  UNL     1      22.900  35.254  -7.703  1.00  0.00     0.052 C 
HETATM    5  C5  UNL     1      23.752  35.120  -6.466  1.00  0.00     0.004 C 
HETATM    6  C6  UNL     1      23.199  35.802  -5.256  1.00  0.00     0.001 C 
HETATM    7  C7  UNL     1      22.677  37.178  -5.474  1.00  0.00     0.016 C 
HETATM    8  C8  UNL     1      21.915  37.348  -6.762  1.00  0.00     0.025 C 
HETATM    9  C9  UNL     1      22.920  37.996  -7.740  1.00  0.00     0.022 C 
ENDROOT
BRANCH   3  10
HETATM   10  O1  UNL     1      20.849  35.168  -6.620  1.00  0.00    -0.377 OA
ATOM     11  H1  UNL     1      21.345  34.940  -5.844  1.00  0.00     0.211 HD
ENDBRANCH   3  10
BRANCH   8  12
HETATM   12  C10 UNL     1      20.767  38.281  -6.711  1.00  0.00     0.134 C 
BRANCH  12  13
HETATM   13  O2  UNL     1      20.880  39.181  -7.786  1.00  0.00    -0.394 OA
ATOM     14  H2  UNL     1      21.638  39.735  -7.635  1.00  0.00     0.210 HD
ENDBRANCH  12  13
BRANCH  12  15
HETATM   15  C11 UNL     1      20.498  39.001  -5.450  1.00  0.00     0.015 A 
HETATM   16  C12 UNL     1      19.430  38.311  -4.588  1.00  0.00     0.007 A 
HETATM   17  C13 UNL     1      19.079  39.624  -5.263  1.00  0.00     0.007 A 
ENDBRANCH  12  15
ENDBRANCH   8  12
TORSDOF 4
ENDMDL
MODEL 2
REMARK VINA RESULT: -5.322896256      2.036      4.013
REMARK  4 active torsions:
REMARK  status: ('A' for Active; 'I' for Inactive)
REMARK    1  A    between atoms: C3_3  and  O1_4 
REMARK    2  A    between atoms: C8_10  and  C10_12 
REMARK    3  A    between atoms: C10_12  and  O2_13 
REMARK    4  A    between atoms: C10_12  and  C11_15 
ROOT
HETATM    1  C1  UNL     1      24.597  35.512  -3.309  1.00  0.00     0.015 C 
HETATM    2  C2  UNL     1      24.570  35.263  -4.495  1.00  0.00    -0.078 C 
HETATM    3  C3  UNL     1      24.559  34.974  -5.927  1.00  0.00     0.130 C 
HETATM    4  C4  UNL     1      24.703  33.462  -6.076  1.00  0.00     0.052 C 
HETATM    5  C5  UNL     1      24.563  33.040  -7.517  1.00  0.00     0.004 C 
HETATM    6  C6  UNL     1      24.236  34.153  -8.459  1.00  0.00     0.001 C 
HETATM    7  C7  UNL     1      23.174  35.091  -8.005  1.00  0.00     0.016 C 
HETATM    8  C8  UNL     1      23.242  35.434  -6.540  1.00  0.00     0.025 C 
HETATM    9  C9  UNL     1      22.186  34.529  -5.867  1.00  0.00     0.022 C 
ENDROOT
BRANCH   3  10
HETATM   10  O1  UNL     1      25.671  35.528  -6.500  1.00  0.00    -0.377 OA
ATOM     11  H1  UNL     1      26.399  35.455  -5.894  1.00  0.00     0.211 HD
ENDBRANCH   3  10
BRANCH   8  12
HETATM   12  C10 UNL     1      22.853  36.816  -6.185  1.00  0.00     0.134 C 
BRANCH  12  13
HETATM   13  O2  UNL     1      21.765  36.755  -5.295  1.00  0.00    -0.394 OA
ATOM     14  H2  UNL     1      22.103  36.614  -4.418  1.00  0.00     0.210 HD
ENDBRANCH  12  13
BRANCH  12  15
HETATM   15  C11 UNL     1      22.584  37.776  -7.275  1.00  0.00     0.015 A 
HETATM   16  C12 UNL     1      21.728  38.968  -6.819  1.00  0.00     0.007 A 
HETATM   17  C13 UNL     1      21.104  37.940  -7.745  1.00  0.00     0.007 A 
ENDBRANCH  12  15
ENDBRANCH   8  12
TORSDOF 4
ENDMDL
MODEL 3
REMARK VINA RESULT: -5.243931482      1.619      4.210
REMARK  4 active torsions:
REMARK  status: ('A' for Active; 'I' for Inactive)
REMARK    1  A    between atoms: C3_3  and  O1_4 
REMARK    2  A    between atoms: C8_10  and  C10_12 
REMARK    3  A    between atoms: C10_12  and  O2_13 
REMARK    4  A    between atoms: C10_12  and  C11_15 
ROOT
HETATM    1  C1  UNL     1      19.849  38.996  -7.472  1.00  0.00     0.015 C 
HETATM    2  C2  UNL     1      20.832  38.290  -7.395  1.00  0.00    -0.078 C 
HETATM    3  C3  UNL     1      22.030  37.458  -7.312  1.00  0.00     0.130 C 
HETATM    4  C4  UNL     1      22.302  37.220  -5.829  1.00  0.00     0.052 C 
HETATM    5  C5  UNL     1      23.443  36.252  -5.633  1.00  0.00     0.004 C 
HETATM    6  C6  UNL     1      23.994  35.681  -6.899  1.00  0.00     0.001 C 
HETATM    7  C7  UNL     1      22.986  35.222  -7.892  1.00  0.00     0.016 C 
HETATM    8  C8  UNL     1      21.790  36.129  -8.017  1.00  0.00     0.025 C 
HETATM    9  C9  UNL     1      20.686  35.456  -7.170  1.00  0.00     0.022 C 
ENDROOT
BRANCH   3  10
HETATM   10  O1  UNL     1      23.097  38.167  -7.794  1.00  0.00    -0.377 OA
ATOM     11  H1  UNL     1      23.367  38.800  -7.140  1.00  0.00     0.211 HD
ENDBRANCH   3  10
BRANCH   8  12
HETATM   12  C10 UNL     1      21.216  36.252  -9.375  1.00  0.00     0.134 C 
BRANCH  12  13
HETATM   13  O2  UNL     1      19.836  35.988  -9.299  1.00  0.00    -0.394 OA
ATOM     14  H2  UNL     1      19.431  36.662  -8.766  1.00  0.00     0.210 HD
ENDBRANCH  12  13
BRANCH  12  15
HETATM   15  C11 UNL     1      21.836  35.487 -10.476  1.00  0.00     0.015 A 
HETATM   16  C12 UNL     1      21.623  36.144 -11.849  1.00  0.00     0.007 A 
HETATM   17  C13 UNL     1      20.885  34.854 -11.540  1.00  0.00     0.007 A 
ENDBRANCH  12  15
ENDBRANCH   8  12
TORSDOF 4
ENDMDL
MODEL 4
REMARK VINA RESULT: -5.187094642      1.780      3.388
REMARK  4 active torsions:
REMARK  status: ('A' for Active; 'I' for Inactive)
REMARK    1  A    between atoms: C3_3  and  O1_4 
REMARK    2  A    between atoms: C8_10  and  C10_12 
REMARK    3  A    between atoms: C10_12  and  O2_13 
REMARK    4  A    between atoms: C10_12  and  C11_15 
ROOT
HETATM    1  C1  UNL     1      24.363  35.594  -4.091  1.00  0.00     0.015 C 
HETATM    2  C2  UNL     1      23.927  35.686  -5.219  1.00  0.00    -0.078 C 
HETATM    3  C3  UNL     1      23.419  35.815  -6.583  1.00  0.00     0.130 C 
HETATM    4  C4  UNL     1      23.680  34.482  -7.280  1.00  0.00     0.052 C 
HETATM    5  C5  UNL     1      23.065  34.458  -8.657  1.00  0.00     0.004 C 
HETATM    6  C6  UNL     1      22.279  35.680  -9.006  1.00  0.00     0.001 C 
HETATM    7  C7  UNL     1      21.357  36.176  -7.949  1.00  0.00     0.016 C 
HETATM    8  C8  UNL     1      21.924  36.103  -6.555  1.00  0.00     0.025 C 
HETATM    9  C9  UNL     1      21.312  34.825  -5.940  1.00  0.00     0.022 C 
ENDROOT
BRANCH   3  10
HETATM   10  O1  UNL     1      24.162  36.752  -7.246  1.00  0.00    -0.377 OA
ATOM     11  H1  UNL     1      23.884  36.780  -8.154  1.00  0.00     0.211 HD
ENDBRANCH   3  10
BRANCH   8  12
HETATM   12  C10 UNL     1      21.529  37.200  -5.643  1.00  0.00     0.134 C 
BRANCH  12  13
HETATM   13  O2  UNL     1      20.775  36.651  -4.591  1.00  0.00    -0.394 OA
ATOM     14  H2  UNL     1      21.370  36.403  -3.893  1.00  0.00     0.210 HD
ENDBRANCH  12  13
BRANCH  12  15
HETATM   15  C11 UNL     1      20.852  38.383  -6.212  1.00  0.00     0.015 A 
HETATM   16  C12 UNL     1      21.838  39.448  -6.715  1.00  0.00     0.007 A 
HETATM   17  C13 UNL     1      21.028  39.743  -5.467  1.00  0.00     0.007 A 
ENDBRANCH  12  15
ENDBRANCH   8  12
TORSDOF 4
ENDMDL
MODEL 5
REMARK VINA RESULT: -5.035648375      1.505      4.140
REMARK  4 active torsions:
REMARK  status: ('A' for Active; 'I' for Inactive)
REMARK    1  A    between atoms: C3_3  and  O1_4 
REMARK    2  A    between atoms: C8_10  and  C10_12 
REMARK    3  A    between atoms: C10_12  and  O2_13 
REMARK    4  A    between atoms: C10_12  and  C11_15 
ROOT
HETATM    1  C1  UNL     1      21.970  35.547  -9.937  1.00  0.00     0.015 C 
HETATM    2  C2  UNL     1      21.970  36.301  -8.987  1.00  0.00    -0.078 C 
HETATM    3  C3  UNL     1      21.985  37.224  -7.855  1.00  0.00     0.130 C 
HETATM    4  C4  UNL     1      20.585  37.824  -7.753  1.00  0.00     0.052 C 
HETATM    5  C5  UNL     1      20.452  38.690  -6.525  1.00  0.00     0.004 C 
HETATM    6  C6  UNL     1      21.660  38.708  -5.646  1.00  0.00     0.001 C 
HETATM    7  C7  UNL     1      22.282  37.384  -5.377  1.00  0.00     0.016 C 
HETATM    8  C8  UNL     1      22.322  36.471  -6.575  1.00  0.00     0.025 C 
HETATM    9  C9  UNL     1      21.127  35.509  -6.386  1.00  0.00     0.022 C 
ENDROOT
BRANCH   3  10
HETATM   10  O1  UNL     1      22.832  38.260  -8.139  1.00  0.00    -0.377 OA
ATOM     11  H1  UNL     1      22.823  38.419  -9.075  1.00  0.00     0.211 HD
ENDBRANCH   3  10
BRANCH   8  12
HETATM   12  C10 UNL     1      23.511  35.596  -6.675  1.00  0.00     0.134 C 
BRANCH  12  13
HETATM   13  O2  UNL     1      23.081  34.257  -6.637  1.00  0.00    -0.394 OA
ATOM     14  H2  UNL     1      23.773  33.710  -6.990  1.00  0.00     0.210 HD
ENDBRANCH  12  13
BRANCH  12  15
HETATM   15  C11 UNL     1      24.630  35.813  -5.735  1.00  0.00     0.015 A 
HETATM   16  C12 UNL     1      25.464  34.544  -5.501  1.00  0.00     0.007 A 
HETATM   17  C13 UNL     1      24.586  35.052  -4.372  1.00  0.00     0.007 A 
ENDBRANCH  12  15
ENDBRANCH   8  12
TORSDOF 4
ENDMDL
