MODEL 1
REMARK VINA RESULT: -6.561297468      0.000      0.000
REMARK  4 active torsions:
REMARK  status: ('A' for Active; 'I' for Inactive)
REMARK    1  A    between atoms: N1_2  and  N2_4 
REMARK    2  A    between atoms: N2_4  and  C2_6 
REMARK    3  A    between atoms: C6_16  and  C7_17 
REMARK    4  A    between atoms: C8_18  and  C10_20 
ROOT
HETATM    1  C2  UNL     1      16.488  -2.226  11.945  1.00  0.00     0.143 A 
HETATM    2  N3  UNL     1      17.396  -1.744  11.086  1.00  0.00    -0.292 N 
ATOM      3  H3  UNL     1      17.996  -2.401  10.587  1.00  0.00     0.172 HD
HETATM    4  C3  UNL     1      17.547  -0.416  10.854  1.00  0.00     0.329 A 
HETATM    5  O1  UNL     1      18.402   0.027  10.046  1.00  0.00    -0.246 OA
HETATM    6  N4  UNL     1      16.769   0.448  11.500  1.00  0.00    -0.289 N 
HETATM    7  C4  UNL     1      16.894   1.861  11.284  1.00  0.00     0.163 C 
HETATM    8  C5  UNL     1      15.845   0.005  12.370  1.00  0.00     0.132 A 
HETATM    9  N5  UNL     1      15.049   0.846  13.035  1.00  0.00    -0.327 N 
ATOM     10  H5  UNL     1      15.165   1.843  12.858  1.00  0.00     0.169 HD
HETATM   11  C6  UNL     1      14.089   0.473  13.934  1.00  0.00     0.110 A 
HETATM   12  N6  UNL     1      13.965  -0.848  14.142  1.00  0.00    -0.309 N 
ATOM     13  H6  UNL     1      13.261  -1.172  14.805  1.00  0.00     0.170 HD
HETATM   14  C11 UNL     1      14.725  -1.762  13.516  1.00  0.00     0.264 A 
HETATM   15  O4  UNL     1      14.598  -2.991  13.721  1.00  0.00    -0.267 OA
HETATM   16  C12 UNL     1      15.682  -1.355  12.616  1.00  0.00     0.122 A 
ENDROOT
BRANCH  11  17
HETATM   17  C7  UNL     1      13.325   1.485  14.632  1.00  0.00     0.062 C 
HETATM   18  C8  UNL     1      13.143   1.696  15.898  1.00  0.00     0.018 C 
HETATM   19  C9  UNL     1      12.270   2.872  16.336  1.00  0.00     0.056 C 
BRANCH  18  20
HETATM   20  C10 UNL     1      13.653   0.894  16.950  1.00  0.00     0.204 C 
HETATM   21  O2  UNL     1      13.158  -0.267  17.160  1.00  0.00    -0.644 OA
HETATM   22  O3  UNL     1      14.663   1.262  17.785  1.00  0.00    -0.644 OA
ENDBRANCH  18  20
ENDBRANCH  11  17
BRANCH   1  23
HETATM   23  N2  UNL     1      16.360  -3.510  12.159  1.00  0.00    -0.289 N 
ATOM     24  H2  UNL     1      15.580  -4.003  11.725  1.00  0.00     0.188 HD
BRANCH  23  25
HETATM   25  N1  UNL     1      17.247  -4.231  12.957  1.00  0.00    -0.339 N 
HETATM   26  C1  UNL     1      17.161  -5.673  12.951  1.00  0.00     0.167 C 
ATOM     27  H1  UNL     1      17.940  -3.751  13.532  1.00  0.00     0.179 HD
ENDBRANCH  23  25
ENDBRANCH   1  23
TORSDOF 4
ENDMDL
MODEL 2
REMARK VINA RESULT: -6.558725068      2.910      5.997
REMARK  4 active torsions:
REMARK  status: ('A' for Active; 'I' for Inactive)
REMARK    1  A    between atoms: N1_2  and  N2_4 
REMARK    2  A    between atoms: N2_4  and  C2_6 
REMARK    3  A    between atoms: C6_16  and  C7_17 
REMARK    4  A    between atoms: C8_18  and  C10_20 
ROOT
HETATM    1  C2  UNL     1      16.774  -0.748  16.802  1.00  0.00     0.143 A 
HETATM    2  N3  UNL     1      15.896   0.151  17.265  1.00  0.00    -0.292 N 
ATOM      3  H3  UNL     1      15.967   0.452  18.237  1.00  0.00     0.172 HD
HETATM    4  C3  UNL     1      14.914   0.677  16.490  1.00  0.00     0.329 A 
HETATM    5  O1  UNL     1      14.094   1.520  16.932  1.00  0.00    -0.246 OA
HETATM    6  N4  UNL     1      14.814   0.291  15.221  1.00  0.00    -0.289 N 
HETATM    7  C4  UNL     1      13.792   0.823  14.365  1.00  0.00     0.163 C 
HETATM    8  C5  UNL     1      15.676  -0.609  14.718  1.00  0.00     0.132 A 
HETATM    9  N5  UNL     1      15.602  -1.018  13.449  1.00  0.00    -0.327 N 
ATOM     10  H5  UNL     1      14.863  -0.620  12.868  1.00  0.00     0.169 HD
HETATM   11  C6  UNL     1      16.439  -1.928  12.867  1.00  0.00     0.110 A 
HETATM   12  N6  UNL     1      17.399  -2.430  13.660  1.00  0.00    -0.309 N 
ATOM     13  H6  UNL     1      18.046  -3.113  13.268  1.00  0.00     0.170 HD
HETATM   14  C11 UNL     1      17.545  -2.074  14.948  1.00  0.00     0.264 A 
HETATM   15  O4  UNL     1      18.445  -2.552  15.676  1.00  0.00    -0.267 OA
HETATM   16  C12 UNL     1      16.686  -1.155  15.505  1.00  0.00     0.122 A 
ENDROOT
BRANCH  11  17
HETATM   17  C7  UNL     1      16.221  -2.331  11.494  1.00  0.00     0.062 C 
HETATM   18  C8  UNL     1      16.577  -1.781  10.375  1.00  0.00     0.018 C 
HETATM   19  C9  UNL     1      16.196  -2.460   9.060  1.00  0.00     0.056 C 
BRANCH  18  20
HETATM   20  C10 UNL     1      17.269  -0.550  10.245  1.00  0.00     0.204 C 
HETATM   21  O2  UNL     1      18.540  -0.549  10.100  1.00  0.00    -0.644 OA
HETATM   22  O3  UNL     1      16.678   0.676  10.259  1.00  0.00    -0.644 OA
ENDBRANCH  18  20
ENDBRANCH  11  17
BRANCH   1  23
HETATM   23  N2  UNL     1      17.711  -1.248  17.567  1.00  0.00    -0.289 N 
ATOM     24  H2  UNL     1      18.682  -1.174  17.263  1.00  0.00     0.188 HD
BRANCH  23  25
HETATM   25  N1  UNL     1      17.435  -1.877  18.779  1.00  0.00    -0.339 N 
HETATM   26  C1  UNL     1      16.700  -3.121  18.757  1.00  0.00     0.167 C 
ATOM     27  H1  UNL     1      17.745  -1.470  19.662  1.00  0.00     0.179 HD
ENDBRANCH  23  25
ENDBRANCH   1  23
TORSDOF 4
ENDMDL
MODEL 3
REMARK VINA RESULT: -6.371627386      1.264      1.528
REMARK  4 active torsions:
REMARK  status: ('A' for Active; 'I' for Inactive)
REMARK    1  A    between atoms: N1_2  and  N2_4 
REMARK    2  A    between atoms: N2_4  and  C2_6 
REMARK    3  A    between atoms: C6_16  and  C7_17 
REMARK    4  A    between atoms: C8_18  and  C10_20 
ROOT
HETATM    1  C2  UNL     1      16.550  -2.258  12.186  1.00  0.00     0.143 A 
HETATM    2  N3  UNL     1      17.333  -1.812  11.195  1.00  0.00    -0.292 N 
ATOM      3  H3  UNL     1      17.855  -2.490  10.639  1.00  0.00     0.172 HD
HETATM    4  C3  UNL     1      17.459  -0.493  10.902  1.00  0.00     0.329 A 
HETATM    5  O1  UNL     1      18.195  -0.083   9.971  1.00  0.00    -0.246 OA
HETATM    6  N4  UNL     1      16.781   0.398  11.621  1.00  0.00    -0.289 N 
HETATM    7  C4  UNL     1      16.883   1.803  11.345  1.00  0.00     0.163 C 
HETATM    8  C5  UNL     1      15.984  -0.009  12.624  1.00  0.00     0.132 A 
HETATM    9  N5  UNL     1      15.292   0.859  13.366  1.00  0.00    -0.327 N 
ATOM     10  H5  UNL     1      15.388   1.850  13.143  1.00  0.00     0.169 HD
HETATM   11  C6  UNL     1      14.464   0.524  14.400  1.00  0.00     0.110 A 
HETATM   12  N6  UNL     1      14.362  -0.788  14.665  1.00  0.00    -0.309 N 
ATOM     13  H6  UNL     1      13.755  -1.085  15.428  1.00  0.00     0.170 HD
HETATM   14  C11 UNL     1      15.024  -1.729  13.969  1.00  0.00     0.264 A 
HETATM   15  O4  UNL     1      14.919  -2.950  14.229  1.00  0.00    -0.267 OA
HETATM   16  C12 UNL     1      15.850  -1.360  12.933  1.00  0.00     0.122 A 
ENDROOT
BRANCH  11  17
HETATM   17  C7  UNL     1      13.809   1.564  15.164  1.00  0.00     0.062 C 
HETATM   18  C8  UNL     1      12.557   1.773  15.426  1.00  0.00     0.018 C 
HETATM   19  C9  UNL     1      12.168   2.978  16.282  1.00  0.00     0.056 C 
BRANCH  18  20
HETATM   20  C10 UNL     1      11.474   0.993  14.946  1.00  0.00     0.204 C 
HETATM   21  O2  UNL     1      10.538   1.552  14.275  1.00  0.00    -0.644 OA
HETATM   22  O3  UNL     1      11.337  -0.347  15.142  1.00  0.00    -0.644 OA
ENDBRANCH  18  20
ENDBRANCH  11  17
BRANCH   1  23
HETATM   23  N2  UNL     1      16.446  -3.534  12.456  1.00  0.00    -0.289 N 
ATOM     24  H2  UNL     1      15.628  -4.040  12.119  1.00  0.00     0.188 HD
BRANCH  23  25
HETATM   25  N1  UNL     1      17.408  -4.228  13.187  1.00  0.00    -0.339 N 
HETATM   26  C1  UNL     1      17.303  -5.667  13.272  1.00  0.00     0.167 C 
ATOM     27  H1  UNL     1      18.170  -3.732  13.652  1.00  0.00     0.179 HD
ENDBRANCH  23  25
ENDBRANCH   1  23
TORSDOF 4
ENDMDL
MODEL 4
REMARK VINA RESULT: -6.343632061      3.149      6.454
REMARK  4 active torsions:
REMARK  status: ('A' for Active; 'I' for Inactive)
REMARK    1  A    between atoms: N1_2  and  N2_4 
REMARK    2  A    between atoms: N2_4  and  C2_6 
REMARK    3  A    between atoms: C6_16  and  C7_17 
REMARK    4  A    between atoms: C8_18  and  C10_20 
ROOT
HETATM    1  C2  UNL     1      17.026  -0.584  16.830  1.00  0.00     0.143 A 
HETATM    2  N3  UNL     1      17.617  -1.465  17.650  1.00  0.00    -0.292 N 
ATOM      3  H3  UNL     1      17.801  -1.190  18.615  1.00  0.00     0.172 HD
HETATM    4  C3  UNL     1      17.980  -2.708  17.244  1.00  0.00     0.329 A 
HETATM    5  O1  UNL     1      18.534  -3.527  18.019  1.00  0.00    -0.246 OA
HETATM    6  N4  UNL     1      17.743  -3.075  15.987  1.00  0.00    -0.289 N 
HETATM    7  C4  UNL     1      18.109  -4.380  15.517  1.00  0.00     0.163 C 
HETATM    8  C5  UNL     1      17.152  -2.221  15.134  1.00  0.00     0.132 A 
HETATM    9  N5  UNL     1      16.901  -2.558  13.867  1.00  0.00    -0.327 N 
ATOM     10  H5  UNL     1      17.175  -3.493  13.565  1.00  0.00     0.169 HD
HETATM   11  C6  UNL     1      16.306  -1.747  12.941  1.00  0.00     0.110 A 
HETATM   12  N6  UNL     1      15.959  -0.524  13.373  1.00  0.00    -0.309 N 
ATOM     13  H6  UNL     1      15.512   0.115  12.717  1.00  0.00     0.170 HD
HETATM   14  C11 UNL     1      16.175  -0.104  14.631  1.00  0.00     0.264 A 
HETATM   15  O4  UNL     1      15.847   1.041  15.020  1.00  0.00    -0.267 OA
HETATM   16  C12 UNL     1      16.776  -0.944  15.540  1.00  0.00     0.122 A 
ENDROOT
BRANCH  11  17
HETATM   17  C7  UNL     1      16.138  -2.210  11.581  1.00  0.00     0.062 C 
HETATM   18  C8  UNL     1      16.539  -1.713  10.453  1.00  0.00     0.018 C 
HETATM   19  C9  UNL     1      16.205  -2.449   9.156  1.00  0.00     0.056 C 
BRANCH  18  20
HETATM   20  C10 UNL     1      17.243  -0.492  10.294  1.00  0.00     0.204 C 
HETATM   21  O2  UNL     1      18.491  -0.511  10.013  1.00  0.00    -0.644 OA
HETATM   22  O3  UNL     1      16.686   0.744  10.416  1.00  0.00    -0.644 OA
ENDBRANCH  18  20
ENDBRANCH  11  17
BRANCH   1  23
HETATM   23  N2  UNL     1      16.688   0.611  17.238  1.00  0.00    -0.289 N 
ATOM     24  H2  UNL     1      17.059   1.421  16.742  1.00  0.00     0.188 HD
BRANCH  23  25
HETATM   25  N1  UNL     1      15.840   0.822  18.325  1.00  0.00    -0.339 N 
HETATM   26  C1  UNL     1      14.413   0.749  18.109  1.00  0.00     0.167 C 
ATOM     27  H1  UNL     1      16.218   1.024  19.251  1.00  0.00     0.179 HD
ENDBRANCH  23  25
ENDBRANCH   1  23
TORSDOF 4
ENDMDL
MODEL 5
REMARK VINA RESULT: -6.338085634      2.618      6.415
REMARK  4 active torsions:
REMARK  status: ('A' for Active; 'I' for Inactive)
REMARK    1  A    between atoms: N1_2  and  N2_4 
REMARK    2  A    between atoms: N2_4  and  C2_6 
REMARK    3  A    between atoms: C6_16  and  C7_17 
REMARK    4  A    between atoms: C8_18  and  C10_20 
ROOT
HETATM    1  C2  UNL     1      15.225   0.568  16.374  1.00  0.00     0.143 A 
HETATM    2  N3  UNL     1      16.036   0.109  17.337  1.00  0.00    -0.292 N 
ATOM      3  H3  UNL     1      16.000   0.545  18.258  1.00  0.00     0.172 HD
HETATM    4  C3  UNL     1      16.903  -0.915  17.133  1.00  0.00     0.329 A 
HETATM    5  O1  UNL     1      17.661  -1.338  18.041  1.00  0.00    -0.246 OA
HETATM    6  N4  UNL     1      16.956  -1.490  15.934  1.00  0.00    -0.289 N 
HETATM    7  C4  UNL     1      17.858  -2.576  15.675  1.00  0.00     0.163 C 
HETATM    8  C5  UNL     1      16.158  -1.060  14.942  1.00  0.00     0.132 A 
HETATM    9  N5  UNL     1      16.188  -1.615  13.728  1.00  0.00    -0.327 N 
ATOM     10  H5  UNL     1      16.840  -2.384  13.578  1.00  0.00     0.169 HD
HETATM   11  C6  UNL     1      15.410  -1.233  12.671  1.00  0.00     0.110 A 
HETATM   12  N6  UNL     1      14.564  -0.218  12.905  1.00  0.00    -0.309 N 
ATOM     13  H6  UNL     1      13.964   0.100  12.144  1.00  0.00     0.170 HD
HETATM   14  C11 UNL     1      14.470   0.398  14.096  1.00  0.00     0.264 A 
HETATM   15  O4  UNL     1      13.675   1.344  14.299  1.00  0.00    -0.267 OA
HETATM   16  C12 UNL     1      15.266  -0.010  15.141  1.00  0.00     0.122 A 
ENDROOT
BRANCH  11  17
HETATM   17  C7  UNL     1      15.575  -1.880  11.387  1.00  0.00     0.062 C 
HETATM   18  C8  UNL     1      16.332  -1.592  10.375  1.00  0.00     0.018 C 
HETATM   19  C9  UNL     1      16.288  -2.484   9.136  1.00  0.00     0.056 C 
BRANCH  18  20
HETATM   20  C10 UNL     1      17.194  -0.469  10.284  1.00  0.00     0.204 C 
HETATM   21  O2  UNL     1      18.462  -0.643  10.261  1.00  0.00    -0.644 OA
HETATM   22  O3  UNL     1      16.776   0.824  10.215  1.00  0.00    -0.644 OA
ENDBRANCH  18  20
ENDBRANCH  11  17
BRANCH   1  23
HETATM   23  N2  UNL     1      14.398   1.559  16.589  1.00  0.00    -0.289 N 
ATOM     24  H2  UNL     1      14.521   2.422  16.060  1.00  0.00     0.188 HD
BRANCH  23  25
HETATM   25  N1  UNL     1      13.357   1.482  17.512  1.00  0.00    -0.339 N 
HETATM   26  C1  UNL     1      12.857   2.709  18.089  1.00  0.00     0.167 C 
ATOM     27  H1  UNL     1      12.958   0.581  17.775  1.00  0.00     0.179 HD
ENDBRANCH  23  25
ENDBRANCH   1  23
TORSDOF 4
ENDMDL
