MODEL 1
REMARK VINA RESULT: -7.229274319      0.000      0.000
REMARK  3 active torsions:
REMARK  status: ('A' for Active; 'I' for Inactive)
REMARK       I    between atoms: C1_4  and  N3_6 
REMARK    1  A    between atoms: N4_10  and  C5_11 
REMARK    2  A    between atoms: C6_14  and  C7_15 
REMARK    3  A    between atoms: C9_27  and  N11_28 
ROOT
HETATM    1  C5  UNL     1      15.068   0.925  14.028  1.00  0.00     0.156 A 
HETATM    2  N5  UNL     1      13.885   1.614  14.169  1.00  0.00    -0.335 N 
ATOM      3  H5  UNL     1      13.473   2.045  13.341  1.00  0.00     0.168 HD
HETATM    4  C6  UNL     1      13.249   1.746  15.337  1.00  0.00     0.096 A 
HETATM    5  C8  UNL     1      13.844   1.145  16.448  1.00  0.00     0.123 A 
HETATM    6  N10 UNL     1      14.992   0.465  16.365  1.00  0.00    -0.347 N 
ATOM      7  H10 UNL     1      15.403   0.036  17.194  1.00  0.00     0.167 HD
HETATM    8  C9  UNL     1      15.606   0.356  15.146  1.00  0.00     0.144 A 
ENDROOT
BRANCH   1   9
HETATM    9  N4  UNL     1      15.677   0.836  12.747  1.00  0.00    -0.282 N 
HETATM   10  C4  UNL     1      16.258   1.915  12.034  1.00  0.00     0.137 C 
HETATM   11  C3  UNL     1      16.856   1.505  10.699  1.00  0.00     0.041 C 
HETATM   12  C2  UNL     1      17.693   0.238  10.892  1.00  0.00     0.138 C 
HETATM   13  N3  UNL     1      16.669  -0.799  11.110  1.00  0.00    -0.273 N 
HETATM   14  C1  UNL     1      16.611  -2.007  10.416  1.00  0.00     0.192 C 
HETATM   15  C10 UNL     1      15.714  -0.469  12.107  1.00  0.00     0.332 C 
HETATM   16  N1  UNL     1      16.692  -3.123  11.041  1.00  0.00    -0.373 N 
HETATM   17  N2  UNL     1      16.462  -2.020   9.009  1.00  0.00    -0.063 NA
ATOM     18  H12 UNL     1      16.650  -4.007  10.533  1.00  0.00     0.158 HD
ATOM     19  H11 UNL     1      16.800  -3.114  12.055  1.00  0.00     0.158 HD
HETATM   20  O1  UNL     1      14.863  -1.335  12.454  1.00  0.00    -0.246 OA
ENDBRANCH   1   9
BRANCH   8  21
HETATM   21  N11 UNL     1      16.707  -0.299  15.074  1.00  0.00    -0.382 N 
ATOM     22 2H11 UNL     1      16.708  -1.191  14.579  1.00  0.00     0.157 HD
ATOM     23 1H11 UNL     1      17.556   0.071  15.502  1.00  0.00     0.157 HD
ENDBRANCH   8  21
BRANCH   4  24
HETATM   24  C7  UNL     1      11.993   2.475  15.467  1.00  0.00     0.165 A 
HETATM   25  N6  UNL     1      10.786   2.200  14.954  1.00  0.00    -0.267 N 
HETATM   26  N7  UNL     1       9.926   3.137  15.340  1.00  0.00    -0.227 N 
ATOM     27  H6  UNL     1      10.562   1.400  14.362  1.00  0.00     0.190 HD
HETATM   28  N8  UNL     1      10.572   4.004  16.092  1.00  0.00    -0.227 N 
ATOM     29  H7  UNL     1       8.937   3.178  15.096  1.00  0.00     0.210 HD
HETATM   30  N9  UNL     1      11.832   3.609  16.174  1.00  0.00    -0.267 N 
ATOM     31  H8  UNL     1      10.172   4.833  16.532  1.00  0.00     0.210 HD
ATOM     32  H9  UNL     1      12.567   4.089  16.693  1.00  0.00     0.190 HD
ENDBRANCH   4  24
TORSDOF 3
ENDMDL
MODEL 2
REMARK VINA RESULT: -6.756080692      1.447      2.204
REMARK  3 active torsions:
REMARK  status: ('A' for Active; 'I' for Inactive)
REMARK       I    between atoms: C1_4  and  N3_6 
REMARK    1  A    between atoms: N4_10  and  C5_11 
REMARK    2  A    between atoms: C6_14  and  C7_15 
REMARK    3  A    between atoms: C9_27  and  N11_28 
ROOT
HETATM    1  C5  UNL     1      14.924   0.022  15.030  1.00  0.00     0.156 A 
HETATM    2  N5  UNL     1      13.801   0.791  14.828  1.00  0.00    -0.335 N 
ATOM      3  H5  UNL     1      13.388   0.811  13.896  1.00  0.00     0.168 HD
HETATM    4  C6  UNL     1      13.225   1.514  15.794  1.00  0.00     0.096 A 
HETATM    5  C8  UNL     1      13.819   1.464  17.056  1.00  0.00     0.123 A 
HETATM    6  N10 UNL     1      14.910   0.732  17.305  1.00  0.00    -0.347 N 
ATOM      7  H10 UNL     1      15.322   0.714  18.238  1.00  0.00     0.167 HD
HETATM    8  C9  UNL     1      15.464   0.008  16.284  1.00  0.00     0.144 A 
ENDROOT
BRANCH   1   9
HETATM    9  N4  UNL     1      15.471  -0.715  13.946  1.00  0.00    -0.282 N 
HETATM   10  C4  UNL     1      15.370  -2.118  13.769  1.00  0.00     0.137 C 
HETATM   11  C3  UNL     1      16.032  -2.617  12.496  1.00  0.00     0.041 C 
HETATM   12  C2  UNL     1      15.622  -1.714  11.330  1.00  0.00     0.138 C 
HETATM   13  N3  UNL     1      16.362  -0.470  11.604  1.00  0.00    -0.273 N 
HETATM   14  C1  UNL     1      17.167   0.189  10.675  1.00  0.00     0.192 C 
HETATM   15  C10 UNL     1      16.195   0.024  12.925  1.00  0.00     0.332 C 
HETATM   16  N1  UNL     1      16.906   1.395  10.326  1.00  0.00    -0.373 N 
HETATM   17  N2  UNL     1      18.284  -0.462  10.103  1.00  0.00    -0.063 NA
ATOM     18  H12 UNL     1      17.494   1.877   9.646  1.00  0.00     0.158 HD
ATOM     19  H11 UNL     1      16.100   1.865  10.738  1.00  0.00     0.158 HD
HETATM   20  O1  UNL     1      16.691   1.145  13.230  1.00  0.00    -0.246 OA
ENDBRANCH   1   9
BRANCH   8  21
HETATM   21  N11 UNL     1      16.509  -0.693  16.531  1.00  0.00    -0.382 N 
ATOM     22 2H11 UNL     1      16.935  -0.619  17.456  1.00  0.00     0.157 HD
ATOM     23 1H11 UNL     1      16.898  -1.309  15.817  1.00  0.00     0.157 HD
ENDBRANCH   8  21
BRANCH   4  24
HETATM   24  C7  UNL     1      12.032   2.320  15.562  1.00  0.00     0.165 A 
HETATM   25  N6  UNL     1      10.955   2.060  14.808  1.00  0.00    -0.267 N 
HETATM   26  N7  UNL     1      10.105   3.077  14.899  1.00  0.00    -0.227 N 
ATOM     27  H6  UNL     1      10.810   1.216  14.254  1.00  0.00     0.190 HD
HETATM   28  N8  UNL     1      10.628   3.981  15.701  1.00  0.00    -0.227 N 
ATOM     29  H7  UNL     1       9.202   3.146  14.429  1.00  0.00     0.210 HD
HETATM   30  N9  UNL     1      11.802   3.529  16.109  1.00  0.00    -0.267 N 
ATOM     31  H8  UNL     1      10.204   4.872  15.962  1.00  0.00     0.210 HD
ATOM     32  H9  UNL     1      12.436   4.019  16.741  1.00  0.00     0.190 HD
ENDBRANCH   4  24
TORSDOF 3
ENDMDL
MODEL 3
REMARK VINA RESULT: -6.755497885      1.930      4.308
REMARK  3 active torsions:
REMARK  status: ('A' for Active; 'I' for Inactive)
REMARK       I    between atoms: C1_4  and  N3_6 
REMARK    1  A    between atoms: N4_10  and  C5_11 
REMARK    2  A    between atoms: C6_14  and  C7_15 
REMARK    3  A    between atoms: C9_27  and  N11_28 
ROOT
HETATM    1  C5  UNL     1      15.374   0.600  14.600  1.00  0.00     0.156 A 
HETATM    2  N5  UNL     1      16.192  -0.043  15.500  1.00  0.00    -0.335 N 
ATOM      3  H5  UNL     1      17.043  -0.486  15.152  1.00  0.00     0.168 HD
HETATM    4  C6  UNL     1      15.928  -0.115  16.808  1.00  0.00     0.096 A 
HETATM    5  C8  UNL     1      14.756   0.501  17.248  1.00  0.00     0.123 A 
HETATM    6  N10 UNL     1      13.926   1.138  16.414  1.00  0.00    -0.347 N 
ATOM      7  H10 UNL     1      13.076   1.580  16.764  1.00  0.00     0.167 HD
HETATM    8  C9  UNL     1      14.240   1.186  15.082  1.00  0.00     0.144 A 
ENDROOT
BRANCH   1   9
HETATM    9  N4  UNL     1      15.732   0.627  13.225  1.00  0.00    -0.282 N 
HETATM   10  C4  UNL     1      16.056   1.789  12.480  1.00  0.00     0.137 C 
HETATM   11  C3  UNL     1      16.426   1.499  11.037  1.00  0.00     0.041 C 
HETATM   12  C2  UNL     1      17.405   0.323  10.995  1.00  0.00     0.138 C 
HETATM   13  N3  UNL     1      16.550  -0.826  11.338  1.00  0.00    -0.273 N 
HETATM   14  C1  UNL     1      16.479  -2.005  10.597  1.00  0.00     0.192 C 
HETATM   15  C10 UNL     1      15.775  -0.640  12.513  1.00  0.00     0.332 C 
HETATM   16  N1  UNL     1      16.788  -3.130  11.130  1.00  0.00    -0.373 N 
HETATM   17  N2  UNL     1      16.066  -1.979   9.245  1.00  0.00    -0.063 NA
ATOM     18  H12 UNL     1      16.737  -3.992  10.587  1.00  0.00     0.158 HD
ATOM     19  H11 UNL     1      17.086  -3.149  12.105  1.00  0.00     0.158 HD
HETATM   20  O1  UNL     1      15.095  -1.606  12.961  1.00  0.00    -0.246 OA
ENDBRANCH   1   9
BRANCH   8  21
HETATM   21  N11 UNL     1      13.440   1.801  14.290  1.00  0.00    -0.382 N 
ATOM     22 2H11 UNL     1      13.382   1.487  13.321  1.00  0.00     0.157 HD
ATOM     23 1H11 UNL     1      12.878   2.582  14.628  1.00  0.00     0.157 HD
ENDBRANCH   8  21
BRANCH   4  24
HETATM   24  C7  UNL     1      16.810  -0.796  17.748  1.00  0.00     0.165 A 
HETATM   25  N6  UNL     1      17.694  -1.782  17.536  1.00  0.00    -0.267 N 
HETATM   26  N7  UNL     1      18.286  -2.090  18.685  1.00  0.00    -0.227 N 
ATOM     27  H6  UNL     1      17.881  -2.224  16.636  1.00  0.00     0.190 HD
HETATM   28  N8  UNL     1      17.790  -1.313  19.625  1.00  0.00    -0.227 N 
ATOM     29  H7  UNL     1      19.001  -2.805  18.815  1.00  0.00     0.210 HD
HETATM   30  N9  UNL     1      16.890  -0.522  19.064  1.00  0.00    -0.267 N 
ATOM     31  H8  UNL     1      18.053  -1.319  20.611  1.00  0.00     0.210 HD
ATOM     32  H9  UNL     1      16.342   0.186  19.553  1.00  0.00     0.190 HD
ENDBRANCH   4  24
TORSDOF 3
ENDMDL
MODEL 4
REMARK VINA RESULT: -6.705144917      2.120      6.730
REMARK  3 active torsions:
REMARK  status: ('A' for Active; 'I' for Inactive)
REMARK       I    between atoms: C1_4  and  N3_6 
REMARK    1  A    between atoms: N4_10  and  C5_11 
REMARK    2  A    between atoms: C6_14  and  C7_15 
REMARK    3  A    between atoms: C9_27  and  N11_28 
ROOT
HETATM    1  C5  UNL     1      13.997   0.672  15.260  1.00  0.00     0.156 A 
HETATM    2  N5  UNL     1      14.591   1.209  14.141  1.00  0.00    -0.335 N 
ATOM      3  H5  UNL     1      14.404   2.185  13.913  1.00  0.00     0.168 HD
HETATM    4  C6  UNL     1      15.403   0.514  13.338  1.00  0.00     0.096 A 
HETATM    5  C8  UNL     1      15.636  -0.819  13.680  1.00  0.00     0.123 A 
HETATM    6  N10 UNL     1      15.083  -1.389  14.756  1.00  0.00    -0.347 N 
ATOM      7  H10 UNL     1      15.272  -2.366  14.982  1.00  0.00     0.167 HD
HETATM    8  C9  UNL     1      14.259  -0.636  15.550  1.00  0.00     0.144 A 
ENDROOT
BRANCH   1   9
HETATM    9  N4  UNL     1      13.146   1.483  16.058  1.00  0.00    -0.282 N 
HETATM   10  C4  UNL     1      13.475   2.023  17.327  1.00  0.00     0.137 C 
HETATM   11  C3  UNL     1      12.371   2.876  17.926  1.00  0.00     0.041 C 
HETATM   12  C2  UNL     1      11.837   3.832  16.855  1.00  0.00     0.138 C 
HETATM   13  N3  UNL     1      11.090   2.932  15.958  1.00  0.00    -0.273 N 
HETATM   14  C1  UNL     1       9.775   3.147  15.545  1.00  0.00     0.192 C 
HETATM   15  C10 UNL     1      11.826   1.795  15.535  1.00  0.00     0.332 C 
HETATM   16  N1  UNL     1       9.496   3.273  14.300  1.00  0.00    -0.373 N 
HETATM   17  N2  UNL     1       8.729   3.227  16.493  1.00  0.00    -0.063 NA
ATOM     18  H12 UNL     1       8.534   3.430  13.998  1.00  0.00     0.158 HD
ATOM     19  H11 UNL     1      10.251   3.215  13.617  1.00  0.00     0.158 HD
HETATM   20  O1  UNL     1      11.321   1.021  14.674  1.00  0.00    -0.246 OA
ENDBRANCH   1   9
BRANCH   8  21
HETATM   21  N11 UNL     1      13.734  -1.189  16.581  1.00  0.00    -0.382 N 
ATOM     22 2H11 UNL     1      12.743  -1.032  16.764  1.00  0.00     0.157 HD
ATOM     23 1H11 UNL     1      14.300  -1.773  17.197  1.00  0.00     0.157 HD
ENDBRANCH   8  21
BRANCH   4  24
HETATM   24  C7  UNL     1      16.028   1.101  12.159  1.00  0.00     0.165 A 
HETATM   25  N6  UNL     1      16.771   0.523  11.204  1.00  0.00    -0.267 N 
HETATM   26  N7  UNL     1      17.126   1.443  10.313  1.00  0.00    -0.227 N 
ATOM     27  H6  UNL     1      17.023  -0.465  11.167  1.00  0.00     0.190 HD
HETATM   28  N8  UNL     1      16.619   2.598  10.690  1.00  0.00    -0.227 N 
ATOM     29  H7  UNL     1      17.693   1.281   9.481  1.00  0.00     0.210 HD
HETATM   30  N9  UNL     1      15.949   2.400  11.813  1.00  0.00    -0.267 N 
ATOM     31  H8  UNL     1      16.724   3.488  10.202  1.00  0.00     0.210 HD
ATOM     32  H9  UNL     1      15.451   3.119  12.337  1.00  0.00     0.190 HD
ENDBRANCH   4  24
TORSDOF 3
ENDMDL
MODEL 5
REMARK VINA RESULT: -6.704791701      2.267      6.993
REMARK  3 active torsions:
REMARK  status: ('A' for Active; 'I' for Inactive)
REMARK       I    between atoms: C1_4  and  N3_6 
REMARK    1  A    between atoms: N4_10  and  C5_11 
REMARK    2  A    between atoms: C6_14  and  C7_15 
REMARK    3  A    between atoms: C9_27  and  N11_28 
ROOT
HETATM    1  C5  UNL     1      13.520   0.633  14.928  1.00  0.00     0.156 A 
HETATM    2  N5  UNL     1      14.373   1.218  14.020  1.00  0.00    -0.335 N 
ATOM      3  H5  UNL     1      14.545   2.221  14.092  1.00  0.00     0.168 HD
HETATM    4  C6  UNL     1      14.988   0.537  13.048  1.00  0.00     0.096 A 
HETATM    5  C8  UNL     1      14.728  -0.833  12.979  1.00  0.00     0.123 A 
HETATM    6  N10 UNL     1      13.908  -1.450  13.836  1.00  0.00    -0.347 N 
ATOM      7  H10 UNL     1      13.737  -2.453  13.762  1.00  0.00     0.167 HD
HETATM    8  C9  UNL     1      13.301  -0.710  14.816  1.00  0.00     0.144 A 
ENDROOT
BRANCH   1   9
HETATM    9  N4  UNL     1      12.908   1.434  15.929  1.00  0.00    -0.282 N 
HETATM   10  C4  UNL     1      13.448   1.705  17.212  1.00  0.00     0.137 C 
HETATM   11  C3  UNL     1      12.576   2.618  18.055  1.00  0.00     0.041 C 
HETATM   12  C2  UNL     1      12.120   3.805  17.201  1.00  0.00     0.138 C 
HETATM   13  N3  UNL     1      11.143   3.193  16.285  1.00  0.00    -0.273 N 
HETATM   14  C1  UNL     1       9.853   3.679  16.069  1.00  0.00     0.192 C 
HETATM   15  C10 UNL     1      11.620   2.033  15.620  1.00  0.00     0.332 C 
HETATM   16  N1  UNL     1       9.483   4.045  14.898  1.00  0.00    -0.373 N 
HETATM   17  N2  UNL     1       8.934   3.776  17.140  1.00  0.00    -0.063 NA
ATOM     18  H12 UNL     1       8.540   4.402  14.740  1.00  0.00     0.158 HD
ATOM     19  H11 UNL     1      10.146   3.976  14.126  1.00  0.00     0.158 HD
HETATM   20  O1  UNL     1      10.905   1.498  14.727  1.00  0.00    -0.246 OA
ENDBRANCH   1   9
BRANCH   8  21
HETATM   21  N11 UNL     1      12.517  -1.309  15.635  1.00  0.00    -0.382 N 
ATOM     22 2H11 UNL     1      12.042  -0.753  16.346  1.00  0.00     0.157 HD
ATOM     23 1H11 UNL     1      12.376  -2.318  15.570  1.00  0.00     0.157 HD
ENDBRANCH   8  21
BRANCH   4  24
HETATM   24  C7  UNL     1      15.893   1.173  12.098  1.00  0.00     0.165 A 
HETATM   25  N6  UNL     1      15.887   2.423  11.614  1.00  0.00    -0.267 N 
HETATM   26  N7  UNL     1      16.909   2.569  10.776  1.00  0.00    -0.227 N 
ATOM     27  H6  UNL     1      15.207   3.146  11.849  1.00  0.00     0.190 HD
HETATM   28  N8  UNL     1      17.564   1.428  10.723  1.00  0.00    -0.227 N 
ATOM     29  H7  UNL     1      17.145   3.419  10.264  1.00  0.00     0.210 HD
HETATM   30  N9  UNL     1      16.952   0.571  11.524  1.00  0.00    -0.267 N 
ATOM     31  H8  UNL     1      18.395   1.237  10.163  1.00  0.00     0.210 HD
ATOM     32  H9  UNL     1      17.238  -0.395  11.683  1.00  0.00     0.190 HD
ENDBRANCH   4  24
TORSDOF 3
ENDMDL
