MODEL 1
REMARK VINA RESULT: -5.958201473      0.000      0.000
REMARK  4 active torsions:
REMARK  status: ('A' for Active; 'I' for Inactive)
REMARK    1  A    between atoms: N1_1  and  C1_4 
REMARK    2  A    between atoms: C3_9  and  C4_10 
REMARK    3  A    between atoms: C4_10  and  C5_12 
REMARK    4  A    between atoms: C5_12  and  C6_13 
REMARK       I    between atoms: C6_13  and  N5_15 
ROOT
HETATM    1  C1  UNL     1      16.326  -2.101   9.617  1.00  0.00     0.680 A 
HETATM    2  N2  UNL     1      17.174  -1.068   9.735  1.00  0.00    -0.178 N 
ATOM      3  H2  UNL     1      17.525  -0.603   8.898  1.00  0.00     0.185 HD
HETATM    4  C2  UNL     1      17.560  -0.647  10.930  1.00  0.00     0.149 A 
HETATM    5  N3  UNL     1      18.448   0.440  10.994  1.00  0.00    -0.081 NA
HETATM    6  C3  UNL     1      17.077  -1.292  12.110  1.00  0.00     0.098 A 
HETATM    7  C11 UNL     1      16.212  -2.327  11.945  1.00  0.00     0.275 A 
HETATM    8  O3  UNL     1      15.703  -2.935  12.891  1.00  0.00    -0.267 OA
HETATM    9  N6  UNL     1      15.841  -2.730  10.698  1.00  0.00    -0.155 N 
ATOM     10  H6  UNL     1      15.194  -3.510  10.586  1.00  0.00     0.187 HD
ENDROOT
BRANCH   6  11
HETATM   11  C4  UNL     1      17.567  -0.725  13.376  1.00  0.00     0.070 C 
HETATM   12  N4  UNL     1      18.468  -1.623  14.044  1.00  0.00    -0.101 NA
BRANCH  11  13
HETATM   13  C5  UNL     1      16.658   0.003  14.273  1.00  0.00     0.102 C 
BRANCH  13  14
HETATM   14  C6  UNL     1      15.464   0.717  14.006  1.00  0.00     0.252 C 
HETATM   15  O1  UNL     1      15.389   1.617  13.140  1.00  0.00    -0.268 OA
HETATM   16  N5  UNL     1      14.205   0.498  14.687  1.00  0.00    -0.283 N 
HETATM   17  C7  UNL     1      13.101   1.415  14.451  1.00  0.00     0.145 C 
HETATM   18  C10 UNL     1      14.074  -0.676  15.460  1.00  0.00     0.235 C 
HETATM   19  C8  UNL     1      11.907   1.016  15.298  1.00  0.00     0.095 C 
HETATM   20  S1  UNL     1      11.500  -0.684  14.793  1.00  0.00    -0.158 SA
HETATM   21  C9  UNL     1      12.978  -1.676  15.250  1.00  0.00     0.177 C 
HETATM   22  O2  UNL     1      14.908  -0.892  16.370  1.00  0.00    -0.272 OA
ENDBRANCH  13  14
ENDBRANCH  11  13
ENDBRANCH   6  11
BRANCH   1  23
HETATM   23  N1  UNL     1      16.015  -2.560   8.462  1.00  0.00    -0.234 N 
ATOM     24  H12 UNL     1      16.659  -2.392   7.690  1.00  0.00     0.174 HD
ATOM     25  H11 UNL     1      15.121  -3.027   8.313  1.00  0.00     0.174 HD
ENDBRANCH   1  23
TORSDOF 4
ENDMDL
MODEL 2
REMARK VINA RESULT: -5.918106871      3.252      5.132
REMARK  4 active torsions:
REMARK  status: ('A' for Active; 'I' for Inactive)
REMARK    1  A    between atoms: N1_1  and  C1_4 
REMARK    2  A    between atoms: C3_9  and  C4_10 
REMARK    3  A    between atoms: C4_10  and  C5_12 
REMARK    4  A    between atoms: C5_12  and  C6_13 
REMARK       I    between atoms: C6_13  and  N5_15 
ROOT
HETATM    1  C1  UNL     1      16.609   2.096  11.508  1.00  0.00     0.680 A 
HETATM    2  N2  UNL     1      17.584   1.407  10.897  1.00  0.00    -0.178 N 
ATOM      3  H2  UNL     1      18.405   1.899  10.543  1.00  0.00     0.185 HD
HETATM    4  C2  UNL     1      17.492   0.095  10.750  1.00  0.00     0.149 A 
HETATM    5  N3  UNL     1      18.545  -0.575  10.104  1.00  0.00    -0.081 NA
HETATM    6  C3  UNL     1      16.347  -0.604  11.240  1.00  0.00     0.098 A 
HETATM    7  C11 UNL     1      15.386   0.131  11.862  1.00  0.00     0.275 A 
HETATM    8  O3  UNL     1      14.372  -0.370  12.356  1.00  0.00    -0.267 OA
HETATM    9  N6  UNL     1      15.520   1.479  11.992  1.00  0.00    -0.155 N 
ATOM     10  H6  UNL     1      14.792   2.021  12.457  1.00  0.00     0.187 HD
ENDROOT
BRANCH   6  11
HETATM   11  C4  UNL     1      16.366  -2.060  11.029  1.00  0.00     0.070 C 
HETATM   12  N4  UNL     1      15.712  -2.425   9.803  1.00  0.00    -0.101 NA
BRANCH  11  13
HETATM   13  C5  UNL     1      16.121  -2.984  12.146  1.00  0.00     0.102 C 
BRANCH  13  14
HETATM   14  C6  UNL     1      16.741  -3.091  13.416  1.00  0.00     0.252 C 
HETATM   15  O1  UNL     1      16.942  -2.105  14.160  1.00  0.00    -0.268 OA
HETATM   16  N5  UNL     1      17.210  -4.329  14.000  1.00  0.00    -0.283 N 
HETATM   17  C7  UNL     1      17.990  -4.286  15.227  1.00  0.00     0.145 C 
HETATM   18  C10 UNL     1      16.777  -5.536  13.409  1.00  0.00     0.235 C 
HETATM   19  C8  UNL     1      18.404  -5.690  15.626  1.00  0.00     0.095 C 
HETATM   20  S1  UNL     1      16.851  -6.612  15.840  1.00  0.00    -0.158 SA
HETATM   21  C9  UNL     1      16.074  -6.616  14.175  1.00  0.00     0.177 C 
HETATM   22  O2  UNL     1      16.997  -5.720  12.189  1.00  0.00    -0.272 OA
ENDBRANCH  13  14
ENDBRANCH  11  13
ENDBRANCH   6  11
BRANCH   1  23
HETATM   23  N1  UNL     1      16.660   3.374  11.580  1.00  0.00    -0.234 N 
ATOM     24  H12 UNL     1      17.499   3.799  11.974  1.00  0.00     0.174 HD
ATOM     25  H11 UNL     1      15.859   3.942  11.304  1.00  0.00     0.174 HD
ENDBRANCH   1  23
TORSDOF 4
ENDMDL
MODEL 3
REMARK VINA RESULT: -5.897834764      1.193      1.200
REMARK  4 active torsions:
REMARK  status: ('A' for Active; 'I' for Inactive)
REMARK    1  A    between atoms: N1_1  and  C1_4 
REMARK    2  A    between atoms: C3_9  and  C4_10 
REMARK    3  A    between atoms: C4_10  and  C5_12 
REMARK    4  A    between atoms: C5_12  and  C6_13 
REMARK       I    between atoms: C6_13  and  N5_15 
ROOT
HETATM    1  C1  UNL     1      16.404  -2.065   9.667  1.00  0.00     0.680 A 
HETATM    2  N2  UNL     1      17.145  -0.960   9.839  1.00  0.00    -0.178 N 
ATOM      3  H2  UNL     1      17.441  -0.417   9.028  1.00  0.00     0.185 HD
HETATM    4  C2  UNL     1      17.496  -0.568  11.055  1.00  0.00     0.149 A 
HETATM    5  N3  UNL     1      18.271   0.598  11.176  1.00  0.00    -0.081 NA
HETATM    6  C3  UNL     1      17.090  -1.321  12.198  1.00  0.00     0.098 A 
HETATM    7  C11 UNL     1      16.331  -2.428  11.979  1.00  0.00     0.275 A 
HETATM    8  O3  UNL     1      15.893  -3.134  12.891  1.00  0.00    -0.267 OA
HETATM    9  N6  UNL     1      15.993  -2.797  10.713  1.00  0.00    -0.155 N 
ATOM     10  H6  UNL     1      15.426  -3.631  10.559  1.00  0.00     0.187 HD
ENDROOT
BRANCH   6  11
HETATM   11  C4  UNL     1      17.531  -0.777  13.492  1.00  0.00     0.070 C 
HETATM   12  N4  UNL     1      18.587  -1.565  14.064  1.00  0.00    -0.101 NA
BRANCH  11  13
HETATM   13  C5  UNL     1      16.551  -0.275  14.467  1.00  0.00     0.102 C 
BRANCH  13  14
HETATM   14  C6  UNL     1      15.314   0.391  14.282  1.00  0.00     0.252 C 
HETATM   15  O1  UNL     1      14.809   0.586  13.154  1.00  0.00    -0.268 OA
HETATM   16  N5  UNL     1      14.495   0.916  15.354  1.00  0.00    -0.283 N 
HETATM   17  C7  UNL     1      13.338   1.735  15.028  1.00  0.00     0.145 C 
HETATM   18  C10 UNL     1      14.794   0.500  16.669  1.00  0.00     0.235 C 
HETATM   19  C8  UNL     1      12.662   2.205  16.303  1.00  0.00     0.095 C 
HETATM   20  S1  UNL     1      12.192   0.688  17.191  1.00  0.00    -0.158 SA
HETATM   21  C9  UNL     1      13.786  -0.144  17.573  1.00  0.00     0.177 C 
HETATM   22  O2  UNL     1      15.953   0.684  17.109  1.00  0.00    -0.272 OA
ENDBRANCH  13  14
ENDBRANCH  11  13
ENDBRANCH   6  11
BRANCH   1  23
HETATM   23  N1  UNL     1      16.131  -2.489   8.489  1.00  0.00    -0.234 N 
ATOM     24  H12 UNL     1      16.907  -2.658   7.848  1.00  0.00     0.174 HD
ATOM     25  H11 UNL     1      15.163  -2.598   8.188  1.00  0.00     0.174 HD
ENDBRANCH   1  23
TORSDOF 4
ENDMDL
MODEL 4
REMARK VINA RESULT: -5.829145082      0.867      1.853
REMARK  4 active torsions:
REMARK  status: ('A' for Active; 'I' for Inactive)
REMARK    1  A    between atoms: N1_1  and  C1_4 
REMARK    2  A    between atoms: C3_9  and  C4_10 
REMARK    3  A    between atoms: C4_10  and  C5_12 
REMARK    4  A    between atoms: C5_12  and  C6_13 
REMARK       I    between atoms: C6_13  and  N5_15 
ROOT
HETATM    1  C1  UNL     1      16.400  -2.039   9.783  1.00  0.00     0.680 A 
HETATM    2  N2  UNL     1      17.124  -0.928   9.985  1.00  0.00    -0.178 N 
ATOM      3  H2  UNL     1      17.383  -0.341   9.192  1.00  0.00     0.185 HD
HETATM    4  C2  UNL     1      17.506  -0.587  11.206  1.00  0.00     0.149 A 
HETATM    5  N3  UNL     1      18.262   0.588  11.359  1.00  0.00    -0.081 NA
HETATM    6  C3  UNL     1      17.152  -1.402  12.324  1.00  0.00     0.098 A 
HETATM    7  C11 UNL     1      16.409  -2.513  12.076  1.00  0.00     0.275 A 
HETATM    8  O3  UNL     1      16.015  -3.270  12.967  1.00  0.00    -0.267 OA
HETATM    9  N6  UNL     1      16.037  -2.829  10.805  1.00  0.00    -0.155 N 
ATOM     10  H6  UNL     1      15.482  -3.667  10.629  1.00  0.00     0.187 HD
ENDROOT
BRANCH   6  11
HETATM   11  C4  UNL     1      17.624  -0.911  13.628  1.00  0.00     0.070 C 
HETATM   12  N4  UNL     1      18.637  -1.766  14.180  1.00  0.00    -0.101 NA
BRANCH  11  13
HETATM   13  C5  UNL     1      16.674  -0.378  14.617  1.00  0.00     0.102 C 
BRANCH  13  14
HETATM   14  C6  UNL     1      15.578  -0.988  15.275  1.00  0.00     0.252 C 
HETATM   15  O1  UNL     1      15.715  -1.887  16.134  1.00  0.00    -0.268 OA
HETATM   16  N5  UNL     1      14.190  -0.654  15.041  1.00  0.00    -0.283 N 
HETATM   17  C7  UNL     1      13.150  -1.473  15.644  1.00  0.00     0.145 C 
HETATM   18  C10 UNL     1      13.913   0.536  14.333  1.00  0.00     0.235 C 
HETATM   19  C8  UNL     1      11.782  -0.962  15.228  1.00  0.00     0.095 C 
HETATM   20  S1  UNL     1      11.712   0.760  15.808  1.00  0.00    -0.158 SA
HETATM   21  C9  UNL     1      13.036   1.625  14.873  1.00  0.00     0.177 C 
HETATM   22  O2  UNL     1      14.416   0.688  13.195  1.00  0.00    -0.272 OA
ENDBRANCH  13  14
ENDBRANCH  11  13
ENDBRANCH   6  11
BRANCH   1  23
HETATM   23  N1  UNL     1      16.097  -2.413   8.595  1.00  0.00    -0.234 N 
ATOM     24  H12 UNL     1      16.859  -2.596   7.942  1.00  0.00     0.174 HD
ATOM     25  H11 UNL     1      15.123  -2.468   8.301  1.00  0.00     0.174 HD
ENDBRANCH   1  23
TORSDOF 4
ENDMDL
MODEL 5
REMARK VINA RESULT: -5.728756807      2.715      4.157
REMARK  4 active torsions:
REMARK  status: ('A' for Active; 'I' for Inactive)
REMARK    1  A    between atoms: N1_1  and  C1_4 
REMARK    2  A    between atoms: C3_9  and  C4_10 
REMARK    3  A    between atoms: C4_10  and  C5_12 
REMARK    4  A    between atoms: C5_12  and  C6_13 
REMARK       I    between atoms: C6_13  and  N5_15 
ROOT
HETATM    1  C1  UNL     1      16.637   2.146  11.458  1.00  0.00     0.680 A 
HETATM    2  N2  UNL     1      17.633   1.423  10.925  1.00  0.00    -0.178 N 
ATOM      3  H2  UNL     1      18.490   1.887  10.623  1.00  0.00     0.185 HD
HETATM    4  C2  UNL     1      17.514   0.111  10.789  1.00  0.00     0.149 A 
HETATM    5  N3  UNL     1      18.591  -0.596  10.227  1.00  0.00    -0.081 NA
HETATM    6  C3  UNL     1      16.319  -0.549  11.207  1.00  0.00     0.098 A 
HETATM    7  C11 UNL     1      15.338   0.221  11.750  1.00  0.00     0.275 A 
HETATM    8  O3  UNL     1      14.279  -0.245  12.178  1.00  0.00    -0.267 OA
HETATM    9  N6  UNL     1      15.500   1.567  11.872  1.00  0.00    -0.155 N 
ATOM     10  H6  UNL     1      14.757   2.135  12.277  1.00  0.00     0.187 HD
ENDROOT
BRANCH   6  11
HETATM   11  C4  UNL     1      16.312  -2.008  11.016  1.00  0.00     0.070 C 
HETATM   12  N4  UNL     1      15.466  -2.394   9.921  1.00  0.00    -0.101 NA
BRANCH  11  13
HETATM   13  C5  UNL     1      16.261  -2.915  12.172  1.00  0.00     0.102 C 
BRANCH  13  14
HETATM   14  C6  UNL     1      15.517  -2.845  13.376  1.00  0.00     0.252 C 
HETATM   15  O1  UNL     1      14.312  -3.174  13.450  1.00  0.00    -0.268 OA
HETATM   16  N5  UNL     1      16.047  -2.395  14.645  1.00  0.00    -0.283 N 
HETATM   17  C7  UNL     1      15.139  -2.198  15.764  1.00  0.00     0.145 C 
HETATM   18  C10 UNL     1      17.449  -2.287  14.767  1.00  0.00     0.235 C 
HETATM   19  C8  UNL     1      15.907  -1.687  16.969  1.00  0.00     0.095 C 
HETATM   20  S1  UNL     1      17.157  -2.960  17.324  1.00  0.00    -0.158 SA
HETATM   21  C9  UNL     1      18.234  -2.988  15.835  1.00  0.00     0.177 C 
HETATM   22  O2  UNL     1      18.070  -1.566  13.952  1.00  0.00    -0.272 OA
ENDBRANCH  13  14
ENDBRANCH  11  13
ENDBRANCH   6  11
BRANCH   1  23
HETATM   23  N1  UNL     1      16.719   3.424  11.517  1.00  0.00    -0.234 N 
ATOM     24  H12 UNL     1      15.997   3.973  11.050  1.00  0.00     0.174 HD
ATOM     25  H11 UNL     1      17.515   3.873  11.969  1.00  0.00     0.174 HD
ENDBRANCH   1  23
TORSDOF 4
ENDMDL
