MODEL 1
REMARK VINA RESULT: -5.916630324      0.000      0.000
REMARK  5 active torsions:
REMARK  status: ('A' for Active; 'I' for Inactive)
REMARK    1  A    between atoms: C2_2  and  N1_3 
REMARK       I    between atoms: N1_3  and  C3_5 
REMARK    2  A    between atoms: C3_5  and  C4_7 
REMARK    3  A    between atoms: C4_7  and  N2_9 
REMARK    4  A    between atoms: N2_9  and  C6_11 
REMARK    5  A    between atoms: N4_20  and  N5_21 
ROOT
HETATM    1  C6  UNL     1     -13.795   2.437 -13.695  1.00  0.00     0.683 A 
HETATM    2  N3  UNL     1     -14.548   1.844 -14.628  1.00  0.00    -0.155 N 
ATOM      3  H3  UNL     1     -15.357   1.273 -14.385  1.00  0.00     0.187 HD
HETATM    4  C7  UNL     1     -14.175   2.047 -15.909  1.00  0.00     0.280 A 
HETATM    5  O2  UNL     1     -14.808   1.542 -16.861  1.00  0.00    -0.266 OA
HETATM    6  C8  UNL     1     -13.054   2.841 -16.196  1.00  0.00     0.125 A 
HETATM    7  S1  UNL     1     -12.263   3.338 -17.624  1.00  0.00    -0.018 SA
HETATM    8  C9  UNL     1     -11.027   4.267 -16.913  1.00  0.00     0.311 A 
HETATM    9  O3  UNL     1     -10.104   4.901 -17.511  1.00  0.00    -0.258 OA
HETATM   10  N4  UNL     1     -11.268   4.160 -15.611  1.00  0.00    -0.202 N 
HETATM   11  C10 UNL     1     -12.300   3.436 -15.227  1.00  0.00     0.168 A 
HETATM   12  N6  UNL     1     -12.721   3.198 -13.941  1.00  0.00    -0.173 N 
ATOM     13  H6  UNL     1     -12.208   3.608 -13.161  1.00  0.00     0.186 HD
ENDROOT
BRANCH   1  14
HETATM   14  N2  UNL     1     -14.133   2.255 -12.463  1.00  0.00    -0.213 N 
ATOM     15  H2  UNL     1     -13.387   2.021 -11.808  1.00  0.00     0.178 HD
BRANCH  14  16
HETATM   16  C4  UNL     1     -15.442   2.352 -11.937  1.00  0.00     0.187 C 
HETATM   17  C5  UNL     1     -15.638   3.506 -10.965  1.00  0.00     0.043 C 
BRANCH  16  18
HETATM   18  C3  UNL     1     -15.685   1.097 -11.138  1.00  0.00     0.240 C 
HETATM   19  N1  UNL     1     -14.692   0.102 -10.976  1.00  0.00    -0.360 N 
ATOM     20  H1  UNL     1     -13.780   0.237 -11.413  1.00  0.00     0.162 HD
HETATM   21  O1  UNL     1     -16.799   0.909 -10.590  1.00  0.00    -0.271 OA
BRANCH  19  22
HETATM   22  C2  UNL     1     -14.929  -1.096 -10.212  1.00  0.00     0.118 C 
HETATM   23  C1  UNL     1     -13.800  -1.242  -9.215  1.00  0.00     0.026 C 
ENDBRANCH  19  22
ENDBRANCH  16  18
ENDBRANCH  14  16
ENDBRANCH   1  14
BRANCH  10  24
HETATM   24  N5  UNL     1     -10.376   4.850 -14.713  1.00  0.00    -0.334 N 
ATOM     25  H52 UNL     1      -9.459   5.213 -14.975  1.00  0.00     0.177 HD
ATOM     26  H51 UNL     1     -10.687   4.981 -13.750  1.00  0.00     0.177 HD
ENDBRANCH  10  24
TORSDOF 5
ENDMDL
MODEL 2
REMARK VINA RESULT: -5.883139953      1.317      2.856
REMARK  5 active torsions:
REMARK  status: ('A' for Active; 'I' for Inactive)
REMARK    1  A    between atoms: C2_2  and  N1_3 
REMARK       I    between atoms: N1_3  and  C3_5 
REMARK    2  A    between atoms: C3_5  and  C4_7 
REMARK    3  A    between atoms: C4_7  and  N2_9 
REMARK    4  A    between atoms: N2_9  and  C6_11 
REMARK    5  A    between atoms: N4_20  and  N5_21 
ROOT
HETATM    1  C6  UNL     1     -13.584   2.592 -13.728  1.00  0.00     0.683 A 
HETATM    2  N3  UNL     1     -12.425   3.242 -13.881  1.00  0.00    -0.155 N 
ATOM      3  H3  UNL     1     -11.865   3.541 -13.084  1.00  0.00     0.187 HD
HETATM    4  C7  UNL     1     -12.041   3.480 -15.154  1.00  0.00     0.280 A 
HETATM    5  O2  UNL     1     -10.975   4.079 -15.412  1.00  0.00    -0.266 OA
HETATM    6  C8  UNL     1     -12.846   3.051 -16.221  1.00  0.00     0.125 A 
HETATM    7  S1  UNL     1     -12.739   3.143 -17.922  1.00  0.00    -0.018 SA
HETATM    8  C9  UNL     1     -14.190   2.340 -18.305  1.00  0.00     0.311 A 
HETATM    9  O3  UNL     1     -14.652   2.103 -19.463  1.00  0.00    -0.258 OA
HETATM   10  N4  UNL     1     -14.699   2.034 -17.116  1.00  0.00    -0.202 N 
HETATM   11  C10 UNL     1     -14.025   2.390 -16.041  1.00  0.00     0.168 A 
HETATM   12  N6  UNL     1     -14.370   2.173 -14.729  1.00  0.00    -0.173 N 
ATOM     13  H6  UNL     1     -15.239   1.685 -14.513  1.00  0.00     0.186 HD
ENDROOT
BRANCH   1  14
HETATM   14  N2  UNL     1     -13.971   2.355 -12.521  1.00  0.00    -0.213 N 
ATOM     15  H2  UNL     1     -13.263   2.024 -11.865  1.00  0.00     0.178 HD
BRANCH  14  16
HETATM   16  C4  UNL     1     -15.284   2.510 -12.022  1.00  0.00     0.187 C 
HETATM   17  C5  UNL     1     -15.439   3.644 -11.019  1.00  0.00     0.043 C 
BRANCH  16  18
HETATM   18  C3  UNL     1     -15.617   1.248 -11.269  1.00  0.00     0.240 C 
HETATM   19  N1  UNL     1     -14.669   0.216 -11.068  1.00  0.00    -0.360 N 
ATOM     20  H1  UNL     1     -13.728   0.330 -11.446  1.00  0.00     0.162 HD
HETATM   21  O1  UNL     1     -16.769   1.086 -10.795  1.00  0.00    -0.271 OA
BRANCH  19  22
HETATM   22  C2  UNL     1     -14.992  -0.989 -10.349  1.00  0.00     0.118 C 
HETATM   23  C1  UNL     1     -13.899  -1.228  -9.329  1.00  0.00     0.026 C 
ENDBRANCH  19  22
ENDBRANCH  16  18
ENDBRANCH  14  16
ENDBRANCH   1  14
BRANCH  10  24
HETATM   24  N5  UNL     1     -15.958   1.331 -17.094  1.00  0.00    -0.334 N 
ATOM     25  H52 UNL     1     -16.110   0.434 -16.635  1.00  0.00     0.177 HD
ATOM     26  H51 UNL     1     -16.746   1.767 -17.573  1.00  0.00     0.177 HD
ENDBRANCH  10  24
TORSDOF 5
ENDMDL
MODEL 3
REMARK VINA RESULT: -5.773266511      2.473      3.520
REMARK  5 active torsions:
REMARK  status: ('A' for Active; 'I' for Inactive)
REMARK    1  A    between atoms: C2_2  and  N1_3 
REMARK       I    between atoms: N1_3  and  C3_5 
REMARK    2  A    between atoms: C3_5  and  C4_7 
REMARK    3  A    between atoms: C4_7  and  N2_9 
REMARK    4  A    between atoms: N2_9  and  C6_11 
REMARK    5  A    between atoms: N4_20  and  N5_21 
ROOT
HETATM    1  C6  UNL     1     -14.221  -1.002 -13.341  1.00  0.00     0.683 A 
HETATM    2  N3  UNL     1     -15.258  -1.283 -14.137  1.00  0.00    -0.155 N 
ATOM      3  H3  UNL     1     -16.089  -1.764 -13.792  1.00  0.00     0.187 HD
HETATM    4  C7  UNL     1     -15.142  -0.893 -15.425  1.00  0.00     0.280 A 
HETATM    5  O2  UNL     1     -16.052  -1.104 -16.255  1.00  0.00    -0.266 OA
HETATM    6  C8  UNL     1     -13.979  -0.235 -15.855  1.00  0.00     0.125 A 
HETATM    7  S1  UNL     1     -13.439   0.406 -17.342  1.00  0.00    -0.018 SA
HETATM    8  C9  UNL     1     -11.924   0.984 -16.827  1.00  0.00     0.311 A 
HETATM    9  O3  UNL     1     -11.050   1.577 -17.531  1.00  0.00    -0.258 OA
HETATM   10  N4  UNL     1     -11.891   0.663 -15.537  1.00  0.00    -0.202 N 
HETATM   11  C10 UNL     1     -12.933   0.041 -15.025  1.00  0.00     0.168 A 
HETATM   12  N6  UNL     1     -13.102  -0.377 -13.727  1.00  0.00    -0.173 N 
ATOM     13  H6  UNL     1     -12.362  -0.207 -13.046  1.00  0.00     0.186 HD
ENDROOT
BRANCH   1  14
HETATM   14  N2  UNL     1     -14.311  -1.367 -12.107  1.00  0.00    -0.213 N 
ATOM     15  H2  UNL     1     -14.547  -2.343 -11.929  1.00  0.00     0.178 HD
BRANCH  14  16
HETATM   16  C4  UNL     1     -14.113  -0.539 -10.978  1.00  0.00     0.187 C 
HETATM   17  C5  UNL     1     -14.206  -1.268  -9.647  1.00  0.00     0.043 C 
BRANCH  16  18
HETATM   18  C3  UNL     1     -15.234   0.469 -10.975  1.00  0.00     0.240 C 
HETATM   19  N1  UNL     1     -15.046   1.809 -11.391  1.00  0.00    -0.360 N 
ATOM     20  H1  UNL     1     -14.121   2.104 -11.705  1.00  0.00     0.162 HD
HETATM   21  O1  UNL     1     -16.381   0.129 -10.593  1.00  0.00    -0.271 OA
BRANCH  19  22
HETATM   22  C2  UNL     1     -16.120   2.768 -11.385  1.00  0.00     0.118 C 
HETATM   23  C1  UNL     1     -15.507   4.151 -11.418  1.00  0.00     0.026 C 
ENDBRANCH  19  22
ENDBRANCH  16  18
ENDBRANCH  14  16
ENDBRANCH   1  14
BRANCH  10  24
HETATM   24  N5  UNL     1     -10.709   1.025 -14.794  1.00  0.00    -0.334 N 
ATOM     25  H52 UNL     1      -9.827   1.312 -15.217  1.00  0.00     0.177 HD
ATOM     26  H51 UNL     1     -10.766   0.989 -13.777  1.00  0.00     0.177 HD
ENDBRANCH  10  24
TORSDOF 5
ENDMDL
MODEL 4
REMARK VINA RESULT: -5.674719993      1.889      2.074
REMARK  5 active torsions:
REMARK  status: ('A' for Active; 'I' for Inactive)
REMARK    1  A    between atoms: C2_2  and  N1_3 
REMARK       I    between atoms: N1_3  and  C3_5 
REMARK    2  A    between atoms: C3_5  and  C4_7 
REMARK    3  A    between atoms: C4_7  and  N2_9 
REMARK    4  A    between atoms: N2_9  and  C6_11 
REMARK    5  A    between atoms: N4_20  and  N5_21 
ROOT
HETATM    1  C6  UNL     1     -14.619   1.735 -14.252  1.00  0.00     0.683 A 
HETATM    2  N3  UNL     1     -15.499   0.801 -14.628  1.00  0.00    -0.155 N 
ATOM      3  H3  UNL     1     -16.053   0.278 -13.951  1.00  0.00     0.187 HD
HETATM    4  C7  UNL     1     -15.610   0.590 -15.957  1.00  0.00     0.280 A 
HETATM    5  O2  UNL     1     -16.403  -0.259 -16.419  1.00  0.00    -0.266 OA
HETATM    6  C8  UNL     1     -14.826   1.333 -16.853  1.00  0.00     0.125 A 
HETATM    7  S1  UNL     1     -14.659   1.384 -18.551  1.00  0.00    -0.018 SA
HETATM    8  C9  UNL     1     -13.472   2.600 -18.646  1.00  0.00     0.311 A 
HETATM    9  O3  UNL     1     -12.940   3.072 -19.698  1.00  0.00    -0.258 OA
HETATM   10  N4  UNL     1     -13.250   2.919 -17.375  1.00  0.00    -0.202 N 
HETATM   11  C10 UNL     1     -13.934   2.282 -16.446  1.00  0.00     0.168 A 
HETATM   12  N6  UNL     1     -13.859   2.457 -15.086  1.00  0.00    -0.173 N 
ATOM     13  H6  UNL     1     -13.214   3.148 -14.705  1.00  0.00     0.186 HD
ENDROOT
BRANCH   1  14
HETATM   14  N2  UNL     1     -14.496   1.952 -12.987  1.00  0.00    -0.213 N 
ATOM     15  H2  UNL     1     -13.556   1.888 -12.596  1.00  0.00     0.178 HD
BRANCH  14  16
HETATM   16  C4  UNL     1     -15.543   2.269 -12.091  1.00  0.00     0.187 C 
HETATM   17  C5  UNL     1     -15.220   3.407 -11.134  1.00  0.00     0.043 C 
BRANCH  16  18
HETATM   18  C3  UNL     1     -15.760   1.054 -11.226  1.00  0.00     0.240 C 
HETATM   19  N1  UNL     1     -14.784   0.038 -11.093  1.00  0.00    -0.360 N 
ATOM     20  H1  UNL     1     -13.903   0.130 -11.598  1.00  0.00     0.162 HD
HETATM   21  O1  UNL     1     -16.837   0.920 -10.594  1.00  0.00    -0.271 OA
BRANCH  19  22
HETATM   22  C2  UNL     1     -14.997  -1.121 -10.266  1.00  0.00     0.118 C 
HETATM   23  C1  UNL     1     -13.851  -1.206  -9.281  1.00  0.00     0.026 C 
ENDBRANCH  19  22
ENDBRANCH  16  18
ENDBRANCH  14  16
ENDBRANCH   1  14
BRANCH  10  24
HETATM   24  N5  UNL     1     -12.273   3.945 -17.110  1.00  0.00    -0.334 N 
ATOM     25  H52 UNL     1     -12.447   4.776 -16.544  1.00  0.00     0.177 HD
ATOM     26  H51 UNL     1     -11.346   3.827 -17.518  1.00  0.00     0.177 HD
ENDBRANCH  10  24
TORSDOF 5
ENDMDL
MODEL 5
REMARK VINA RESULT: -5.576769843      2.875      4.594
REMARK  5 active torsions:
REMARK  status: ('A' for Active; 'I' for Inactive)
REMARK    1  A    between atoms: C2_2  and  N1_3 
REMARK       I    between atoms: N1_3  and  C3_5 
REMARK    2  A    between atoms: C3_5  and  C4_7 
REMARK    3  A    between atoms: C4_7  and  N2_9 
REMARK    4  A    between atoms: N2_9  and  C6_11 
REMARK    5  A    between atoms: N4_20  and  N5_21 
ROOT
HETATM    1  C6  UNL     1     -14.717   1.138 -14.496  1.00  0.00     0.683 A 
HETATM    2  N3  UNL     1     -14.720   1.978 -15.536  1.00  0.00    -0.155 N 
ATOM      3  H3  UNL     1     -14.507   2.970 -15.429  1.00  0.00     0.187 HD
HETATM    4  C7  UNL     1     -15.022   1.437 -16.736  1.00  0.00     0.280 A 
HETATM    5  O2  UNL     1     -15.052   2.131 -17.775  1.00  0.00    -0.266 OA
HETATM    6  C8  UNL     1     -15.310   0.067 -16.835  1.00  0.00     0.125 A 
HETATM    7  S1  UNL     1     -15.726  -0.986 -18.111  1.00  0.00    -0.018 SA
HETATM    8  C9  UNL     1     -15.865  -2.424 -17.211  1.00  0.00     0.311 A 
HETATM    9  O3  UNL     1     -16.165  -3.577 -17.649  1.00  0.00    -0.258 OA
HETATM   10  N4  UNL     1     -15.587  -2.041 -15.968  1.00  0.00    -0.202 N 
HETATM   11  C10 UNL     1     -15.301  -0.771 -15.759  1.00  0.00     0.168 A 
HETATM   12  N6  UNL     1     -14.989  -0.172 -14.563  1.00  0.00    -0.173 N 
ATOM     13  H6  UNL     1     -14.963  -0.734 -13.713  1.00  0.00     0.186 HD
ENDROOT
BRANCH   1  14
HETATM   14  N2  UNL     1     -14.432   1.634 -13.339  1.00  0.00    -0.213 N 
ATOM     15  H2  UNL     1     -13.453   1.608 -13.054  1.00  0.00     0.178 HD
BRANCH  14  16
HETATM   16  C4  UNL     1     -15.350   2.209 -12.431  1.00  0.00     0.187 C 
HETATM   17  C5  UNL     1     -14.790   3.379 -11.637  1.00  0.00     0.043 C 
BRANCH  16  18
HETATM   18  C3  UNL     1     -15.683   1.146 -11.416  1.00  0.00     0.240 C 
HETATM   19  N1  UNL     1     -14.768   0.125 -11.063  1.00  0.00    -0.360 N 
ATOM     20  H1  UNL     1     -13.851   0.108 -11.510  1.00  0.00     0.162 HD
HETATM   21  O1  UNL     1     -16.805   1.147 -10.852  1.00  0.00    -0.271 OA
BRANCH  19  22
HETATM   22  C2  UNL     1     -15.091  -0.888 -10.093  1.00  0.00     0.118 C 
HETATM   23  C1  UNL     1     -13.822  -1.238  -9.346  1.00  0.00     0.026 C 
ENDBRANCH  19  22
ENDBRANCH  16  18
ENDBRANCH  14  16
ENDBRANCH   1  14
BRANCH  10  24
HETATM   24  N5  UNL     1     -15.621  -3.050 -14.940  1.00  0.00    -0.334 N 
ATOM     25  H52 UNL     1     -14.794  -3.460 -14.506  1.00  0.00     0.177 HD
ATOM     26  H51 UNL     1     -16.537  -3.372 -14.628  1.00  0.00     0.177 HD
ENDBRANCH  10  24
TORSDOF 5
ENDMDL
