MODEL 1
REMARK VINA RESULT: -5.857200810      0.000      0.000
REMARK  4 active torsions:
REMARK  status: ('A' for Active; 'I' for Inactive)
REMARK    1  A    between atoms: C2_2  and  C3_3 
REMARK    2  A    between atoms: C3_3  and  C4_4 
REMARK    3  A    between atoms: C4_4  and  S1_5 
REMARK    4  A    between atoms: C8_15  and  N3_16 
ROOT
HETATM    1  C3  UNL     1     -13.501   0.003 -14.723  1.00  0.00     0.150 C 
HETATM    2  N1  UNL     1     -14.538  -0.070 -13.712  1.00  0.00    -0.360 N 
ATOM      3  H1  UNL     1     -15.037  -0.950 -13.579  1.00  0.00     0.161 HD
HETATM    4  C6  UNL     1     -14.885   1.052 -12.896  1.00  0.00     0.151 A 
HETATM    5  C7  UNL     1     -13.954   2.063 -12.776  1.00  0.00     0.198 A 
HETATM    6  N2  UNL     1     -14.281   3.120 -12.007  1.00  0.00    -0.168 N 
ATOM      7  H2  UNL     1     -13.611   3.882 -11.902  1.00  0.00     0.186 HD
HETATM    8  C8  UNL     1     -15.476   3.202 -11.366  1.00  0.00     0.680 A 
HETATM    9  N4  UNL     1     -16.374   2.208 -11.493  1.00  0.00    -0.154 N 
ATOM     10  H4  UNL     1     -17.270   2.276 -11.010  1.00  0.00     0.187 HD
HETATM   11  C9  UNL     1     -16.109   1.123 -12.248  1.00  0.00     0.290 A 
HETATM   12  O3  UNL     1     -16.958   0.193 -12.363  1.00  0.00    -0.265 OA
HETATM   13  O4  UNL     1     -12.739   1.956 -13.439  1.00  0.00    -0.256 OA
HETATM   14  C10 UNL     1     -12.422   0.860 -14.225  1.00  0.00     0.298 C 
HETATM   15  O5  UNL     1     -11.207   0.590 -14.521  1.00  0.00    -0.262 OA
ENDROOT
BRANCH   1  16
HETATM   16  C2  UNL     1     -12.981  -1.407 -14.859  1.00  0.00     0.005 C 
HETATM   17  C1  UNL     1     -13.237  -2.300 -13.933  1.00  0.00     0.010 C 
ENDBRANCH   1  16
BRANCH   1  18
HETATM   18  C4  UNL     1     -14.127   0.460 -15.993  1.00  0.00     0.185 C 
BRANCH  18  19
HETATM   19  S1  UNL     1     -15.712  -0.196 -16.338  1.00  0.00     0.143 S 
HETATM   20  C5  UNL     1     -15.995  -0.055 -18.109  1.00  0.00     0.161 C 
HETATM   21  O1  UNL     1     -15.884  -1.621 -15.983  1.00  0.00    -0.228 OA
HETATM   22  O2  UNL     1     -16.821   0.583 -15.689  1.00  0.00    -0.228 OA
ENDBRANCH  18  19
ENDBRANCH   1  18
BRANCH   8  23
HETATM   23  N3  UNL     1     -15.765   4.240 -10.627  1.00  0.00    -0.234 N 
ATOM     24  H32 UNL     1     -15.030   4.684 -10.076  1.00  0.00     0.174 HD
ATOM     25  H31 UNL     1     -16.716   4.608 -10.597  1.00  0.00     0.174 HD
ENDBRANCH   8  23
TORSDOF 4
ENDMDL
MODEL 2
REMARK VINA RESULT: -5.750456498      1.393      1.645
REMARK  4 active torsions:
REMARK  status: ('A' for Active; 'I' for Inactive)
REMARK    1  A    between atoms: C2_2  and  C3_3 
REMARK    2  A    between atoms: C3_3  and  C4_4 
REMARK    3  A    between atoms: C4_4  and  S1_5 
REMARK    4  A    between atoms: C8_15  and  N3_16 
ROOT
HETATM    1  C3  UNL     1     -14.144  -0.970 -13.866  1.00  0.00     0.150 C 
HETATM    2  N1  UNL     1     -14.762  -0.745 -12.573  1.00  0.00    -0.360 N 
ATOM      3  H1  UNL     1     -14.996  -1.549 -11.991  1.00  0.00     0.161 HD
HETATM    4  C6  UNL     1     -15.053   0.569 -12.088  1.00  0.00     0.151 A 
HETATM    5  C7  UNL     1     -14.364   1.622 -12.653  1.00  0.00     0.198 A 
HETATM    6  N2  UNL     1     -14.639   2.859 -12.195  1.00  0.00    -0.168 N 
ATOM      7  H2  UNL     1     -14.144   3.657 -12.597  1.00  0.00     0.186 HD
HETATM    8  C8  UNL     1     -15.554   3.079 -11.216  1.00  0.00     0.680 A 
HETATM    9  N4  UNL     1     -16.218   2.040 -10.674  1.00  0.00    -0.154 N 
ATOM     10  H4  UNL     1     -16.904   2.212  -9.939  1.00  0.00     0.187 HD
HETATM   11  C9  UNL     1     -15.990   0.778 -11.088  1.00  0.00     0.290 A 
HETATM   12  O3  UNL     1     -16.617  -0.193 -10.574  1.00  0.00    -0.265 OA
HETATM   13  O4  UNL     1     -13.433   1.373 -13.652  1.00  0.00    -0.256 OA
HETATM   14  C10 UNL     1     -13.165   0.092 -14.108  1.00  0.00     0.298 C 
HETATM   15  O5  UNL     1     -12.082  -0.171 -14.735  1.00  0.00    -0.262 OA
ENDROOT
BRANCH   1  16
HETATM   16  C2  UNL     1     -13.414  -2.285 -13.732  1.00  0.00     0.005 C 
HETATM   17  C1  UNL     1     -14.077  -3.389 -13.485  1.00  0.00     0.010 C 
ENDBRANCH   1  16
BRANCH   1  18
HETATM   18  C4  UNL     1     -15.225  -1.068 -14.882  1.00  0.00     0.185 C 
BRANCH  18  19
HETATM   19  S1  UNL     1     -14.701  -1.074 -16.552  1.00  0.00     0.143 S 
HETATM   20  C5  UNL     1     -16.089  -1.608 -17.565  1.00  0.00     0.161 C 
HETATM   21  O1  UNL     1     -14.267   0.240 -17.070  1.00  0.00    -0.228 OA
HETATM   22  O2  UNL     1     -13.604  -2.066 -16.817  1.00  0.00    -0.228 OA
ENDBRANCH  18  19
ENDBRANCH   1  18
BRANCH   8  23
HETATM   23  N3  UNL     1     -15.799   4.291 -10.793  1.00  0.00    -0.234 N 
ATOM     24  H32 UNL     1     -15.444   5.088 -11.321  1.00  0.00     0.174 HD
ATOM     25  H31 UNL     1     -16.339   4.444  -9.941  1.00  0.00     0.174 HD
ENDBRANCH   8  23
TORSDOF 4
ENDMDL
MODEL 3
REMARK VINA RESULT: -5.677631208      1.320      1.385
REMARK  4 active torsions:
REMARK  status: ('A' for Active; 'I' for Inactive)
REMARK    1  A    between atoms: C2_2  and  C3_3 
REMARK    2  A    between atoms: C3_3  and  C4_4 
REMARK    3  A    between atoms: C4_4  and  S1_5 
REMARK    4  A    between atoms: C8_15  and  N3_16 
ROOT
HETATM    1  C3  UNL     1     -12.661   0.315 -14.248  1.00  0.00     0.150 C 
HETATM    2  N1  UNL     1     -13.416   0.132 -13.023  1.00  0.00    -0.360 N 
ATOM      3  H1  UNL     1     -13.452  -0.795 -12.598  1.00  0.00     0.161 HD
HETATM    4  C6  UNL     1     -14.113   1.210 -12.391  1.00  0.00     0.151 A 
HETATM    5  C7  UNL     1     -13.718   2.493 -12.706  1.00  0.00     0.198 A 
HETATM    6  N2  UNL     1     -14.375   3.508 -12.110  1.00  0.00    -0.168 N 
ATOM      7  H2  UNL     1     -14.104   4.468 -12.326  1.00  0.00     0.186 HD
HETATM    8  C8  UNL     1     -15.388   3.293 -11.231  1.00  0.00     0.680 A 
HETATM    9  N4  UNL     1     -15.762   2.034 -10.934  1.00  0.00    -0.154 N 
ATOM     10  H4  UNL     1     -16.523   1.879 -10.273  1.00  0.00     0.187 HD
HETATM   11  C9  UNL     1     -15.145   0.976 -11.496  1.00  0.00     0.290 A 
HETATM   12  O3  UNL     1     -15.502  -0.204 -11.212  1.00  0.00    -0.265 OA
HETATM   13  O4  UNL     1     -12.680   2.688 -13.606  1.00  0.00    -0.256 OA
HETATM   14  C10 UNL     1     -12.017   1.630 -14.208  1.00  0.00     0.298 C 
HETATM   15  O5  UNL     1     -10.859   1.788 -14.726  1.00  0.00    -0.262 OA
ENDROOT
BRANCH   1  16
HETATM   16  C2  UNL     1     -11.593  -0.752 -14.217  1.00  0.00     0.005 C 
HETATM   17  C1  UNL     1     -11.319  -1.446 -15.295  1.00  0.00     0.010 C 
ENDBRANCH   1  16
BRANCH   1  18
HETATM   18  C4  UNL     1     -13.585   0.105 -15.394  1.00  0.00     0.185 C 
BRANCH  18  19
HETATM   19  S1  UNL     1     -14.904  -1.009 -15.112  1.00  0.00     0.143 S 
HETATM   20  C5  UNL     1     -15.359  -1.738 -16.693  1.00  0.00     0.161 C 
HETATM   21  O1  UNL     1     -14.589  -2.124 -14.195  1.00  0.00    -0.228 OA
HETATM   22  O2  UNL     1     -16.147  -0.329 -14.611  1.00  0.00    -0.228 OA
ENDBRANCH  18  19
ENDBRANCH   1  18
BRANCH   8  23
HETATM   23  N3  UNL     1     -16.006   4.298 -10.669  1.00  0.00    -0.234 N 
ATOM     24  H32 UNL     1     -15.467   5.099 -10.340  1.00  0.00     0.174 HD
ATOM     25  H31 UNL     1     -17.020   4.287 -10.557  1.00  0.00     0.174 HD
ENDBRANCH   8  23
TORSDOF 4
ENDMDL
MODEL 4
REMARK VINA RESULT: -5.104242522      2.533      3.736
REMARK  4 active torsions:
REMARK  status: ('A' for Active; 'I' for Inactive)
REMARK    1  A    between atoms: C2_2  and  C3_3 
REMARK    2  A    between atoms: C3_3  and  C4_4 
REMARK    3  A    between atoms: C4_4  and  S1_5 
REMARK    4  A    between atoms: C8_15  and  N3_16 
ROOT
HETATM    1  C3  UNL     1     -14.292   1.343 -14.910  1.00  0.00     0.150 C 
HETATM    2  N1  UNL     1     -15.303   1.229 -13.876  1.00  0.00    -0.360 N 
ATOM      3  H1  UNL     1     -16.240   1.587 -14.060  1.00  0.00     0.161 HD
HETATM    4  C6  UNL     1     -15.027   0.631 -12.606  1.00  0.00     0.151 A 
HETATM    5  C7  UNL     1     -13.938  -0.212 -12.523  1.00  0.00     0.198 A 
HETATM    6  N2  UNL     1     -13.679  -0.775 -11.327  1.00  0.00    -0.168 N 
ATOM      7  H2  UNL     1     -12.879  -1.402 -11.238  1.00  0.00     0.186 HD
HETATM    8  C8  UNL     1     -14.451  -0.535 -10.235  1.00  0.00     0.680 A 
HETATM    9  N4  UNL     1     -15.511   0.290 -10.332  1.00  0.00    -0.154 N 
ATOM     10  H4  UNL     1     -16.086   0.467  -9.508  1.00  0.00     0.187 HD
HETATM   11  C9  UNL     1     -15.823   0.886 -11.500  1.00  0.00     0.290 A 
HETATM   12  O3  UNL     1     -16.820   1.660 -11.583  1.00  0.00    -0.265 OA
HETATM   13  O4  UNL     1     -13.165  -0.443 -13.653  1.00  0.00    -0.256 OA
HETATM   14  C10 UNL     1     -13.449   0.146 -14.874  1.00  0.00     0.298 C 
HETATM   15  O5  UNL     1     -12.985  -0.339 -15.963  1.00  0.00    -0.262 OA
ENDROOT
BRANCH   1  16
HETATM   16  C2  UNL     1     -15.057   1.363 -16.211  1.00  0.00     0.005 C 
HETATM   17  C1  UNL     1     -16.228   0.779 -16.299  1.00  0.00     0.010 C 
ENDBRANCH   1  16
BRANCH   1  18
HETATM   18  C4  UNL     1     -13.566   2.625 -14.705  1.00  0.00     0.185 C 
BRANCH  18  19
HETATM   19  S1  UNL     1     -12.067   2.801 -15.591  1.00  0.00     0.143 S 
HETATM   20  C5  UNL     1     -11.549   4.519 -15.463  1.00  0.00     0.161 C 
HETATM   21  O1  UNL     1     -10.951   1.973 -15.091  1.00  0.00    -0.228 OA
HETATM   22  O2  UNL     1     -12.224   2.536 -17.062  1.00  0.00    -0.228 OA
ENDBRANCH  18  19
ENDBRANCH   1  18
BRANCH   8  23
HETATM   23  N3  UNL     1     -14.175  -1.096  -9.088  1.00  0.00    -0.234 N 
ATOM     24  H32 UNL     1     -14.399  -2.080  -8.943  1.00  0.00     0.174 HD
ATOM     25  H31 UNL     1     -13.739  -0.558  -8.338  1.00  0.00     0.174 HD
ENDBRANCH   8  23
TORSDOF 4
ENDMDL
MODEL 5
REMARK VINA RESULT: -5.049642520      1.882      3.910
REMARK  4 active torsions:
REMARK  status: ('A' for Active; 'I' for Inactive)
REMARK    1  A    between atoms: C2_2  and  C3_3 
REMARK    2  A    between atoms: C3_3  and  C4_4 
REMARK    3  A    between atoms: C4_4  and  S1_5 
REMARK    4  A    between atoms: C8_15  and  N3_16 
ROOT
HETATM    1  C3  UNL     1     -14.575   0.367 -16.370  1.00  0.00     0.150 C 
HETATM    2  N1  UNL     1     -14.309   1.479 -15.476  1.00  0.00    -0.360 N 
ATOM      3  H1  UNL     1     -13.799   2.287 -15.832  1.00  0.00     0.161 HD
HETATM    4  C6  UNL     1     -14.740   1.476 -14.112  1.00  0.00     0.151 A 
HETATM    5  C7  UNL     1     -15.766   0.619 -13.770  1.00  0.00     0.198 A 
HETATM    6  N2  UNL     1     -16.171   0.619 -12.485  1.00  0.00    -0.168 N 
ATOM      7  H2  UNL     1     -16.927  -0.006 -12.205  1.00  0.00     0.186 HD
HETATM    8  C8  UNL     1     -15.603   1.424 -11.550  1.00  0.00     0.680 A 
HETATM    9  N4  UNL     1     -14.603   2.254 -11.899  1.00  0.00    -0.154 N 
ATOM     10  H4  UNL     1     -14.180   2.856 -11.192  1.00  0.00     0.187 HD
HETATM   11  C9  UNL     1     -14.151   2.303 -13.168  1.00  0.00     0.290 A 
HETATM   12  O3  UNL     1     -13.211   3.086 -13.489  1.00  0.00    -0.265 OA
HETATM   13  O4  UNL     1     -16.331  -0.193 -14.743  1.00  0.00    -0.256 OA
HETATM   14  C10 UNL     1     -15.900  -0.176 -16.060  1.00  0.00     0.298 C 
HETATM   15  O5  UNL     1     -16.639  -0.627 -17.001  1.00  0.00    -0.262 OA
ENDROOT
BRANCH   1  16
HETATM   16  C2  UNL     1     -14.607   0.971 -17.753  1.00  0.00     0.005 C 
HETATM   17  C1  UNL     1     -14.807   2.258 -17.909  1.00  0.00     0.010 C 
ENDBRANCH   1  16
BRANCH   1  18
HETATM   18  C4  UNL     1     -13.456  -0.604 -16.243  1.00  0.00     0.185 C 
BRANCH  18  19
HETATM   19  S1  UNL     1     -11.893   0.084 -15.860  1.00  0.00     0.143 S 
HETATM   20  C5  UNL     1     -10.630  -0.988 -16.563  1.00  0.00     0.161 C 
HETATM   21  O1  UNL     1     -11.662   1.439 -16.403  1.00  0.00    -0.228 OA
HETATM   22  O2  UNL     1     -11.615   0.118 -14.384  1.00  0.00    -0.228 OA
ENDBRANCH  18  19
ENDBRANCH   1  18
BRANCH   8  23
HETATM   23  N3  UNL     1     -16.017   1.400 -10.311  1.00  0.00    -0.234 N 
ATOM     24  H32 UNL     1     -16.985   1.147 -10.110  1.00  0.00     0.174 HD
ATOM     25  H31 UNL     1     -15.383   1.633  -9.546  1.00  0.00     0.174 HD
ENDBRANCH   8  23
TORSDOF 4
ENDMDL
