MODEL 1
REMARK VINA RESULT: -6.079926749      0.000      0.000
REMARK  5 active torsions:
REMARK  status: ('A' for Active; 'I' for Inactive)
REMARK       I    between atoms: C2_2  and  N1_4 
REMARK    1  A    between atoms: N1_4  and  N2_5 
REMARK    2  A    between atoms: C3_7  and  C4_8 
REMARK    3  A    between atoms: C4_8  and  N3_9 
REMARK    4  A    between atoms: N3_9  and  N4_11 
REMARK    5  A    between atoms: N4_11  and  C5_13 
ROOT
HETATM    1  C5  UNL     1     -14.238  -1.452 -12.392  1.00  0.00     0.701 A 
HETATM    2  N5  UNL     1     -14.913  -0.931 -11.356  1.00  0.00    -0.154 N 
ATOM      3  H5  UNL     1     -15.417  -1.520 -10.693  1.00  0.00     0.187 HD
HETATM    4  C6  UNL     1     -14.891   0.429 -11.236  1.00  0.00     0.279 A 
HETATM    5  O2  UNL     1     -15.521   0.945 -10.263  1.00  0.00    -0.266 OA
HETATM    6  C7  UNL     1     -14.216   1.234 -12.124  1.00  0.00     0.145 A 
HETATM    7  C8  UNL     1     -14.186   2.609 -12.030  1.00  0.00     0.266 A 
HETATM    8  O3  UNL     1     -14.820   3.120 -11.056  1.00  0.00    -0.267 OA
HETATM    9  N6  UNL     1     -13.512   3.359 -12.932  1.00  0.00    -0.312 N 
ATOM     10  H6  UNL     1     -13.508   4.375 -12.834  1.00  0.00     0.170 HD
HETATM   11  C9  UNL     1     -12.846   2.796 -13.958  1.00  0.00     0.081 A 
HETATM   12  C10 UNL     1     -12.096   3.629 -14.961  1.00  0.00     0.089 C 
HETATM   13  N7  UNL     1     -12.871   1.459 -14.057  1.00  0.00    -0.331 N 
ATOM     14  H7  UNL     1     -12.371   1.016 -14.829  1.00  0.00     0.168 HD
HETATM   15  C11 UNL     1     -13.532   0.674 -13.177  1.00  0.00     0.143 A 
HETATM   16  N8  UNL     1     -13.560  -0.654 -13.282  1.00  0.00    -0.174 N 
ATOM     17  H8  UNL     1     -13.059  -1.095 -14.053  1.00  0.00     0.186 HD
ENDROOT
BRANCH   1  18
HETATM   18  N4  UNL     1     -14.219  -2.714 -12.572  1.00  0.00    -0.132 N 
ATOM     19  H4  UNL     1     -13.967  -3.277 -11.759  1.00  0.00     0.205 HD
BRANCH  18  20
HETATM   20  N3  UNL     1     -14.485  -3.385 -13.682  1.00  0.00    -0.296 N 
ATOM     21  H3  UNL     1     -14.628  -2.766 -14.479  1.00  0.00     0.186 HD
BRANCH  20  22
HETATM   22  C4  UNL     1     -14.603  -4.590 -13.996  1.00  0.00     0.127 C 
BRANCH  22  23
HETATM   23  C3  UNL     1     -15.434  -4.939 -15.158  1.00  0.00     0.139 C 
HETATM   24  N2  UNL     1     -16.316  -4.109 -15.498  1.00  0.00    -0.242 N 
ATOM     25  H2  UNL     1     -16.343  -3.276 -14.909  1.00  0.00     0.201 HD
BRANCH  24  26
HETATM   26  N1  UNL     1     -17.203  -4.103 -16.456  1.00  0.00    -0.288 NA
HETATM   27  C2  UNL     1     -18.126  -4.096 -17.453  1.00  0.00     0.308 C 
HETATM   28  C1  UNL     1     -18.548  -5.450 -18.014  1.00  0.00     0.137 C 
HETATM   29  O1  UNL     1     -18.725  -3.134 -18.024  1.00  0.00    -0.256 OA
ENDBRANCH  24  26
ENDBRANCH  22  23
ENDBRANCH  20  22
ENDBRANCH  18  20
ENDBRANCH   1  18
TORSDOF 5
ENDMDL
MODEL 2
REMARK VINA RESULT: -6.076560517      1.794      2.168
REMARK  5 active torsions:
REMARK  status: ('A' for Active; 'I' for Inactive)
REMARK       I    between atoms: C2_2  and  N1_4 
REMARK    1  A    between atoms: N1_4  and  N2_5 
REMARK    2  A    between atoms: C3_7  and  C4_8 
REMARK    3  A    between atoms: C4_8  and  N3_9 
REMARK    4  A    between atoms: N3_9  and  N4_11 
REMARK    5  A    between atoms: N4_11  and  C5_13 
ROOT
HETATM    1  C5  UNL     1     -14.162  -1.788 -12.561  1.00  0.00     0.701 A 
HETATM    2  N5  UNL     1     -14.719  -1.316 -11.434  1.00  0.00    -0.154 N 
ATOM      3  H5  UNL     1     -15.119  -1.938 -10.732  1.00  0.00     0.187 HD
HETATM    4  C6  UNL     1     -14.722   0.041 -11.277  1.00  0.00     0.279 A 
HETATM    5  O2  UNL     1     -15.242   0.510 -10.219  1.00  0.00    -0.266 OA
HETATM    6  C7  UNL     1     -14.187   0.890 -12.218  1.00  0.00     0.145 A 
HETATM    7  C8  UNL     1     -14.186   2.262 -12.087  1.00  0.00     0.266 A 
HETATM    8  O3  UNL     1     -14.709   2.726 -11.028  1.00  0.00    -0.267 OA
HETATM    9  N6  UNL     1     -13.652   3.057 -13.043  1.00  0.00    -0.312 N 
ATOM     10  H6  UNL     1     -13.666   4.070 -12.916  1.00  0.00     0.170 HD
HETATM   11  C9  UNL     1     -13.102   2.543 -14.159  1.00  0.00     0.081 A 
HETATM   12  C10 UNL     1     -12.507   3.426 -15.222  1.00  0.00     0.089 C 
HETATM   13  N7  UNL     1     -13.100   1.209 -14.294  1.00  0.00    -0.331 N 
ATOM     14  H7  UNL     1     -12.687   0.803 -15.135  1.00  0.00     0.168 HD
HETATM   15  C11 UNL     1     -13.622   0.380 -13.363  1.00  0.00     0.143 A 
HETATM   16  N8  UNL     1     -13.624  -0.945 -13.504  1.00  0.00    -0.174 N 
ATOM     17  H8  UNL     1     -13.211  -1.350 -14.343  1.00  0.00     0.186 HD
ENDROOT
BRANCH   1  18
HETATM   18  N4  UNL     1     -14.129  -3.043 -12.779  1.00  0.00    -0.132 N 
ATOM     19  H4  UNL     1     -13.432  -3.569 -12.251  1.00  0.00     0.205 HD
BRANCH  18  20
HETATM   20  N3  UNL     1     -14.885  -3.749 -13.605  1.00  0.00    -0.296 N 
ATOM     21  H3  UNL     1     -15.788  -3.983 -13.194  1.00  0.00     0.186 HD
BRANCH  20  22
HETATM   22  C4  UNL     1     -14.767  -4.201 -14.765  1.00  0.00     0.127 C 
BRANCH  22  23
HETATM   23  C3  UNL     1     -14.847  -3.267 -15.899  1.00  0.00     0.139 C 
HETATM   24  N2  UNL     1     -15.616  -2.281 -15.772  1.00  0.00    -0.242 N 
ATOM     25  H2  UNL     1     -16.100  -2.252 -14.874  1.00  0.00     0.201 HD
BRANCH  24  26
HETATM   26  N1  UNL     1     -15.918  -1.286 -16.561  1.00  0.00    -0.288 NA
HETATM   27  C2  UNL     1     -16.232  -0.250 -17.384  1.00  0.00     0.308 C 
HETATM   28  C1  UNL     1     -15.904   1.153 -16.884  1.00  0.00     0.137 C 
HETATM   29  O1  UNL     1     -16.767  -0.235 -18.534  1.00  0.00    -0.256 OA
ENDBRANCH  24  26
ENDBRANCH  22  23
ENDBRANCH  20  22
ENDBRANCH  18  20
ENDBRANCH   1  18
TORSDOF 5
ENDMDL
MODEL 3
REMARK VINA RESULT: -5.964083150      2.071      2.692
REMARK  5 active torsions:
REMARK  status: ('A' for Active; 'I' for Inactive)
REMARK       I    between atoms: C2_2  and  N1_4 
REMARK    1  A    between atoms: N1_4  and  N2_5 
REMARK    2  A    between atoms: C3_7  and  C4_8 
REMARK    3  A    between atoms: C4_8  and  N3_9 
REMARK    4  A    between atoms: N3_9  and  N4_11 
REMARK    5  A    between atoms: N4_11  and  C5_13 
ROOT
HETATM    1  C5  UNL     1     -13.939  -1.838 -13.290  1.00  0.00     0.701 A 
HETATM    2  N5  UNL     1     -12.833  -1.515 -13.979  1.00  0.00    -0.154 N 
ATOM      3  H5  UNL     1     -12.278  -2.221 -14.462  1.00  0.00     0.187 HD
HETATM    4  C6  UNL     1     -12.490  -0.194 -13.997  1.00  0.00     0.279 A 
HETATM    5  O2  UNL     1     -11.449   0.136 -14.644  1.00  0.00    -0.266 OA
HETATM    6  C7  UNL     1     -13.231   0.767 -13.348  1.00  0.00     0.145 A 
HETATM    7  C8  UNL     1     -12.901   2.105 -13.345  1.00  0.00     0.266 A 
HETATM    8  O3  UNL     1     -11.858   2.429 -13.991  1.00  0.00    -0.267 OA
HETATM    9  N6  UNL     1     -13.659   3.013 -12.686  1.00  0.00    -0.312 N 
ATOM     10  H6  UNL     1     -13.388   3.996 -12.704  1.00  0.00     0.170 HD
HETATM   11  C9  UNL     1     -14.762   2.647 -12.007  1.00  0.00     0.081 A 
HETATM   12  C10 UNL     1     -15.605   3.655 -11.275  1.00  0.00     0.089 C 
HETATM   13  N7  UNL     1     -15.089   1.347 -12.004  1.00  0.00    -0.331 N 
ATOM     14  H7  UNL     1     -15.923   1.053 -11.494  1.00  0.00     0.168 HD
HETATM   15  C11 UNL     1     -14.360   0.409 -12.650  1.00  0.00     0.143 A 
HETATM   16  N8  UNL     1     -14.684  -0.883 -12.640  1.00  0.00    -0.174 N 
ATOM     17  H8  UNL     1     -15.518  -1.176 -12.131  1.00  0.00     0.186 HD
ENDROOT
BRANCH   1  18
HETATM   18  N4  UNL     1     -14.317  -3.053 -13.222  1.00  0.00    -0.132 N 
ATOM     19  H4  UNL     1     -13.989  -3.578 -12.411  1.00  0.00     0.205 HD
BRANCH  18  20
HETATM   20  N3  UNL     1     -15.082  -3.719 -14.073  1.00  0.00    -0.296 N 
ATOM     21  H3  UNL     1     -15.886  -4.146 -13.612  1.00  0.00     0.186 HD
BRANCH  20  22
HETATM   22  C4  UNL     1     -15.065  -3.955 -15.300  1.00  0.00     0.127 C 
BRANCH  22  23
HETATM   23  C3  UNL     1     -16.304  -3.777 -16.073  1.00  0.00     0.139 C 
HETATM   24  N2  UNL     1     -17.228  -4.605 -15.865  1.00  0.00    -0.242 N 
ATOM     25  H2  UNL     1     -16.995  -5.314 -15.169  1.00  0.00     0.201 HD
BRANCH  24  26
HETATM   26  N1  UNL     1     -18.427  -4.736 -16.365  1.00  0.00    -0.288 NA
HETATM   27  C2  UNL     1     -19.676  -4.873 -16.885  1.00  0.00     0.308 C 
HETATM   28  C1  UNL     1     -19.849  -4.540 -18.363  1.00  0.00     0.137 C 
HETATM   29  O1  UNL     1     -20.763  -5.242 -16.347  1.00  0.00    -0.256 OA
ENDBRANCH  24  26
ENDBRANCH  22  23
ENDBRANCH  20  22
ENDBRANCH  18  20
ENDBRANCH   1  18
TORSDOF 5
ENDMDL
MODEL 4
REMARK VINA RESULT: -5.895744684      3.522      8.504
REMARK  5 active torsions:
REMARK  status: ('A' for Active; 'I' for Inactive)
REMARK       I    between atoms: C2_2  and  N1_4 
REMARK    1  A    between atoms: N1_4  and  N2_5 
REMARK    2  A    between atoms: C3_7  and  C4_8 
REMARK    3  A    between atoms: C4_8  and  N3_9 
REMARK    4  A    between atoms: N3_9  and  N4_11 
REMARK    5  A    between atoms: N4_11  and  C5_13 
ROOT
HETATM    1  C5  UNL     1     -13.171   2.615 -13.880  1.00  0.00     0.701 A 
HETATM    2  N5  UNL     1     -13.792   3.075 -12.783  1.00  0.00    -0.154 N 
ATOM      3  H5  UNL     1     -13.858   4.073 -12.582  1.00  0.00     0.187 HD
HETATM    4  C6  UNL     1     -14.330   2.137 -11.949  1.00  0.00     0.279 A 
HETATM    5  O2  UNL     1     -14.925   2.549 -10.906  1.00  0.00    -0.266 OA
HETATM    6  C7  UNL     1     -14.247   0.789 -12.208  1.00  0.00     0.145 A 
HETATM    7  C8  UNL     1     -14.774  -0.177 -11.378  1.00  0.00     0.266 A 
HETATM    8  O3  UNL     1     -15.366   0.240 -10.335  1.00  0.00    -0.267 OA
HETATM    9  N6  UNL     1     -14.662  -1.493 -11.674  1.00  0.00    -0.312 N 
ATOM     10  H6  UNL     1     -15.065  -2.183 -11.039  1.00  0.00     0.170 HD
HETATM   11  C9  UNL     1     -14.031  -1.912 -12.786  1.00  0.00     0.081 A 
HETATM   12  C10 UNL     1     -13.907  -3.375 -13.116  1.00  0.00     0.089 C 
HETATM   13  N7  UNL     1     -13.514  -0.979 -13.598  1.00  0.00    -0.331 N 
ATOM     14  H7  UNL     1     -13.033  -1.281 -14.446  1.00  0.00     0.168 HD
HETATM   15  C11 UNL     1     -13.605   0.345 -13.340  1.00  0.00     0.143 A 
HETATM   16  N8  UNL     1     -13.085   1.269 -14.146  1.00  0.00    -0.174 N 
ATOM     17  H8  UNL     1     -12.605   0.967 -14.993  1.00  0.00     0.186 HD
ENDROOT
BRANCH   1  18
HETATM   18  N4  UNL     1     -12.638   3.431 -14.701  1.00  0.00    -0.132 N 
ATOM     19  H4  UNL     1     -13.087   3.501 -15.615  1.00  0.00     0.205 HD
BRANCH  18  20
HETATM   20  N3  UNL     1     -11.575   4.199 -14.517  1.00  0.00    -0.296 N 
ATOM     21  H3  UNL     1     -11.559   4.614 -13.586  1.00  0.00     0.186 HD
BRANCH  20  22
HETATM   22  C4  UNL     1     -10.586   4.541 -15.201  1.00  0.00     0.127 C 
BRANCH  22  23
HETATM   23  C3  UNL     1     -10.765   5.571 -16.236  1.00  0.00     0.139 C 
HETATM   24  N2  UNL     1     -10.749   6.770 -15.856  1.00  0.00    -0.242 N 
ATOM     25  H2  UNL     1     -10.611   6.879 -14.851  1.00  0.00     0.201 HD
BRANCH  24  26
HETATM   26  N1  UNL     1     -10.875   7.902 -16.493  1.00  0.00    -0.288 NA
HETATM   27  C2  UNL     1     -11.006   9.082 -17.156  1.00  0.00     0.308 C 
HETATM   28  C1  UNL     1     -11.255   9.005 -18.659  1.00  0.00     0.137 C 
HETATM   29  O1  UNL     1     -10.959  10.279 -16.740  1.00  0.00    -0.256 OA
ENDBRANCH  24  26
ENDBRANCH  22  23
ENDBRANCH  20  22
ENDBRANCH  18  20
ENDBRANCH   1  18
TORSDOF 5
ENDMDL
MODEL 5
REMARK VINA RESULT: -5.768468238      4.281      9.501
REMARK  5 active torsions:
REMARK  status: ('A' for Active; 'I' for Inactive)
REMARK       I    between atoms: C2_2  and  N1_4 
REMARK    1  A    between atoms: N1_4  and  N2_5 
REMARK    2  A    between atoms: C3_7  and  C4_8 
REMARK    3  A    between atoms: C4_8  and  N3_9 
REMARK    4  A    between atoms: N3_9  and  N4_11 
REMARK    5  A    between atoms: N4_11  and  C5_13 
ROOT
HETATM    1  C5  UNL     1     -12.307   2.775 -14.581  1.00  0.00     0.701 A 
HETATM    2  N5  UNL     1     -13.274   2.661 -15.504  1.00  0.00    -0.154 N 
ATOM      3  H5  UNL     1     -13.225   3.154 -16.396  1.00  0.00     0.187 HD
HETATM    4  C6  UNL     1     -14.328   1.853 -15.187  1.00  0.00     0.279 A 
HETATM    5  O2  UNL     1     -15.254   1.728 -16.045  1.00  0.00    -0.266 OA
HETATM    6  C7  UNL     1     -14.406   1.184 -13.987  1.00  0.00     0.145 A 
HETATM    7  C8  UNL     1     -15.462   0.370 -13.640  1.00  0.00     0.266 A 
HETATM    8  O3  UNL     1     -16.387   0.250 -14.501  1.00  0.00    -0.267 OA
HETATM    9  N6  UNL     1     -15.495  -0.263 -12.444  1.00  0.00    -0.312 N 
ATOM     10  H6  UNL     1     -16.291  -0.861 -12.217  1.00  0.00     0.170 HD
HETATM   11  C9  UNL     1     -14.503  -0.123 -11.545  1.00  0.00     0.081 A 
HETATM   12  C10 UNL     1     -14.539  -0.826 -10.216  1.00  0.00     0.089 C 
HETATM   13  N7  UNL     1     -13.472   0.669 -11.875  1.00  0.00    -0.331 N 
ATOM     14  H7  UNL     1     -12.711   0.786 -11.206  1.00  0.00     0.168 HD
HETATM   15  C11 UNL     1     -13.400   1.318 -13.059  1.00  0.00     0.143 A 
HETATM   16  N8  UNL     1     -12.377   2.109 -13.381  1.00  0.00    -0.174 N 
ATOM     17  H8  UNL     1     -11.617   2.224 -12.712  1.00  0.00     0.186 HD
ENDROOT
BRANCH   1  18
HETATM   18  N4  UNL     1     -11.296   3.518 -14.805  1.00  0.00    -0.132 N 
ATOM     19  H4  UNL     1     -10.385   3.062 -14.744  1.00  0.00     0.205 HD
BRANCH  18  20
HETATM   20  N3  UNL     1     -11.279   4.807 -15.105  1.00  0.00    -0.296 N 
ATOM     21  H3  UNL     1     -11.352   5.395 -14.274  1.00  0.00     0.186 HD
BRANCH  20  22
HETATM   22  C4  UNL     1     -11.196   5.484 -16.153  1.00  0.00     0.127 C 
BRANCH  22  23
HETATM   23  C3  UNL     1     -10.556   6.807 -16.091  1.00  0.00     0.139 C 
HETATM   24  N2  UNL     1      -9.479   6.890 -15.448  1.00  0.00    -0.242 N 
ATOM     25  H2  UNL     1      -9.177   6.005 -15.039  1.00  0.00     0.201 HD
BRANCH  24  26
HETATM   26  N1  UNL     1      -8.671   7.884 -15.199  1.00  0.00    -0.288 NA
HETATM   27  C2  UNL     1      -7.829   8.920 -14.940  1.00  0.00     0.308 C 
HETATM   28  C1  UNL     1      -7.186   9.605 -16.141  1.00  0.00     0.137 C 
HETATM   29  O1  UNL     1      -7.468   9.442 -13.841  1.00  0.00    -0.256 OA
ENDBRANCH  24  26
ENDBRANCH  22  23
ENDBRANCH  20  22
ENDBRANCH  18  20
ENDBRANCH   1  18
TORSDOF 5
ENDMDL
