MODEL 1
REMARK VINA RESULT: -6.037520444      0.000      0.000
REMARK  6 active torsions:
REMARK  status: ('A' for Active; 'I' for Inactive)
REMARK    1  A    between atoms: N1_4  and  N2_6 
REMARK    2  A    between atoms: N2_6  and  C4_8 
REMARK       I    between atoms: N5_14  and  C6_16 
REMARK    3  A    between atoms: C6_16  and  C7_18 
REMARK    4  A    between atoms: C7_18  and  C8_19 
REMARK    5  A    between atoms: C8_19  and  C9_20 
REMARK       I    between atoms: C9_20  and  N6_22 
REMARK    6  A    between atoms: C12_25  and  O3_27 
ROOT
HETATM    1  C4  UNL     1       4.469 -12.439 -18.363  1.00  0.00     0.181 A 
HETATM    2  N3  UNL     1       5.232 -11.393 -18.678  1.00  0.00    -0.276 N 
ATOM      3  H3  UNL     1       5.117 -10.919 -19.573  1.00  0.00     0.189 HD
HETATM    4  N4  UNL     1       6.109 -10.993 -17.841  1.00  0.00    -0.277 N 
ATOM      5  H4  UNL     1       6.705 -10.194 -18.058  1.00  0.00     0.189 HD
HETATM    6  C5  UNL     1       6.234 -11.634 -16.678  1.00  0.00     0.169 A 
HETATM    7  N5  UNL     1       7.076 -11.366 -15.703  1.00  0.00    -0.306 N 
ATOM      8  H5  UNL     1       7.741 -10.595 -15.768  1.00  0.00     0.171 HD
HETATM    9  C6  UNL     1       7.014 -12.212 -14.539  1.00  0.00     0.224 C 
HETATM   10  O1  UNL     1       6.576 -11.731 -13.468  1.00  0.00    -0.273 OA
HETATM   11  S1  UNL     1       5.040 -12.850 -16.813  1.00  0.00    -0.014 SA
ENDROOT
BRANCH   9  12
HETATM   12  C7  UNL     1       7.448 -13.620 -14.574  1.00  0.00     0.112 C 
BRANCH  12  13
HETATM   13  C8  UNL     1       6.698 -14.400 -13.529  1.00  0.00     0.112 C 
BRANCH  13  14
HETATM   14  C9  UNL     1       5.661 -15.213 -14.193  1.00  0.00     0.220 C 
HETATM   15  O2  UNL     1       5.972 -16.050 -15.072  1.00  0.00    -0.273 OA
HETATM   16  N6  UNL     1       4.305 -15.043 -13.833  1.00  0.00    -0.352 N 
HETATM   17  C10 UNL     1       3.957 -14.076 -12.818  1.00  0.00     0.128 C 
HETATM   18  C15 UNL     1       3.237 -15.806 -14.445  1.00  0.00     0.128 C 
HETATM   19  C11 UNL     1       2.681 -13.370 -13.254  1.00  0.00     0.057 C 
HETATM   20  C12 UNL     1       1.553 -14.340 -13.442  1.00  0.00     0.057 C 
HETATM   21  C13 UNL     1       0.852 -14.014 -14.725  1.00  0.00     0.046 C 
HETATM   22  C14 UNL     1       2.051 -15.771 -13.506  1.00  0.00     0.057 C 
BRANCH  20  23
HETATM   23  O3  UNL     1       0.692 -14.248 -12.364  1.00  0.00    -0.390 OA
ATOM     24  H3  UNL     1      -0.118 -14.698 -12.574  1.00  0.00     0.210 HD
ENDBRANCH  20  23
ENDBRANCH  13  14
ENDBRANCH  12  13
ENDBRANCH   9  12
BRANCH   1  25
HETATM   25  N2  UNL     1       3.517 -13.021 -19.049  1.00  0.00    -0.279 N 
ATOM     26  H2  UNL     1       2.728 -13.447 -18.563  1.00  0.00     0.189 HD
BRANCH  25  27
HETATM   27  N1  UNL     1       3.578 -13.059 -20.419  1.00  0.00    -0.308 N 
HETATM   28  C2  UNL     1       3.726 -14.122 -21.132  1.00  0.00    -0.004 C 
HETATM   29  C1  UNL     1       3.852 -15.475 -20.540  1.00  0.00     0.064 C 
HETATM   30  C3  UNL     1       3.768 -13.937 -22.609  1.00  0.00     0.064 C 
ATOM     31  H1  UNL     1       3.500 -12.172 -20.916  1.00  0.00     0.186 HD
ENDBRANCH  25  27
ENDBRANCH   1  25
TORSDOF 6
ENDMDL
MODEL 2
REMARK VINA RESULT: -5.978215821      0.906      1.143
REMARK  6 active torsions:
REMARK  status: ('A' for Active; 'I' for Inactive)
REMARK    1  A    between atoms: N1_4  and  N2_6 
REMARK    2  A    between atoms: N2_6  and  C4_8 
REMARK       I    between atoms: N5_14  and  C6_16 
REMARK    3  A    between atoms: C6_16  and  C7_18 
REMARK    4  A    between atoms: C7_18  and  C8_19 
REMARK    5  A    between atoms: C8_19  and  C9_20 
REMARK       I    between atoms: C9_20  and  N6_22 
REMARK    6  A    between atoms: C12_25  and  O3_27 
ROOT
HETATM    1  C4  UNL     1       5.468 -11.397 -18.358  1.00  0.00     0.181 A 
HETATM    2  N3  UNL     1       6.148 -10.260 -18.209  1.00  0.00    -0.276 N 
ATOM      3  H3  UNL     1       6.193  -9.581 -18.968  1.00  0.00     0.189 HD
HETATM    4  N4  UNL     1       6.743 -10.034 -17.102  1.00  0.00    -0.277 N 
ATOM      5  H4  UNL     1       7.269  -9.172 -16.964  1.00  0.00     0.189 HD
HETATM    6  C5  UNL     1       6.664 -10.943 -16.129  1.00  0.00     0.169 A 
HETATM    7  N5  UNL     1       7.208 -10.882 -14.932  1.00  0.00    -0.306 N 
ATOM      8  H5  UNL     1       7.768 -10.081 -14.640  1.00  0.00     0.171 HD
HETATM    9  C6  UNL     1       6.974 -12.000 -14.054  1.00  0.00     0.224 C 
HETATM   10  O1  UNL     1       6.237 -11.836 -13.055  1.00  0.00    -0.273 OA
HETATM   11  S1  UNL     1       5.698 -12.154 -16.851  1.00  0.00    -0.014 SA
ENDROOT
BRANCH   9  12
HETATM   12  C7  UNL     1       7.576 -13.323 -14.299  1.00  0.00     0.112 C 
BRANCH  12  13
HETATM   13  C8  UNL     1       6.929 -14.340 -13.399  1.00  0.00     0.112 C 
BRANCH  13  14
HETATM   14  C9  UNL     1       5.915 -15.083 -14.170  1.00  0.00     0.220 C 
HETATM   15  O2  UNL     1       6.247 -15.778 -15.159  1.00  0.00    -0.273 OA
HETATM   16  N6  UNL     1       4.556 -15.008 -13.789  1.00  0.00    -0.352 N 
HETATM   17  C10 UNL     1       4.184 -14.204 -12.649  1.00  0.00     0.128 C 
HETATM   18  C15 UNL     1       3.509 -15.710 -14.502  1.00  0.00     0.128 C 
HETATM   19  C11 UNL     1       2.884 -13.484 -12.980  1.00  0.00     0.057 C 
HETATM   20  C12 UNL     1       1.785 -14.452 -13.302  1.00  0.00     0.057 C 
HETATM   21  C13 UNL     1       1.068 -13.971 -14.527  1.00  0.00     0.046 C 
HETATM   22  C14 UNL     1       2.327 -15.844 -13.567  1.00  0.00     0.057 C 
BRANCH  20  23
HETATM   23  O3  UNL     1       0.927 -14.540 -12.222  1.00  0.00    -0.390 OA
ATOM     24  H3  UNL     1       1.306 -15.115 -11.569  1.00  0.00     0.210 HD
ENDBRANCH  20  23
ENDBRANCH  13  14
ENDBRANCH  12  13
ENDBRANCH   9  12
BRANCH   1  25
HETATM   25  N2  UNL     1       4.788 -11.840 -19.385  1.00  0.00    -0.279 N 
ATOM     26  H2  UNL     1       4.304 -11.182 -19.996  1.00  0.00     0.189 HD
BRANCH  25  27
HETATM   27  N1  UNL     1       4.724 -13.187 -19.641  1.00  0.00    -0.308 N 
HETATM   28  C2  UNL     1       3.664 -13.834 -19.980  1.00  0.00    -0.004 C 
HETATM   29  C1  UNL     1       2.341 -13.183 -20.139  1.00  0.00     0.064 C 
HETATM   30  C3  UNL     1       3.818 -15.298 -20.211  1.00  0.00     0.064 C 
ATOM     31  H1  UNL     1       5.589 -13.720 -19.557  1.00  0.00     0.186 HD
ENDBRANCH  25  27
ENDBRANCH   1  25
TORSDOF 6
ENDMDL
MODEL 3
REMARK VINA RESULT: -5.879656543      2.095      2.265
REMARK  6 active torsions:
REMARK  status: ('A' for Active; 'I' for Inactive)
REMARK    1  A    between atoms: N1_4  and  N2_6 
REMARK    2  A    between atoms: N2_6  and  C4_8 
REMARK       I    between atoms: N5_14  and  C6_16 
REMARK    3  A    between atoms: C6_16  and  C7_18 
REMARK    4  A    between atoms: C7_18  and  C8_19 
REMARK    5  A    between atoms: C8_19  and  C9_20 
REMARK       I    between atoms: C9_20  and  N6_22 
REMARK    6  A    between atoms: C12_25  and  O3_27 
ROOT
HETATM    1  C4  UNL     1       6.914 -14.721 -18.935  1.00  0.00     0.181 A 
HETATM    2  N3  UNL     1       7.680 -15.742 -18.551  1.00  0.00    -0.276 N 
ATOM      3  H3  UNL     1       7.833 -16.536 -19.173  1.00  0.00     0.189 HD
HETATM    4  N4  UNL     1       8.218 -15.712 -17.394  1.00  0.00    -0.277 N 
ATOM      5  H4  UNL     1       8.808 -16.481 -17.078  1.00  0.00     0.189 HD
HETATM    6  C5  UNL     1       7.997 -14.659 -16.605  1.00  0.00     0.169 A 
HETATM    7  N5  UNL     1       8.464 -14.457 -15.392  1.00  0.00    -0.306 N 
ATOM      8  H5  UNL     1       9.070 -15.137 -14.933  1.00  0.00     0.171 HD
HETATM    9  C6  UNL     1       8.078 -13.231 -14.743  1.00  0.00     0.224 C 
HETATM   10  O1  UNL     1       8.948 -12.347 -14.560  1.00  0.00    -0.273 OA
HETATM   11  S1  UNL     1       6.980 -13.692 -17.581  1.00  0.00    -0.014 SA
ENDROOT
BRANCH   9  12
HETATM   12  C7  UNL     1       6.697 -12.989 -14.290  1.00  0.00     0.112 C 
BRANCH  12  13
HETATM   13  C8  UNL     1       6.315 -14.029 -13.273  1.00  0.00     0.112 C 
BRANCH  13  14
HETATM   14  C9  UNL     1       5.347 -14.959 -13.883  1.00  0.00     0.220 C 
HETATM   15  O2  UNL     1       5.738 -15.911 -14.598  1.00  0.00    -0.273 OA
HETATM   16  N6  UNL     1       3.963 -14.773 -13.657  1.00  0.00    -0.352 N 
HETATM   17  C10 UNL     1       3.523 -13.673 -12.832  1.00  0.00     0.128 C 
HETATM   18  C15 UNL     1       2.959 -15.647 -14.226  1.00  0.00     0.128 C 
HETATM   19  C11 UNL     1       2.275 -13.075 -13.466  1.00  0.00     0.057 C 
HETATM   20  C12 UNL     1       1.179 -14.091 -13.589  1.00  0.00     0.057 C 
HETATM   21  C13 UNL     1       0.578 -13.981 -14.957  1.00  0.00     0.046 C 
HETATM   22  C14 UNL     1       1.701 -15.502 -13.397  1.00  0.00     0.057 C 
BRANCH  20  23
HETATM   23  O3  UNL     1       0.234 -13.861 -12.608  1.00  0.00    -0.390 OA
ATOM     24  H3  UNL     1      -0.616 -13.745 -13.015  1.00  0.00     0.210 HD
ENDBRANCH  20  23
ENDBRANCH  13  14
ENDBRANCH  12  13
ENDBRANCH   9  12
BRANCH   1  25
HETATM   25  N2  UNL     1       6.268 -14.531 -20.058  1.00  0.00    -0.279 N 
ATOM     26  H2  UNL     1       6.579 -15.001 -20.908  1.00  0.00     0.189 HD
BRANCH  25  27
HETATM   27  N1  UNL     1       5.175 -13.702 -20.095  1.00  0.00    -0.308 N 
HETATM   28  C2  UNL     1       3.947 -14.085 -20.149  1.00  0.00    -0.004 C 
HETATM   29  C1  UNL     1       3.552 -15.514 -20.180  1.00  0.00     0.064 C 
HETATM   30  C3  UNL     1       2.912 -13.014 -20.182  1.00  0.00     0.064 C 
ATOM     31  H1  UNL     1       5.350 -12.697 -20.077  1.00  0.00     0.186 HD
ENDBRANCH  25  27
ENDBRANCH   1  25
TORSDOF 6
ENDMDL
MODEL 4
REMARK VINA RESULT: -5.869323030      4.019      5.732
REMARK  6 active torsions:
REMARK  status: ('A' for Active; 'I' for Inactive)
REMARK    1  A    between atoms: N1_4  and  N2_6 
REMARK    2  A    between atoms: N2_6  and  C4_8 
REMARK       I    between atoms: N5_14  and  C6_16 
REMARK    3  A    between atoms: C6_16  and  C7_18 
REMARK    4  A    between atoms: C7_18  and  C8_19 
REMARK    5  A    between atoms: C8_19  and  C9_20 
REMARK       I    between atoms: C9_20  and  N6_22 
REMARK    6  A    between atoms: C12_25  and  O3_27 
ROOT
HETATM    1  C4  UNL     1       9.368 -17.111 -14.577  1.00  0.00     0.181 A 
HETATM    2  N3  UNL     1       8.835 -17.491 -13.415  1.00  0.00    -0.276 N 
ATOM      3  H3  UNL     1       8.698 -18.480 -13.208  1.00  0.00     0.189 HD
HETATM    4  N4  UNL     1       8.499 -16.598 -12.566  1.00  0.00    -0.277 N 
ATOM      5  H4  UNL     1       8.090 -16.864 -11.671  1.00  0.00     0.189 HD
HETATM    6  C5  UNL     1       8.693 -15.314 -12.869  1.00  0.00     0.169 A 
HETATM    7  N5  UNL     1       8.410 -14.266 -12.124  1.00  0.00    -0.306 N 
ATOM      8  H5  UNL     1       7.994 -14.365 -11.198  1.00  0.00     0.171 HD
HETATM    9  C6  UNL     1       8.716 -12.973 -12.679  1.00  0.00     0.224 C 
HETATM   10  O1  UNL     1       9.652 -12.309 -12.176  1.00  0.00    -0.273 OA
HETATM   11  S1  UNL     1       9.381 -15.416 -14.430  1.00  0.00    -0.014 SA
ENDROOT
BRANCH   9  12
HETATM   12  C7  UNL     1       7.963 -12.413 -13.815  1.00  0.00     0.112 C 
BRANCH  12  13
HETATM   13  C8  UNL     1       6.579 -12.037 -13.361  1.00  0.00     0.112 C 
BRANCH  13  14
HETATM   14  C9  UNL     1       5.594 -12.670 -14.257  1.00  0.00     0.220 C 
HETATM   15  O2  UNL     1       5.481 -12.297 -15.448  1.00  0.00    -0.273 OA
HETATM   16  N6  UNL     1       4.770 -13.708 -13.765  1.00  0.00    -0.352 N 
HETATM   17  C10 UNL     1       4.908 -14.132 -12.392  1.00  0.00     0.128 C 
HETATM   18  C15 UNL     1       3.781 -14.372 -14.590  1.00  0.00     0.128 C 
HETATM   19  C11 UNL     1       3.516 -14.394 -11.835  1.00  0.00     0.057 C 
HETATM   20  C12 UNL     1       2.798 -15.449 -12.624  1.00  0.00     0.057 C 
HETATM   21  C13 UNL     1       1.397 -14.982 -12.880  1.00  0.00     0.046 C 
HETATM   22  C14 UNL     1       3.478 -15.711 -13.954  1.00  0.00     0.057 C 
BRANCH  20  23
HETATM   23  O3  UNL     1       2.808 -16.633 -11.912  1.00  0.00    -0.390 OA
ATOM     24  H3  UNL     1       3.618 -17.096 -12.089  1.00  0.00     0.210 HD
ENDBRANCH  20  23
ENDBRANCH  13  14
ENDBRANCH  12  13
ENDBRANCH   9  12
BRANCH   1  25
HETATM   25  N2  UNL     1       9.783 -17.834 -15.586  1.00  0.00    -0.279 N 
ATOM     26  H2  UNL     1      10.040 -17.381 -16.463  1.00  0.00     0.189 HD
BRANCH  25  27
HETATM   27  N1  UNL     1       9.874 -19.198 -15.468  1.00  0.00    -0.308 N 
HETATM   28  C2  UNL     1       9.456 -20.053 -16.336  1.00  0.00    -0.004 C 
HETATM   29  C1  UNL     1       8.806 -19.655 -17.608  1.00  0.00     0.064 C 
HETATM   30  C3  UNL     1       9.653 -21.492 -16.007  1.00  0.00     0.064 C 
ATOM     31  H1  UNL     1      10.308 -19.566 -14.623  1.00  0.00     0.186 HD
ENDBRANCH  25  27
ENDBRANCH   1  25
TORSDOF 6
ENDMDL
MODEL 5
REMARK VINA RESULT: -5.752560245      1.976      2.560
REMARK  6 active torsions:
REMARK  status: ('A' for Active; 'I' for Inactive)
REMARK    1  A    between atoms: N1_4  and  N2_6 
REMARK    2  A    between atoms: N2_6  and  C4_8 
REMARK       I    between atoms: N5_14  and  C6_16 
REMARK    3  A    between atoms: C6_16  and  C7_18 
REMARK    4  A    between atoms: C7_18  and  C8_19 
REMARK    5  A    between atoms: C8_19  and  C9_20 
REMARK       I    between atoms: C9_20  and  N6_22 
REMARK    6  A    between atoms: C12_25  and  O3_27 
ROOT
HETATM    1  C4  UNL     1       3.239 -13.442 -19.852  1.00  0.00     0.181 A 
HETATM    2  N3  UNL     1       3.693 -14.695 -19.885  1.00  0.00    -0.276 N 
ATOM      3  H3  UNL     1       3.304 -15.369 -20.543  1.00  0.00     0.189 HD
HETATM    4  N4  UNL     1       4.623 -15.038 -19.079  1.00  0.00    -0.277 N 
ATOM      5  H4  UNL     1       4.987 -15.990 -19.085  1.00  0.00     0.189 HD
HETATM    6  C5  UNL     1       5.110 -14.131 -18.230  1.00  0.00     0.169 A 
HETATM    7  N5  UNL     1       6.060 -14.302 -17.336  1.00  0.00    -0.306 N 
ATOM      8  H5  UNL     1       6.526 -15.202 -17.217  1.00  0.00     0.171 HD
HETATM    9  C6  UNL     1       6.411 -13.159 -16.533  1.00  0.00     0.224 C 
HETATM   10  O1  UNL     1       7.526 -12.617 -16.713  1.00  0.00    -0.273 OA
HETATM   11  S1  UNL     1       4.187 -12.747 -18.621  1.00  0.00    -0.014 SA
ENDROOT
BRANCH   9  12
HETATM   12  C7  UNL     1       5.499 -12.614 -15.512  1.00  0.00     0.112 C 
BRANCH  12  13
HETATM   13  C8  UNL     1       5.648 -13.399 -14.238  1.00  0.00     0.112 C 
BRANCH  13  14
HETATM   14  C9  UNL     1       4.700 -14.528 -14.259  1.00  0.00     0.220 C 
HETATM   15  O2  UNL     1       5.083 -15.678 -14.581  1.00  0.00    -0.273 OA
HETATM   16  N6  UNL     1       3.347 -14.310 -13.914  1.00  0.00    -0.352 N 
HETATM   17  C10 UNL     1       2.916 -12.982 -13.544  1.00  0.00     0.128 C 
HETATM   18  C15 UNL     1       2.363 -15.372 -13.916  1.00  0.00     0.128 C 
HETATM   19  C11 UNL     1       1.546 -12.739 -14.161  1.00  0.00     0.057 C 
HETATM   20  C12 UNL     1       0.543 -13.750 -13.690  1.00  0.00     0.057 C 
HETATM   21  C13 UNL     1      -0.238 -14.235 -14.873  1.00  0.00     0.046 C 
HETATM   22  C14 UNL     1       1.217 -14.938 -13.028  1.00  0.00     0.057 C 
BRANCH  20  23
HETATM   23  O3  UNL     1      -0.283 -13.165 -12.749  1.00  0.00    -0.390 OA
ATOM     24  H3  UNL     1      -1.169 -13.485 -12.871  1.00  0.00     0.210 HD
ENDBRANCH  20  23
ENDBRANCH  13  14
ENDBRANCH  12  13
ENDBRANCH   9  12
BRANCH   1  25
HETATM   25  N2  UNL     1       2.307 -12.868 -20.570  1.00  0.00    -0.279 N 
ATOM     26  H2  UNL     1       1.513 -12.424 -20.110  1.00  0.00     0.189 HD
BRANCH  25  27
HETATM   27  N1  UNL     1       2.396 -12.862 -21.940  1.00  0.00    -0.308 N 
HETATM   28  C2  UNL     1       2.387 -11.812 -22.685  1.00  0.00    -0.004 C 
HETATM   29  C1  UNL     1       2.278 -10.439 -22.138  1.00  0.00     0.064 C 
HETATM   30  C3  UNL     1       2.493 -12.034 -24.154  1.00  0.00     0.064 C 
ATOM     31  H1  UNL     1       2.475 -13.765 -22.407  1.00  0.00     0.186 HD
ENDBRANCH  25  27
ENDBRANCH   1  25
TORSDOF 6
ENDMDL
