MODEL 1
REMARK VINA RESULT: -6.103420233      0.000      0.000
REMARK  5 active torsions:
REMARK  status: ('A' for Active; 'I' for Inactive)
REMARK    1  A    between atoms: N1_2  and  C2_5 
REMARK    2  A    between atoms: C2_5  and  C3_6 
REMARK    3  A    between atoms: C4_9  and  S1_10 
REMARK    4  A    between atoms: S1_10  and  N3_12 
REMARK    5  A    between atoms: C12_21  and  N4_22 
REMARK       I    between atoms: N4_22  and  C13_24 
ROOT
HETATM    1  C3  UNL     1       6.635 -14.767 -15.522  1.00  0.00     0.064 A 
HETATM    2  N2  UNL     1       6.604 -14.011 -16.622  1.00  0.00    -0.348 N 
ATOM      3  H2  UNL     1       7.177 -14.325 -17.404  1.00  0.00     0.166 HD
HETATM    4  C4  UNL     1       5.907 -12.894 -16.809  1.00  0.00     0.123 A 
HETATM    5  C10 UNL     1       5.138 -12.501 -15.714  1.00  0.00     0.062 A 
HETATM    6  C11 UNL     1       5.138 -13.263 -14.534  1.00  0.00     0.040 A 
HETATM    7  S2  UNL     1       4.366 -13.142 -13.012  1.00  0.00    -0.052 SA
HETATM    8  C12 UNL     1       5.018 -14.542 -12.289  1.00  0.00     0.152 A 
HETATM    9  N7  UNL     1       5.802 -15.042 -13.252  1.00  0.00    -0.334 N 
ATOM     10  H7  UNL     1       6.333 -15.899 -13.100  1.00  0.00     0.168 HD
HETATM   11  C14 UNL     1       5.871 -14.407 -14.388  1.00  0.00     0.076 A 
ENDROOT
BRANCH   4  12
HETATM   12  S1  UNL     1       5.896 -11.934 -18.269  1.00  0.00     0.165 S 
HETATM   13  O1  UNL     1       5.895 -10.461 -17.865  1.00  0.00    -0.229 OA
BRANCH  12  14
HETATM   14  N3  UNL     1       4.643 -12.236 -19.351  1.00  0.00    -0.327 N 
HETATM   15  C5  UNL     1       3.535 -13.002 -18.884  1.00  0.00     0.133 C 
HETATM   16  C6  UNL     1       3.142 -13.963 -20.001  1.00  0.00     0.021 C 
HETATM   17  C7  UNL     1       3.283 -13.238 -21.319  1.00  0.00     0.003 C 
HETATM   18  C8  UNL     1       3.093 -11.737 -21.083  1.00  0.00     0.021 C 
HETATM   19  C9  UNL     1       4.359 -11.278 -20.348  1.00  0.00     0.133 C 
ENDBRANCH  12  14
ENDBRANCH   4  12
BRANCH   1  20
HETATM   20  C2  UNL     1       7.487 -15.993 -15.514  1.00  0.00     0.291 C 
BRANCH  20  21
HETATM   21  N1  UNL     1       8.014 -16.180 -16.840  1.00  0.00    -0.074 N 
HETATM   22  C1  UNL     1       8.769 -17.380 -17.010  1.00  0.00     0.267 C 
ATOM     23  H12 UNL     1       8.565 -15.370 -17.121  1.00  0.00     0.277 HD
ATOM     24  H11 UNL     1       7.265 -16.130 -17.530  1.00  0.00     0.277 HD
ENDBRANCH  20  21
ENDBRANCH   1  20
BRANCH   8  25
HETATM   25  N4  UNL     1       4.820 -15.037 -11.085  1.00  0.00    -0.311 N 
HETATM   26  C13 UNL     1       3.502 -14.843 -10.551  1.00  0.00     0.187 C 
HETATM   27  N5  UNL     1       3.364 -14.341  -9.379  1.00  0.00    -0.373 N 
HETATM   28  N6  UNL     1       2.338 -15.192 -11.288  1.00  0.00    -0.064 NA
ATOM     29  H52 UNL     1       4.199 -14.091  -8.850  1.00  0.00     0.158 HD
ATOM     30  H51 UNL     1       2.427 -14.203  -9.000  1.00  0.00     0.158 HD
ATOM     31  H4  UNL     1       5.552 -15.524 -10.568  1.00  0.00     0.170 HD
ENDBRANCH   8  25
TORSDOF 5
ENDMDL
MODEL 2
REMARK VINA RESULT: -6.088884868      0.432      1.036
REMARK  5 active torsions:
REMARK  status: ('A' for Active; 'I' for Inactive)
REMARK    1  A    between atoms: N1_2  and  C2_5 
REMARK    2  A    between atoms: C2_5  and  C3_6 
REMARK    3  A    between atoms: C4_9  and  S1_10 
REMARK    4  A    between atoms: S1_10  and  N3_12 
REMARK    5  A    between atoms: C12_21  and  N4_22 
REMARK       I    between atoms: N4_22  and  C13_24 
ROOT
HETATM    1  C3  UNL     1       6.642 -14.760 -15.507  1.00  0.00     0.064 A 
HETATM    2  N2  UNL     1       6.603 -14.011 -16.611  1.00  0.00    -0.348 N 
ATOM      3  H2  UNL     1       7.181 -14.323 -17.391  1.00  0.00     0.166 HD
HETATM    4  C4  UNL     1       5.895 -12.902 -16.806  1.00  0.00     0.123 A 
HETATM    5  C10 UNL     1       5.122 -12.511 -15.714  1.00  0.00     0.062 A 
HETATM    6  C11 UNL     1       5.129 -13.266 -14.529  1.00  0.00     0.040 A 
HETATM    7  S2  UNL     1       4.355 -13.144 -13.009  1.00  0.00    -0.052 SA
HETATM    8  C12 UNL     1       5.021 -14.532 -12.276  1.00  0.00     0.152 A 
HETATM    9  N7  UNL     1       5.811 -15.030 -13.236  1.00  0.00    -0.334 N 
ATOM     10  H7  UNL     1       6.350 -15.880 -13.079  1.00  0.00     0.168 HD
HETATM   11  C14 UNL     1       5.873 -14.401 -14.376  1.00  0.00     0.076 A 
ENDROOT
BRANCH   4  12
HETATM   12  S1  UNL     1       5.875 -11.951 -18.271  1.00  0.00     0.165 S 
HETATM   13  O1  UNL     1       5.819 -10.477 -17.876  1.00  0.00    -0.229 OA
BRANCH  12  14
HETATM   14  N3  UNL     1       4.650 -12.301 -19.371  1.00  0.00    -0.327 N 
HETATM   15  C5  UNL     1       5.004 -12.397 -20.748  1.00  0.00     0.133 C 
HETATM   16  C6  UNL     1       3.902 -11.711 -21.550  1.00  0.00     0.021 C 
HETATM   17  C7  UNL     1       2.576 -12.039 -20.905  1.00  0.00     0.003 C 
HETATM   18  C8  UNL     1       2.694 -13.382 -20.181  1.00  0.00     0.021 C 
HETATM   19  C9  UNL     1       3.568 -13.105 -18.951  1.00  0.00     0.133 C 
ENDBRANCH  12  14
ENDBRANCH   4  12
BRANCH   1  20
HETATM   20  C2  UNL     1       7.507 -15.977 -15.491  1.00  0.00     0.291 C 
BRANCH  20  21
HETATM   21  N1  UNL     1       8.010 -16.186 -16.823  1.00  0.00    -0.074 N 
HETATM   22  C1  UNL     1       8.774 -17.381 -16.984  1.00  0.00     0.267 C 
ATOM     23  H12 UNL     1       8.547 -15.376 -17.131  1.00  0.00     0.277 HD
ATOM     24  H11 UNL     1       7.247 -16.158 -17.499  1.00  0.00     0.277 HD
ENDBRANCH  20  21
ENDBRANCH   1  20
BRANCH   8  25
HETATM   25  N4  UNL     1       4.827 -15.022 -11.069  1.00  0.00    -0.311 N 
HETATM   26  C13 UNL     1       3.507 -14.838 -10.537  1.00  0.00     0.187 C 
HETATM   27  N5  UNL     1       3.363 -14.331  -9.368  1.00  0.00    -0.373 N 
HETATM   28  N6  UNL     1       2.347 -15.203 -11.273  1.00  0.00    -0.064 NA
ATOM     29  H52 UNL     1       4.195 -14.068  -8.840  1.00  0.00     0.158 HD
ATOM     30  H51 UNL     1       2.425 -14.200  -8.991  1.00  0.00     0.158 HD
ATOM     31  H4  UNL     1       5.564 -15.499 -10.549  1.00  0.00     0.170 HD
ENDBRANCH   8  25
TORSDOF 5
ENDMDL
MODEL 3
REMARK VINA RESULT: -5.866398445      3.927      5.755
REMARK  5 active torsions:
REMARK  status: ('A' for Active; 'I' for Inactive)
REMARK    1  A    between atoms: N1_2  and  C2_5 
REMARK    2  A    between atoms: C2_5  and  C3_6 
REMARK    3  A    between atoms: C4_9  and  S1_10 
REMARK    4  A    between atoms: S1_10  and  N3_12 
REMARK    5  A    between atoms: C12_21  and  N4_22 
REMARK       I    between atoms: N4_22  and  C13_24 
ROOT
HETATM    1  C3  UNL     1       7.636 -15.433 -13.736  1.00  0.00     0.064 A 
HETATM    2  N2  UNL     1       8.384 -15.832 -14.767  1.00  0.00    -0.348 N 
ATOM      3  H2  UNL     1       9.364 -16.029 -14.566  1.00  0.00     0.166 HD
HETATM    4  C4  UNL     1       7.992 -16.001 -16.026  1.00  0.00     0.123 A 
HETATM    5  C10 UNL     1       6.647 -15.719 -16.256  1.00  0.00     0.062 A 
HETATM    6  C11 UNL     1       5.818 -15.295 -15.204  1.00  0.00     0.040 A 
HETATM    7  S2  UNL     1       4.170 -14.861 -15.057  1.00  0.00    -0.052 SA
HETATM    8  C12 UNL     1       4.152 -14.506 -13.389  1.00  0.00     0.152 A 
HETATM    9  N7  UNL     1       5.417 -14.738 -13.018  1.00  0.00    -0.334 N 
ATOM     10  H7  UNL     1       5.710 -14.607 -12.050  1.00  0.00     0.168 HD
HETATM   11  C14 UNL     1       6.266 -15.137 -13.923  1.00  0.00     0.076 A 
ENDROOT
BRANCH   4  12
HETATM   12  S1  UNL     1       9.009 -16.526 -17.347  1.00  0.00     0.165 S 
HETATM   13  O1  UNL     1       8.299 -16.181 -18.655  1.00  0.00    -0.229 OA
BRANCH  12  14
HETATM   14  N3  UNL     1       9.456 -18.149 -17.344  1.00  0.00    -0.327 N 
HETATM   15  C5  UNL     1       9.588 -18.801 -18.604  1.00  0.00     0.133 C 
HETATM   16  C6  UNL     1       8.985 -20.195 -18.461  1.00  0.00     0.021 C 
HETATM   17  C7  UNL     1       9.346 -20.728 -17.095  1.00  0.00     0.003 C 
HETATM   18  C8  UNL     1      10.654 -20.076 -16.638  1.00  0.00     0.021 C 
HETATM   19  C9  UNL     1      10.290 -18.623 -16.309  1.00  0.00     0.133 C 
ENDBRANCH  12  14
ENDBRANCH   4  12
BRANCH   1  20
HETATM   20  C2  UNL     1       8.271 -15.306 -12.391  1.00  0.00     0.291 C 
BRANCH  20  21
HETATM   21  N1  UNL     1       8.470 -16.630 -11.864  1.00  0.00    -0.074 N 
HETATM   22  C1  UNL     1       9.828 -16.940 -11.546  1.00  0.00     0.267 C 
ATOM     23  H12 UNL     1       8.085 -17.327 -12.500  1.00  0.00     0.277 HD
ATOM     24  H11 UNL     1       7.871 -16.784 -11.053  1.00  0.00     0.277 HD
ENDBRANCH  20  21
ENDBRANCH   1  20
BRANCH   8  25
HETATM   25  N4  UNL     1       3.158 -14.103 -12.625  1.00  0.00    -0.311 N 
HETATM   26  C13 UNL     1       2.158 -15.094 -12.346  1.00  0.00     0.187 C 
HETATM   27  N5  UNL     1       0.922 -14.815 -12.543  1.00  0.00    -0.373 N 
HETATM   28  N6  UNL     1       2.498 -16.383 -11.855  1.00  0.00    -0.064 NA
ATOM     29  H52 UNL     1       0.677 -13.889 -12.896  1.00  0.00     0.158 HD
ATOM     30  H51 UNL     1       0.211 -15.519 -12.346  1.00  0.00     0.158 HD
ATOM     31  H4  UNL     1       3.103 -13.153 -12.257  1.00  0.00     0.170 HD
ENDBRANCH   8  25
TORSDOF 5
ENDMDL
MODEL 4
REMARK VINA RESULT: -5.838913667      1.944      2.631
REMARK  5 active torsions:
REMARK  status: ('A' for Active; 'I' for Inactive)
REMARK    1  A    between atoms: N1_2  and  C2_5 
REMARK    2  A    between atoms: C2_5  and  C3_6 
REMARK    3  A    between atoms: C4_9  and  S1_10 
REMARK    4  A    between atoms: S1_10  and  N3_12 
REMARK    5  A    between atoms: C12_21  and  N4_22 
REMARK       I    between atoms: N4_22  and  C13_24 
ROOT
HETATM    1  C3  UNL     1       6.491 -12.137 -14.457  1.00  0.00     0.064 A 
HETATM    2  N2  UNL     1       6.506 -11.895 -15.770  1.00  0.00    -0.348 N 
ATOM      3  H2  UNL     1       7.056 -11.093 -16.077  1.00  0.00     0.166 HD
HETATM    4  C4  UNL     1       5.881 -12.584 -16.721  1.00  0.00     0.123 A 
HETATM    5  C10 UNL     1       5.140 -13.669 -16.257  1.00  0.00     0.062 A 
HETATM    6  C11 UNL     1       5.093 -13.965 -14.884  1.00  0.00     0.040 A 
HETATM    7  S2  UNL     1       4.332 -15.161 -13.927  1.00  0.00    -0.052 SA
HETATM    8  C12 UNL     1       4.895 -14.654 -12.399  1.00  0.00     0.152 A 
HETATM    9  N7  UNL     1       5.645 -13.585 -12.693  1.00  0.00    -0.334 N 
ATOM     10  H7  UNL     1       6.121 -13.063 -11.958  1.00  0.00     0.168 HD
HETATM   11  C14 UNL     1       5.753 -13.228 -13.943  1.00  0.00     0.076 A 
ENDROOT
BRANCH   4  12
HETATM   12  S1  UNL     1       5.928 -12.230 -18.432  1.00  0.00     0.165 S 
HETATM   13  O1  UNL     1       5.368 -10.824 -18.638  1.00  0.00    -0.229 OA
BRANCH  12  14
HETATM   14  N3  UNL     1       5.138 -13.320 -19.440  1.00  0.00    -0.327 N 
HETATM   15  C5  UNL     1       3.984 -12.860 -20.139  1.00  0.00     0.133 C 
HETATM   16  C6  UNL     1       2.947 -13.977 -20.093  1.00  0.00     0.021 C 
HETATM   17  C7  UNL     1       3.666 -15.296 -20.252  1.00  0.00     0.003 C 
HETATM   18  C8  UNL     1       4.956 -15.066 -21.044  1.00  0.00     0.021 C 
HETATM   19  C9  UNL     1       5.895 -14.323 -20.085  1.00  0.00     0.133 C 
ENDBRANCH  12  14
ENDBRANCH   4  12
BRANCH   1  20
HETATM   20  C2  UNL     1       7.265 -11.239 -13.550  1.00  0.00     0.291 C 
BRANCH  20  21
HETATM   21  N1  UNL     1       8.643 -11.653 -13.580  1.00  0.00    -0.074 N 
HETATM   22  C1  UNL     1       9.089 -12.306 -12.391  1.00  0.00     0.267 C 
ATOM     23  H12 UNL     1       9.247 -10.861 -13.799  1.00  0.00     0.277 HD
ATOM     24  H11 UNL     1       8.821 -12.238 -14.396  1.00  0.00     0.277 HD
ENDBRANCH  20  21
ENDBRANCH   1  20
BRANCH   8  25
HETATM   25  N4  UNL     1       4.668 -15.165 -11.207  1.00  0.00    -0.311 N 
HETATM   26  C13 UNL     1       3.399 -14.827 -10.626  1.00  0.00     0.187 C 
HETATM   27  N5  UNL     1       3.356 -14.356  -9.434  1.00  0.00    -0.373 N 
HETATM   28  N6  UNL     1       2.181 -15.000 -11.338  1.00  0.00    -0.064 NA
ATOM     29  H52 UNL     1       4.230 -14.232  -8.923  1.00  0.00     0.158 HD
ATOM     30  H51 UNL     1       2.455 -14.116  -9.023  1.00  0.00     0.158 HD
ATOM     31  H4  UNL     1       5.346 -15.759 -10.729  1.00  0.00     0.170 HD
ENDBRANCH   8  25
TORSDOF 5
ENDMDL
MODEL 5
REMARK VINA RESULT: -5.781750958      3.797      6.677
REMARK  5 active torsions:
REMARK  status: ('A' for Active; 'I' for Inactive)
REMARK    1  A    between atoms: N1_2  and  C2_5 
REMARK    2  A    between atoms: C2_5  and  C3_6 
REMARK    3  A    between atoms: C4_9  and  S1_10 
REMARK    4  A    between atoms: S1_10  and  N3_12 
REMARK    5  A    between atoms: C12_21  and  N4_22 
REMARK       I    between atoms: N4_22  and  C13_24 
ROOT
HETATM    1  C3  UNL     1       7.787 -16.029 -14.318  1.00  0.00     0.064 A 
HETATM    2  N2  UNL     1       6.911 -15.481 -13.473  1.00  0.00    -0.348 N 
ATOM      3  H2  UNL     1       7.048 -15.683 -12.484  1.00  0.00     0.166 HD
HETATM    4  C4  UNL     1       5.878 -14.702 -13.781  1.00  0.00     0.123 A 
HETATM    5  C10 UNL     1       5.726 -14.453 -15.144  1.00  0.00     0.062 A 
HETATM    6  C11 UNL     1       6.622 -15.008 -16.073  1.00  0.00     0.040 A 
HETATM    7  S2  UNL     1       6.791 -14.956 -17.774  1.00  0.00    -0.052 SA
HETATM    8  C12 UNL     1       8.175 -15.944 -17.918  1.00  0.00     0.152 A 
HETATM    9  N7  UNL     1       8.446 -16.269 -16.649  1.00  0.00    -0.334 N 
ATOM     10  H7  UNL     1       9.240 -16.867 -16.421  1.00  0.00     0.168 HD
HETATM   11  C14 UNL     1       7.671 -15.803 -15.709  1.00  0.00     0.076 A 
ENDROOT
BRANCH   4  12
HETATM   12  S1  UNL     1       4.753 -14.005 -12.639  1.00  0.00     0.165 S 
HETATM   13  O1  UNL     1       4.924 -14.730 -11.306  1.00  0.00    -0.229 OA
BRANCH  12  14
HETATM   14  N3  UNL     1       3.133 -14.005 -13.093  1.00  0.00    -0.327 N 
HETATM   15  C5  UNL     1       2.251 -14.882 -12.399  1.00  0.00     0.133 C 
HETATM   16  C6  UNL     1       1.312 -15.496 -13.433  1.00  0.00     0.021 C 
HETATM   17  C7  UNL     1       0.959 -14.429 -14.442  1.00  0.00     0.003 C 
HETATM   18  C8  UNL     1       1.061 -13.056 -13.770  1.00  0.00     0.021 C 
HETATM   19  C9  UNL     1       2.563 -12.808 -13.580  1.00  0.00     0.133 C 
ENDBRANCH  12  14
ENDBRANCH   4  12
BRANCH   1  20
HETATM   20  C2  UNL     1       8.884 -16.879 -13.768  1.00  0.00     0.291 C 
BRANCH  20  21
HETATM   21  N1  UNL     1       8.731 -16.937 -12.338  1.00  0.00    -0.074 N 
HETATM   22  C1  UNL     1       9.961 -16.922 -11.613  1.00  0.00     0.267 C 
ATOM     23  H12 UNL     1       8.171 -17.747 -12.074  1.00  0.00     0.277 HD
ATOM     24  H11 UNL     1       8.119 -16.188 -12.016  1.00  0.00     0.277 HD
ENDBRANCH  20  21
ENDBRANCH   1  20
BRANCH   8  25
HETATM   25  N4  UNL     1       8.837 -16.313 -18.995  1.00  0.00    -0.311 N 
HETATM   26  C13 UNL     1       9.610 -17.514 -18.858  1.00  0.00     0.187 C 
HETATM   27  N5  UNL     1      10.844 -17.513 -19.205  1.00  0.00    -0.373 N 
HETATM   28  N6  UNL     1       9.045 -18.713 -18.345  1.00  0.00    -0.064 NA
ATOM     29  H52 UNL     1      11.250 -16.652 -19.573  1.00  0.00     0.158 HD
ATOM     30  H51 UNL     1      11.394 -18.366 -19.107  1.00  0.00     0.158 HD
ATOM     31  H4  UNL     1       8.802 -15.782 -19.866  1.00  0.00     0.170 HD
ENDBRANCH   8  25
TORSDOF 5
ENDMDL
