MODEL 1
REMARK VINA RESULT: -5.829687876      0.000      0.000
REMARK  9 active torsions:
REMARK  status: ('A' for Active; 'I' for Inactive)
REMARK    1  A    between atoms: N1_2  and  C2_4 
REMARK    2  A    between atoms: C2_4  and  C3_5 
REMARK    3  A    between atoms: C2_4  and  C12_22 
REMARK    4  A    between atoms: C3_5  and  C4_6 
REMARK    5  A    between atoms: C4_6  and  C5_7 
REMARK       I    between atoms: C5_7  and  N2_9 
REMARK    6  A    between atoms: N2_9  and  N3_11 
REMARK    7  A    between atoms: C6_13  and  C7_14 
REMARK    8  A    between atoms: C8_15  and  N4_16 
REMARK    9  A    between atoms: N7_24  and  O2_26 
ROOT
HETATM    1  C5  UNL     1     -62.603 -20.358 -23.367  1.00  0.00     0.236 C 
HETATM    2  O1  UNL     1     -62.418 -21.441 -22.822  1.00  0.00    -0.272 OA
HETATM    3  N2  UNL     1     -63.737 -20.072 -24.135  1.00  0.00    -0.270 N 
ATOM      4  H2  UNL     1     -63.862 -19.158 -24.571  1.00  0.00     0.190 HD
ENDROOT
BRANCH   1   5
HETATM    5  C4  UNL     1     -61.558 -19.273 -23.207  1.00  0.00     0.107 C 
BRANCH   5   6
HETATM    6  C3  UNL     1     -61.854 -18.423 -22.038  1.00  0.00     0.041 C 
BRANCH   6   7
HETATM    7  C2  UNL     1     -60.939 -18.593 -20.879  1.00  0.00     0.143 C 
BRANCH   7   8
HETATM    8  N1  UNL     1     -60.564 -17.447 -20.174  1.00  0.00    -0.415 N 
HETATM    9  C1  UNL     1     -61.328 -16.272 -20.175  1.00  0.00     0.140 C 
ATOM     10  H1  UNL     1     -59.698 -17.466 -19.635  1.00  0.00     0.153 HD
ENDBRANCH   7   8
BRANCH   7  11
HETATM   11  C12 UNL     1     -61.329 -19.745 -20.019  1.00  0.00     0.135 C 
HETATM   12  N6  UNL     1     -60.351 -20.553 -19.415  1.00  0.00    -0.084 NA
HETATM   13  N7  UNL     1     -62.555 -20.003 -19.836  1.00  0.00    -0.257 N 
ATOM     14  H7  UNL     1     -63.235 -19.398 -20.295  1.00  0.00     0.195 HD
BRANCH  13  15
HETATM   15  O2  UNL     1     -63.035 -21.018 -19.079  1.00  0.00    -0.289 OA
ATOM     16  H2  UNL     1     -63.579 -20.917 -18.307  1.00  0.00     0.244 HD
ENDBRANCH  13  15
ENDBRANCH   7  11
ENDBRANCH   6   7
ENDBRANCH   5   6
ENDBRANCH   1   5
BRANCH   3  17
HETATM   17  N3  UNL     1     -64.692 -21.077 -24.281  1.00  0.00    -0.309 N 
HETATM   18  C6  UNL     1     -65.886 -20.884 -23.862  1.00  0.00     0.108 C 
ATOM     19  H3  UNL     1     -64.441 -21.963 -24.721  1.00  0.00     0.186 HD
BRANCH  18  20
HETATM   20  C7  UNL     1     -66.227 -19.619 -23.242  1.00  0.00     0.038 C 
HETATM   21  C8  UNL     1     -67.239 -19.562 -22.417  1.00  0.00     0.117 C 
BRANCH  21  22
HETATM   22  N4  UNL     1     -67.579 -18.324 -21.805  1.00  0.00    -0.279 N 
HETATM   23  C9  UNL     1     -66.794 -17.273 -21.666  1.00  0.00     0.117 A 
HETATM   24  C10 UNL     1     -67.504 -16.287 -21.019  1.00  0.00     0.038 A 
HETATM   25  C11 UNL     1     -68.741 -16.825 -20.791  1.00  0.00     0.109 A 
HETATM   26  N5  UNL     1     -68.764 -18.050 -21.272  1.00  0.00    -0.306 N 
ATOM     27  H5  UNL     1     -69.562 -18.685 -21.240  1.00  0.00     0.186 HD
ENDBRANCH  21  22
ENDBRANCH  18  20
ENDBRANCH   3  17
TORSDOF 9
ENDMDL
MODEL 2
REMARK VINA RESULT: -5.787952044      1.205      1.382
REMARK  9 active torsions:
REMARK  status: ('A' for Active; 'I' for Inactive)
REMARK    1  A    between atoms: N1_2  and  C2_4 
REMARK    2  A    between atoms: C2_4  and  C3_5 
REMARK    3  A    between atoms: C2_4  and  C12_22 
REMARK    4  A    between atoms: C3_5  and  C4_6 
REMARK    5  A    between atoms: C4_6  and  C5_7 
REMARK       I    between atoms: C5_7  and  N2_9 
REMARK    6  A    between atoms: N2_9  and  N3_11 
REMARK    7  A    between atoms: C6_13  and  C7_14 
REMARK    8  A    between atoms: C8_15  and  N4_16 
REMARK    9  A    between atoms: N7_24  and  O2_26 
ROOT
HETATM    1  C5  UNL     1     -62.633 -20.357 -23.351  1.00  0.00     0.236 C 
HETATM    2  O1  UNL     1     -62.753 -20.976 -24.403  1.00  0.00    -0.272 OA
HETATM    3  N2  UNL     1     -63.378 -20.648 -22.203  1.00  0.00    -0.270 N 
ATOM      4  H2  UNL     1     -63.250 -20.116 -21.343  1.00  0.00     0.190 HD
ENDROOT
BRANCH   1   5
HETATM    5  C4  UNL     1     -61.633 -19.221 -23.283  1.00  0.00     0.107 C 
BRANCH   5   6
HETATM    6  C3  UNL     1     -61.869 -18.379 -22.096  1.00  0.00     0.041 C 
BRANCH   6   7
HETATM    7  C2  UNL     1     -60.788 -18.396 -21.076  1.00  0.00     0.143 C 
BRANCH   7   8
HETATM    8  N1  UNL     1     -60.499 -17.200 -20.415  1.00  0.00    -0.415 N 
HETATM    9  C1  UNL     1     -61.475 -16.236 -20.130  1.00  0.00     0.140 C 
ATOM     10  H1  UNL     1     -59.537 -17.022 -20.127  1.00  0.00     0.153 HD
ENDBRANCH   7   8
BRANCH   7  11
HETATM   11  C12 UNL     1     -60.875 -19.586 -20.185  1.00  0.00     0.135 C 
HETATM   12  N6  UNL     1     -62.019 -19.815 -19.402  1.00  0.00    -0.084 NA
HETATM   13  N7  UNL     1     -59.904 -20.397 -20.127  1.00  0.00    -0.257 N 
ATOM     14  H7  UNL     1     -59.089 -20.194 -20.704  1.00  0.00     0.195 HD
BRANCH  13  15
HETATM   15  O2  UNL     1     -59.862 -21.512 -19.358  1.00  0.00    -0.289 OA
ATOM     16  H2  UNL     1     -59.697 -22.391 -19.676  1.00  0.00     0.244 HD
ENDBRANCH  13  15
ENDBRANCH   7  11
ENDBRANCH   6   7
ENDBRANCH   5   6
ENDBRANCH   1   5
BRANCH   3  17
HETATM   17  N3  UNL     1     -64.300 -21.692 -22.276  1.00  0.00    -0.309 N 
HETATM   18  C6  UNL     1     -65.534 -21.467 -22.020  1.00  0.00     0.108 C 
ATOM     19  H3  UNL     1     -63.992 -22.631 -22.531  1.00  0.00     0.186 HD
BRANCH  18  20
HETATM   20  C7  UNL     1     -65.953 -20.128 -21.662  1.00  0.00     0.038 C 
HETATM   21  C8  UNL     1     -67.135 -19.707 -22.027  1.00  0.00     0.117 C 
BRANCH  21  22
HETATM   22  N4  UNL     1     -67.554 -18.393 -21.679  1.00  0.00    -0.279 N 
HETATM   23  C9  UNL     1     -66.811 -17.303 -21.684  1.00  0.00     0.117 A 
HETATM   24  C10 UNL     1     -67.594 -16.246 -21.280  1.00  0.00     0.038 A 
HETATM   25  C11 UNL     1     -68.829 -16.783 -21.041  1.00  0.00     0.109 A 
HETATM   26  N5  UNL     1     -68.783 -18.075 -21.287  1.00  0.00    -0.306 N 
ATOM     27  H5  UNL     1     -69.563 -18.726 -21.193  1.00  0.00     0.186 HD
ENDBRANCH  21  22
ENDBRANCH  18  20
ENDBRANCH   3  17
TORSDOF 9
ENDMDL
MODEL 3
REMARK VINA RESULT: -5.696805760      2.153      3.067
REMARK  9 active torsions:
REMARK  status: ('A' for Active; 'I' for Inactive)
REMARK    1  A    between atoms: N1_2  and  C2_4 
REMARK    2  A    between atoms: C2_4  and  C3_5 
REMARK    3  A    between atoms: C2_4  and  C12_22 
REMARK    4  A    between atoms: C3_5  and  C4_6 
REMARK    5  A    between atoms: C4_6  and  C5_7 
REMARK       I    between atoms: C5_7  and  N2_9 
REMARK    6  A    between atoms: N2_9  and  N3_11 
REMARK    7  A    between atoms: C6_13  and  C7_14 
REMARK    8  A    between atoms: C8_15  and  N4_16 
REMARK    9  A    between atoms: N7_24  and  O2_26 
ROOT
HETATM    1  C5  UNL     1     -64.228 -20.347 -21.587  1.00  0.00     0.236 C 
HETATM    2  O1  UNL     1     -63.633 -20.861 -22.529  1.00  0.00    -0.272 OA
HETATM    3  N2  UNL     1     -65.326 -19.497 -21.749  1.00  0.00    -0.270 N 
ATOM      4  H2  UNL     1     -65.801 -19.089 -20.943  1.00  0.00     0.190 HD
ENDROOT
BRANCH   1   5
HETATM    5  C4  UNL     1     -63.756 -20.643 -20.178  1.00  0.00     0.107 C 
BRANCH   5   6
HETATM    6  C3  UNL     1     -62.902 -19.554 -19.667  1.00  0.00     0.041 C 
BRANCH   6   7
HETATM    7  C2  UNL     1     -61.472 -19.624 -20.067  1.00  0.00     0.143 C 
BRANCH   7   8
HETATM    8  N1  UNL     1     -61.003 -20.828 -20.596  1.00  0.00    -0.415 N 
HETATM    9  C1  UNL     1     -59.641 -21.087 -20.800  1.00  0.00     0.140 C 
ATOM     10  H1  UNL     1     -61.680 -21.550 -20.843  1.00  0.00     0.153 HD
ENDBRANCH   7   8
BRANCH   7  11
HETATM   11  C12 UNL     1     -61.038 -18.412 -20.816  1.00  0.00     0.135 C 
HETATM   12  N6  UNL     1     -61.328 -18.272 -22.184  1.00  0.00    -0.084 NA
HETATM   13  N7  UNL     1     -60.395 -17.502 -20.216  1.00  0.00    -0.257 N 
ATOM     14  H7  UNL     1     -60.198 -17.642 -19.226  1.00  0.00     0.195 HD
BRANCH  13  15
HETATM   15  O2  UNL     1     -59.947 -16.357 -20.785  1.00  0.00    -0.289 OA
ATOM     16  H2  UNL     1     -59.033 -16.126 -20.905  1.00  0.00     0.244 HD
ENDBRANCH  13  15
ENDBRANCH   7  11
ENDBRANCH   6   7
ENDBRANCH   5   6
ENDBRANCH   1   5
BRANCH   3  17
HETATM   17  N3  UNL     1     -65.752 -19.226 -23.049  1.00  0.00    -0.309 N 
HETATM   18  C6  UNL     1     -66.713 -18.403 -23.243  1.00  0.00     0.108 C 
ATOM     19  H3  UNL     1     -65.299 -19.681 -23.842  1.00  0.00     0.186 HD
BRANCH  18  20
HETATM   20  C7  UNL     1     -67.343 -17.764 -22.106  1.00  0.00     0.038 C 
HETATM   21  C8  UNL     1     -68.647 -17.730 -22.030  1.00  0.00     0.117 C 
BRANCH  21  22
HETATM   22  N4  UNL     1     -69.272 -17.103 -20.917  1.00  0.00    -0.279 N 
HETATM   23  C9  UNL     1     -68.749 -16.174 -20.141  1.00  0.00     0.117 A 
HETATM   24  C10 UNL     1     -69.678 -15.840 -19.182  1.00  0.00     0.038 A 
HETATM   25  C11 UNL     1     -70.766 -16.626 -19.445  1.00  0.00     0.109 A 
HETATM   26  N5  UNL     1     -70.501 -17.378 -20.493  1.00  0.00    -0.306 N 
ATOM     27  H5  UNL     1     -71.135 -18.060 -20.910  1.00  0.00     0.186 HD
ENDBRANCH  21  22
ENDBRANCH  18  20
ENDBRANCH   3  17
TORSDOF 9
ENDMDL
MODEL 4
REMARK VINA RESULT: -5.587033099      1.555      2.058
REMARK  9 active torsions:
REMARK  status: ('A' for Active; 'I' for Inactive)
REMARK    1  A    between atoms: N1_2  and  C2_4 
REMARK    2  A    between atoms: C2_4  and  C3_5 
REMARK    3  A    between atoms: C2_4  and  C12_22 
REMARK    4  A    between atoms: C3_5  and  C4_6 
REMARK    5  A    between atoms: C4_6  and  C5_7 
REMARK       I    between atoms: C5_7  and  N2_9 
REMARK    6  A    between atoms: N2_9  and  N3_11 
REMARK    7  A    between atoms: C6_13  and  C7_14 
REMARK    8  A    between atoms: C8_15  and  N4_16 
REMARK    9  A    between atoms: N7_24  and  O2_26 
ROOT
HETATM    1  C5  UNL     1     -62.678 -20.299 -23.803  1.00  0.00     0.236 C 
HETATM    2  O1  UNL     1     -62.696 -21.511 -23.610  1.00  0.00    -0.272 OA
HETATM    3  N2  UNL     1     -63.628 -19.635 -24.586  1.00  0.00    -0.270 N 
ATOM      4  H2  UNL     1     -63.586 -18.626 -24.723  1.00  0.00     0.190 HD
ENDROOT
BRANCH   1   5
HETATM    5  C4  UNL     1     -61.577 -19.476 -23.167  1.00  0.00     0.107 C 
BRANCH   5   6
HETATM    6  C3  UNL     1     -62.069 -18.775 -21.966  1.00  0.00     0.041 C 
BRANCH   6   7
HETATM    7  C2  UNL     1     -62.066 -19.576 -20.714  1.00  0.00     0.143 C 
BRANCH   7   8
HETATM    8  N1  UNL     1     -63.034 -20.574 -20.579  1.00  0.00    -0.415 N 
HETATM    9  C1  UNL     1     -64.409 -20.310 -20.646  1.00  0.00     0.140 C 
ATOM     10  H1  UNL     1     -62.728 -21.535 -20.426  1.00  0.00     0.153 HD
ENDBRANCH   7   8
BRANCH   7  11
HETATM   11  C12 UNL     1     -60.693 -19.993 -20.316  1.00  0.00     0.135 C 
HETATM   12  N6  UNL     1     -59.703 -19.035 -20.041  1.00  0.00    -0.084 NA
HETATM   13  N7  UNL     1     -60.412 -21.225 -20.232  1.00  0.00    -0.257 N 
ATOM     14  H7  UNL     1     -61.155 -21.890 -20.445  1.00  0.00     0.195 HD
BRANCH  13  15
HETATM   15  O2  UNL     1     -59.205 -21.729 -19.882  1.00  0.00    -0.289 OA
ATOM     16  H2  UNL     1     -58.644 -22.248 -20.445  1.00  0.00     0.244 HD
ENDBRANCH  13  15
ENDBRANCH   7  11
ENDBRANCH   6   7
ENDBRANCH   5   6
ENDBRANCH   1   5
BRANCH   3  17
HETATM   17  N3  UNL     1     -64.635 -20.401 -25.173  1.00  0.00    -0.309 N 
HETATM   18  C6  UNL     1     -65.848 -20.252 -24.792  1.00  0.00     0.108 C 
ATOM     19  H3  UNL     1     -64.407 -21.077 -25.902  1.00  0.00     0.186 HD
BRANCH  18  20
HETATM   20  C7  UNL     1     -66.155 -19.286 -23.756  1.00  0.00     0.038 C 
HETATM   21  C8  UNL     1     -67.098 -18.404 -23.961  1.00  0.00     0.117 C 
BRANCH  21  22
HETATM   22  N4  UNL     1     -67.405 -17.453 -22.950  1.00  0.00    -0.279 N 
HETATM   23  C9  UNL     1     -66.869 -17.384 -21.746  1.00  0.00     0.117 A 
HETATM   24  C10 UNL     1     -67.442 -16.325 -21.079  1.00  0.00     0.038 A 
HETATM   25  C11 UNL     1     -68.338 -15.786 -21.962  1.00  0.00     0.109 A 
HETATM   26  N5  UNL     1     -68.299 -16.479 -23.080  1.00  0.00    -0.306 N 
ATOM     27  H5  UNL     1     -68.864 -16.299 -23.911  1.00  0.00     0.186 HD
ENDBRANCH  21  22
ENDBRANCH  18  20
ENDBRANCH   3  17
TORSDOF 9
ENDMDL
MODEL 5
REMARK VINA RESULT: -5.457066563      1.774      2.302
REMARK  9 active torsions:
REMARK  status: ('A' for Active; 'I' for Inactive)
REMARK    1  A    between atoms: N1_2  and  C2_4 
REMARK    2  A    between atoms: C2_4  and  C3_5 
REMARK    3  A    between atoms: C2_4  and  C12_22 
REMARK    4  A    between atoms: C3_5  and  C4_6 
REMARK    5  A    between atoms: C4_6  and  C5_7 
REMARK       I    between atoms: C5_7  and  N2_9 
REMARK    6  A    between atoms: N2_9  and  N3_11 
REMARK    7  A    between atoms: C6_13  and  C7_14 
REMARK    8  A    between atoms: C8_15  and  N4_16 
REMARK    9  A    between atoms: N7_24  and  O2_26 
ROOT
HETATM    1  C5  UNL     1     -62.771 -20.321 -24.194  1.00  0.00     0.236 C 
HETATM    2  O1  UNL     1     -62.717 -21.547 -24.198  1.00  0.00    -0.272 OA
HETATM    3  N2  UNL     1     -63.868 -19.603 -24.683  1.00  0.00    -0.270 N 
ATOM      4  H2  UNL     1     -63.883 -18.584 -24.661  1.00  0.00     0.190 HD
ENDROOT
BRANCH   1   5
HETATM    5  C4  UNL     1     -61.599 -19.541 -23.635  1.00  0.00     0.107 C 
BRANCH   5   6
HETATM    6  C3  UNL     1     -61.264 -19.994 -22.272  1.00  0.00     0.041 C 
BRANCH   6   7
HETATM    7  C2  UNL     1     -62.206 -19.560 -21.207  1.00  0.00     0.143 C 
BRANCH   7   8
HETATM    8  N1  UNL     1     -63.008 -20.536 -20.612  1.00  0.00    -0.415 N 
HETATM    9  C1  UNL     1     -64.392 -20.611 -20.823  1.00  0.00     0.140 C 
ATOM     10  H1  UNL     1     -62.570 -21.223 -20.000  1.00  0.00     0.153 HD
ENDBRANCH   7   8
BRANCH   7  11
HETATM   11  C12 UNL     1     -61.571 -18.616 -20.246  1.00  0.00     0.135 C 
HETATM   12  N6  UNL     1     -61.221 -19.036 -18.952  1.00  0.00    -0.084 NA
HETATM   13  N7  UNL     1     -61.351 -17.420 -20.596  1.00  0.00    -0.257 N 
ATOM     14  H7  UNL     1     -61.625 -17.150 -21.540  1.00  0.00     0.195 HD
BRANCH  13  15
HETATM   15  O2  UNL     1     -60.782 -16.469 -19.816  1.00  0.00    -0.289 OA
ATOM     16  H2  UNL     1     -61.109 -15.584 -19.704  1.00  0.00     0.244 HD
ENDBRANCH  13  15
ENDBRANCH   7  11
ENDBRANCH   6   7
ENDBRANCH   5   6
ENDBRANCH   1   5
BRANCH   3  17
HETATM   17  N3  UNL     1     -64.941 -20.329 -25.199  1.00  0.00    -0.309 N 
HETATM   18  C6  UNL     1     -66.123 -20.113 -24.759  1.00  0.00     0.108 C 
ATOM     19  H3  UNL     1     -64.785 -21.029 -25.925  1.00  0.00     0.186 HD
BRANCH  18  20
HETATM   20  C7  UNL     1     -66.328 -19.113 -23.730  1.00  0.00     0.038 C 
HETATM   21  C8  UNL     1     -67.324 -18.275 -23.840  1.00  0.00     0.117 C 
BRANCH  21  22
HETATM   22  N4  UNL     1     -67.531 -17.291 -22.834  1.00  0.00    -0.279 N 
HETATM   23  C9  UNL     1     -66.940 -17.234 -21.656  1.00  0.00     0.117 A 
HETATM   24  C10 UNL     1     -67.422 -16.133 -20.986  1.00  0.00     0.038 A 
HETATM   25  C11 UNL     1     -68.323 -15.557 -21.838  1.00  0.00     0.109 A 
HETATM   26  N5  UNL     1     -68.373 -16.270 -22.944  1.00  0.00    -0.306 N 
ATOM     27  H5  UNL     1     -68.962 -16.070 -23.753  1.00  0.00     0.186 HD
ENDBRANCH  21  22
ENDBRANCH  18  20
ENDBRANCH   3  17
TORSDOF 9
ENDMDL
