MODEL 1
REMARK VINA RESULT: -5.573574495      0.000      0.000
REMARK  7 active torsions:
REMARK  status: ('A' for Active; 'I' for Inactive)
REMARK    1  A    between atoms: C2_3  and  C3_4 
REMARK    2  A    between atoms: C3_4  and  N2_5 
REMARK    3  A    between atoms: N5_14  and  C8_15 
REMARK    4  A    between atoms: C8_15  and  C9_16 
REMARK       I    between atoms: C9_16  and  N6_18 
REMARK    5  A    between atoms: N6_18  and  C10_20 
REMARK    6  A    between atoms: C10_20  and  C11_21 
REMARK    7  A    between atoms: C11_21  and  N7_22 
REMARK       I    between atoms: N7_22  and  C12_24 
ROOT
HETATM    1  N1  UNL     1     -58.165 -21.547 -22.179  1.00  0.00    -0.197 NA
HETATM    2  C1  UNL     1     -58.904 -21.393 -21.306  1.00  0.00     0.060 C 
HETATM    3  C2  UNL     1     -59.833 -21.175 -20.190  1.00  0.00     0.144 C 
ENDROOT
BRANCH   3   4
HETATM    4  C3  UNL     1     -60.182 -19.698 -20.107  1.00  0.00     0.145 C 
BRANCH   4   5
HETATM    5  N2  UNL     1     -61.294 -19.372 -20.985  1.00  0.00    -0.325 N 
HETATM    6  C4  UNL     1     -61.291 -18.566 -22.067  1.00  0.00     0.186 A 
HETATM    7  N3  UNL     1     -62.519 -18.524 -22.614  1.00  0.00    -0.335 N 
HETATM    8  C5  UNL     1     -63.350 -19.309 -21.890  1.00  0.00     0.155 A 
ATOM      9  H3  UNL     1     -62.782 -17.987 -23.440  1.00  0.00     0.168 HD
HETATM   10  C6  UNL     1     -62.570 -19.829 -20.879  1.00  0.00     0.154 A 
HETATM   11  N5  UNL     1     -64.625 -19.768 -21.780  1.00  0.00    -0.317 N 
HETATM   12  N4  UNL     1     -63.405 -20.610 -20.160  1.00  0.00    -0.335 N 
HETATM   13  C7  UNL     1     -64.642 -20.582 -20.690  1.00  0.00     0.186 A 
ATOM     14  H4  UNL     1     -63.137 -21.144 -19.333  1.00  0.00     0.168 HD
BRANCH  11  15
HETATM   15  C8  UNL     1     -65.737 -19.451 -22.649  1.00  0.00     0.234 C 
BRANCH  15  16
HETATM   16  C9  UNL     1     -66.847 -18.860 -21.866  1.00  0.00     0.235 C 
HETATM   17  O1  UNL     1     -67.872 -19.515 -21.606  1.00  0.00    -0.272 OA
HETATM   18  N6  UNL     1     -66.734 -17.532 -21.413  1.00  0.00    -0.358 N 
ATOM     19  H6  UNL     1     -65.898 -16.985 -21.619  1.00  0.00     0.162 HD
BRANCH  18  20
HETATM   20  C10 UNL     1     -67.821 -16.952 -20.649  1.00  0.00     0.142 C 
BRANCH  20  21
HETATM   21  C11 UNL     1     -68.603 -16.008 -21.514  1.00  0.00     0.142 C 
BRANCH  21  22
HETATM   22  N7  UNL     1     -68.196 -14.650 -21.240  1.00  0.00    -0.363 N 
HETATM   23  C12 UNL     1     -68.651 -13.546 -21.997  1.00  0.00     0.181 C 
HETATM   24  N8  UNL     1     -69.383 -13.702 -23.046  1.00  0.00    -0.374 N 
HETATM   25  N9  UNL     1     -68.300 -12.235 -21.604  1.00  0.00    -0.064 NA
ATOM     26  H82 UNL     1     -69.637 -14.649 -23.330  1.00  0.00     0.158 HD
ATOM     27  H81 UNL     1     -69.712 -12.907 -23.592  1.00  0.00     0.158 HD
ATOM     28  H7  UNL     1     -67.553 -14.479 -20.467  1.00  0.00     0.162 HD
ENDBRANCH  21  22
ENDBRANCH  20  21
ENDBRANCH  18  20
ENDBRANCH  15  16
ENDBRANCH  11  15
ENDBRANCH   4   5
ENDBRANCH   3   4
TORSDOF 7
ENDMDL
MODEL 2
REMARK VINA RESULT: -5.527065683      2.061      3.113
REMARK  7 active torsions:
REMARK  status: ('A' for Active; 'I' for Inactive)
REMARK    1  A    between atoms: C2_3  and  C3_4 
REMARK    2  A    between atoms: C3_4  and  N2_5 
REMARK    3  A    between atoms: N5_14  and  C8_15 
REMARK    4  A    between atoms: C8_15  and  C9_16 
REMARK       I    between atoms: C9_16  and  N6_18 
REMARK    5  A    between atoms: N6_18  and  C10_20 
REMARK    6  A    between atoms: C10_20  and  C11_21 
REMARK    7  A    between atoms: C11_21  and  N7_22 
REMARK       I    between atoms: N7_22  and  C12_24 
ROOT
HETATM    1  N1  UNL     1     -61.339 -16.301 -20.876  1.00  0.00    -0.197 NA
HETATM    2  C1  UNL     1     -61.172 -17.250 -20.241  1.00  0.00     0.060 C 
HETATM    3  C2  UNL     1     -60.974 -18.471 -19.449  1.00  0.00     0.144 C 
ENDROOT
BRANCH   3   4
HETATM    4  C3  UNL     1     -60.848 -19.662 -20.385  1.00  0.00     0.145 C 
BRANCH   4   5
HETATM    5  N2  UNL     1     -62.129 -19.994 -20.986  1.00  0.00    -0.325 N 
HETATM    6  C4  UNL     1     -63.286 -20.300 -20.363  1.00  0.00     0.186 A 
HETATM    7  N3  UNL     1     -64.248 -20.544 -21.272  1.00  0.00    -0.335 N 
HETATM    8  C5  UNL     1     -63.728 -20.399 -22.512  1.00  0.00     0.155 A 
ATOM      9  H3  UNL     1     -65.213 -20.798 -21.060  1.00  0.00     0.168 HD
HETATM   10  C6  UNL     1     -62.407 -20.057 -22.316  1.00  0.00     0.154 A 
HETATM   11  N5  UNL     1     -64.002 -20.461 -23.843  1.00  0.00    -0.317 N 
HETATM   12  N4  UNL     1     -61.894 -19.915 -23.557  1.00  0.00    -0.335 N 
HETATM   13  C7  UNL     1     -62.841 -20.155 -24.483  1.00  0.00     0.186 A 
ATOM     14  H4  UNL     1     -60.927 -19.662 -23.764  1.00  0.00     0.168 HD
BRANCH  11  15
HETATM   15  C8  UNL     1     -65.272 -20.789 -24.451  1.00  0.00     0.234 C 
BRANCH  15  16
HETATM   16  C9  UNL     1     -66.082 -19.563 -24.642  1.00  0.00     0.235 C 
HETATM   17  O1  UNL     1     -66.136 -18.992 -25.746  1.00  0.00    -0.272 OA
HETATM   18  N6  UNL     1     -66.800 -19.039 -23.550  1.00  0.00    -0.358 N 
ATOM     19  H6  UNL     1     -66.764 -19.499 -22.640  1.00  0.00     0.162 HD
BRANCH  18  20
HETATM   20  C10 UNL     1     -67.590 -17.839 -23.735  1.00  0.00     0.142 C 
BRANCH  20  21
HETATM   21  C11 UNL     1     -68.422 -17.583 -22.513  1.00  0.00     0.142 C 
BRANCH  21  22
HETATM   22  N7  UNL     1     -68.777 -16.185 -22.451  1.00  0.00    -0.363 N 
HETATM   23  C12 UNL     1     -68.251 -15.303 -21.481  1.00  0.00     0.181 C 
HETATM   24  N8  UNL     1     -67.493 -15.722 -20.527  1.00  0.00    -0.374 N 
HETATM   25  N9  UNL     1     -68.557 -13.925 -21.548  1.00  0.00    -0.064 NA
ATOM     26  H82 UNL     1     -67.271 -16.717 -20.478  1.00  0.00     0.158 HD
ATOM     27  H81 UNL     1     -67.113 -15.086 -19.827  1.00  0.00     0.158 HD
ATOM     28  H7  UNL     1     -69.437 -15.819 -23.137  1.00  0.00     0.162 HD
ENDBRANCH  21  22
ENDBRANCH  20  21
ENDBRANCH  18  20
ENDBRANCH  15  16
ENDBRANCH  11  15
ENDBRANCH   4   5
ENDBRANCH   3   4
TORSDOF 7
ENDMDL
MODEL 3
REMARK VINA RESULT: -5.513007951      4.439      7.636
REMARK  7 active torsions:
REMARK  status: ('A' for Active; 'I' for Inactive)
REMARK    1  A    between atoms: C2_3  and  C3_4 
REMARK    2  A    between atoms: C3_4  and  N2_5 
REMARK    3  A    between atoms: N5_14  and  C8_15 
REMARK    4  A    between atoms: C8_15  and  C9_16 
REMARK       I    between atoms: C9_16  and  N6_18 
REMARK    5  A    between atoms: N6_18  and  C10_20 
REMARK    6  A    between atoms: C10_20  and  C11_21 
REMARK    7  A    between atoms: C11_21  and  N7_22 
REMARK       I    between atoms: N7_22  and  C12_24 
ROOT
HETATM    1  N1  UNL     1     -61.499 -16.142 -20.853  1.00  0.00    -0.197 NA
HETATM    2  C1  UNL     1     -61.408 -17.150 -20.299  1.00  0.00     0.060 C 
HETATM    3  C2  UNL     1     -61.284 -18.444 -19.614  1.00  0.00     0.144 C 
ENDROOT
BRANCH   3   4
HETATM    4  C3  UNL     1     -60.078 -19.189 -20.162  1.00  0.00     0.145 C 
BRANCH   4   5
HETATM    5  N2  UNL     1     -60.486 -20.348 -20.938  1.00  0.00    -0.325 N 
HETATM    6  C4  UNL     1     -59.778 -21.466 -21.200  1.00  0.00     0.186 A 
HETATM    7  N3  UNL     1     -60.507 -22.309 -21.953  1.00  0.00    -0.335 N 
HETATM    8  C5  UNL     1     -61.714 -21.748 -22.196  1.00  0.00     0.155 A 
ATOM      9  H3  UNL     1     -60.200 -23.222 -22.287  1.00  0.00     0.168 HD
HETATM   10  C6  UNL     1     -61.684 -20.527 -21.557  1.00  0.00     0.154 A 
HETATM   11  N5  UNL     1     -62.913 -21.922 -22.814  1.00  0.00    -0.317 N 
HETATM   12  N4  UNL     1     -62.890 -19.972 -21.805  1.00  0.00    -0.335 N 
HETATM   13  C7  UNL     1     -63.638 -20.799 -22.559  1.00  0.00     0.186 A 
ATOM     14  H4  UNL     1     -63.191 -19.057 -21.470  1.00  0.00     0.168 HD
BRANCH  11  15
HETATM   15  C8  UNL     1     -63.329 -23.071 -23.588  1.00  0.00     0.234 C 
BRANCH  15  16
HETATM   16  C9  UNL     1     -64.538 -23.683 -22.989  1.00  0.00     0.235 C 
HETATM   17  O1  UNL     1     -65.667 -23.478 -23.467  1.00  0.00    -0.272 OA
HETATM   18  N6  UNL     1     -64.398 -24.510 -21.858  1.00  0.00    -0.358 N 
ATOM     19  H6  UNL     1     -63.477 -24.687 -21.458  1.00  0.00     0.162 HD
BRANCH  18  20
HETATM   20  C10 UNL     1     -65.580 -25.107 -21.270  1.00  0.00     0.142 C 
BRANCH  20  21
HETATM   21  C11 UNL     1     -65.200 -26.340 -20.504  1.00  0.00     0.142 C 
BRANCH  21  22
HETATM   22  N7  UNL     1     -65.977 -26.415 -19.289  1.00  0.00    -0.363 N 
HETATM   23  C12 UNL     1     -65.440 -26.866 -18.062  1.00  0.00     0.181 C 
HETATM   24  N8  UNL     1     -64.241 -27.333 -17.981  1.00  0.00    -0.374 N 
HETATM   25  N9  UNL     1     -66.227 -26.809 -16.890  1.00  0.00    -0.064 NA
ATOM     26  H82 UNL     1     -63.673 -27.374 -18.827  1.00  0.00     0.158 HD
ATOM     27  H81 UNL     1     -63.853 -27.657 -17.095  1.00  0.00     0.158 HD
ATOM     28  H7  UNL     1     -66.956 -26.131 -19.318  1.00  0.00     0.162 HD
ENDBRANCH  21  22
ENDBRANCH  20  21
ENDBRANCH  18  20
ENDBRANCH  15  16
ENDBRANCH  11  15
ENDBRANCH   4   5
ENDBRANCH   3   4
TORSDOF 7
ENDMDL
MODEL 4
REMARK VINA RESULT: -5.500014851      1.799      2.679
REMARK  7 active torsions:
REMARK  status: ('A' for Active; 'I' for Inactive)
REMARK    1  A    between atoms: C2_3  and  C3_4 
REMARK    2  A    between atoms: C3_4  and  N2_5 
REMARK    3  A    between atoms: N5_14  and  C8_15 
REMARK    4  A    between atoms: C8_15  and  C9_16 
REMARK       I    between atoms: C9_16  and  N6_18 
REMARK    5  A    between atoms: N6_18  and  C10_20 
REMARK    6  A    between atoms: C10_20  and  C11_21 
REMARK    7  A    between atoms: C11_21  and  N7_22 
REMARK       I    between atoms: N7_22  and  C12_24 
ROOT
HETATM    1  N1  UNL     1     -61.136 -16.510 -20.863  1.00  0.00    -0.197 NA
HETATM    2  C1  UNL     1     -61.070 -17.532 -20.329  1.00  0.00     0.060 C 
HETATM    3  C2  UNL     1     -60.992 -18.842 -19.671  1.00  0.00     0.144 C 
ENDROOT
BRANCH   3   4
HETATM    4  C3  UNL     1     -60.402 -19.856 -20.637  1.00  0.00     0.145 C 
BRANCH   4   5
HETATM    5  N2  UNL     1     -61.300 -20.100 -21.754  1.00  0.00    -0.325 N 
HETATM    6  C4  UNL     1     -61.079 -19.870 -23.065  1.00  0.00     0.186 A 
HETATM    7  N3  UNL     1     -62.157 -20.232 -23.784  1.00  0.00    -0.335 N 
HETATM    8  C5  UNL     1     -63.106 -20.708 -22.945  1.00  0.00     0.155 A 
ATOM      9  H3  UNL     1     -62.245 -20.160 -24.797  1.00  0.00     0.168 HD
HETATM   10  C6  UNL     1     -62.556 -20.617 -21.684  1.00  0.00     0.154 A 
HETATM   11  N5  UNL     1     -64.361 -21.225 -22.871  1.00  0.00    -0.317 N 
HETATM   12  N4  UNL     1     -63.508 -21.092 -20.852  1.00  0.00    -0.335 N 
HETATM   13  C7  UNL     1     -64.597 -21.460 -21.552  1.00  0.00     0.186 A 
ATOM     14  H4  UNL     1     -63.415 -21.161 -19.838  1.00  0.00     0.168 HD
BRANCH  11  15
HETATM   15  C8  UNL     1     -65.262 -21.473 -23.975  1.00  0.00     0.234 C 
BRANCH  15  16
HETATM   16  C9  UNL     1     -66.438 -20.577 -23.889  1.00  0.00     0.235 C 
HETATM   17  O1  UNL     1     -67.590 -21.034 -23.791  1.00  0.00    -0.272 OA
HETATM   18  N6  UNL     1     -66.241 -19.183 -23.920  1.00  0.00    -0.358 N 
ATOM     19  H6  UNL     1     -65.301 -18.796 -23.999  1.00  0.00     0.162 HD
BRANCH  18  20
HETATM   20  C10 UNL     1     -67.392 -18.306 -23.838  1.00  0.00     0.142 C 
BRANCH  20  21
HETATM   21  C11 UNL     1     -67.498 -17.733 -22.455  1.00  0.00     0.142 C 
BRANCH  21  22
HETATM   22  N7  UNL     1     -67.998 -16.381 -22.526  1.00  0.00    -0.363 N 
HETATM   23  C12 UNL     1     -68.073 -15.531 -21.399  1.00  0.00     0.181 C 
HETATM   24  N8  UNL     1     -67.789 -15.953 -20.215  1.00  0.00    -0.374 N 
HETATM   25  N9  UNL     1     -68.469 -14.185 -21.563  1.00  0.00    -0.064 NA
ATOM     26  H82 UNL     1     -67.503 -16.925 -20.097  1.00  0.00     0.158 HD
ATOM     27  H81 UNL     1     -67.842 -15.340 -19.402  1.00  0.00     0.158 HD
ATOM     28  H7  UNL     1     -68.311 -16.024 -23.428  1.00  0.00     0.162 HD
ENDBRANCH  21  22
ENDBRANCH  20  21
ENDBRANCH  18  20
ENDBRANCH  15  16
ENDBRANCH  11  15
ENDBRANCH   4   5
ENDBRANCH   3   4
TORSDOF 7
ENDMDL
MODEL 5
REMARK VINA RESULT: -5.482455231      4.320      7.277
REMARK  7 active torsions:
REMARK  status: ('A' for Active; 'I' for Inactive)
REMARK    1  A    between atoms: C2_3  and  C3_4 
REMARK    2  A    between atoms: C3_4  and  N2_5 
REMARK    3  A    between atoms: N5_14  and  C8_15 
REMARK    4  A    between atoms: C8_15  and  C9_16 
REMARK       I    between atoms: C9_16  and  N6_18 
REMARK    5  A    between atoms: N6_18  and  C10_20 
REMARK    6  A    between atoms: C10_20  and  C11_21 
REMARK    7  A    between atoms: C11_21  and  N7_22 
REMARK       I    between atoms: N7_22  and  C12_24 
ROOT
HETATM    1  N1  UNL     1     -61.101 -16.461 -20.941  1.00  0.00    -0.197 NA
HETATM    2  C1  UNL     1     -61.137 -17.401 -20.271  1.00  0.00     0.060 C 
HETATM    3  C2  UNL     1     -61.186 -18.610 -19.439  1.00  0.00     0.144 C 
ENDROOT
BRANCH   3   4
HETATM    4  C3  UNL     1     -60.442 -19.734 -20.142  1.00  0.00     0.145 C 
BRANCH   4   5
HETATM    5  N2  UNL     1     -61.299 -20.411 -21.101  1.00  0.00    -0.325 N 
HETATM    6  C4  UNL     1     -60.939 -21.049 -22.234  1.00  0.00     0.186 A 
HETATM    7  N3  UNL     1     -62.026 -21.548 -22.847  1.00  0.00    -0.335 N 
HETATM    8  C5  UNL     1     -63.123 -21.241 -22.117  1.00  0.00     0.155 A 
ATOM      9  H3  UNL     1     -62.025 -22.073 -23.721  1.00  0.00     0.168 HD
HETATM   10  C6  UNL     1     -62.652 -20.532 -21.033  1.00  0.00     0.154 A 
HETATM   11  N5  UNL     1     -64.476 -21.360 -22.045  1.00  0.00    -0.317 N 
HETATM   12  N4  UNL     1     -63.751 -20.227 -20.309  1.00  0.00    -0.335 N 
HETATM   13  C7  UNL     1     -64.853 -20.718 -20.906  1.00  0.00     0.186 A 
ATOM     14  H4  UNL     1     -63.747 -19.701 -19.435  1.00  0.00     0.168 HD
BRANCH  11  15
HETATM   15  C8  UNL     1     -65.337 -22.032 -22.993  1.00  0.00     0.234 C 
BRANCH  15  16
HETATM   16  C9  UNL     1     -66.228 -22.985 -22.291  1.00  0.00     0.235 C 
HETATM   17  O1  UNL     1     -67.445 -22.759 -22.170  1.00  0.00    -0.272 OA
HETATM   18  N6  UNL     1     -65.680 -24.165 -21.753  1.00  0.00    -0.358 N 
ATOM     19  H6  UNL     1     -64.684 -24.362 -21.847  1.00  0.00     0.162 HD
BRANCH  18  20
HETATM   20  C10 UNL     1     -66.551 -25.097 -21.065  1.00  0.00     0.142 C 
BRANCH  20  21
HETATM   21  C11 UNL     1     -65.731 -26.051 -20.247  1.00  0.00     0.142 C 
BRANCH  21  22
HETATM   22  N7  UNL     1     -66.424 -26.360 -19.019  1.00  0.00    -0.363 N 
HETATM   23  C12 UNL     1     -65.753 -26.730 -17.832  1.00  0.00     0.181 C 
HETATM   24  N8  UNL     1     -64.477 -26.912 -17.806  1.00  0.00    -0.374 N 
HETATM   25  N9  UNL     1     -66.488 -26.910 -16.639  1.00  0.00    -0.064 NA
ATOM     26  H82 UNL     1     -63.946 -26.781 -18.668  1.00  0.00     0.158 HD
ATOM     27  H81 UNL     1     -63.993 -27.179 -16.950  1.00  0.00     0.158 HD
ATOM     28  H7  UNL     1     -67.443 -26.308 -19.008  1.00  0.00     0.162 HD
ENDBRANCH  21  22
ENDBRANCH  20  21
ENDBRANCH  18  20
ENDBRANCH  15  16
ENDBRANCH  11  15
ENDBRANCH   4   5
ENDBRANCH   3   4
TORSDOF 7
ENDMDL
