MODEL 1
REMARK VINA RESULT: -5.230208098      0.000      0.000
REMARK  13 active torsions:
REMARK  status: ('A' for Active; 'I' for Inactive)
REMARK    1  A    between atoms: C2_2  and  C3_3 
REMARK    2  A    between atoms: C7_7  and  C8_8 
REMARK    3  A    between atoms: C8_8  and  O1_9 
REMARK    4  A    between atoms: C8_8  and  C9_11 
REMARK    5  A    between atoms: C9_11  and  N1_12 
REMARK    6  A    between atoms: N1_12  and  N2_13 
REMARK    7  A    between atoms: N1_12  and  C10_16 
REMARK    8  A    between atoms: C10_16  and  C11_17 
REMARK    9  A    between atoms: C11_17  and  N3_18 
REMARK   10  A    between atoms: N3_18  and  O2_19 
REMARK   11  A    between atoms: N3_18  and  C12_21 
REMARK   12  A    between atoms: C12_21  and  C13_22 
REMARK   13  A    between atoms: C13_22  and  N4_23 
ROOT
HETATM    1  N1  UNL     1      13.743 -67.791  23.537  1.00  0.00    -0.289 N 
ENDROOT
BRANCH   1   2
HETATM    2  C9  UNL     1      13.000 -66.816  22.931  1.00  0.00     0.124 C 
BRANCH   2   3
HETATM    3  C8  UNL     1      13.480 -66.173  21.658  1.00  0.00     0.193 C 
BRANCH   3   4
HETATM    4  C7  UNL     1      13.895 -64.778  21.934  1.00  0.00     0.000 A 
HETATM    5  C6  UNL     1      13.966 -64.241  23.200  1.00  0.00     0.012 A 
HETATM    6  C5  UNL     1      14.315 -62.920  23.448  1.00  0.00     0.001 A 
HETATM    7  C4  UNL     1      14.605 -62.094  22.396  1.00  0.00     0.009 A 
HETATM    8  C3  UNL     1      14.546 -62.594  21.102  1.00  0.00    -0.034 A 
HETATM    9  C16 UNL     1      14.193 -63.930  20.871  1.00  0.00     0.061 A 
HETATM   10  N7  UNL     1      14.128 -64.427  19.542  1.00  0.00    -0.101 NA
BRANCH   8  11
HETATM   11  C2  UNL     1      14.839 -61.744  19.929  1.00  0.00     0.036 C 
HETATM   12  C1  UNL     1      15.936 -60.776  20.264  1.00  0.00     0.010 C 
ENDBRANCH   8  11
ENDBRANCH   3   4
BRANCH   3  13
HETATM   13  O1  UNL     1      14.353 -66.939  20.955  1.00  0.00    -0.386 OA
ATOM     14  H1  UNL     1      14.822 -67.605  21.443  1.00  0.00     0.210 HD
ENDBRANCH   3  13
ENDBRANCH   2   3
ENDBRANCH   1   2
BRANCH   1  15
HETATM   15  N2  UNL     1      13.748 -68.999  22.787  1.00  0.00    -0.340 N 
ATOM     16  H22 UNL     1      13.805 -68.840  21.781  1.00  0.00     0.177 HD
ATOM     17  H21 UNL     1      13.325 -69.771  23.303  1.00  0.00     0.177 HD
ENDBRANCH   1  15
BRANCH   1  18
HETATM   18  C10 UNL     1      14.835 -67.679  24.382  1.00  0.00     0.104 C 
BRANCH  18  19
HETATM   19  C11 UNL     1      16.106 -68.343  23.890  1.00  0.00     0.167 C 
BRANCH  19  20
HETATM   20  N3  UNL     1      16.617 -67.774  22.662  1.00  0.00    -0.193 NA
BRANCH  20  21
HETATM   21  O2  UNL     1      16.658 -68.616  21.630  1.00  0.00    -0.313 OA
ATOM     22  H2  UNL     1      16.263 -68.287  20.831  1.00  0.00     0.237 HD
ENDBRANCH  20  21
BRANCH  20  23
HETATM   23  C12 UNL     1      17.915 -67.190  22.955  1.00  0.00     0.141 C 
BRANCH  23  24
HETATM   24  C13 UNL     1      18.225 -66.011  22.065  1.00  0.00     0.147 C 
BRANCH  24  25
HETATM   25  N4  UNL     1      19.438 -66.288  21.319  1.00  0.00    -0.336 N 
HETATM   26  C14 UNL     1      20.668 -66.095  21.838  1.00  0.00     0.200 A 
HETATM   27  N5  UNL     1      21.580 -66.405  20.907  1.00  0.00    -0.295 N 
HETATM   28  N6  UNL     1      20.950 -66.794  19.799  1.00  0.00    -0.295 N 
ATOM     29  H5  UNL     1      22.591 -66.352  21.028  1.00  0.00     0.187 HD
HETATM   30  C15 UNL     1      19.611 -66.712  20.081  1.00  0.00     0.200 A 
ATOM     31  H6  UNL     1      21.377 -67.092  18.921  1.00  0.00     0.187 HD
ENDBRANCH  24  25
ENDBRANCH  23  24
ENDBRANCH  20  23
ENDBRANCH  19  20
ENDBRANCH  18  19
ENDBRANCH   1  18
TORSDOF 13
ENDMDL
MODEL 2
REMARK VINA RESULT: -5.208056006      3.886      6.424
REMARK  13 active torsions:
REMARK  status: ('A' for Active; 'I' for Inactive)
REMARK    1  A    between atoms: C2_2  and  C3_3 
REMARK    2  A    between atoms: C7_7  and  C8_8 
REMARK    3  A    between atoms: C8_8  and  O1_9 
REMARK    4  A    between atoms: C8_8  and  C9_11 
REMARK    5  A    between atoms: C9_11  and  N1_12 
REMARK    6  A    between atoms: N1_12  and  N2_13 
REMARK    7  A    between atoms: N1_12  and  C10_16 
REMARK    8  A    between atoms: C10_16  and  C11_17 
REMARK    9  A    between atoms: C11_17  and  N3_18 
REMARK   10  A    between atoms: N3_18  and  O2_19 
REMARK   11  A    between atoms: N3_18  and  C12_21 
REMARK   12  A    between atoms: C12_21  and  C13_22 
REMARK   13  A    between atoms: C13_22  and  N4_23 
ROOT
HETATM    1  N1  UNL     1      11.600 -67.445  22.488  1.00  0.00    -0.289 N 
ENDROOT
BRANCH   1   2
HETATM    2  C9  UNL     1      12.357 -66.319  22.663  1.00  0.00     0.124 C 
BRANCH   2   3
HETATM    3  C8  UNL     1      13.142 -65.743  21.516  1.00  0.00     0.193 C 
BRANCH   3   4
HETATM    4  C7  UNL     1      13.710 -64.434  21.913  1.00  0.00     0.000 A 
HETATM    5  C6  UNL     1      13.794 -64.005  23.219  1.00  0.00     0.012 A 
HETATM    6  C5  UNL     1      14.289 -62.758  23.580  1.00  0.00     0.001 A 
HETATM    7  C4  UNL     1      14.718 -61.899  22.606  1.00  0.00     0.009 A 
HETATM    8  C3  UNL     1      14.652 -62.292  21.275  1.00  0.00    -0.034 A 
HETATM    9  C16 UNL     1      14.151 -63.552  20.930  1.00  0.00     0.061 A 
HETATM   10  N7  UNL     1      14.081 -63.939  19.564  1.00  0.00    -0.101 NA
BRANCH   8  11
HETATM   11  C2  UNL     1      15.092 -61.399  20.182  1.00  0.00     0.036 C 
HETATM   12  C1  UNL     1      16.418 -60.786  20.528  1.00  0.00     0.010 C 
ENDBRANCH   8  11
ENDBRANCH   3   4
BRANCH   3  13
HETATM   13  O1  UNL     1      13.997 -66.627  20.941  1.00  0.00    -0.386 OA
ATOM     14  H1  UNL     1      13.654 -67.141  20.219  1.00  0.00     0.210 HD
ENDBRANCH   3  13
ENDBRANCH   2   3
ENDBRANCH   1   2
BRANCH   1  15
HETATM   15  N2  UNL     1      10.848 -67.397  21.283  1.00  0.00    -0.340 N 
ATOM     16  H22 UNL     1       9.844 -67.486  21.438  1.00  0.00     0.177 HD
ATOM     17  H21 UNL     1      11.409 -67.661  20.472  1.00  0.00     0.177 HD
ENDBRANCH   1  15
BRANCH   1  18
HETATM   18  C10 UNL     1      11.816 -68.738  22.936  1.00  0.00     0.104 C 
BRANCH  18  19
HETATM   19  C11 UNL     1      11.197 -69.831  22.087  1.00  0.00     0.167 C 
BRANCH  19  20
HETATM   20  N3  UNL     1      12.077 -70.324  21.051  1.00  0.00    -0.193 NA
BRANCH  20  21
HETATM   21  O2  UNL     1      12.866 -69.402  20.500  1.00  0.00    -0.313 OA
ATOM     22  H2  UNL     1      13.324 -69.685  19.718  1.00  0.00     0.237 HD
ENDBRANCH  20  21
BRANCH  20  23
HETATM   23  C12 UNL     1      11.256 -71.012  20.068  1.00  0.00     0.141 C 
BRANCH  23  24
HETATM   24  C13 UNL     1       9.780 -70.858  20.347  1.00  0.00     0.147 C 
BRANCH  24  25
HETATM   25  N4  UNL     1       9.194 -70.007  19.329  1.00  0.00    -0.336 N 
HETATM   26  C14 UNL     1       9.890 -69.570  18.260  1.00  0.00     0.200 A 
HETATM   27  N5  UNL     1       9.097 -68.783  17.523  1.00  0.00    -0.295 N 
HETATM   28  N6  UNL     1       7.901 -68.709  18.106  1.00  0.00    -0.295 N 
ATOM     29  H5  UNL     1       9.364 -68.316  16.657  1.00  0.00     0.187 HD
HETATM   30  C15 UNL     1       7.986 -69.483  19.234  1.00  0.00     0.200 A 
ATOM     31  H6  UNL     1       7.088 -68.184  17.780  1.00  0.00     0.187 HD
ENDBRANCH  24  25
ENDBRANCH  23  24
ENDBRANCH  20  23
ENDBRANCH  19  20
ENDBRANCH  18  19
ENDBRANCH   1  18
TORSDOF 13
ENDMDL
MODEL 3
REMARK VINA RESULT: -5.199909489      2.283      6.503
REMARK  13 active torsions:
REMARK  status: ('A' for Active; 'I' for Inactive)
REMARK    1  A    between atoms: C2_2  and  C3_3 
REMARK    2  A    between atoms: C7_7  and  C8_8 
REMARK    3  A    between atoms: C8_8  and  O1_9 
REMARK    4  A    between atoms: C8_8  and  C9_11 
REMARK    5  A    between atoms: C9_11  and  N1_12 
REMARK    6  A    between atoms: N1_12  and  N2_13 
REMARK    7  A    between atoms: N1_12  and  C10_16 
REMARK    8  A    between atoms: C10_16  and  C11_17 
REMARK    9  A    between atoms: C11_17  and  N3_18 
REMARK   10  A    between atoms: N3_18  and  O2_19 
REMARK   11  A    between atoms: N3_18  and  C12_21 
REMARK   12  A    between atoms: C12_21  and  C13_22 
REMARK   13  A    between atoms: C13_22  and  N4_23 
ROOT
HETATM    1  N1  UNL     1      15.761 -65.654  22.908  1.00  0.00    -0.289 N 
ENDROOT
BRANCH   1   2
HETATM    2  C9  UNL     1      16.894 -66.391  23.115  1.00  0.00     0.124 C 
BRANCH   2   3
HETATM    3  C8  UNL     1      17.976 -66.435  22.069  1.00  0.00     0.193 C 
BRANCH   3   4
HETATM    4  C7  UNL     1      19.291 -66.616  22.725  1.00  0.00     0.000 A 
HETATM    5  C6  UNL     1      19.443 -67.095  24.007  1.00  0.00     0.012 A 
HETATM    6  C5  UNL     1      20.678 -67.222  24.630  1.00  0.00     0.001 A 
HETATM    7  C4  UNL     1      21.811 -66.858  23.955  1.00  0.00     0.009 A 
HETATM    8  C3  UNL     1      21.704 -66.370  22.659  1.00  0.00    -0.034 A 
HETATM    9  C16 UNL     1      20.450 -66.249  22.046  1.00  0.00     0.061 A 
HETATM   10  N7  UNL     1      20.353 -65.742  20.723  1.00  0.00    -0.101 NA
BRANCH   8  11
HETATM   11  C2  UNL     1      22.893 -65.952  21.888  1.00  0.00     0.036 C 
HETATM   12  C1  UNL     1      23.535 -64.765  22.546  1.00  0.00     0.010 C 
ENDBRANCH   8  11
ENDBRANCH   3   4
BRANCH   3  13
HETATM   13  O1  UNL     1      17.696 -67.261  21.029  1.00  0.00    -0.386 OA
ATOM     14  H1  UNL     1      18.083 -67.036  20.191  1.00  0.00     0.210 HD
ENDBRANCH   3  13
ENDBRANCH   2   3
ENDBRANCH   1   2
BRANCH   1  15
HETATM   15  N2  UNL     1      15.673 -65.177  21.572  1.00  0.00    -0.340 N 
ATOM     16  H22 UNL     1      15.570 -65.928  20.890  1.00  0.00     0.177 HD
ATOM     17  H21 UNL     1      16.093 -64.253  21.468  1.00  0.00     0.177 HD
ENDBRANCH   1  15
BRANCH   1  18
HETATM   18  C10 UNL     1      14.527 -65.729  23.535  1.00  0.00     0.104 C 
BRANCH  18  19
HETATM   19  C11 UNL     1      13.926 -64.400  23.945  1.00  0.00     0.167 C 
BRANCH  19  20
HETATM   20  N3  UNL     1      12.884 -63.938  23.055  1.00  0.00    -0.193 NA
BRANCH  20  21
HETATM   21  O2  UNL     1      12.756 -64.642  21.930  1.00  0.00    -0.313 OA
ATOM     22  H2  UNL     1      12.007 -64.406  21.395  1.00  0.00     0.237 HD
ENDBRANCH  20  21
BRANCH  20  23
HETATM   23  C12 UNL     1      13.114 -62.525  22.804  1.00  0.00     0.141 C 
BRANCH  23  24
HETATM   24  C13 UNL     1      14.580 -62.167  22.848  1.00  0.00     0.147 C 
BRANCH  24  25
HETATM   25  N4  UNL     1      14.961 -61.577  21.579  1.00  0.00    -0.336 N 
HETATM   26  C14 UNL     1      14.245 -61.760  20.450  1.00  0.00     0.200 A 
HETATM   27  N5  UNL     1      14.860 -61.124  19.445  1.00  0.00    -0.295 N 
HETATM   28  N6  UNL     1      15.960 -60.537  19.913  1.00  0.00    -0.295 N 
ATOM     29  H5  UNL     1      14.538 -61.095  18.478  1.00  0.00     0.187 HD
HETATM   30  C15 UNL     1      16.002 -60.835  21.251  1.00  0.00     0.200 A 
ATOM     31  H6  UNL     1      16.633 -59.981  19.386  1.00  0.00     0.187 HD
ENDBRANCH  24  25
ENDBRANCH  23  24
ENDBRANCH  20  23
ENDBRANCH  19  20
ENDBRANCH  18  19
ENDBRANCH   1  18
TORSDOF 13
ENDMDL
MODEL 4
REMARK VINA RESULT: -5.199333745      2.462      6.208
REMARK  13 active torsions:
REMARK  status: ('A' for Active; 'I' for Inactive)
REMARK    1  A    between atoms: C2_2  and  C3_3 
REMARK    2  A    between atoms: C7_7  and  C8_8 
REMARK    3  A    between atoms: C8_8  and  O1_9 
REMARK    4  A    between atoms: C8_8  and  C9_11 
REMARK    5  A    between atoms: C9_11  and  N1_12 
REMARK    6  A    between atoms: N1_12  and  N2_13 
REMARK    7  A    between atoms: N1_12  and  C10_16 
REMARK    8  A    between atoms: C10_16  and  C11_17 
REMARK    9  A    between atoms: C11_17  and  N3_18 
REMARK   10  A    between atoms: N3_18  and  O2_19 
REMARK   11  A    between atoms: N3_18  and  C12_21 
REMARK   12  A    between atoms: C12_21  and  C13_22 
REMARK   13  A    between atoms: C13_22  and  N4_23 
ROOT
HETATM    1  N1  UNL     1      14.217 -66.640  21.872  1.00  0.00    -0.289 N 
ENDROOT
BRANCH   1   2
HETATM    2  C9  UNL     1      15.580 -66.728  21.816  1.00  0.00     0.124 C 
BRANCH   2   3
HETATM    3  C8  UNL     1      16.406 -66.565  23.064  1.00  0.00     0.193 C 
BRANCH   3   4
HETATM    4  C7  UNL     1      17.837 -66.450  22.699  1.00  0.00     0.000 A 
HETATM    5  C6  UNL     1      18.276 -66.056  21.455  1.00  0.00     0.012 A 
HETATM    6  C5  UNL     1      19.620 -65.992  21.107  1.00  0.00     0.001 A 
HETATM    7  C4  UNL     1      20.569 -66.334  22.031  1.00  0.00     0.009 A 
HETATM    8  C3  UNL     1      20.170 -66.737  23.299  1.00  0.00    -0.034 A 
HETATM    9  C16 UNL     1      18.811 -66.795  23.631  1.00  0.00     0.061 A 
HETATM   10  N7  UNL     1      18.416 -67.217  24.930  1.00  0.00    -0.101 NA
BRANCH   8  11
HETATM   11  C2  UNL     1      21.152 -67.128  24.332  1.00  0.00     0.036 C 
HETATM   12  C1  UNL     1      22.458 -66.430  24.081  1.00  0.00     0.010 C 
ENDBRANCH   8  11
ENDBRANCH   3   4
BRANCH   3  13
HETATM   13  O1  UNL     1      15.921 -65.631  23.921  1.00  0.00    -0.386 OA
ATOM     14  H1  UNL     1      15.663 -64.799  23.542  1.00  0.00     0.210 HD
ENDBRANCH   3  13
ENDBRANCH   2   3
ENDBRANCH   1   2
BRANCH   1  15
HETATM   15  N2  UNL     1      13.687 -67.312  23.007  1.00  0.00    -0.340 N 
ATOM     16  H22 UNL     1      14.223 -67.139  23.856  1.00  0.00     0.177 HD
ATOM     17  H21 UNL     1      13.126 -68.123  22.743  1.00  0.00     0.177 HD
ENDBRANCH   1  15
BRANCH   1  18
HETATM   18  C10 UNL     1      13.370 -65.656  21.386  1.00  0.00     0.104 C 
BRANCH  18  19
HETATM   19  C11 UNL     1      12.581 -64.902  22.438  1.00  0.00     0.167 C 
BRANCH  19  20
HETATM   20  N3  UNL     1      13.412 -64.266  23.437  1.00  0.00    -0.193 NA
BRANCH  20  21
HETATM   21  O2  UNL     1      13.136 -64.608  24.695  1.00  0.00    -0.313 OA
ATOM     22  H2  UNL     1      12.670 -65.430  24.792  1.00  0.00     0.237 HD
ENDBRANCH  20  21
BRANCH  20  23
HETATM   23  C12 UNL     1      13.339 -62.831  23.221  1.00  0.00     0.141 C 
BRANCH  23  24
HETATM   24  C13 UNL     1      14.696 -62.220  22.970  1.00  0.00     0.147 C 
BRANCH  24  25
HETATM   25  N4  UNL     1      14.766 -61.773  21.592  1.00  0.00    -0.336 N 
HETATM   26  C14 UNL     1      15.762 -60.987  21.134  1.00  0.00     0.200 A 
HETATM   27  N5  UNL     1      15.537 -60.718  19.842  1.00  0.00    -0.295 N 
HETATM   28  N6  UNL     1      14.409 -61.320  19.466  1.00  0.00    -0.295 N 
ATOM     29  H5  UNL     1      16.131 -60.144  19.244  1.00  0.00     0.187 HD
HETATM   30  C15 UNL     1      13.945 -61.974  20.578  1.00  0.00     0.200 A 
ATOM     31  H6  UNL     1      13.979 -61.299  18.541  1.00  0.00     0.187 HD
ENDBRANCH  24  25
ENDBRANCH  23  24
ENDBRANCH  20  23
ENDBRANCH  19  20
ENDBRANCH  18  19
ENDBRANCH   1  18
TORSDOF 13
ENDMDL
MODEL 5
REMARK VINA RESULT: -4.986598195      3.977      6.864
REMARK  13 active torsions:
REMARK  status: ('A' for Active; 'I' for Inactive)
REMARK    1  A    between atoms: C2_2  and  C3_3 
REMARK    2  A    between atoms: C7_7  and  C8_8 
REMARK    3  A    between atoms: C8_8  and  O1_9 
REMARK    4  A    between atoms: C8_8  and  C9_11 
REMARK    5  A    between atoms: C9_11  and  N1_12 
REMARK    6  A    between atoms: N1_12  and  N2_13 
REMARK    7  A    between atoms: N1_12  and  C10_16 
REMARK    8  A    between atoms: C10_16  and  C11_17 
REMARK    9  A    between atoms: C11_17  and  N3_18 
REMARK   10  A    between atoms: N3_18  and  O2_19 
REMARK   11  A    between atoms: N3_18  and  C12_21 
REMARK   12  A    between atoms: C12_21  and  C13_22 
REMARK   13  A    between atoms: C13_22  and  N4_23 
ROOT
HETATM    1  N1  UNL     1      10.999 -66.788  22.348  1.00  0.00    -0.289 N 
ENDROOT
BRANCH   1   2
HETATM    2  C9  UNL     1      12.259 -66.346  22.647  1.00  0.00     0.124 C 
BRANCH   2   3
HETATM    3  C8  UNL     1      13.159 -65.818  21.563  1.00  0.00     0.193 C 
BRANCH   3   4
HETATM    4  C7  UNL     1      13.703 -64.502  21.969  1.00  0.00     0.000 A 
HETATM    5  C6  UNL     1      13.786 -64.084  23.279  1.00  0.00     0.012 A 
HETATM    6  C5  UNL     1      14.258 -62.831  23.649  1.00  0.00     0.001 A 
HETATM    7  C4  UNL     1      14.666 -61.954  22.680  1.00  0.00     0.009 A 
HETATM    8  C3  UNL     1      14.601 -62.336  21.346  1.00  0.00    -0.034 A 
HETATM    9  C16 UNL     1      14.121 -63.603  20.992  1.00  0.00     0.061 A 
HETATM   10  N7  UNL     1      14.052 -63.978  19.623  1.00  0.00    -0.101 NA
BRANCH   8  11
HETATM   11  C2  UNL     1      15.017 -61.425  20.259  1.00  0.00     0.036 C 
HETATM   12  C1  UNL     1      16.380 -60.870  20.556  1.00  0.00     0.010 C 
ENDBRANCH   8  11
ENDBRANCH   3   4
BRANCH   3  13
HETATM   13  O1  UNL     1      14.053 -66.730  21.103  1.00  0.00    -0.386 OA
ATOM     14  H1  UNL     1      13.695 -67.497  20.672  1.00  0.00     0.210 HD
ENDBRANCH   3  13
ENDBRANCH   2   3
ENDBRANCH   1   2
BRANCH   1  15
HETATM   15  N2  UNL     1      10.951 -67.441  21.085  1.00  0.00    -0.340 N 
ATOM     16  H22 UNL     1      11.149 -66.813  20.307  1.00  0.00     0.177 HD
ATOM     17  H21 UNL     1      10.378 -68.285  21.114  1.00  0.00     0.177 HD
ENDBRANCH   1  15
BRANCH   1  18
HETATM   18  C10 UNL     1       9.970 -67.173  23.191  1.00  0.00     0.104 C 
BRANCH  18  19
HETATM   19  C11 UNL     1       8.909 -68.054  22.561  1.00  0.00     0.167 C 
BRANCH  19  20
HETATM   20  N3  UNL     1       9.112 -69.465  22.804  1.00  0.00    -0.193 NA
BRANCH  20  21
HETATM   21  O2  UNL     1      10.387 -69.853  22.819  1.00  0.00    -0.313 OA
ATOM     22  H2  UNL     1      10.528 -70.746  23.111  1.00  0.00     0.237 HD
ENDBRANCH  20  21
BRANCH  20  23
HETATM   23  C12 UNL     1       8.319 -70.197  21.832  1.00  0.00     0.141 C 
BRANCH  23  24
HETATM   24  C13 UNL     1       9.151 -70.703  20.678  1.00  0.00     0.147 C 
BRANCH  24  25
HETATM   25  N4  UNL     1       8.859 -69.907  19.501  1.00  0.00    -0.336 N 
HETATM   26  C14 UNL     1       9.787 -69.637  18.560  1.00  0.00     0.200 A 
HETATM   27  N5  UNL     1       9.233 -68.860  17.621  1.00  0.00    -0.295 N 
HETATM   28  N6  UNL     1       7.962 -68.628  17.947  1.00  0.00    -0.295 N 
ATOM     29  H5  UNL     1       9.707 -68.504  16.791  1.00  0.00     0.187 HD
HETATM   30  C15 UNL     1       7.752 -69.294  19.127  1.00  0.00     0.200 A 
ATOM     31  H6  UNL     1       7.284 -68.071  17.426  1.00  0.00     0.187 HD
ENDBRANCH  24  25
ENDBRANCH  23  24
ENDBRANCH  20  23
ENDBRANCH  19  20
ENDBRANCH  18  19
ENDBRANCH   1  18
TORSDOF 13
ENDMDL
