MODEL 1
REMARK VINA RESULT: -6.370164350      0.000      0.000
REMARK  13 active torsions:
REMARK  status: ('A' for Active; 'I' for Inactive)
REMARK    1  A    between atoms: C1_2  and  N1_3 
REMARK    2  A    between atoms: N1_3  and  C2_5 
REMARK    3  A    between atoms: C2_5  and  C3_6 
REMARK    4  A    between atoms: C2_5  and  C8_17 
REMARK    5  A    between atoms: C3_6  and  C4_7 
REMARK    6  A    between atoms: C4_7  and  C5_9 
REMARK    7  A    between atoms: C5_9  and  N2_10 
REMARK    8  A    between atoms: C8_17  and  O3_18 
REMARK    9  A    between atoms: C8_17  and  N5_20 
REMARK   10  A    between atoms: N5_20  and  C9_23 
REMARK   11  A    between atoms: C9_23  and  C10_24 
REMARK   12  A    between atoms: C10_24  and  O4_25 
REMARK   13  A    between atoms: C10_24  and  C11_27 
ROOT
HETATM    1  C2  UNL     1      12.422 -63.703  22.674  1.00  0.00     0.147 C 
ENDROOT
BRANCH   1   2
HETATM    2  N1  UNL     1      13.111 -63.351  23.888  1.00  0.00    -0.359 N 
ATOM      3  H1  UNL     1      12.679 -63.589  24.781  1.00  0.00     0.162 HD
BRANCH   2   4
HETATM    4  C1  UNL     1      14.371 -62.683  23.896  1.00  0.00     0.348 C 
HETATM    5  O1  UNL     1      14.481 -61.451  23.670  1.00  0.00    -0.284 OA
ENDBRANCH   2   4
ENDBRANCH   1   2
BRANCH   1   6
HETATM    6  C3  UNL     1      11.523 -62.603  22.173  1.00  0.00     0.109 C 
BRANCH   6   7
HETATM    7  C4  UNL     1      12.077 -61.859  21.016  1.00  0.00     0.148 C 
HETATM    8  O2  UNL     1      11.684 -60.752  20.680  1.00  0.00    -0.296 OA
BRANCH   7   9
HETATM    9  C5  UNL     1      13.172 -62.458  20.190  1.00  0.00     0.228 C 
BRANCH   9  10
HETATM   10  N2  UNL     1      14.396 -61.689  20.283  1.00  0.00    -0.281 N 
HETATM   11  C6  UNL     1      15.595 -62.186  20.599  1.00  0.00     0.130 A 
HETATM   12  C7  UNL     1      16.503 -61.126  20.582  1.00  0.00     0.127 A 
HETATM   13  N3  UNL     1      15.789 -60.024  20.252  1.00  0.00    -0.296 N 
HETATM   14  N4  UNL     1      14.532 -60.397  20.079  1.00  0.00    -0.241 N 
ATOM     15  H3  UNL     1      16.155 -59.077  20.153  1.00  0.00     0.187 HD
ATOM     16  H4  UNL     1      13.771 -59.769  19.823  1.00  0.00     0.208 HD
ENDBRANCH   9  10
ENDBRANCH   7   9
ENDBRANCH   6   7
ENDBRANCH   1   6
BRANCH   1  17
HETATM   17  C8  UNL     1      11.743 -65.040  22.759  1.00  0.00     0.342 C 
BRANCH  17  18
HETATM   18  O3  UNL     1      10.449 -64.897  22.208  1.00  0.00    -0.368 OA
ATOM     19  H3  UNL     1      10.530 -64.969  21.264  1.00  0.00     0.212 HD
ENDBRANCH  17  18
BRANCH  17  20
HETATM   20  N5  UNL     1      12.431 -65.906  21.782  1.00  0.00    -0.044 N 
ATOM     21  H52 UNL     1      11.820 -66.645  21.434  1.00  0.00     0.280 HD
ATOM     22  H51 UNL     1      12.603 -65.421  20.901  1.00  0.00     0.280 HD
BRANCH  20  23
HETATM   23  C9  UNL     1      13.635 -66.434  22.339  1.00  0.00     0.271 C 
BRANCH  23  24
HETATM   24  C10 UNL     1      14.684 -66.628  21.285  1.00  0.00     0.177 C 
BRANCH  24  25
HETATM   25  O4  UNL     1      14.634 -65.618  20.315  1.00  0.00    -0.389 OA
ATOM     26  H4  UNL     1      13.775 -65.216  20.271  1.00  0.00     0.210 HD
ENDBRANCH  24  25
BRANCH  24  27
HETATM   27  C11 UNL     1      16.026 -66.597  21.956  1.00  0.00    -0.028 A 
HETATM   28  C12 UNL     1      17.174 -66.352  21.214  1.00  0.00     0.010 A 
HETATM   29  C13 UNL     1      18.409 -66.325  21.813  1.00  0.00     0.001 A 
HETATM   30  C14 UNL     1      18.501 -66.546  23.174  1.00  0.00     0.000 A 
HETATM   31  C15 UNL     1      17.372 -66.789  23.910  1.00  0.00     0.001 A 
HETATM   32  C16 UNL     1      16.121 -66.816  23.303  1.00  0.00     0.010 A 
ENDBRANCH  24  27
ENDBRANCH  23  24
ENDBRANCH  20  23
ENDBRANCH  17  20
ENDBRANCH   1  17
TORSDOF 13
ENDMDL
MODEL 2
REMARK VINA RESULT: -5.994201309      1.369      2.395
REMARK  13 active torsions:
REMARK  status: ('A' for Active; 'I' for Inactive)
REMARK    1  A    between atoms: C1_2  and  N1_3 
REMARK    2  A    between atoms: N1_3  and  C2_5 
REMARK    3  A    between atoms: C2_5  and  C3_6 
REMARK    4  A    between atoms: C2_5  and  C8_17 
REMARK    5  A    between atoms: C3_6  and  C4_7 
REMARK    6  A    between atoms: C4_7  and  C5_9 
REMARK    7  A    between atoms: C5_9  and  N2_10 
REMARK    8  A    between atoms: C8_17  and  O3_18 
REMARK    9  A    between atoms: C8_17  and  N5_20 
REMARK   10  A    between atoms: N5_20  and  C9_23 
REMARK   11  A    between atoms: C9_23  and  C10_24 
REMARK   12  A    between atoms: C10_24  and  O4_25 
REMARK   13  A    between atoms: C10_24  and  C11_27 
ROOT
HETATM    1  C2  UNL     1      12.208 -64.493  23.004  1.00  0.00     0.147 C 
ENDROOT
BRANCH   1   2
HETATM    2  N1  UNL     1      10.930 -64.386  22.350  1.00  0.00    -0.359 N 
ATOM      3  H1  UNL     1      10.857 -63.809  21.512  1.00  0.00     0.162 HD
BRANCH   2   4
HETATM    4  C1  UNL     1       9.761 -65.051  22.824  1.00  0.00     0.348 C 
HETATM    5  O1  UNL     1       9.280 -66.059  22.246  1.00  0.00    -0.284 OA
ENDBRANCH   2   4
ENDBRANCH   1   2
BRANCH   1   6
HETATM    6  C3  UNL     1      12.941 -63.179  23.072  1.00  0.00     0.109 C 
BRANCH   6   7
HETATM    7  C4  UNL     1      12.507 -62.199  22.047  1.00  0.00     0.148 C 
HETATM    8  O2  UNL     1      11.708 -61.303  22.273  1.00  0.00    -0.296 OA
BRANCH   7   9
HETATM    9  C5  UNL     1      13.049 -62.275  20.655  1.00  0.00     0.228 C 
BRANCH   9  10
HETATM   10  N2  UNL     1      14.323 -61.596  20.537  1.00  0.00    -0.281 N 
HETATM   11  C6  UNL     1      15.488 -62.062  20.997  1.00  0.00     0.130 A 
HETATM   12  C7  UNL     1      16.466 -61.115  20.686  1.00  0.00     0.127 A 
HETATM   13  N3  UNL     1      15.826 -60.109  20.046  1.00  0.00    -0.296 N 
HETATM   14  N4  UNL     1      14.545 -60.430  19.974  1.00  0.00    -0.241 N 
ATOM     15  H3  UNL     1      16.254 -59.257  19.685  1.00  0.00     0.187 HD
ATOM     16  H4  UNL     1      13.827 -59.851  19.539  1.00  0.00     0.208 HD
ENDBRANCH   9  10
ENDBRANCH   7   9
ENDBRANCH   6   7
ENDBRANCH   1   6
BRANCH   1  17
HETATM   17  C8  UNL     1      13.043 -65.619  22.464  1.00  0.00     0.342 C 
BRANCH  17  18
HETATM   18  O3  UNL     1      12.773 -65.724  21.080  1.00  0.00    -0.368 OA
ATOM     19  H3  UNL     1      12.611 -66.641  20.889  1.00  0.00     0.212 HD
ENDBRANCH  17  18
BRANCH  17  20
HETATM   20  N5  UNL     1      14.439 -65.141  22.499  1.00  0.00    -0.044 N 
ATOM     21  H52 UNL     1      14.500 -64.138  22.322  1.00  0.00     0.280 HD
ATOM     22  H51 UNL     1      14.819 -65.154  23.445  1.00  0.00     0.280 HD
BRANCH  20  23
HETATM   23  C9  UNL     1      15.249 -65.889  21.592  1.00  0.00     0.271 C 
BRANCH  23  24
HETATM   24  C10 UNL     1      15.945 -67.020  22.288  1.00  0.00     0.177 C 
BRANCH  24  25
HETATM   25  O4  UNL     1      15.689 -68.247  21.662  1.00  0.00    -0.389 OA
ATOM     26  H4  UNL     1      16.381 -68.481  21.054  1.00  0.00     0.210 HD
ENDBRANCH  24  25
BRANCH  24  27
HETATM   27  C11 UNL     1      17.420 -66.749  22.252  1.00  0.00    -0.028 A 
HETATM   28  C12 UNL     1      18.027 -66.339  21.072  1.00  0.00     0.010 A 
HETATM   29  C13 UNL     1      19.376 -66.091  21.021  1.00  0.00     0.001 A 
HETATM   30  C14 UNL     1      20.133 -66.253  22.167  1.00  0.00     0.000 A 
HETATM   31  C15 UNL     1      19.539 -66.657  23.332  1.00  0.00     0.001 A 
HETATM   32  C16 UNL     1      18.172 -66.908  23.383  1.00  0.00     0.010 A 
ENDBRANCH  24  27
ENDBRANCH  23  24
ENDBRANCH  20  23
ENDBRANCH  17  20
ENDBRANCH   1  17
TORSDOF 13
ENDMDL
MODEL 3
REMARK VINA RESULT: -5.833291810      1.959      3.322
REMARK  13 active torsions:
REMARK  status: ('A' for Active; 'I' for Inactive)
REMARK    1  A    between atoms: C1_2  and  N1_3 
REMARK    2  A    between atoms: N1_3  and  C2_5 
REMARK    3  A    between atoms: C2_5  and  C3_6 
REMARK    4  A    between atoms: C2_5  and  C8_17 
REMARK    5  A    between atoms: C3_6  and  C4_7 
REMARK    6  A    between atoms: C4_7  and  C5_9 
REMARK    7  A    between atoms: C5_9  and  N2_10 
REMARK    8  A    between atoms: C8_17  and  O3_18 
REMARK    9  A    between atoms: C8_17  and  N5_20 
REMARK   10  A    between atoms: N5_20  and  C9_23 
REMARK   11  A    between atoms: C9_23  and  C10_24 
REMARK   12  A    between atoms: C10_24  and  O4_25 
REMARK   13  A    between atoms: C10_24  and  C11_27 
ROOT
HETATM    1  C2  UNL     1      13.866 -66.106  22.073  1.00  0.00     0.147 C 
ENDROOT
BRANCH   1   2
HETATM    2  N1  UNL     1      12.506 -66.031  21.606  1.00  0.00    -0.359 N 
ATOM      3  H1  UNL     1      12.323 -66.166  20.611  1.00  0.00     0.162 HD
BRANCH   2   4
HETATM    4  C1  UNL     1      11.404 -65.775  22.474  1.00  0.00     0.348 C 
HETATM    5  O1  UNL     1      11.086 -64.612  22.832  1.00  0.00    -0.284 OA
ENDBRANCH   2   4
ENDBRANCH   1   2
BRANCH   1   6
HETATM    6  C3  UNL     1      14.780 -65.139  21.367  1.00  0.00     0.109 C 
BRANCH   6   7
HETATM    7  C4  UNL     1      14.118 -64.377  20.280  1.00  0.00     0.148 C 
HETATM    8  O2  UNL     1      14.007 -64.797  19.138  1.00  0.00    -0.296 OA
BRANCH   7   9
HETATM    9  C5  UNL     1      13.546 -63.021  20.552  1.00  0.00     0.228 C 
BRANCH   9  10
HETATM   10  N2  UNL     1      14.567 -61.993  20.530  1.00  0.00    -0.281 N 
HETATM   11  C6  UNL     1      15.377 -61.692  21.548  1.00  0.00     0.130 A 
HETATM   12  C7  UNL     1      16.207 -60.653  21.125  1.00  0.00     0.127 A 
HETATM   13  N3  UNL     1      15.845 -60.376  19.851  1.00  0.00    -0.296 N 
HETATM   14  N4  UNL     1      14.860 -61.197  19.526  1.00  0.00    -0.241 N 
ATOM     15  H3  UNL     1      16.257 -59.662  19.250  1.00  0.00     0.187 HD
ATOM     16  H4  UNL     1      14.393 -61.211  18.620  1.00  0.00     0.208 HD
ENDBRANCH   9  10
ENDBRANCH   7   9
ENDBRANCH   6   7
ENDBRANCH   1   6
BRANCH   1  17
HETATM   17  C8  UNL     1      14.391 -67.513  22.106  1.00  0.00     0.342 C 
BRANCH  17  18
HETATM   18  O3  UNL     1      13.858 -68.193  20.987  1.00  0.00    -0.368 OA
ATOM     19  H3  UNL     1      13.331 -68.913  21.314  1.00  0.00     0.212 HD
ENDBRANCH  17  18
BRANCH  17  20
HETATM   20  N5  UNL     1      15.829 -67.417  21.788  1.00  0.00    -0.044 N 
ATOM     21  H52 UNL     1      16.068 -67.948  20.950  1.00  0.00     0.280 HD
ATOM     22  H51 UNL     1      16.081 -66.486  21.456  1.00  0.00     0.280 HD
BRANCH  20  23
HETATM   23  C9  UNL     1      16.619 -67.812  22.909  1.00  0.00     0.271 C 
BRANCH  23  24
HETATM   24  C10 UNL     1      17.287 -66.632  23.549  1.00  0.00     0.177 C 
BRANCH  24  25
HETATM   25  O4  UNL     1      17.431 -66.807  24.932  1.00  0.00    -0.389 OA
ATOM     26  H4  UNL     1      17.717 -66.008  25.358  1.00  0.00     0.210 HD
ENDBRANCH  24  25
BRANCH  24  27
HETATM   27  C11 UNL     1      18.644 -66.476  22.929  1.00  0.00    -0.028 A 
HETATM   28  C12 UNL     1      18.780 -65.879  21.682  1.00  0.00     0.010 A 
HETATM   29  C13 UNL     1      20.015 -65.733  21.100  1.00  0.00     0.001 A 
HETATM   30  C14 UNL     1      21.132 -66.190  21.772  1.00  0.00     0.000 A 
HETATM   31  C15 UNL     1      21.004 -66.779  23.001  1.00  0.00     0.001 A 
HETATM   32  C16 UNL     1      19.753 -66.927  23.591  1.00  0.00     0.010 A 
ENDBRANCH  24  27
ENDBRANCH  23  24
ENDBRANCH  20  23
ENDBRANCH  17  20
ENDBRANCH   1  17
TORSDOF 13
ENDMDL
MODEL 4
REMARK VINA RESULT: -5.822932271      2.168      3.735
REMARK  13 active torsions:
REMARK  status: ('A' for Active; 'I' for Inactive)
REMARK    1  A    between atoms: C1_2  and  N1_3 
REMARK    2  A    between atoms: N1_3  and  C2_5 
REMARK    3  A    between atoms: C2_5  and  C3_6 
REMARK    4  A    between atoms: C2_5  and  C8_17 
REMARK    5  A    between atoms: C3_6  and  C4_7 
REMARK    6  A    between atoms: C4_7  and  C5_9 
REMARK    7  A    between atoms: C5_9  and  N2_10 
REMARK    8  A    between atoms: C8_17  and  O3_18 
REMARK    9  A    between atoms: C8_17  and  N5_20 
REMARK   10  A    between atoms: N5_20  and  C9_23 
REMARK   11  A    between atoms: C9_23  and  C10_24 
REMARK   12  A    between atoms: C10_24  and  O4_25 
REMARK   13  A    between atoms: C10_24  and  C11_27 
ROOT
HETATM    1  C2  UNL     1      14.048 -66.088  21.908  1.00  0.00     0.147 C 
ENDROOT
BRANCH   1   2
HETATM    2  N1  UNL     1      12.668 -65.885  21.546  1.00  0.00    -0.359 N 
ATOM      3  H1  UNL     1      12.428 -65.823  20.556  1.00  0.00     0.162 HD
BRANCH   2   4
HETATM    4  C1  UNL     1      11.625 -65.767  22.511  1.00  0.00     0.348 C 
HETATM    5  O1  UNL     1      11.783 -65.159  23.600  1.00  0.00    -0.284 OA
ENDBRANCH   2   4
ENDBRANCH   1   2
BRANCH   1   6
HETATM    6  C3  UNL     1      15.002 -65.359  21.000  1.00  0.00     0.109 C 
BRANCH   6   7
HETATM    7  C4  UNL     1      14.356 -64.316  20.166  1.00  0.00     0.148 C 
HETATM    8  O2  UNL     1      13.810 -64.553  19.100  1.00  0.00    -0.296 OA
BRANCH   7   9
HETATM    9  C5  UNL     1      14.351 -62.889  20.617  1.00  0.00     0.228 C 
BRANCH   9  10
HETATM   10  N2  UNL     1      13.004 -62.385  20.788  1.00  0.00    -0.281 N 
HETATM   11  C6  UNL     1      12.425 -62.120  21.962  1.00  0.00     0.130 A 
HETATM   12  C7  UNL     1      11.135 -61.658  21.695  1.00  0.00     0.127 A 
HETATM   13  N3  UNL     1      11.001 -61.672  20.348  1.00  0.00    -0.296 N 
HETATM   14  N4  UNL     1      12.139 -62.111  19.837  1.00  0.00    -0.241 N 
ATOM     15  H3  UNL     1      10.173 -61.392  19.823  1.00  0.00     0.187 HD
ATOM     16  H4  UNL     1      12.320 -62.222  18.840  1.00  0.00     0.208 HD
ENDBRANCH   9  10
ENDBRANCH   7   9
ENDBRANCH   6   7
ENDBRANCH   1   6
BRANCH   1  17
HETATM   17  C8  UNL     1      14.390 -67.538  22.099  1.00  0.00     0.342 C 
BRANCH  17  18
HETATM   18  O3  UNL     1      13.804 -68.258  21.033  1.00  0.00    -0.368 OA
ATOM     19  H3  UNL     1      13.990 -67.784  20.230  1.00  0.00     0.212 HD
ENDBRANCH  17  18
BRANCH  17  20
HETATM   20  N5  UNL     1      15.836 -67.652  21.828  1.00  0.00    -0.044 N 
ATOM     21  H52 UNL     1      16.032 -68.342  21.103  1.00  0.00     0.280 HD
ATOM     22  H51 UNL     1      16.199 -66.824  21.354  1.00  0.00     0.280 HD
BRANCH  20  23
HETATM   23  C9  UNL     1      16.552 -67.930  23.031  1.00  0.00     0.271 C 
BRANCH  23  24
HETATM   24  C10 UNL     1      17.172 -66.687  23.597  1.00  0.00     0.177 C 
BRANCH  24  25
HETATM   25  O4  UNL     1      17.326 -66.773  24.987  1.00  0.00    -0.389 OA
ATOM     26  H4  UNL     1      17.726 -67.595  25.245  1.00  0.00     0.210 HD
ENDBRANCH  24  25
BRANCH  24  27
HETATM   27  C11 UNL     1      18.522 -66.514  22.964  1.00  0.00    -0.028 A 
HETATM   28  C12 UNL     1      18.639 -65.900  21.723  1.00  0.00     0.010 A 
HETATM   29  C13 UNL     1      19.866 -65.738  21.129  1.00  0.00     0.001 A 
HETATM   30  C14 UNL     1      20.994 -66.195  21.783  1.00  0.00     0.000 A 
HETATM   31  C15 UNL     1      20.884 -66.801  23.005  1.00  0.00     0.001 A 
HETATM   32  C16 UNL     1      19.641 -66.965  23.607  1.00  0.00     0.010 A 
ENDBRANCH  24  27
ENDBRANCH  23  24
ENDBRANCH  20  23
ENDBRANCH  17  20
ENDBRANCH   1  17
TORSDOF 13
ENDMDL
MODEL 5
REMARK VINA RESULT: -5.804515226      1.697      3.818
REMARK  13 active torsions:
REMARK  status: ('A' for Active; 'I' for Inactive)
REMARK    1  A    between atoms: C1_2  and  N1_3 
REMARK    2  A    between atoms: N1_3  and  C2_5 
REMARK    3  A    between atoms: C2_5  and  C3_6 
REMARK    4  A    between atoms: C2_5  and  C8_17 
REMARK    5  A    between atoms: C3_6  and  C4_7 
REMARK    6  A    between atoms: C4_7  and  C5_9 
REMARK    7  A    between atoms: C5_9  and  N2_10 
REMARK    8  A    between atoms: C8_17  and  O3_18 
REMARK    9  A    between atoms: C8_17  and  N5_20 
REMARK   10  A    between atoms: N5_20  and  C9_23 
REMARK   11  A    between atoms: C9_23  and  C10_24 
REMARK   12  A    between atoms: C10_24  and  O4_25 
REMARK   13  A    between atoms: C10_24  and  C11_27 
ROOT
HETATM    1  C2  UNL     1      13.979 -62.579  20.218  1.00  0.00     0.147 C 
ENDROOT
BRANCH   1   2
HETATM    2  N1  UNL     1      15.091 -61.959  20.891  1.00  0.00    -0.359 N 
ATOM      3  H1  UNL     1      15.463 -62.404  21.730  1.00  0.00     0.162 HD
BRANCH   2   4
HETATM    4  C1  UNL     1      15.694 -60.751  20.434  1.00  0.00     0.348 C 
HETATM    5  O1  UNL     1      15.805 -59.735  21.167  1.00  0.00    -0.284 OA
ENDBRANCH   2   4
ENDBRANCH   1   2
BRANCH   1   6
HETATM    6  C3  UNL     1      12.663 -61.917  20.533  1.00  0.00     0.109 C 
BRANCH   6   7
HETATM    7  C4  UNL     1      12.207 -62.127  21.929  1.00  0.00     0.148 C 
HETATM    8  O2  UNL     1      12.768 -61.638  22.898  1.00  0.00    -0.296 OA
BRANCH   7   9
HETATM    9  C5  UNL     1      11.005 -62.972  22.208  1.00  0.00     0.228 C 
BRANCH   9  10
HETATM   10  N2  UNL     1      11.366 -64.228  22.835  1.00  0.00    -0.281 N 
HETATM   11  C6  UNL     1      10.631 -65.343  22.802  1.00  0.00     0.130 A 
HETATM   12  C7  UNL     1      11.324 -66.318  23.521  1.00  0.00     0.127 A 
HETATM   13  N3  UNL     1      12.460 -65.727  23.959  1.00  0.00    -0.296 N 
HETATM   14  N4  UNL     1      12.453 -64.477  23.530  1.00  0.00    -0.241 N 
ATOM     15  H3  UNL     1      13.190 -66.168  24.519  1.00  0.00     0.187 HD
ATOM     16  H4  UNL     1      13.191 -63.798  23.713  1.00  0.00     0.208 HD
ENDBRANCH   9  10
ENDBRANCH   7   9
ENDBRANCH   6   7
ENDBRANCH   1   6
BRANCH   1  17
HETATM   17  C8  UNL     1      13.956 -64.071  20.389  1.00  0.00     0.342 C 
BRANCH  17  18
HETATM   18  O3  UNL     1      14.264 -64.649  19.136  1.00  0.00    -0.368 OA
ATOM     19  H3  UNL     1      15.050 -64.224  18.811  1.00  0.00     0.212 HD
ENDBRANCH  17  18
BRANCH  17  20
HETATM   20  N5  UNL     1      15.135 -64.403  21.212  1.00  0.00    -0.044 N 
ATOM     21  H52 UNL     1      15.982 -63.960  20.856  1.00  0.00     0.280 HD
ATOM     22  H51 UNL     1      15.098 -63.950  22.126  1.00  0.00     0.280 HD
BRANCH  20  23
HETATM   23  C9  UNL     1      15.286 -65.817  21.327  1.00  0.00     0.271 C 
BRANCH  23  24
HETATM   24  C10 UNL     1      15.664 -66.214  22.723  1.00  0.00     0.177 C 
BRANCH  24  25
HETATM   25  O4  UNL     1      15.063 -67.424  23.096  1.00  0.00    -0.389 OA
ATOM     26  H4  UNL     1      14.173 -67.293  23.403  1.00  0.00     0.210 HD
ENDBRANCH  24  25
BRANCH  24  27
HETATM   27  C11 UNL     1      17.155 -66.372  22.771  1.00  0.00    -0.028 A 
HETATM   28  C12 UNL     1      17.935 -65.989  21.687  1.00  0.00     0.010 A 
HETATM   29  C13 UNL     1      19.300 -66.131  21.715  1.00  0.00     0.001 A 
HETATM   30  C14 UNL     1      19.898 -66.664  22.841  1.00  0.00     0.000 A 
HETATM   31  C15 UNL     1      19.134 -67.043  23.912  1.00  0.00     0.001 A 
HETATM   32  C16 UNL     1      17.750 -66.899  23.884  1.00  0.00     0.010 A 
ENDBRANCH  24  27
ENDBRANCH  23  24
ENDBRANCH  20  23
ENDBRANCH  17  20
ENDBRANCH   1  17
TORSDOF 13
ENDMDL
