MODEL 1
REMARK VINA RESULT: -5.782915294      0.000      0.000
REMARK  12 active torsions:
REMARK  status: ('A' for Active; 'I' for Inactive)
REMARK    1  A    between atoms: N1_2  and  C2_4 
REMARK    2  A    between atoms: C4_8  and  C5_9 
REMARK    3  A    between atoms: C5_9  and  N3_10 
REMARK    4  A    between atoms: N3_10  and  C6_13 
REMARK    5  A    between atoms: C6_13  and  C7_14 
REMARK    6  A    between atoms: C7_14  and  C8_15 
REMARK    7  A    between atoms: C8_15  and  N4_16 
REMARK    8  A    between atoms: N4_16  and  C9_18 
REMARK    9  A    between atoms: C9_18  and  C10_19 
REMARK   10  A    between atoms: C11_28  and  O1_29 
REMARK   11  A    between atoms: O1_29  and  C12_30 
REMARK   12  A    between atoms: C12_30  and  C13_31 
ROOT
HETATM    1  N3  UNL     1      14.384 -64.768  23.868  1.00  0.00    -0.071 N 
ATOM      2  H31 UNL     1      14.895 -64.891  24.742  1.00  0.00     0.277 HD
ATOM      3  H32 UNL     1      13.713 -65.531  23.951  1.00  0.00     0.277 HD
ENDROOT
BRANCH   1   4
HETATM    4  C5  UNL     1      15.261 -64.983  22.732  1.00  0.00     0.276 C 
BRANCH   4   5
HETATM    5  C4  UNL     1      15.423 -66.424  22.467  1.00  0.00     0.035 A 
HETATM    6  C3  UNL     1      14.367 -67.278  22.487  1.00  0.00     0.119 A 
HETATM    7  N2  UNL     1      14.546 -68.576  22.099  1.00  0.00    -0.201 N 
HETATM    8  C2  UNL     1      15.756 -68.986  21.707  1.00  0.00     0.679 A 
ATOM      9  H2  UNL     1      13.762 -69.228  22.110  1.00  0.00     0.183 HD
HETATM   10  N9  UNL     1      16.842 -68.157  21.677  1.00  0.00    -0.170 N 
HETATM   11  C11 UNL     1      16.649 -66.893  22.058  1.00  0.00     0.166 A 
ATOM     12  H9  UNL     1      17.758 -68.488  21.376  1.00  0.00     0.186 HD
BRANCH   8  13
HETATM   13  N1  UNL     1      15.988 -70.193  21.311  1.00  0.00    -0.230 N 
HETATM   14  C1  UNL     1      14.839 -70.884  20.696  1.00  0.00     0.165 C 
ATOM     15  H1  UNL     1      16.900 -70.637  21.414  1.00  0.00     0.177 HD
ENDBRANCH   8  13
BRANCH  11  16
HETATM   16  O1  UNL     1      17.704 -65.991  22.063  1.00  0.00    -0.335 OA
BRANCH  16  17
HETATM   17  C12 UNL     1      19.022 -66.393  22.431  1.00  0.00     0.181 C 
BRANCH  17  18
HETATM   18  C13 UNL     1      19.998 -65.938  21.361  1.00  0.00     0.002 C 
HETATM   19  C14 UNL     1      21.415 -66.023  21.877  1.00  0.00     0.011 C 
HETATM   20  C15 UNL     1      19.780 -66.598  20.049  1.00  0.00     0.011 C 
ENDBRANCH  17  18
ENDBRANCH  16  17
ENDBRANCH  11  16
ENDBRANCH   4   5
ENDBRANCH   1   4
BRANCH   1  21
HETATM   21  C6  UNL     1      13.706 -63.498  23.854  1.00  0.00     0.234 C 
BRANCH  21  22
HETATM   22  C7  UNL     1      12.582 -63.606  22.856  1.00  0.00     0.046 C 
BRANCH  22  23
HETATM   23  C8  UNL     1      12.293 -62.375  22.083  1.00  0.00     0.115 C 
BRANCH  23  24
HETATM   24  N4  UNL     1      12.419 -62.410  20.674  1.00  0.00    -0.414 N 
ATOM     25  H4  UNL     1      11.672 -62.109  20.049  1.00  0.00     0.153 HD
BRANCH  24  26
HETATM   26  C9  UNL     1      13.692 -62.905  20.186  1.00  0.00     0.193 C 
BRANCH  26  27
HETATM   27  C10 UNL     1      14.717 -61.826  20.304  1.00  0.00     0.130 A 
HETATM   28  N5  UNL     1      15.891 -62.011  20.983  1.00  0.00    -0.271 N 
HETATM   29  N6  UNL     1      16.520 -60.867  20.947  1.00  0.00    -0.227 N 
ATOM     30  H5  UNL     1      16.211 -62.871  21.428  1.00  0.00     0.190 HD
HETATM   31  N7  UNL     1      15.844 -59.950  20.291  1.00  0.00    -0.227 N 
ATOM     32  H6  UNL     1      17.431 -60.704  21.377  1.00  0.00     0.210 HD
HETATM   33  N8  UNL     1      14.712 -60.569  19.894  1.00  0.00    -0.271 N 
ATOM     34  H7  UNL     1      16.115 -58.982  20.120  1.00  0.00     0.210 HD
ATOM     35  H8  UNL     1      13.963 -60.131  19.356  1.00  0.00     0.190 HD
ENDBRANCH  26  27
ENDBRANCH  24  26
ENDBRANCH  23  24
ENDBRANCH  22  23
ENDBRANCH  21  22
ENDBRANCH   1  21
TORSDOF 12
ENDMDL
MODEL 2
REMARK VINA RESULT: -5.624956796      2.453      4.068
REMARK  12 active torsions:
REMARK  status: ('A' for Active; 'I' for Inactive)
REMARK    1  A    between atoms: N1_2  and  C2_4 
REMARK    2  A    between atoms: C4_8  and  C5_9 
REMARK    3  A    between atoms: C5_9  and  N3_10 
REMARK    4  A    between atoms: N3_10  and  C6_13 
REMARK    5  A    between atoms: C6_13  and  C7_14 
REMARK    6  A    between atoms: C7_14  and  C8_15 
REMARK    7  A    between atoms: C8_15  and  N4_16 
REMARK    8  A    between atoms: N4_16  and  C9_18 
REMARK    9  A    between atoms: C9_18  and  C10_19 
REMARK   10  A    between atoms: C11_28  and  O1_29 
REMARK   11  A    between atoms: O1_29  and  C12_30 
REMARK   12  A    between atoms: C12_30  and  C13_31 
ROOT
HETATM    1  N3  UNL     1      11.833 -64.974  22.249  1.00  0.00    -0.071 N 
ATOM      2  H31 UNL     1      11.531 -65.459  21.404  1.00  0.00     0.277 HD
ATOM      3  H32 UNL     1      12.775 -64.704  21.965  1.00  0.00     0.277 HD
ENDROOT
BRANCH   1   4
HETATM    4  C5  UNL     1      11.885 -65.893  23.371  1.00  0.00     0.276 C 
BRANCH   4   5
HETATM    5  C4  UNL     1      12.851 -65.424  24.381  1.00  0.00     0.035 A 
HETATM    6  C3  UNL     1      12.464 -65.079  25.636  1.00  0.00     0.119 A 
HETATM    7  N2  UNL     1      13.412 -64.785  26.574  1.00  0.00    -0.201 N 
HETATM    8  C2  UNL     1      14.706 -64.841  26.245  1.00  0.00     0.679 A 
ATOM      9  H2  UNL     1      13.134 -64.524  27.520  1.00  0.00     0.183 HD
HETATM   10  N9  UNL     1      15.133 -65.182  24.992  1.00  0.00    -0.170 N 
HETATM   11  C11 UNL     1      14.194 -65.465  24.089  1.00  0.00     0.166 A 
ATOM     12  H9  UNL     1      16.125 -65.217  24.758  1.00  0.00     0.186 HD
BRANCH   8  13
HETATM   13  N1  UNL     1      15.652 -64.594  27.089  1.00  0.00    -0.230 N 
HETATM   14  C1  UNL     1      15.242 -63.838  28.287  1.00  0.00     0.165 C 
ATOM     15  H1  UNL     1      16.612 -64.900  26.938  1.00  0.00     0.177 HD
ENDBRANCH   8  13
BRANCH  11  16
HETATM   16  O1  UNL     1      14.548 -65.813  22.791  1.00  0.00    -0.335 OA
BRANCH  16  17
HETATM   17  C12 UNL     1      15.652 -65.193  22.133  1.00  0.00     0.181 C 
BRANCH  17  18
HETATM   18  C13 UNL     1      16.573 -66.270  21.589  1.00  0.00     0.002 C 
HETATM   19  C14 UNL     1      17.987 -66.037  22.068  1.00  0.00     0.011 C 
HETATM   20  C15 UNL     1      16.066 -67.647  21.816  1.00  0.00     0.011 C 
ENDBRANCH  17  18
ENDBRANCH  16  17
ENDBRANCH  11  16
ENDBRANCH   4   5
ENDBRANCH   1   4
BRANCH   1  21
HETATM   21  C6  UNL     1      11.022 -63.809  22.481  1.00  0.00     0.234 C 
BRANCH  21  22
HETATM   22  C7  UNL     1      11.907 -62.605  22.286  1.00  0.00     0.046 C 
BRANCH  22  23
HETATM   23  C8  UNL     1      11.651 -61.815  21.058  1.00  0.00     0.115 C 
BRANCH  23  24
HETATM   24  N4  UNL     1      12.406 -62.099  19.896  1.00  0.00    -0.414 N 
ATOM     25  H4  UNL     1      12.095 -61.832  18.962  1.00  0.00     0.153 HD
BRANCH  24  26
HETATM   26  C9  UNL     1      13.654 -62.799  20.132  1.00  0.00     0.193 C 
BRANCH  26  27
HETATM   27  C10 UNL     1      14.757 -61.803  20.269  1.00  0.00     0.130 A 
HETATM   28  N5  UNL     1      15.389 -61.579  21.462  1.00  0.00    -0.271 N 
HETATM   29  N6  UNL     1      16.246 -60.617  21.249  1.00  0.00    -0.227 N 
ATOM     30  H5  UNL     1      15.224 -62.067  22.343  1.00  0.00     0.190 HD
HETATM   31  N7  UNL     1      16.221 -60.199  20.004  1.00  0.00    -0.227 N 
ATOM     32  H6  UNL     1      16.862 -60.235  21.967  1.00  0.00     0.210 HD
HETATM   33  N8  UNL     1      15.280 -60.954  19.400  1.00  0.00    -0.271 N 
ATOM     34  H7  UNL     1      16.790 -59.464  19.584  1.00  0.00     0.210 HD
ATOM     35  H8  UNL     1      15.011 -60.882  18.419  1.00  0.00     0.190 HD
ENDBRANCH  26  27
ENDBRANCH  24  26
ENDBRANCH  23  24
ENDBRANCH  22  23
ENDBRANCH  21  22
ENDBRANCH   1  21
TORSDOF 12
ENDMDL
MODEL 3
REMARK VINA RESULT: -5.560552839      3.992      7.098
REMARK  12 active torsions:
REMARK  status: ('A' for Active; 'I' for Inactive)
REMARK    1  A    between atoms: N1_2  and  C2_4 
REMARK    2  A    between atoms: C4_8  and  C5_9 
REMARK    3  A    between atoms: C5_9  and  N3_10 
REMARK    4  A    between atoms: N3_10  and  C6_13 
REMARK    5  A    between atoms: C6_13  and  C7_14 
REMARK    6  A    between atoms: C7_14  and  C8_15 
REMARK    7  A    between atoms: C8_15  and  N4_16 
REMARK    8  A    between atoms: N4_16  and  C9_18 
REMARK    9  A    between atoms: C9_18  and  C10_19 
REMARK   10  A    between atoms: C11_28  and  O1_29 
REMARK   11  A    between atoms: O1_29  and  C12_30 
REMARK   12  A    between atoms: C12_30  and  C13_31 
ROOT
HETATM    1  N3  UNL     1      11.046 -65.525  22.451  1.00  0.00    -0.071 N 
ATOM      2  H31 UNL     1      11.267 -66.502  22.646  1.00  0.00     0.277 HD
ATOM      3  H32 UNL     1      11.168 -65.519  21.439  1.00  0.00     0.277 HD
ENDROOT
BRANCH   1   4
HETATM    4  C5  UNL     1      12.013 -64.648  23.085  1.00  0.00     0.276 C 
BRANCH   4   5
HETATM    5  C4  UNL     1      12.612 -63.735  22.094  1.00  0.00     0.035 A 
HETATM    6  C3  UNL     1      12.167 -62.462  21.934  1.00  0.00     0.119 A 
HETATM    7  N2  UNL     1      12.843 -61.614  21.104  1.00  0.00    -0.201 N 
HETATM    8  C2  UNL     1      13.932 -62.048  20.462  1.00  0.00     0.679 A 
ATOM      9  H2  UNL     1      12.520 -60.655  20.976  1.00  0.00     0.183 HD
HETATM   10  N9  UNL     1      14.407 -63.322  20.596  1.00  0.00    -0.170 N 
HETATM   11  C11 UNL     1      13.735 -64.137  21.410  1.00  0.00     0.166 A 
ATOM     12  H9  UNL     1      15.239 -63.637  20.096  1.00  0.00     0.186 HD
BRANCH   8  13
HETATM   13  N1  UNL     1      14.627 -61.292  19.679  1.00  0.00    -0.230 N 
HETATM   14  C1  UNL     1      15.918 -60.838  20.229  1.00  0.00     0.165 C 
ATOM     15  H1  UNL     1      14.307 -61.029  18.748  1.00  0.00     0.177 HD
ENDBRANCH   8  13
BRANCH  11  16
HETATM   16  O1  UNL     1      14.150 -65.450  21.593  1.00  0.00    -0.335 OA
BRANCH  16  17
HETATM   17  C12 UNL     1      15.426 -65.894  21.135  1.00  0.00     0.181 C 
BRANCH  17  18
HETATM   18  C13 UNL     1      16.458 -65.639  22.217  1.00  0.00     0.002 C 
HETATM   19  C14 UNL     1      15.985 -66.209  23.534  1.00  0.00     0.011 C 
HETATM   20  C15 UNL     1      17.832 -66.049  21.827  1.00  0.00     0.011 C 
ENDBRANCH  17  18
ENDBRANCH  16  17
ENDBRANCH  11  16
ENDBRANCH   4   5
ENDBRANCH   1   4
BRANCH   1  21
HETATM   21  C6  UNL     1       9.678 -65.239  22.797  1.00  0.00     0.234 C 
BRANCH  21  22
HETATM   22  C7  UNL     1       8.865 -66.455  22.438  1.00  0.00     0.046 C 
BRANCH  22  23
HETATM   23  C8  UNL     1       9.644 -67.677  22.127  1.00  0.00     0.115 C 
BRANCH  23  24
HETATM   24  N4  UNL     1       8.966 -68.916  22.051  1.00  0.00    -0.414 N 
ATOM     25  H4  UNL     1       8.180 -69.149  22.657  1.00  0.00     0.153 HD
BRANCH  24  26
HETATM   26  C9  UNL     1       9.474 -69.831  21.047  1.00  0.00     0.193 C 
BRANCH  26  27
HETATM   27  C10 UNL     1       9.025 -69.378  19.698  1.00  0.00     0.130 A 
HETATM   28  N5  UNL     1       9.890 -69.268  18.643  1.00  0.00    -0.271 N 
HETATM   29  N6  UNL     1       9.194 -68.793  17.645  1.00  0.00    -0.227 N 
ATOM     30  H5  UNL     1      10.881 -69.509  18.637  1.00  0.00     0.190 HD
HETATM   31  N7  UNL     1       7.937 -68.588  17.970  1.00  0.00    -0.227 N 
ATOM     32  H6  UNL     1       9.581 -68.604  16.720  1.00  0.00     0.210 HD
HETATM   33  N8  UNL     1       7.847 -68.960  19.265  1.00  0.00    -0.271 N 
ATOM     34  H7  UNL     1       7.192 -68.226  17.375  1.00  0.00     0.210 HD
ATOM     35  H8  UNL     1       6.996 -68.925  19.826  1.00  0.00     0.190 HD
ENDBRANCH  26  27
ENDBRANCH  24  26
ENDBRANCH  23  24
ENDBRANCH  22  23
ENDBRANCH  21  22
ENDBRANCH   1  21
TORSDOF 12
ENDMDL
MODEL 4
REMARK VINA RESULT: -5.493335741      2.659      3.908
REMARK  12 active torsions:
REMARK  status: ('A' for Active; 'I' for Inactive)
REMARK    1  A    between atoms: N1_2  and  C2_4 
REMARK    2  A    between atoms: C4_8  and  C5_9 
REMARK    3  A    between atoms: C5_9  and  N3_10 
REMARK    4  A    between atoms: N3_10  and  C6_13 
REMARK    5  A    between atoms: C6_13  and  C7_14 
REMARK    6  A    between atoms: C7_14  and  C8_15 
REMARK    7  A    between atoms: C8_15  and  N4_16 
REMARK    8  A    between atoms: N4_16  and  C9_18 
REMARK    9  A    between atoms: C9_18  and  C10_19 
REMARK   10  A    between atoms: C11_28  and  O1_29 
REMARK   11  A    between atoms: O1_29  and  C12_30 
REMARK   12  A    between atoms: C12_30  and  C13_31 
ROOT
HETATM    1  N3  UNL     1      13.965 -64.481  23.241  1.00  0.00    -0.071 N 
ATOM      2  H31 UNL     1      13.447 -64.406  22.366  1.00  0.00     0.277 HD
ATOM      3  H32 UNL     1      14.905 -64.626  22.873  1.00  0.00     0.277 HD
ENDROOT
BRANCH   1   4
HETATM    4  C5  UNL     1      13.528 -65.643  23.993  1.00  0.00     0.276 C 
BRANCH   4   5
HETATM    5  C4  UNL     1      12.300 -66.209  23.406  1.00  0.00     0.035 A 
HETATM    6  C3  UNL     1      11.121 -66.215  24.080  1.00  0.00     0.119 A 
HETATM    7  N2  UNL     1       9.984 -66.623  23.443  1.00  0.00    -0.201 N 
HETATM    8  C2  UNL     1      10.047 -67.009  22.165  1.00  0.00     0.679 A 
ATOM      9  H2  UNL     1       9.093 -66.632  23.939  1.00  0.00     0.183 HD
HETATM   10  N9  UNL     1      11.215 -67.019  21.455  1.00  0.00    -0.170 N 
HETATM   11  C11 UNL     1      12.315 -66.618  22.093  1.00  0.00     0.166 A 
ATOM     12  H9  UNL     1      11.244 -67.320  20.481  1.00  0.00     0.186 HD
BRANCH   8  13
HETATM   13  N1  UNL     1       9.007 -67.387  21.499  1.00  0.00    -0.230 N 
HETATM   14  C1  UNL     1       7.725 -67.267  22.217  1.00  0.00     0.165 C 
ATOM     15  H1  UNL     1       9.069 -67.743  20.546  1.00  0.00     0.177 HD
ENDBRANCH   8  13
BRANCH  11  16
HETATM   16  O1  UNL     1      13.542 -66.607  21.442  1.00  0.00    -0.335 OA
BRANCH  16  17
HETATM   17  C12 UNL     1      14.324 -67.794  21.313  1.00  0.00     0.181 C 
BRANCH  17  18
HETATM   18  C13 UNL     1      15.671 -67.575  21.976  1.00  0.00     0.002 C 
HETATM   19  C14 UNL     1      16.454 -68.866  22.004  1.00  0.00     0.011 C 
HETATM   20  C15 UNL     1      16.416 -66.414  21.424  1.00  0.00     0.011 C 
ENDBRANCH  17  18
ENDBRANCH  16  17
ENDBRANCH  11  16
ENDBRANCH   4   5
ENDBRANCH   1   4
BRANCH   1  21
HETATM   21  C6  UNL     1      13.896 -63.247  23.977  1.00  0.00     0.234 C 
BRANCH  21  22
HETATM   22  C7  UNL     1      13.118 -62.269  23.134  1.00  0.00     0.046 C 
BRANCH  22  23
HETATM   23  C8  UNL     1      12.277 -62.869  22.072  1.00  0.00     0.115 C 
BRANCH  23  24
HETATM   24  N4  UNL     1      12.468 -62.452  20.733  1.00  0.00    -0.414 N 
ATOM     25  H4  UNL     1      11.791 -61.874  20.237  1.00  0.00     0.153 HD
BRANCH  24  26
HETATM   26  C9  UNL     1      13.700 -62.910  20.120  1.00  0.00     0.193 C 
BRANCH  26  27
HETATM   27  C10 UNL     1      14.734 -61.841  20.238  1.00  0.00     0.130 A 
HETATM   28  N5  UNL     1      15.942 -62.062  20.843  1.00  0.00    -0.271 N 
HETATM   29  N6  UNL     1      16.574 -60.919  20.832  1.00  0.00    -0.227 N 
ATOM     30  H5  UNL     1      16.282 -62.944  21.226  1.00  0.00     0.190 HD
HETATM   31  N7  UNL     1      15.868 -59.968  20.262  1.00  0.00    -0.227 N 
ATOM     32  H6  UNL     1      17.507 -60.780  21.220  1.00  0.00     0.210 HD
HETATM   33  N8  UNL     1      14.713 -60.564  19.894  1.00  0.00    -0.271 N 
ATOM     34  H7  UNL     1      16.133 -58.993  20.126  1.00  0.00     0.210 HD
ATOM     35  H8  UNL     1      13.939 -60.098  19.421  1.00  0.00     0.190 HD
ENDBRANCH  26  27
ENDBRANCH  24  26
ENDBRANCH  23  24
ENDBRANCH  22  23
ENDBRANCH  21  22
ENDBRANCH   1  21
TORSDOF 12
ENDMDL
MODEL 5
REMARK VINA RESULT: -5.459254177      2.914      7.115
REMARK  12 active torsions:
REMARK  status: ('A' for Active; 'I' for Inactive)
REMARK    1  A    between atoms: N1_2  and  C2_4 
REMARK    2  A    between atoms: C4_8  and  C5_9 
REMARK    3  A    between atoms: C5_9  and  N3_10 
REMARK    4  A    between atoms: N3_10  and  C6_13 
REMARK    5  A    between atoms: C6_13  and  C7_14 
REMARK    6  A    between atoms: C7_14  and  C8_15 
REMARK    7  A    between atoms: C8_15  and  N4_16 
REMARK    8  A    between atoms: N4_16  and  C9_18 
REMARK    9  A    between atoms: C9_18  and  C10_19 
REMARK   10  A    between atoms: C11_28  and  O1_29 
REMARK   11  A    between atoms: O1_29  and  C12_30 
REMARK   12  A    between atoms: C12_30  and  C13_31 
ROOT
HETATM    1  N3  UNL     1      14.680 -66.025  21.045  1.00  0.00    -0.071 N 
ATOM      2  H31 UNL     1      14.573 -66.086  20.033  1.00  0.00     0.277 HD
ATOM      3  H32 UNL     1      13.702 -66.099  21.327  1.00  0.00     0.277 HD
ENDROOT
BRANCH   1   4
HETATM    4  C5  UNL     1      15.222 -64.733  21.423  1.00  0.00     0.276 C 
BRANCH   4   5
HETATM    5  C4  UNL     1      14.205 -63.677  21.265  1.00  0.00     0.035 A 
HETATM    6  C3  UNL     1      14.311 -62.719  20.309  1.00  0.00     0.119 A 
HETATM    7  N2  UNL     1      13.276 -61.848  20.113  1.00  0.00    -0.201 N 
HETATM    8  C2  UNL     1      12.176 -61.952  20.864  1.00  0.00     0.679 A 
ATOM      9  H2  UNL     1      13.344 -61.124  19.399  1.00  0.00     0.183 HD
HETATM   10  N9  UNL     1      12.034 -62.902  21.837  1.00  0.00    -0.170 N 
HETATM   11  C11 UNL     1      13.054 -63.743  22.014  1.00  0.00     0.166 A 
ATOM     12  H9  UNL     1      11.187 -62.964  22.402  1.00  0.00     0.186 HD
BRANCH   8  13
HETATM   13  N1  UNL     1      11.156 -61.174  20.717  1.00  0.00    -0.230 N 
HETATM   14  C1  UNL     1      10.474 -60.790  21.968  1.00  0.00     0.165 C 
ATOM     15  H1  UNL     1      10.844 -60.848  19.803  1.00  0.00     0.177 HD
ENDBRANCH   8  13
BRANCH  11  16
HETATM   16  O1  UNL     1      12.989 -64.731  22.989  1.00  0.00    -0.335 OA
BRANCH  16  17
HETATM   17  C12 UNL     1      12.782 -64.406  24.362  1.00  0.00     0.181 C 
BRANCH  17  18
HETATM   18  C13 UNL     1      13.421 -65.476  25.228  1.00  0.00     0.002 C 
HETATM   19  C14 UNL     1      12.656 -66.772  25.103  1.00  0.00     0.011 C 
HETATM   20  C15 UNL     1      14.886 -65.603  25.019  1.00  0.00     0.011 C 
ENDBRANCH  17  18
ENDBRANCH  16  17
ENDBRANCH  11  16
ENDBRANCH   4   5
ENDBRANCH   1   4
BRANCH   1  21
HETATM   21  C6  UNL     1      15.435 -67.146  21.541  1.00  0.00     0.234 C 
BRANCH  21  22
HETATM   22  C7  UNL     1      14.457 -68.079  22.209  1.00  0.00     0.046 C 
BRANCH  22  23
HETATM   23  C8  UNL     1      13.724 -68.993  21.301  1.00  0.00     0.115 C 
BRANCH  23  24
HETATM   24  N4  UNL     1      12.449 -69.463  21.692  1.00  0.00    -0.414 N 
ATOM     25  H4  UNL     1      12.303 -70.013  22.538  1.00  0.00     0.153 HD
BRANCH  24  26
HETATM   26  C9  UNL     1      11.363 -69.103  20.799  1.00  0.00     0.193 C 
BRANCH  26  27
HETATM   27  C10 UNL     1      10.662 -67.901  21.339  1.00  0.00     0.130 A 
HETATM   28  N5  UNL     1       9.305 -67.871  21.516  1.00  0.00    -0.271 N 
HETATM   29  N6  UNL     1       9.016 -66.669  21.938  1.00  0.00    -0.227 N 
ATOM     30  H5  UNL     1       8.649 -68.635  21.352  1.00  0.00     0.190 HD
HETATM   31  N7  UNL     1      10.086 -65.914  22.052  1.00  0.00    -0.227 N 
ATOM     32  H6  UNL     1       8.070 -66.354  22.154  1.00  0.00     0.210 HD
HETATM   33  N8  UNL     1      11.112 -66.703  21.671  1.00  0.00    -0.271 N 
ATOM     34  H7  UNL     1      10.131 -64.943  22.360  1.00  0.00     0.210 HD
ATOM     35  H8  UNL     1      12.092 -66.418  21.644  1.00  0.00     0.190 HD
ENDBRANCH  26  27
ENDBRANCH  24  26
ENDBRANCH  23  24
ENDBRANCH  22  23
ENDBRANCH  21  22
ENDBRANCH   1  21
TORSDOF 12
ENDMDL
