MODEL 1
REMARK VINA RESULT: -5.597286989      0.000      0.000
REMARK  11 active torsions:
REMARK  status: ('A' for Active; 'I' for Inactive)
REMARK    1  A    between atoms: N1_2  and  C3_4 
REMARK    2  A    between atoms: C3_4  and  C4_5 
REMARK    3  A    between atoms: C4_5  and  N2_6 
REMARK       I    between atoms: N2_6  and  C5_8 
REMARK    4  A    between atoms: C5_8  and  C6_10 
REMARK    5  A    between atoms: C6_10  and  C7_11 
REMARK    6  A    between atoms: C6_10  and  C13_27 
REMARK    7  A    between atoms: C7_11  and  C8_12 
REMARK    8  A    between atoms: N3_13  and  N4_15 
REMARK    9  A    between atoms: N4_15  and  C9_17 
REMARK   10  A    between atoms: C11_19  and  C12_20 
REMARK   11  A    between atoms: C13_27  and  N7_28 
ROOT
HETATM    1  C7  UNL     1      18.811 -66.400  22.888  1.00  0.00     0.062 C 
ENDROOT
BRANCH   1   2
HETATM    2  C6  UNL     1      19.781 -66.339  21.715  1.00  0.00     0.106 C 
BRANCH   2   3
HETATM    3  C5  UNL     1      21.130 -66.205  22.306  1.00  0.00     0.224 C 
HETATM    4  N2  UNL     1      22.193 -65.544  21.638  1.00  0.00    -0.359 N 
ATOM      5  H2  UNL     1      22.004 -65.149  20.716  1.00  0.00     0.162 HD
HETATM    6  O1  UNL     1      21.336 -66.698  23.444  1.00  0.00    -0.273 OA
BRANCH   4   7
HETATM    7  C4  UNL     1      23.520 -65.394  22.173  1.00  0.00     0.152 C 
BRANCH   7   8
HETATM    8  C3  UNL     1      23.897 -63.968  22.445  1.00  0.00     0.290 C 
BRANCH   8   9
HETATM    9  N1  UNL     1      24.088 -63.725  23.864  1.00  0.00     0.081 N 
HETATM   10  C1  UNL     1      24.159 -64.946  24.612  1.00  0.00     0.309 C 
HETATM   11  C2  UNL     1      25.189 -62.851  24.144  1.00  0.00     0.309 C 
ENDBRANCH   8   9
ENDBRANCH   7   8
ENDBRANCH   4   7
ENDBRANCH   2   3
BRANCH   2  12
HETATM   12  C13 UNL     1      19.629 -67.542  20.824  1.00  0.00     0.215 C 
BRANCH  12  13
HETATM   13  N7  UNL     1      20.376 -67.394  19.603  1.00  0.00    -0.155 N 
HETATM   14  O4  UNL     1      20.320 -66.332  18.967  1.00  0.00    -0.537 OA
HETATM   15  O5  UNL     1      21.152 -68.417  19.123  1.00  0.00    -0.537 OA
ENDBRANCH  12  13
ENDBRANCH   2  12
ENDBRANCH   1   2
BRANCH   1  16
HETATM   16  C8  UNL     1      17.432 -66.584  22.343  1.00  0.00     0.081 C 
HETATM   17  N3  UNL     1      16.552 -65.704  22.700  1.00  0.00    -0.314 N 
ATOM     18  H3  UNL     1      16.820 -64.940  23.320  1.00  0.00     0.185 HD
BRANCH  17  19
HETATM   19  N4  UNL     1      15.254 -65.797  22.242  1.00  0.00    -0.285 N 
ATOM     20  H4  UNL     1      14.691 -66.605  22.506  1.00  0.00     0.188 HD
BRANCH  19  21
HETATM   21  C9  UNL     1      14.680 -64.785  21.408  1.00  0.00     0.137 A 
HETATM   22  C10 UNL     1      14.826 -63.422  21.571  1.00  0.00     0.089 A 
HETATM   23  C11 UNL     1      14.126 -62.759  20.572  1.00  0.00     0.128 A 
HETATM   24  N5  UNL     1      13.578 -63.737  19.832  1.00  0.00    -0.293 N 
HETATM   25  N6  UNL     1      13.906 -64.932  20.327  1.00  0.00    -0.284 N 
ATOM     26  H5  UNL     1      12.995 -63.588  19.009  1.00  0.00     0.187 HD
ATOM     27  H6  UNL     1      13.610 -65.828  19.937  1.00  0.00     0.188 HD
BRANCH  23  28
HETATM   28  C12 UNL     1      14.022 -61.316  20.382  1.00  0.00     0.228 C 
HETATM   29  O2  UNL     1      12.919 -60.774  20.116  1.00  0.00    -0.643 OA
HETATM   30  O3  UNL     1      15.136 -60.523  20.494  1.00  0.00    -0.643 OA
ENDBRANCH  23  28
ENDBRANCH  19  21
ENDBRANCH  17  19
ENDBRANCH   1  16
TORSDOF 11
ENDMDL
MODEL 2
REMARK VINA RESULT: -5.553580531      3.925      7.023
REMARK  11 active torsions:
REMARK  status: ('A' for Active; 'I' for Inactive)
REMARK    1  A    between atoms: N1_2  and  C3_4 
REMARK    2  A    between atoms: C3_4  and  C4_5 
REMARK    3  A    between atoms: C4_5  and  N2_6 
REMARK       I    between atoms: N2_6  and  C5_8 
REMARK    4  A    between atoms: C5_8  and  C6_10 
REMARK    5  A    between atoms: C6_10  and  C7_11 
REMARK    6  A    between atoms: C6_10  and  C13_27 
REMARK    7  A    between atoms: C7_11  and  C8_12 
REMARK    8  A    between atoms: N3_13  and  N4_15 
REMARK    9  A    between atoms: N4_15  and  C9_17 
REMARK   10  A    between atoms: C11_19  and  C12_20 
REMARK   11  A    between atoms: C13_27  and  N7_28 
ROOT
HETATM    1  C7  UNL     1      13.973 -63.108  22.691  1.00  0.00     0.062 C 
ENDROOT
BRANCH   1   2
HETATM    2  C6  UNL     1      14.687 -63.246  21.352  1.00  0.00     0.106 C 
BRANCH   2   3
HETATM    3  C5  UNL     1      15.033 -64.677  21.217  1.00  0.00     0.224 C 
HETATM    4  N2  UNL     1      15.919 -65.335  22.108  1.00  0.00    -0.359 N 
ATOM      5  H2  UNL     1      16.324 -64.786  22.868  1.00  0.00     0.162 HD
HETATM    6  O1  UNL     1      14.518 -65.331  20.274  1.00  0.00    -0.273 OA
BRANCH   4   7
HETATM    7  C4  UNL     1      16.286 -66.722  22.013  1.00  0.00     0.152 C 
BRANCH   7   8
HETATM    8  C3  UNL     1      17.647 -66.942  21.420  1.00  0.00     0.290 C 
BRANCH   8   9
HETATM    9  N1  UNL     1      18.658 -66.137  22.084  1.00  0.00     0.081 N 
HETATM   10  C1  UNL     1      19.119 -66.750  23.295  1.00  0.00     0.309 C 
HETATM   11  C2  UNL     1      19.737 -65.760  21.219  1.00  0.00     0.309 C 
ENDBRANCH   8   9
ENDBRANCH   7   8
ENDBRANCH   4   7
ENDBRANCH   2   3
BRANCH   2  12
HETATM   12  C13 UNL     1      13.832 -62.724  20.228  1.00  0.00     0.215 C 
BRANCH  12  13
HETATM   13  N7  UNL     1      13.719 -61.290  20.272  1.00  0.00    -0.155 N 
HETATM   14  O4  UNL     1      12.606 -60.753  20.173  1.00  0.00    -0.537 OA
HETATM   15  O5  UNL     1      14.828 -60.499  20.418  1.00  0.00    -0.537 OA
ENDBRANCH  12  13
ENDBRANCH   2  12
ENDBRANCH   1   2
BRANCH   1  16
HETATM   16  C8  UNL     1      12.621 -63.730  22.564  1.00  0.00     0.081 C 
HETATM   17  N3  UNL     1      12.305 -64.603  23.467  1.00  0.00    -0.314 N 
ATOM     18  H3  UNL     1      12.967 -64.830  24.208  1.00  0.00     0.185 HD
BRANCH  17  19
HETATM   19  N4  UNL     1      11.076 -65.228  23.427  1.00  0.00    -0.285 N 
ATOM     20  H4  UNL     1      10.324 -64.885  24.025  1.00  0.00     0.188 HD
BRANCH  19  21
HETATM   21  C9  UNL     1      10.830 -66.345  22.566  1.00  0.00     0.137 A 
HETATM   22  C10 UNL     1      11.722 -67.362  22.285  1.00  0.00     0.089 A 
HETATM   23  C11 UNL     1      11.132 -68.266  21.411  1.00  0.00     0.128 A 
HETATM   24  N5  UNL     1       9.902 -67.773  21.190  1.00  0.00    -0.293 N 
HETATM   25  N6  UNL     1       9.726 -66.640  21.872  1.00  0.00    -0.284 N 
ATOM     26  H5  UNL     1       9.202 -68.205  20.587  1.00  0.00     0.187 HD
ATOM     27  H6  UNL     1       8.872 -66.080  21.865  1.00  0.00     0.188 HD
BRANCH  23  28
HETATM   28  C12 UNL     1      11.732 -69.478  20.867  1.00  0.00     0.228 C 
HETATM   29  O2  UNL     1      11.799 -69.670  19.626  1.00  0.00    -0.643 OA
HETATM   30  O3  UNL     1      12.237 -70.438  21.709  1.00  0.00    -0.643 OA
ENDBRANCH  23  28
ENDBRANCH  19  21
ENDBRANCH  17  19
ENDBRANCH   1  16
TORSDOF 11
ENDMDL
MODEL 3
REMARK VINA RESULT: -5.512254635      3.100      9.577
REMARK  11 active torsions:
REMARK  status: ('A' for Active; 'I' for Inactive)
REMARK    1  A    between atoms: N1_2  and  C3_4 
REMARK    2  A    between atoms: C3_4  and  C4_5 
REMARK    3  A    between atoms: C4_5  and  N2_6 
REMARK       I    between atoms: N2_6  and  C5_8 
REMARK    4  A    between atoms: C5_8  and  C6_10 
REMARK    5  A    between atoms: C6_10  and  C7_11 
REMARK    6  A    between atoms: C6_10  and  C13_27 
REMARK    7  A    between atoms: C7_11  and  C8_12 
REMARK    8  A    between atoms: N3_13  and  N4_15 
REMARK    9  A    between atoms: N4_15  and  C9_17 
REMARK   10  A    between atoms: C11_19  and  C12_20 
REMARK   11  A    between atoms: C13_27  and  N7_28 
ROOT
HETATM    1  C7  UNL     1      14.267 -63.263  22.584  1.00  0.00     0.062 C 
ENDROOT
BRANCH   1   2
HETATM    2  C6  UNL     1      12.955 -63.372  21.819  1.00  0.00     0.106 C 
BRANCH   2   3
HETATM    3  C5  UNL     1      12.076 -64.240  22.633  1.00  0.00     0.224 C 
HETATM    4  N2  UNL     1      10.684 -64.363  22.385  1.00  0.00    -0.359 N 
ATOM      5  H2  UNL     1      10.290 -63.830  21.609  1.00  0.00     0.162 HD
HETATM    6  O1  UNL     1      12.588 -64.889  23.580  1.00  0.00    -0.273 OA
BRANCH   4   7
HETATM    7  C4  UNL     1       9.793 -65.191  23.152  1.00  0.00     0.152 C 
BRANCH   7   8
HETATM    8  C3  UNL     1       9.216 -66.334  22.370  1.00  0.00     0.290 C 
BRANCH   8   9
HETATM    9  N1  UNL     1       9.932 -67.572  22.622  1.00  0.00     0.081 N 
HETATM   10  C1  UNL     1      10.940 -67.818  21.632  1.00  0.00     0.309 C 
HETATM   11  C2  UNL     1      10.444 -67.667  23.956  1.00  0.00     0.309 C 
ENDBRANCH   8   9
ENDBRANCH   7   8
ENDBRANCH   4   7
ENDBRANCH   2   3
BRANCH   2  12
HETATM   12  C13 UNL     1      12.373 -62.011  21.545  1.00  0.00     0.215 C 
BRANCH  12  13
HETATM   13  N7  UNL     1      12.879 -61.456  20.318  1.00  0.00    -0.155 N 
HETATM   14  O4  UNL     1      13.835 -60.666  20.342  1.00  0.00    -0.537 OA
HETATM   15  O5  UNL     1      12.318 -61.784  19.112  1.00  0.00    -0.537 OA
ENDBRANCH  12  13
ENDBRANCH   2  12
ENDBRANCH   1   2
BRANCH   1  16
HETATM   16  C8  UNL     1      15.313 -64.011  21.825  1.00  0.00     0.081 C 
HETATM   17  N3  UNL     1      15.519 -65.237  22.188  1.00  0.00    -0.314 N 
ATOM     18  H3  UNL     1      14.978 -65.638  22.954  1.00  0.00     0.185 HD
BRANCH  17  19
HETATM   19  N4  UNL     1      16.466 -66.002  21.540  1.00  0.00    -0.285 N 
ATOM     20  H4  UNL     1      16.237 -66.420  20.638  1.00  0.00     0.188 HD
BRANCH  19  21
HETATM   21  C9  UNL     1      17.763 -66.225  22.104  1.00  0.00     0.137 A 
HETATM   22  C10 UNL     1      18.970 -66.014  21.467  1.00  0.00     0.089 A 
HETATM   23  C11 UNL     1      20.011 -66.339  22.328  1.00  0.00     0.128 A 
HETATM   24  N5  UNL     1      19.406 -66.734  23.460  1.00  0.00    -0.293 N 
HETATM   25  N6  UNL     1      18.080 -66.666  23.327  1.00  0.00    -0.284 N 
ATOM     26  H5  UNL     1      19.891 -67.042  24.302  1.00  0.00     0.187 HD
ATOM     27  H6  UNL     1      17.406 -66.914  24.051  1.00  0.00     0.188 HD
BRANCH  23  28
HETATM   28  C12 UNL     1      21.439 -66.260  22.046  1.00  0.00     0.228 C 
HETATM   29  O2  UNL     1      22.268 -66.002  22.956  1.00  0.00    -0.643 OA
HETATM   30  O3  UNL     1      21.905 -66.468  20.771  1.00  0.00    -0.643 OA
ENDBRANCH  23  28
ENDBRANCH  19  21
ENDBRANCH  17  19
ENDBRANCH   1  16
TORSDOF 11
ENDMDL
MODEL 4
REMARK VINA RESULT: -5.479492503      3.418      9.676
REMARK  11 active torsions:
REMARK  status: ('A' for Active; 'I' for Inactive)
REMARK    1  A    between atoms: N1_2  and  C3_4 
REMARK    2  A    between atoms: C3_4  and  C4_5 
REMARK    3  A    between atoms: C4_5  and  N2_6 
REMARK       I    between atoms: N2_6  and  C5_8 
REMARK    4  A    between atoms: C5_8  and  C6_10 
REMARK    5  A    between atoms: C6_10  and  C7_11 
REMARK    6  A    between atoms: C6_10  and  C13_27 
REMARK    7  A    between atoms: C7_11  and  C8_12 
REMARK    8  A    between atoms: N3_13  and  N4_15 
REMARK    9  A    between atoms: N4_15  and  C9_17 
REMARK   10  A    between atoms: C11_19  and  C12_20 
REMARK   11  A    between atoms: C13_27  and  N7_28 
ROOT
HETATM    1  C7  UNL     1      14.099 -63.173  23.322  1.00  0.00     0.062 C 
ENDROOT
BRANCH   1   2
HETATM    2  C6  UNL     1      13.433 -63.229  21.953  1.00  0.00     0.106 C 
BRANCH   2   3
HETATM    3  C5  UNL     1      11.980 -63.339  22.208  1.00  0.00     0.224 C 
HETATM    4  N2  UNL     1      11.351 -64.573  22.515  1.00  0.00    -0.359 N 
ATOM      5  H2  UNL     1      11.937 -65.408  22.561  1.00  0.00     0.162 HD
HETATM    6  O1  UNL     1      11.282 -62.295  22.150  1.00  0.00    -0.273 OA
BRANCH   4   7
HETATM    7  C4  UNL     1       9.944 -64.726  22.767  1.00  0.00     0.152 C 
BRANCH   7   8
HETATM    8  C3  UNL     1       9.435 -66.112  22.496  1.00  0.00     0.290 C 
BRANCH   8   9
HETATM    9  N1  UNL     1       8.287 -66.434  23.325  1.00  0.00     0.081 N 
HETATM   10  C1  UNL     1       7.812 -65.291  24.049  1.00  0.00     0.309 C 
HETATM   11  C2  UNL     1       7.239 -67.097  22.606  1.00  0.00     0.309 C 
ENDBRANCH   8   9
ENDBRANCH   7   8
ENDBRANCH   4   7
ENDBRANCH   2   3
BRANCH   2  12
HETATM   12  C13 UNL     1      13.810 -62.034  21.119  1.00  0.00     0.215 C 
BRANCH  12  13
HETATM   13  N7  UNL     1      13.584 -62.274  19.719  1.00  0.00    -0.155 N 
HETATM   14  O4  UNL     1      14.328 -63.045  19.094  1.00  0.00    -0.537 OA
HETATM   15  O5  UNL     1      12.556 -61.658  19.054  1.00  0.00    -0.537 OA
ENDBRANCH  12  13
ENDBRANCH   2  12
ENDBRANCH   1   2
BRANCH   1  16
HETATM   16  C8  UNL     1      14.682 -64.517  23.612  1.00  0.00     0.081 C 
HETATM   17  N3  UNL     1      14.966 -65.252  22.585  1.00  0.00    -0.314 N 
ATOM     18  H3  UNL     1      14.788 -64.902  21.644  1.00  0.00     0.185 HD
BRANCH  17  19
HETATM   19  N4  UNL     1      15.508 -66.509  22.760  1.00  0.00    -0.285 N 
ATOM     20  H4  UNL     1      15.021 -67.183  23.352  1.00  0.00     0.188 HD
BRANCH  19  21
HETATM   21  C9  UNL     1      16.737 -66.889  22.132  1.00  0.00     0.137 A 
HETATM   22  C10 UNL     1      17.712 -66.025  21.674  1.00  0.00     0.089 A 
HETATM   23  C11 UNL     1      18.758 -66.757  21.126  1.00  0.00     0.128 A 
HETATM   24  N5  UNL     1      18.387 -68.040  21.269  1.00  0.00    -0.293 N 
HETATM   25  N6  UNL     1      17.195 -68.116  21.863  1.00  0.00    -0.284 N 
ATOM     26  H5  UNL     1      18.939 -68.842  20.967  1.00  0.00     0.187 HD
ATOM     27  H6  UNL     1      16.704 -68.984  22.080  1.00  0.00     0.188 HD
BRANCH  23  28
HETATM   28  C12 UNL     1      19.981 -66.230  20.532  1.00  0.00     0.228 C 
HETATM   29  O2  UNL     1      20.837 -65.631  21.231  1.00  0.00    -0.643 OA
HETATM   30  O3  UNL     1      20.218 -66.382  19.188  1.00  0.00    -0.643 OA
ENDBRANCH  23  28
ENDBRANCH  19  21
ENDBRANCH  17  19
ENDBRANCH   1  16
TORSDOF 11
ENDMDL
MODEL 5
REMARK VINA RESULT: -5.453125528      3.943      5.824
REMARK  11 active torsions:
REMARK  status: ('A' for Active; 'I' for Inactive)
REMARK    1  A    between atoms: N1_2  and  C3_4 
REMARK    2  A    between atoms: C3_4  and  C4_5 
REMARK    3  A    between atoms: C4_5  and  N2_6 
REMARK       I    between atoms: N2_6  and  C5_8 
REMARK    4  A    between atoms: C5_8  and  C6_10 
REMARK    5  A    between atoms: C6_10  and  C7_11 
REMARK    6  A    between atoms: C6_10  and  C13_27 
REMARK    7  A    between atoms: C7_11  and  C8_12 
REMARK    8  A    between atoms: N3_13  and  N4_15 
REMARK    9  A    between atoms: N4_15  and  C9_17 
REMARK   10  A    between atoms: C11_19  and  C12_20 
REMARK   11  A    between atoms: C13_27  and  N7_28 
ROOT
HETATM    1  C7  UNL     1      12.709 -66.520  23.405  1.00  0.00     0.062 C 
ENDROOT
BRANCH   1   2
HETATM    2  C6  UNL     1      12.836 -67.155  22.026  1.00  0.00     0.106 C 
BRANCH   2   3
HETATM    3  C5  UNL     1      14.217 -66.882  21.574  1.00  0.00     0.224 C 
HETATM    4  N2  UNL     1      15.345 -67.538  22.131  1.00  0.00    -0.359 N 
ATOM      5  H2  UNL     1      15.181 -68.223  22.869  1.00  0.00     0.162 HD
HETATM    6  O1  UNL     1      14.391 -66.036  20.661  1.00  0.00    -0.273 OA
BRANCH   4   7
HETATM    7  C4  UNL     1      16.704 -67.301  21.725  1.00  0.00     0.152 C 
BRANCH   7   8
HETATM    8  C3  UNL     1      17.248 -65.984  22.195  1.00  0.00     0.290 C 
BRANCH   8   9
HETATM    9  N1  UNL     1      18.682 -66.045  22.423  1.00  0.00     0.081 N 
HETATM   10  C1  UNL     1      19.038 -67.118  23.305  1.00  0.00     0.309 C 
HETATM   11  C2  UNL     1      19.445 -66.062  21.210  1.00  0.00     0.309 C 
ENDBRANCH   8   9
ENDBRANCH   7   8
ENDBRANCH   4   7
ENDBRANCH   2   3
BRANCH   2  12
HETATM   12  C13 UNL     1      12.495 -68.621  22.072  1.00  0.00     0.215 C 
BRANCH  12  13
HETATM   13  N7  UNL     1      12.501 -69.207  20.759  1.00  0.00    -0.155 N 
HETATM   14  O4  UNL     1      11.448 -69.285  20.109  1.00  0.00    -0.537 OA
HETATM   15  O5  UNL     1      13.660 -69.690  20.208  1.00  0.00    -0.537 OA
ENDBRANCH  12  13
ENDBRANCH   2  12
ENDBRANCH   1   2
BRANCH   1  16
HETATM   16  C8  UNL     1      12.532 -65.048  23.225  1.00  0.00     0.081 C 
HETATM   17  N3  UNL     1      11.866 -64.674  22.179  1.00  0.00    -0.314 N 
ATOM     18  H3  UNL     1      11.498 -65.373  21.534  1.00  0.00     0.185 HD
BRANCH  17  19
HETATM   19  N4  UNL     1      11.655 -63.333  21.934  1.00  0.00    -0.285 N 
ATOM     20  H4  UNL     1      10.811 -62.888  22.295  1.00  0.00     0.188 HD
BRANCH  19  21
HETATM   21  C9  UNL     1      12.592 -62.551  21.186  1.00  0.00     0.137 A 
HETATM   22  C10 UNL     1      13.796 -62.063  21.655  1.00  0.00     0.089 A 
HETATM   23  C11 UNL     1      14.432 -61.351  20.646  1.00  0.00     0.128 A 
HETATM   24  N5  UNL     1      13.597 -61.429  19.596  1.00  0.00    -0.293 N 
HETATM   25  N6  UNL     1      12.512 -62.137  19.916  1.00  0.00    -0.284 N 
ATOM     26  H5  UNL     1      13.768 -61.007  18.684  1.00  0.00     0.187 HD
ATOM     27  H6  UNL     1      11.735 -62.334  19.285  1.00  0.00     0.188 HD
BRANCH  23  28
HETATM   28  C12 UNL     1      15.722 -60.676  20.727  1.00  0.00     0.228 C 
HETATM   29  O2  UNL     1      15.811 -59.492  21.139  1.00  0.00    -0.643 OA
HETATM   30  O3  UNL     1      16.868 -61.330  20.350  1.00  0.00    -0.643 OA
ENDBRANCH  23  28
ENDBRANCH  19  21
ENDBRANCH  17  19
ENDBRANCH   1  16
TORSDOF 11
ENDMDL
