MODEL 1
REMARK VINA RESULT: -6.393591668      0.000      0.000
REMARK  10 active torsions:
REMARK  status: ('A' for Active; 'I' for Inactive)
REMARK    1  A    between atoms: O1_2  and  C2_3 
REMARK    2  A    between atoms: C2_3  and  C3_5 
REMARK    3  A    between atoms: C3_5  and  C4_6 
REMARK    4  A    between atoms: C3_5  and  C12_25 
REMARK       I    between atoms: C4_6  and  N1_8 
REMARK    5  A    between atoms: N1_8  and  C5_10 
REMARK    6  A    between atoms: C5_10  and  C6_11 
REMARK    7  A    between atoms: C6_11  and  O5_13 
REMARK    8  A    between atoms: O5_13  and  C7_14 
REMARK    9  A    between atoms: C7_14  and  C8_15 
REMARK   10  A    between atoms: C13_31  and  N6_32 
ROOT
HETATM    1  C4  UNL     1     -63.111 -19.516 -21.994  1.00  0.00     0.237 C 
HETATM    2  O3  UNL     1     -63.755 -18.437 -22.012  1.00  0.00    -0.272 OA
HETATM    3  N1  UNL     1     -63.702 -20.737 -22.405  1.00  0.00    -0.351 N 
ATOM      4  H1  UNL     1     -63.138 -21.587 -22.374  1.00  0.00     0.163 HD
ENDROOT
BRANCH   1   5
HETATM    5  C3  UNL     1     -61.702 -19.512 -21.532  1.00  0.00     0.232 C 
BRANCH   5   6
HETATM    6  C2  UNL     1     -60.849 -19.926 -22.673  1.00  0.00     0.277 C 
HETATM    7  O2  UNL     1     -61.282 -19.698 -23.836  1.00  0.00    -0.264 OA
BRANCH   6   8
HETATM    8  O1  UNL     1     -59.617 -20.540 -22.529  1.00  0.00    -0.326 OA
HETATM    9  C1  UNL     1     -59.283 -21.105 -21.290  1.00  0.00     0.213 C 
ENDBRANCH   6   8
ENDBRANCH   5   6
BRANCH   5  10
HETATM   10  C12 UNL     1     -61.355 -18.119 -21.113  1.00  0.00     0.102 A 
HETATM   11  N4  UNL     1     -61.362 -17.027 -21.882  1.00  0.00    -0.241 N 
HETATM   12  O6  UNL     1     -61.002 -16.005 -21.162  1.00  0.00    -0.155 OA
ATOM     13  H4  UNL     1     -61.609 -16.999 -22.871  1.00  0.00     0.196 HD
HETATM   14  N5  UNL     1     -60.758 -16.406 -19.938  1.00  0.00    -0.224 N 
HETATM   15  C13 UNL     1     -60.965 -17.735 -19.848  1.00  0.00     0.147 A 
ATOM     16  H5  UNL     1     -60.458 -15.804 -19.171  1.00  0.00     0.198 HD
BRANCH  15  17
HETATM   17  N6  UNL     1     -60.841 -18.513 -18.839  1.00  0.00    -0.382 N 
ATOM     18  H62 UNL     1     -60.732 -19.527 -18.810  1.00  0.00     0.157 HD
ATOM     19  H61 UNL     1     -60.832 -18.221 -17.862  1.00  0.00     0.157 HD
ENDBRANCH  15  17
ENDBRANCH   5  10
ENDBRANCH   1   5
BRANCH   3  20
HETATM   20  C5  UNL     1     -65.056 -20.832 -22.862  1.00  0.00     0.233 C 
BRANCH  20  21
HETATM   21  C6  UNL     1     -66.025 -20.844 -21.703  1.00  0.00     0.276 C 
HETATM   22  O4  UNL     1     -66.109 -21.818 -20.944  1.00  0.00    -0.263 OA
BRANCH  21  23
HETATM   23  O5  UNL     1     -66.796 -19.768 -21.516  1.00  0.00    -0.319 OA
BRANCH  23  24
HETATM   24  C7  UNL     1     -67.881 -19.282 -22.188  1.00  0.00     0.201 C 
BRANCH  24  25
HETATM   25  C8  UNL     1     -67.978 -17.811 -22.309  1.00  0.00     0.050 C 
HETATM   26  C9  UNL     1     -67.635 -17.300 -23.690  1.00  0.00     0.031 C 
HETATM   27  C10 UNL     1     -66.938 -17.165 -21.328  1.00  0.00     0.144 C 
HETATM   28  N2  UNL     1     -67.283 -15.792 -21.200  1.00  0.00    -0.369 N 
HETATM   29  C11 UNL     1     -68.655 -15.581 -20.957  1.00  0.00     0.134 C 
ATOM     30  H2  UNL     1     -66.604 -15.034 -21.276  1.00  0.00     0.161 HD
HETATM   31  N3  UNL     1     -69.235 -14.623 -20.383  1.00  0.00    -0.380 N 
HETATM   32  S1  UNL     1     -69.451 -17.018 -21.659  1.00  0.00    -0.081 SA
ATOM     33  H32 UNL     1     -68.781 -13.802 -19.982  1.00  0.00     0.158 HD
ATOM     34  H31 UNL     1     -70.228 -14.471 -20.207  1.00  0.00     0.158 HD
ENDBRANCH  24  25
ENDBRANCH  23  24
ENDBRANCH  21  23
ENDBRANCH  20  21
ENDBRANCH   3  20
TORSDOF 10
ENDMDL
MODEL 2
REMARK VINA RESULT: -6.392697311      3.394      4.957
REMARK  10 active torsions:
REMARK  status: ('A' for Active; 'I' for Inactive)
REMARK    1  A    between atoms: O1_2  and  C2_3 
REMARK    2  A    between atoms: C2_3  and  C3_5 
REMARK    3  A    between atoms: C3_5  and  C4_6 
REMARK    4  A    between atoms: C3_5  and  C12_25 
REMARK       I    between atoms: C4_6  and  N1_8 
REMARK    5  A    between atoms: N1_8  and  C5_10 
REMARK    6  A    between atoms: C5_10  and  C6_11 
REMARK    7  A    between atoms: C6_11  and  O5_13 
REMARK    8  A    between atoms: O5_13  and  C7_14 
REMARK    9  A    between atoms: C7_14  and  C8_15 
REMARK   10  A    between atoms: C13_31  and  N6_32 
ROOT
HETATM    1  C4  UNL     1     -63.286 -19.098 -22.383  1.00  0.00     0.237 C 
HETATM    2  O3  UNL     1     -64.112 -18.228 -22.008  1.00  0.00    -0.272 OA
HETATM    3  N1  UNL     1     -63.505 -19.871 -23.551  1.00  0.00    -0.351 N 
ATOM      4  H1  UNL     1     -62.805 -20.564 -23.816  1.00  0.00     0.163 HD
ENDROOT
BRANCH   1   5
HETATM    5  C3  UNL     1     -62.056 -19.321 -21.586  1.00  0.00     0.232 C 
BRANCH   5   6
HETATM    6  C2  UNL     1     -61.046 -19.944 -22.476  1.00  0.00     0.277 C 
HETATM    7  O2  UNL     1     -60.737 -19.324 -23.531  1.00  0.00    -0.264 OA
BRANCH   6   8
HETATM    8  O1  UNL     1     -60.430 -21.156 -22.212  1.00  0.00    -0.326 OA
HETATM    9  C1  UNL     1     -59.277 -21.169 -21.414  1.00  0.00     0.213 C 
ENDBRANCH   6   8
ENDBRANCH   5   6
BRANCH   5  10
HETATM   10  C12 UNL     1     -61.565 -17.992 -21.108  1.00  0.00     0.102 A 
HETATM   11  N4  UNL     1     -61.676 -16.823 -21.743  1.00  0.00    -0.241 N 
HETATM   12  O6  UNL     1     -61.128 -15.896 -21.012  1.00  0.00    -0.155 OA
ATOM     13  H4  UNL     1     -62.117 -16.679 -22.651  1.00  0.00     0.196 HD
HETATM   14  N5  UNL     1     -60.660 -16.435 -19.912  1.00  0.00    -0.224 N 
HETATM   15  C13 UNL     1     -60.908 -17.760 -19.919  1.00  0.00     0.147 A 
ATOM     16  H5  UNL     1     -60.182 -15.929 -19.166  1.00  0.00     0.198 HD
BRANCH  15  17
HETATM   17  N6  UNL     1     -60.619 -18.648 -19.042  1.00  0.00    -0.382 N 
ATOM     18  H62 UNL     1     -60.733 -19.660 -19.082  1.00  0.00     0.157 HD
ATOM     19  H61 UNL     1     -60.211 -18.466 -18.125  1.00  0.00     0.157 HD
ENDBRANCH  15  17
ENDBRANCH   5  10
ENDBRANCH   1   5
BRANCH   3  20
HETATM   20  C5  UNL     1     -64.667 -19.723 -24.376  1.00  0.00     0.233 C 
BRANCH  20  21
HETATM   21  C6  UNL     1     -65.806 -20.581 -23.876  1.00  0.00     0.276 C 
HETATM   22  O4  UNL     1     -66.592 -20.169 -23.013  1.00  0.00    -0.263 OA
BRANCH  21  23
HETATM   23  O5  UNL     1     -65.946 -21.805 -24.394  1.00  0.00    -0.319 OA
BRANCH  23  24
HETATM   24  C7  UNL     1     -66.342 -22.995 -23.852  1.00  0.00     0.201 C 
BRANCH  24  25
HETATM   25  C8  UNL     1     -65.267 -23.895 -23.379  1.00  0.00     0.050 C 
HETATM   26  C9  UNL     1     -65.674 -25.351 -23.355  1.00  0.00     0.031 C 
HETATM   27  C10 UNL     1     -64.916 -23.510 -21.900  1.00  0.00     0.144 C 
HETATM   28  N2  UNL     1     -63.674 -24.130 -21.591  1.00  0.00    -0.369 N 
HETATM   29  C11 UNL     1     -62.693 -23.941 -22.584  1.00  0.00     0.134 C 
ATOM     30  H2  UNL     1     -63.510 -24.659 -20.734  1.00  0.00     0.161 HD
HETATM   31  N3  UNL     1     -61.438 -23.945 -22.490  1.00  0.00    -0.380 N 
HETATM   32  S1  UNL     1     -63.630 -23.679 -24.083  1.00  0.00    -0.081 SA
ATOM     33  H32 UNL     1     -60.903 -24.095 -21.635  1.00  0.00     0.158 HD
ATOM     34  H31 UNL     1     -60.728 -23.808 -23.209  1.00  0.00     0.158 HD
ENDBRANCH  24  25
ENDBRANCH  23  24
ENDBRANCH  21  23
ENDBRANCH  20  21
ENDBRANCH   3  20
TORSDOF 10
ENDMDL
MODEL 3
REMARK VINA RESULT: -6.357595198      3.427      4.811
REMARK  10 active torsions:
REMARK  status: ('A' for Active; 'I' for Inactive)
REMARK    1  A    between atoms: O1_2  and  C2_3 
REMARK    2  A    between atoms: C2_3  and  C3_5 
REMARK    3  A    between atoms: C3_5  and  C4_6 
REMARK    4  A    between atoms: C3_5  and  C12_25 
REMARK       I    between atoms: C4_6  and  N1_8 
REMARK    5  A    between atoms: N1_8  and  C5_10 
REMARK    6  A    between atoms: C5_10  and  C6_11 
REMARK    7  A    between atoms: C6_11  and  O5_13 
REMARK    8  A    between atoms: O5_13  and  C7_14 
REMARK    9  A    between atoms: C7_14  and  C8_15 
REMARK   10  A    between atoms: C13_31  and  N6_32 
ROOT
HETATM    1  C4  UNL     1     -63.245 -19.078 -22.459  1.00  0.00     0.237 C 
HETATM    2  O3  UNL     1     -64.203 -18.400 -22.010  1.00  0.00    -0.272 OA
HETATM    3  N1  UNL     1     -63.283 -19.640 -23.760  1.00  0.00    -0.351 N 
ATOM      4  H1  UNL     1     -62.480 -20.180 -24.082  1.00  0.00     0.163 HD
ENDROOT
BRANCH   1   5
HETATM    5  C3  UNL     1     -62.049 -19.294 -21.611  1.00  0.00     0.232 C 
BRANCH   5   6
HETATM    6  C2  UNL     1     -61.001 -19.921 -22.454  1.00  0.00     0.277 C 
HETATM    7  O2  UNL     1     -60.536 -19.238 -23.408  1.00  0.00    -0.264 OA
BRANCH   6   8
HETATM    8  O1  UNL     1     -60.514 -21.200 -22.251  1.00  0.00    -0.326 OA
HETATM    9  C1  UNL     1     -59.274 -21.359 -21.616  1.00  0.00     0.213 C 
ENDBRANCH   6   8
ENDBRANCH   5   6
BRANCH   5  10
HETATM   10  C12 UNL     1     -61.579 -17.960 -21.122  1.00  0.00     0.102 A 
HETATM   11  N4  UNL     1     -61.736 -16.784 -21.733  1.00  0.00    -0.241 N 
HETATM   12  O6  UNL     1     -61.194 -15.856 -21.000  1.00  0.00    -0.155 OA
ATOM     13  H4  UNL     1     -62.203 -16.637 -22.627  1.00  0.00     0.196 HD
HETATM   14  N5  UNL     1     -60.685 -16.402 -19.921  1.00  0.00    -0.224 N 
HETATM   15  C13 UNL     1     -60.899 -17.732 -19.945  1.00  0.00     0.147 A 
ATOM     16  H5  UNL     1     -60.201 -15.896 -19.179  1.00  0.00     0.198 HD
BRANCH  15  17
HETATM   17  N6  UNL     1     -60.566 -18.627 -19.092  1.00  0.00    -0.382 N 
ATOM     18  H62 UNL     1     -60.362 -19.616 -19.234  1.00  0.00     0.157 HD
ATOM     19  H61 UNL     1     -60.448 -18.477 -18.090  1.00  0.00     0.157 HD
ENDBRANCH  15  17
ENDBRANCH   5  10
ENDBRANCH   1   5
BRANCH   3  20
HETATM   20  C5  UNL     1     -64.399 -19.483 -24.644  1.00  0.00     0.233 C 
BRANCH  20  21
HETATM   21  C6  UNL     1     -64.600 -20.715 -25.496  1.00  0.00     0.276 C 
HETATM   22  O4  UNL     1     -64.517 -20.664 -26.730  1.00  0.00    -0.263 OA
BRANCH  21  23
HETATM   23  O5  UNL     1     -64.871 -21.870 -24.881  1.00  0.00    -0.319 OA
BRANCH  23  24
HETATM   24  C7  UNL     1     -65.892 -22.261 -24.062  1.00  0.00     0.201 C 
BRANCH  24  25
HETATM   25  C8  UNL     1     -65.512 -22.731 -22.712  1.00  0.00     0.050 C 
HETATM   26  C9  UNL     1     -65.707 -21.683 -21.638  1.00  0.00     0.031 C 
HETATM   27  C10 UNL     1     -63.982 -23.075 -22.720  1.00  0.00     0.144 C 
HETATM   28  N2  UNL     1     -63.720 -23.838 -21.550  1.00  0.00    -0.369 N 
HETATM   29  C11 UNL     1     -64.642 -24.884 -21.347  1.00  0.00     0.134 C 
ATOM     30  H2  UNL     1     -62.941 -23.648 -20.919  1.00  0.00     0.161 HD
HETATM   31  N3  UNL     1     -64.505 -25.971 -20.728  1.00  0.00    -0.380 N 
HETATM   32  S1  UNL     1     -66.121 -24.335 -22.186  1.00  0.00    -0.081 SA
ATOM     33  H32 UNL     1     -63.661 -26.285 -20.250  1.00  0.00     0.158 HD
ATOM     34  H31 UNL     1     -65.173 -26.729 -20.582  1.00  0.00     0.158 HD
ENDBRANCH  24  25
ENDBRANCH  23  24
ENDBRANCH  21  23
ENDBRANCH  20  21
ENDBRANCH   3  20
TORSDOF 10
ENDMDL
MODEL 4
REMARK VINA RESULT: -6.215721430      1.264      1.508
REMARK  10 active torsions:
REMARK  status: ('A' for Active; 'I' for Inactive)
REMARK    1  A    between atoms: O1_2  and  C2_3 
REMARK    2  A    between atoms: C2_3  and  C3_5 
REMARK    3  A    between atoms: C3_5  and  C4_6 
REMARK    4  A    between atoms: C3_5  and  C12_25 
REMARK       I    between atoms: C4_6  and  N1_8 
REMARK    5  A    between atoms: N1_8  and  C5_10 
REMARK    6  A    between atoms: C5_10  and  C6_11 
REMARK    7  A    between atoms: C6_11  and  O5_13 
REMARK    8  A    between atoms: O5_13  and  C7_14 
REMARK    9  A    between atoms: C7_14  and  C8_15 
REMARK   10  A    between atoms: C13_31  and  N6_32 
ROOT
HETATM    1  C4  UNL     1     -63.163 -19.216 -22.416  1.00  0.00     0.237 C 
HETATM    2  O3  UNL     1     -64.036 -18.376 -22.084  1.00  0.00    -0.272 OA
HETATM    3  N1  UNL     1     -63.300 -20.000 -23.589  1.00  0.00    -0.351 N 
ATOM      4  H1  UNL     1     -62.564 -20.668 -23.819  1.00  0.00     0.163 HD
ENDROOT
BRANCH   1   5
HETATM    5  C3  UNL     1     -61.962 -19.391 -21.564  1.00  0.00     0.232 C 
BRANCH   5   6
HETATM    6  C2  UNL     1     -60.906 -20.025 -22.392  1.00  0.00     0.277 C 
HETATM    7  O2  UNL     1     -60.562 -19.430 -23.450  1.00  0.00    -0.264 OA
BRANCH   6   8
HETATM    8  O1  UNL     1     -60.286 -21.219 -22.066  1.00  0.00    -0.326 OA
HETATM    9  C1  UNL     1     -59.115 -21.185 -21.297  1.00  0.00     0.213 C 
ENDBRANCH   6   8
ENDBRANCH   5   6
BRANCH   5  10
HETATM   10  C12 UNL     1     -61.513 -18.039 -21.110  1.00  0.00     0.102 A 
HETATM   11  N4  UNL     1     -61.604 -16.895 -21.793  1.00  0.00    -0.241 N 
HETATM   12  O6  UNL     1     -61.107 -15.935 -21.070  1.00  0.00    -0.155 OA
ATOM     13  H4  UNL     1     -61.997 -16.792 -22.729  1.00  0.00     0.196 HD
HETATM   14  N5  UNL     1     -60.693 -16.427 -19.927  1.00  0.00    -0.224 N 
HETATM   15  C13 UNL     1     -60.924 -17.755 -19.897  1.00  0.00     0.147 A 
ATOM     16  H5  UNL     1     -60.262 -15.887 -19.177  1.00  0.00     0.198 HD
BRANCH  15  17
HETATM   17  N6  UNL     1     -60.672 -18.605 -18.974  1.00  0.00    -0.382 N 
ATOM     18  H62 UNL     1     -60.905 -18.574 -17.982  1.00  0.00     0.157 HD
ATOM     19  H61 UNL     1     -60.176 -19.487 -19.098  1.00  0.00     0.157 HD
ENDBRANCH  15  17
ENDBRANCH   5  10
ENDBRANCH   1   5
BRANCH   3  20
HETATM   20  C5  UNL     1     -64.428 -19.897 -24.467  1.00  0.00     0.233 C 
BRANCH  20  21
HETATM   21  C6  UNL     1     -65.658 -20.527 -23.854  1.00  0.00     0.276 C 
HETATM   22  O4  UNL     1     -65.676 -21.721 -23.529  1.00  0.00    -0.263 OA
BRANCH  21  23
HETATM   23  O5  UNL     1     -66.734 -19.756 -23.669  1.00  0.00    -0.319 OA
BRANCH  23  24
HETATM   24  C7  UNL     1     -66.999 -18.453 -23.979  1.00  0.00     0.201 C 
BRANCH  24  25
HETATM   25  C8  UNL     1     -67.912 -17.730 -23.067  1.00  0.00     0.050 C 
HETATM   26  C9  UNL     1     -69.032 -18.595 -22.532  1.00  0.00     0.031 C 
HETATM   27  C10 UNL     1     -68.596 -16.569 -23.871  1.00  0.00     0.144 C 
HETATM   28  N2  UNL     1     -69.182 -15.691 -22.918  1.00  0.00    -0.369 N 
HETATM   29  C11 UNL     1     -68.313 -15.355 -21.861  1.00  0.00     0.134 C 
ATOM     30  H2  UNL     1     -70.137 -15.340 -22.992  1.00  0.00     0.161 HD
HETATM   31  N3  UNL     1     -68.299 -14.336 -21.122  1.00  0.00    -0.380 N 
HETATM   32  S1  UNL     1     -67.175 -16.729 -21.772  1.00  0.00    -0.081 SA
ATOM     33  H32 UNL     1     -68.948 -13.551 -21.172  1.00  0.00     0.158 HD
ATOM     34  H31 UNL     1     -67.669 -14.092 -20.357  1.00  0.00     0.158 HD
ENDBRANCH  24  25
ENDBRANCH  23  24
ENDBRANCH  21  23
ENDBRANCH  20  21
ENDBRANCH   3  20
TORSDOF 10
ENDMDL
MODEL 5
REMARK VINA RESULT: -6.139437645      1.680      2.404
REMARK  10 active torsions:
REMARK  status: ('A' for Active; 'I' for Inactive)
REMARK    1  A    between atoms: O1_2  and  C2_3 
REMARK    2  A    between atoms: C2_3  and  C3_5 
REMARK    3  A    between atoms: C3_5  and  C4_6 
REMARK    4  A    between atoms: C3_5  and  C12_25 
REMARK       I    between atoms: C4_6  and  N1_8 
REMARK    5  A    between atoms: N1_8  and  C5_10 
REMARK    6  A    between atoms: C5_10  and  C6_11 
REMARK    7  A    between atoms: C6_11  and  O5_13 
REMARK    8  A    between atoms: O5_13  and  C7_14 
REMARK    9  A    between atoms: C7_14  and  C8_15 
REMARK   10  A    between atoms: C13_31  and  N6_32 
ROOT
HETATM    1  C4  UNL     1     -63.461 -19.622 -21.146  1.00  0.00     0.237 C 
HETATM    2  O3  UNL     1     -63.859 -20.284 -20.155  1.00  0.00    -0.272 OA
HETATM    3  N1  UNL     1     -64.371 -18.940 -21.993  1.00  0.00    -0.351 N 
ATOM      4  H1  UNL     1     -64.000 -18.413 -22.784  1.00  0.00     0.163 HD
ENDROOT
BRANCH   1   5
HETATM    5  C3  UNL     1     -62.009 -19.551 -21.435  1.00  0.00     0.232 C 
BRANCH   5   6
HETATM    6  C2  UNL     1     -61.823 -19.791 -22.888  1.00  0.00     0.277 C 
HETATM    7  O2  UNL     1     -60.816 -19.268 -23.440  1.00  0.00    -0.264 OA
BRANCH   6   8
HETATM    8  O1  UNL     1     -62.686 -20.551 -23.658  1.00  0.00    -0.326 OA
HETATM    9  C1  UNL     1     -62.762 -20.301 -25.035  1.00  0.00     0.213 C 
ENDBRANCH   6   8
ENDBRANCH   5   6
BRANCH   5  10
HETATM   10  C12 UNL     1     -61.530 -18.179 -21.080  1.00  0.00     0.102 A 
HETATM   11  N4  UNL     1     -61.585 -17.089 -21.848  1.00  0.00    -0.241 N 
HETATM   12  O6  UNL     1     -61.072 -16.089 -21.192  1.00  0.00    -0.155 OA
ATOM     13  H4  UNL     1     -61.965 -17.047 -22.793  1.00  0.00     0.196 HD
HETATM   14  N5  UNL     1     -60.682 -16.503 -20.011  1.00  0.00    -0.224 N 
HETATM   15  C13 UNL     1     -60.947 -17.819 -19.884  1.00  0.00     0.147 A 
ATOM     16  H5  UNL     1     -60.246 -15.919 -19.298  1.00  0.00     0.198 HD
BRANCH  15  17
HETATM   17  N6  UNL     1     -60.727 -18.603 -18.896  1.00  0.00    -0.382 N 
ATOM     18  H62 UNL     1     -60.257 -19.508 -18.878  1.00  0.00     0.157 HD
ATOM     19  H61 UNL     1     -61.002 -18.432 -17.929  1.00  0.00     0.157 HD
ENDBRANCH  15  17
ENDBRANCH   5  10
ENDBRANCH   1   5
BRANCH   3  20
HETATM   20  C5  UNL     1     -65.788 -18.958 -21.788  1.00  0.00     0.233 C 
BRANCH  20  21
HETATM   21  C6  UNL     1     -66.504 -18.144 -22.841  1.00  0.00     0.276 C 
HETATM   22  O4  UNL     1     -66.616 -18.552 -24.004  1.00  0.00    -0.263 OA
BRANCH  21  23
HETATM   23  O5  UNL     1     -67.017 -16.963 -22.484  1.00  0.00    -0.319 OA
BRANCH  23  24
HETATM   24  C7  UNL     1     -68.137 -16.287 -22.876  1.00  0.00     0.201 C 
BRANCH  24  25
HETATM   25  C8  UNL     1     -68.871 -15.557 -21.819  1.00  0.00     0.050 C 
HETATM   26  C9  UNL     1     -68.942 -14.066 -22.061  1.00  0.00     0.031 C 
HETATM   27  C10 UNL     1     -68.106 -15.749 -20.463  1.00  0.00     0.144 C 
HETATM   28  N2  UNL     1     -68.992 -15.350 -19.425  1.00  0.00    -0.369 N 
HETATM   29  C11 UNL     1     -70.283 -15.900 -19.551  1.00  0.00     0.134 C 
ATOM     30  H2  UNL     1     -68.720 -14.728 -18.664  1.00  0.00     0.161 HD
HETATM   31  N3  UNL     1     -71.150 -16.135 -18.668  1.00  0.00    -0.380 N 
HETATM   32  S1  UNL     1     -70.458 -16.217 -21.300  1.00  0.00    -0.081 SA
ATOM     33  H32 UNL     1     -71.051 -15.954 -17.669  1.00  0.00     0.158 HD
ATOM     34  H31 UNL     1     -72.084 -16.533 -18.759  1.00  0.00     0.158 HD
ENDBRANCH  24  25
ENDBRANCH  23  24
ENDBRANCH  21  23
ENDBRANCH  20  21
ENDBRANCH   3  20
TORSDOF 10
ENDMDL
