MODEL 1
REMARK VINA RESULT: -5.955515160      0.000      0.000
REMARK  13 active torsions:
REMARK  status: ('A' for Active; 'I' for Inactive)
REMARK    1  A    between atoms: O1_2  and  C2_3 
REMARK    2  A    between atoms: C2_3  and  C3_5 
REMARK    3  A    between atoms: C5_7  and  O3_8 
REMARK    4  A    between atoms: C7_10  and  O4_11 
REMARK    5  A    between atoms: C8_13  and  C9_14 
REMARK    6  A    between atoms: C9_14  and  C10_16 
REMARK    7  A    between atoms: C10_16  and  N1_17 
REMARK    8  A    between atoms: C10_16  and  C11_29 
REMARK    9  A    between atoms: N1_17  and  S1_19 
REMARK   10  A    between atoms: S1_19  and  N2_20 
REMARK   11  A    between atoms: S1_19  and  N3_24 
REMARK   12  A    between atoms: N3_24  and  N4_26 
REMARK   13  A    between atoms: C11_29  and  O8_31 
ROOT
HETATM    1  C10 UNL     1     -61.315 -19.045 -21.206  1.00  0.00     0.267 C 
ENDROOT
BRANCH   1   2
HETATM    2  C9  UNL     1     -62.533 -19.523 -20.545  1.00  0.00     0.195 C 
HETATM    3  O5  UNL     1     -62.460 -19.615 -19.270  1.00  0.00    -0.289 OA
BRANCH   2   4
HETATM    4  C8  UNL     1     -63.795 -19.902 -21.128  1.00  0.00     0.049 A 
HETATM    5  C7  UNL     1     -64.109 -21.159 -21.621  1.00  0.00     0.113 A 
HETATM    6  C5  UNL     1     -65.349 -21.478 -22.154  1.00  0.00     0.103 A 
HETATM    7  C4  UNL     1     -66.331 -20.524 -22.209  1.00  0.00     0.057 A 
HETATM    8  C3  UNL     1     -66.079 -19.269 -21.740  1.00  0.00     0.043 A 
HETATM    9  C13 UNL     1     -64.852 -18.986 -21.222  1.00  0.00     0.035 A 
BRANCH   5  10
HETATM   10  O4  UNL     1     -63.165 -22.160 -21.597  1.00  0.00    -0.357 OA
ATOM     11  H4  UNL     1     -63.011 -22.586 -20.762  1.00  0.00     0.217 HD
ENDBRANCH   5  10
BRANCH   6  12
HETATM   12  O3  UNL     1     -65.621 -22.747 -22.634  1.00  0.00    -0.353 OA
HETATM   13  C6  UNL     1     -65.644 -23.008 -24.022  1.00  0.00     0.210 C 
ENDBRANCH   6  12
BRANCH   8  14
HETATM   14  C2  UNL     1     -67.120 -18.226 -21.789  1.00  0.00     0.293 C 
HETATM   15  O2  UNL     1     -68.321 -18.560 -21.712  1.00  0.00    -0.259 OA
BRANCH  14  16
HETATM   16  O1  UNL     1     -66.801 -16.892 -21.918  1.00  0.00    -0.323 OA
HETATM   17  C1  UNL     1     -67.345 -15.866 -21.134  1.00  0.00     0.213 C 
ENDBRANCH  14  16
ENDBRANCH   8  14
ENDBRANCH   2   4
ENDBRANCH   1   2
BRANCH   1  18
HETATM   18  N1  UNL     1     -60.932 -19.998 -22.266  1.00  0.00    -0.297 N 
ATOM     19  H1  UNL     1     -61.332 -20.000 -23.205  1.00  0.00     0.173 HD
BRANCH  18  20
HETATM   20  S1  UNL     1     -59.730 -21.105 -21.726  1.00  0.00     0.206 S 
HETATM   21  O6  UNL     1     -59.508 -20.801 -20.256  1.00  0.00    -0.205 OA
BRANCH  20  22
HETATM   22  N2  UNL     1     -60.267 -22.579 -21.757  1.00  0.00    -0.328 N 
ATOM     23  H22 UNL     1     -61.198 -22.848 -21.440  1.00  0.00     0.169 HD
ATOM     24  H21 UNL     1     -59.565 -23.217 -22.133  1.00  0.00     0.169 HD
ENDBRANCH  20  22
BRANCH  20  25
HETATM   25  N3  UNL     1     -58.246 -20.956 -22.537  1.00  0.00    -0.234 N 
ATOM     26  H3  UNL     1     -58.137 -20.426 -23.402  1.00  0.00     0.199 HD
BRANCH  25  27
HETATM   27  N4  UNL     1     -57.185 -21.622 -21.916  1.00  0.00    -0.336 N 
ATOM     28  H42 UNL     1     -56.982 -21.509 -20.923  1.00  0.00     0.177 HD
ATOM     29  H41 UNL     1     -56.645 -22.220 -22.541  1.00  0.00     0.177 HD
ENDBRANCH  25  27
ENDBRANCH  20  25
ENDBRANCH  18  20
ENDBRANCH   1  18
BRANCH   1  30
HETATM   30  C11 UNL     1     -61.697 -17.800 -21.947  1.00  0.00     0.289 C 
HETATM   31  O7  UNL     1     -61.915 -17.921 -23.198  1.00  0.00    -0.262 OA
BRANCH  30  32
HETATM   32  O8  UNL     1     -61.827 -16.555 -21.379  1.00  0.00    -0.325 OA
HETATM   33  C12 UNL     1     -61.048 -16.247 -20.237  1.00  0.00     0.213 C 
ENDBRANCH  30  32
ENDBRANCH   1  30
TORSDOF 13
ENDMDL
MODEL 2
REMARK VINA RESULT: -5.908550948      2.547      4.084
REMARK  13 active torsions:
REMARK  status: ('A' for Active; 'I' for Inactive)
REMARK    1  A    between atoms: O1_2  and  C2_3 
REMARK    2  A    between atoms: C2_3  and  C3_5 
REMARK    3  A    between atoms: C5_7  and  O3_8 
REMARK    4  A    between atoms: C7_10  and  O4_11 
REMARK    5  A    between atoms: C8_13  and  C9_14 
REMARK    6  A    between atoms: C9_14  and  C10_16 
REMARK    7  A    between atoms: C10_16  and  N1_17 
REMARK    8  A    between atoms: C10_16  and  C11_29 
REMARK    9  A    between atoms: N1_17  and  S1_19 
REMARK   10  A    between atoms: S1_19  and  N2_20 
REMARK   11  A    between atoms: S1_19  and  N3_24 
REMARK   12  A    between atoms: N3_24  and  N4_26 
REMARK   13  A    between atoms: C11_29  and  O8_31 
ROOT
HETATM    1  C10 UNL     1     -63.311 -18.915 -21.831  1.00  0.00     0.267 C 
ENDROOT
BRANCH   1   2
HETATM    2  C9  UNL     1     -64.753 -19.184 -21.841  1.00  0.00     0.195 C 
HETATM    3  O5  UNL     1     -65.096 -20.329 -21.383  1.00  0.00    -0.289 OA
BRANCH   2   4
HETATM    4  C8  UNL     1     -65.831 -18.343 -22.294  1.00  0.00     0.049 A 
HETATM    5  C7  UNL     1     -66.483 -18.454 -23.512  1.00  0.00     0.113 A 
HETATM    6  C5  UNL     1     -67.532 -17.631 -23.891  1.00  0.00     0.103 A 
HETATM    7  C4  UNL     1     -67.967 -16.649 -23.040  1.00  0.00     0.057 A 
HETATM    8  C3  UNL     1     -67.363 -16.491 -21.828  1.00  0.00     0.043 A 
HETATM    9  C13 UNL     1     -66.336 -17.316 -21.484  1.00  0.00     0.035 A 
BRANCH   5  10
HETATM   10  O4  UNL     1     -66.091 -19.419 -24.413  1.00  0.00    -0.357 OA
ATOM     11  H4  UNL     1     -66.769 -19.793 -24.963  1.00  0.00     0.217 HD
ENDBRANCH   5  10
BRANCH   6  12
HETATM   12  O3  UNL     1     -68.156 -17.778 -25.118  1.00  0.00    -0.353 OA
HETATM   13  C6  UNL     1     -69.090 -16.823 -25.576  1.00  0.00     0.210 C 
ENDBRANCH   6  12
BRANCH   8  14
HETATM   14  C2  UNL     1     -67.814 -15.442 -20.895  1.00  0.00     0.293 C 
HETATM   15  O2  UNL     1     -67.914 -15.711 -19.679  1.00  0.00    -0.259 OA
BRANCH  14  16
HETATM   16  O1  UNL     1     -68.127 -14.174 -21.331  1.00  0.00    -0.323 OA
HETATM   17  C1  UNL     1     -69.419 -13.628 -21.324  1.00  0.00     0.213 C 
ENDBRANCH  14  16
ENDBRANCH   8  14
ENDBRANCH   2   4
ENDBRANCH   1   2
BRANCH   1  18
HETATM   18  N1  UNL     1     -62.709 -19.545 -20.639  1.00  0.00    -0.297 N 
ATOM     19  H1  UNL     1     -63.135 -20.313 -20.121  1.00  0.00     0.173 HD
BRANCH  18  20
HETATM   20  S1  UNL     1     -61.200 -18.825 -20.232  1.00  0.00     0.206 S 
HETATM   21  O6  UNL     1     -61.178 -18.721 -18.718  1.00  0.00    -0.205 OA
BRANCH  20  22
HETATM   22  N2  UNL     1     -60.006 -19.778 -20.588  1.00  0.00    -0.328 N 
ATOM     23  H22 UNL     1     -59.057 -19.452 -20.769  1.00  0.00     0.169 HD
ATOM     24  H21 UNL     1     -60.309 -20.752 -20.613  1.00  0.00     0.169 HD
ENDBRANCH  20  22
BRANCH  20  25
HETATM   25  N3  UNL     1     -60.984 -17.271 -20.882  1.00  0.00    -0.234 N 
ATOM     26  H3  UNL     1     -61.080 -17.067 -21.877  1.00  0.00     0.199 HD
BRANCH  25  27
HETATM   27  N4  UNL     1     -60.661 -16.294 -19.934  1.00  0.00    -0.336 N 
ATOM     28  H42 UNL     1     -61.343 -15.606 -19.613  1.00  0.00     0.177 HD
ATOM     29  H41 UNL     1     -59.698 -16.336 -19.603  1.00  0.00     0.177 HD
ENDBRANCH  25  27
ENDBRANCH  20  25
ENDBRANCH  18  20
ENDBRANCH   1  18
BRANCH   1  30
HETATM   30  C11 UNL     1     -62.732 -19.677 -22.984  1.00  0.00     0.289 C 
HETATM   31  O7  UNL     1     -63.025 -19.260 -24.153  1.00  0.00    -0.262 OA
BRANCH  30  32
HETATM   32  O8  UNL     1     -61.916 -20.778 -22.869  1.00  0.00    -0.325 OA
HETATM   33  C12 UNL     1     -62.448 -22.052 -23.184  1.00  0.00     0.213 C 
ENDBRANCH  30  32
ENDBRANCH   1  30
TORSDOF 13
ENDMDL
MODEL 3
REMARK VINA RESULT: -5.894513505      1.084      1.607
REMARK  13 active torsions:
REMARK  status: ('A' for Active; 'I' for Inactive)
REMARK    1  A    between atoms: O1_2  and  C2_3 
REMARK    2  A    between atoms: C2_3  and  C3_5 
REMARK    3  A    between atoms: C5_7  and  O3_8 
REMARK    4  A    between atoms: C7_10  and  O4_11 
REMARK    5  A    between atoms: C8_13  and  C9_14 
REMARK    6  A    between atoms: C9_14  and  C10_16 
REMARK    7  A    between atoms: C10_16  and  N1_17 
REMARK    8  A    between atoms: C10_16  and  C11_29 
REMARK    9  A    between atoms: N1_17  and  S1_19 
REMARK   10  A    between atoms: S1_19  and  N2_20 
REMARK   11  A    between atoms: S1_19  and  N3_24 
REMARK   12  A    between atoms: N3_24  and  N4_26 
REMARK   13  A    between atoms: C11_29  and  O8_31 
ROOT
HETATM    1  C10 UNL     1     -61.626 -19.651 -20.904  1.00  0.00     0.267 C 
ENDROOT
BRANCH   1   2
HETATM    2  C9  UNL     1     -62.768 -19.200 -21.705  1.00  0.00     0.195 C 
HETATM    3  O5  UNL     1     -62.496 -18.311 -22.587  1.00  0.00    -0.289 OA
BRANCH   2   4
HETATM    4  C8  UNL     1     -64.146 -19.614 -21.640  1.00  0.00     0.049 A 
HETATM    5  C7  UNL     1     -64.588 -20.908 -21.415  1.00  0.00     0.113 A 
HETATM    6  C5  UNL     1     -65.929 -21.251 -21.340  1.00  0.00     0.103 A 
HETATM    7  C4  UNL     1     -66.888 -20.283 -21.492  1.00  0.00     0.057 A 
HETATM    8  C3  UNL     1     -66.512 -18.991 -21.718  1.00  0.00     0.043 A 
HETATM    9  C13 UNL     1     -65.187 -18.687 -21.785  1.00  0.00     0.035 A 
BRANCH   5  10
HETATM   10  O4  UNL     1     -63.676 -21.927 -21.257  1.00  0.00    -0.357 OA
ATOM     11  H4  UNL     1     -63.358 -22.087 -20.376  1.00  0.00     0.217 HD
ENDBRANCH   5  10
BRANCH   6  12
HETATM   12  O3  UNL     1     -66.328 -22.557 -21.113  1.00  0.00    -0.353 OA
HETATM   13  C6  UNL     1     -67.675 -22.864 -20.820  1.00  0.00     0.210 C 
ENDBRANCH   6  12
BRANCH   8  14
HETATM   14  C2  UNL     1     -67.525 -17.933 -21.884  1.00  0.00     0.293 C 
HETATM   15  O2  UNL     1     -68.735 -18.243 -21.887  1.00  0.00    -0.259 OA
BRANCH  14  16
HETATM   16  O1  UNL     1     -67.169 -16.611 -22.039  1.00  0.00    -0.323 OA
HETATM   17  C1  UNL     1     -67.683 -15.556 -21.273  1.00  0.00     0.213 C 
ENDBRANCH  14  16
ENDBRANCH   8  14
ENDBRANCH   2   4
ENDBRANCH   1   2
BRANCH   1  18
HETATM   18  N1  UNL     1     -60.425 -19.711 -21.762  1.00  0.00    -0.297 N 
ATOM     19  H1  UNL     1     -60.109 -18.947 -22.358  1.00  0.00     0.173 HD
BRANCH  18  20
HETATM   20  S1  UNL     1     -59.624 -21.229 -21.631  1.00  0.00     0.206 S 
HETATM   21  O6  UNL     1     -59.241 -21.379 -20.171  1.00  0.00    -0.205 OA
BRANCH  20  22
HETATM   22  N2  UNL     1     -60.614 -22.414 -21.912  1.00  0.00    -0.328 N 
ATOM     23  H22 UNL     1     -60.384 -23.215 -22.501  1.00  0.00     0.169 HD
ATOM     24  H21 UNL     1     -61.502 -22.272 -21.432  1.00  0.00     0.169 HD
ENDBRANCH  20  22
BRANCH  20  25
HETATM   25  N3  UNL     1     -58.216 -21.345 -22.573  1.00  0.00    -0.234 N 
ATOM     26  H3  UNL     1     -58.214 -21.219 -23.585  1.00  0.00     0.199 HD
BRANCH  25  27
HETATM   27  N4  UNL     1     -57.059 -21.628 -21.840  1.00  0.00    -0.336 N 
ATOM     28  H42 UNL     1     -56.420 -20.895 -21.533  1.00  0.00     0.177 HD
ATOM     29  H41 UNL     1     -56.920 -22.620 -21.646  1.00  0.00     0.177 HD
ENDBRANCH  25  27
ENDBRANCH  20  25
ENDBRANCH  18  20
ENDBRANCH   1  18
BRANCH   1  30
HETATM   30  C11 UNL     1     -61.331 -18.550 -19.932  1.00  0.00     0.289 C 
HETATM   31  O7  UNL     1     -61.857 -18.650 -18.774  1.00  0.00    -0.262 OA
BRANCH  30  32
HETATM   32  O8  UNL     1     -60.541 -17.455 -20.199  1.00  0.00    -0.325 OA
HETATM   33  C12 UNL     1     -61.145 -16.176 -20.228  1.00  0.00     0.213 C 
ENDBRANCH  30  32
ENDBRANCH   1  30
TORSDOF 13
ENDMDL
MODEL 4
REMARK VINA RESULT: -5.770093429      2.377      3.843
REMARK  13 active torsions:
REMARK  status: ('A' for Active; 'I' for Inactive)
REMARK    1  A    between atoms: O1_2  and  C2_3 
REMARK    2  A    between atoms: C2_3  and  C3_5 
REMARK    3  A    between atoms: C5_7  and  O3_8 
REMARK    4  A    between atoms: C7_10  and  O4_11 
REMARK    5  A    between atoms: C8_13  and  C9_14 
REMARK    6  A    between atoms: C9_14  and  C10_16 
REMARK    7  A    between atoms: C10_16  and  N1_17 
REMARK    8  A    between atoms: C10_16  and  C11_29 
REMARK    9  A    between atoms: N1_17  and  S1_19 
REMARK   10  A    between atoms: S1_19  and  N2_20 
REMARK   11  A    between atoms: S1_19  and  N3_24 
REMARK   12  A    between atoms: N3_24  and  N4_26 
REMARK   13  A    between atoms: C11_29  and  O8_31 
ROOT
HETATM    1  C10 UNL     1     -63.077 -19.448 -21.998  1.00  0.00     0.267 C 
ENDROOT
BRANCH   1   2
HETATM    2  C9  UNL     1     -64.528 -19.620 -21.877  1.00  0.00     0.195 C 
HETATM    3  O5  UNL     1     -64.900 -20.686 -21.272  1.00  0.00    -0.289 OA
BRANCH   2   4
HETATM    4  C8  UNL     1     -65.588 -18.763 -22.343  1.00  0.00     0.049 A 
HETATM    5  C7  UNL     1     -66.118 -18.759 -23.623  1.00  0.00     0.113 A 
HETATM    6  C5  UNL     1     -67.155 -17.926 -24.014  1.00  0.00     0.103 A 
HETATM    7  C4  UNL     1     -67.703 -17.053 -23.112  1.00  0.00     0.057 A 
HETATM    8  C3  UNL     1     -67.221 -17.010 -21.837  1.00  0.00     0.043 A 
HETATM    9  C13 UNL     1     -66.202 -17.841 -21.483  1.00  0.00     0.035 A 
BRANCH   5  10
HETATM   10  O4  UNL     1     -65.610 -19.612 -24.578  1.00  0.00    -0.357 OA
ATOM     11  H4  UNL     1     -64.675 -19.567 -24.740  1.00  0.00     0.217 HD
ENDBRANCH   5  10
BRANCH   6  12
HETATM   12  O3  UNL     1     -67.655 -17.957 -25.305  1.00  0.00    -0.353 OA
HETATM   13  C6  UNL     1     -68.853 -17.285 -25.635  1.00  0.00     0.210 C 
ENDBRANCH   6  12
BRANCH   8  14
HETATM   14  C2  UNL     1     -67.794 -16.078 -20.848  1.00  0.00     0.293 C 
HETATM   15  O2  UNL     1     -67.155 -15.051 -20.539  1.00  0.00    -0.259 OA
BRANCH  14  16
HETATM   16  O1  UNL     1     -69.015 -16.314 -20.257  1.00  0.00    -0.323 OA
HETATM   17  C1  UNL     1     -69.707 -15.386 -19.466  1.00  0.00     0.213 C 
ENDBRANCH  14  16
ENDBRANCH   8  14
ENDBRANCH   2   4
ENDBRANCH   1   2
BRANCH   1  18
HETATM   18  N1  UNL     1     -62.439 -19.787 -20.711  1.00  0.00    -0.297 N 
ATOM     19  H1  UNL     1     -62.858 -20.394 -20.007  1.00  0.00     0.173 HD
BRANCH  18  20
HETATM   20  S1  UNL     1     -60.901 -19.032 -20.543  1.00  0.00     0.206 S 
HETATM   21  O6  UNL     1     -60.890 -17.876 -21.527  1.00  0.00    -0.205 OA
BRANCH  20  22
HETATM   22  N2  UNL     1     -60.753 -18.363 -19.132  1.00  0.00    -0.328 N 
ATOM     23  H22 UNL     1     -61.545 -18.099 -18.546  1.00  0.00     0.169 HD
ATOM     24  H21 UNL     1     -59.771 -18.232 -18.890  1.00  0.00     0.169 HD
ENDBRANCH  20  22
BRANCH  20  25
HETATM   25  N3  UNL     1     -59.593 -20.054 -20.898  1.00  0.00    -0.234 N 
ATOM     26  H3  UNL     1     -58.755 -19.734 -21.384  1.00  0.00     0.199 HD
BRANCH  25  27
HETATM   27  N4  UNL     1     -59.764 -21.374 -20.467  1.00  0.00    -0.336 N 
ATOM     28  H42 UNL     1     -59.440 -21.690 -19.553  1.00  0.00     0.177 HD
ATOM     29  H41 UNL     1     -60.234 -21.976 -21.142  1.00  0.00     0.177 HD
ENDBRANCH  25  27
ENDBRANCH  20  25
ENDBRANCH  18  20
ENDBRANCH   1  18
BRANCH   1  30
HETATM   30  C11 UNL     1     -62.602 -20.514 -22.939  1.00  0.00     0.289 C 
HETATM   31  O7  UNL     1     -62.821 -20.323 -24.180  1.00  0.00    -0.262 OA
BRANCH  30  32
HETATM   32  O8  UNL     1     -61.955 -21.666 -22.558  1.00  0.00    -0.325 OA
HETATM   33  C12 UNL     1     -62.533 -22.912 -22.901  1.00  0.00     0.213 C 
ENDBRANCH  30  32
ENDBRANCH   1  30
TORSDOF 13
ENDMDL
MODEL 5
REMARK VINA RESULT: -5.755554075      1.799      1.914
REMARK  13 active torsions:
REMARK  status: ('A' for Active; 'I' for Inactive)
REMARK    1  A    between atoms: O1_2  and  C2_3 
REMARK    2  A    between atoms: C2_3  and  C3_5 
REMARK    3  A    between atoms: C5_7  and  O3_8 
REMARK    4  A    between atoms: C7_10  and  O4_11 
REMARK    5  A    between atoms: C8_13  and  C9_14 
REMARK    6  A    between atoms: C9_14  and  C10_16 
REMARK    7  A    between atoms: C10_16  and  N1_17 
REMARK    8  A    between atoms: C10_16  and  C11_29 
REMARK    9  A    between atoms: N1_17  and  S1_19 
REMARK   10  A    between atoms: S1_19  and  N2_20 
REMARK   11  A    between atoms: S1_19  and  N3_24 
REMARK   12  A    between atoms: N3_24  and  N4_26 
REMARK   13  A    between atoms: C11_29  and  O8_31 
ROOT
HETATM    1  C10 UNL     1     -61.953 -19.451 -20.859  1.00  0.00     0.267 C 
ENDROOT
BRANCH   1   2
HETATM    2  C9  UNL     1     -63.398 -19.694 -20.887  1.00  0.00     0.195 C 
HETATM    3  O5  UNL     1     -63.862 -20.336 -19.880  1.00  0.00    -0.289 OA
BRANCH   2   4
HETATM    4  C8  UNL     1     -64.365 -19.315 -21.885  1.00  0.00     0.049 A 
HETATM    5  C7  UNL     1     -64.432 -19.818 -23.175  1.00  0.00     0.113 A 
HETATM    6  C5  UNL     1     -65.398 -19.433 -24.092  1.00  0.00     0.103 A 
HETATM    7  C4  UNL     1     -66.347 -18.512 -23.733  1.00  0.00     0.057 A 
HETATM    8  C3  UNL     1     -66.331 -17.981 -22.478  1.00  0.00     0.043 A 
HETATM    9  C13 UNL     1     -65.370 -18.379 -21.600  1.00  0.00     0.035 A 
BRANCH   5  10
HETATM   10  O4  UNL     1     -63.506 -20.744 -23.598  1.00  0.00    -0.357 OA
ATOM     11  H4  UNL     1     -63.500 -21.582 -23.150  1.00  0.00     0.217 HD
ENDBRANCH   5  10
BRANCH   6  12
HETATM   12  O3  UNL     1     -65.428 -19.963 -25.371  1.00  0.00    -0.353 OA
HETATM   13  C6  UNL     1     -65.011 -19.198 -26.482  1.00  0.00     0.210 C 
ENDBRANCH   6  12
BRANCH   8  14
HETATM   14  C2  UNL     1     -67.342 -16.988 -22.069  1.00  0.00     0.293 C 
HETATM   15  O2  UNL     1     -67.868 -16.262 -22.938  1.00  0.00    -0.259 OA
BRANCH  14  16
HETATM   16  O1  UNL     1     -67.718 -16.841 -20.752  1.00  0.00    -0.323 OA
HETATM   17  C1  UNL     1     -68.651 -15.902 -20.293  1.00  0.00     0.213 C 
ENDBRANCH  14  16
ENDBRANCH   8  14
ENDBRANCH   2   4
ENDBRANCH   1   2
BRANCH   1  18
HETATM   18  N1  UNL     1     -61.251 -20.639 -21.384  1.00  0.00    -0.297 N 
ATOM     19  H1  UNL     1     -61.697 -21.368 -21.943  1.00  0.00     0.173 HD
BRANCH  18  20
HETATM   20  S1  UNL     1     -59.588 -20.646 -20.939  1.00  0.00     0.206 S 
HETATM   21  O6  UNL     1     -59.322 -19.302 -20.286  1.00  0.00    -0.205 OA
BRANCH  20  22
HETATM   22  N2  UNL     1     -59.311 -21.704 -19.814  1.00  0.00    -0.328 N 
ATOM     23  H22 UNL     1     -58.632 -21.567 -19.065  1.00  0.00     0.169 HD
ATOM     24  H21 UNL     1     -59.894 -22.531 -19.937  1.00  0.00     0.169 HD
ENDBRANCH  20  22
BRANCH  20  25
HETATM   25  N3  UNL     1     -58.527 -20.827 -22.252  1.00  0.00    -0.234 N 
ATOM     26  H3  UNL     1     -58.730 -20.463 -23.183  1.00  0.00     0.199 HD
BRANCH  25  27
HETATM   27  N4  UNL     1     -57.351 -21.519 -21.946  1.00  0.00    -0.336 N 
ATOM     28  H42 UNL     1     -56.781 -21.284 -21.133  1.00  0.00     0.177 HD
ATOM     29  H41 UNL     1     -57.123 -22.266 -22.602  1.00  0.00     0.177 HD
ENDBRANCH  25  27
ENDBRANCH  20  25
ENDBRANCH  18  20
ENDBRANCH   1  18
BRANCH   1  30
HETATM   30  C11 UNL     1     -61.684 -18.384 -21.877  1.00  0.00     0.289 C 
HETATM   31  O7  UNL     1     -61.211 -18.766 -22.998  1.00  0.00    -0.262 OA
BRANCH  30  32
HETATM   32  O8  UNL     1     -61.911 -17.041 -21.686  1.00  0.00    -0.325 OA
HETATM   33  C12 UNL     1     -61.310 -16.404 -20.574  1.00  0.00     0.213 C 
ENDBRANCH  30  32
ENDBRANCH   1  30
TORSDOF 13
ENDMDL
