MODEL 1
REMARK VINA RESULT: -5.891673390      0.000      0.000
REMARK  11 active torsions:
REMARK  status: ('A' for Active; 'I' for Inactive)
REMARK    1  A    between atoms: C2_2  and  O1_3 
REMARK    2  A    between atoms: O1_3  and  C3_4 
REMARK       I    between atoms: C3_4  and  N1_6 
REMARK       I    between atoms: N1_6  and  C4_8 
REMARK    3  A    between atoms: C4_8  and  C5_10 
REMARK    4  A    between atoms: C5_10  and  O4_11 
REMARK    5  A    between atoms: C5_10  and  C12_26 
REMARK    6  A    between atoms: O4_11  and  C6_12 
REMARK    7  A    between atoms: C6_12  and  C7_14 
REMARK    8  A    between atoms: C7_14  and  O6_15 
REMARK    9  A    between atoms: N2_21  and  O7_23 
REMARK   10  A    between atoms: C12_26  and  O9_27 
REMARK   11  A    between atoms: C12_26  and  C13_29 
REMARK       I    between atoms: C13_29  and  N3_31 
ROOT
HETATM    1  C5  UNL     1     -63.840 -21.306 -21.878  1.00  0.00     0.262 C 
ENDROOT
BRANCH   1   2
HETATM    2  C4  UNL     1     -65.260 -21.664 -21.648  1.00  0.00     0.258 C 
HETATM    3  N1  UNL     1     -66.287 -20.729 -21.794  1.00  0.00    -0.271 N 
HETATM    4  C3  UNL     1     -67.667 -21.074 -21.555  1.00  0.00     0.367 C 
ATOM      5  H1  UNL     1     -66.055 -19.777 -22.077  1.00  0.00     0.174 HD
HETATM    6  O2  UNL     1     -68.568 -20.214 -21.694  1.00  0.00    -0.238 OA
HETATM    7  O3  UNL     1     -65.532 -22.839 -21.315  1.00  0.00    -0.270 OA
BRANCH   4   8
HETATM    8  O1  UNL     1     -67.946 -22.376 -21.172  1.00  0.00    -0.304 OA
BRANCH   8   9
HETATM    9  C2  UNL     1     -68.975 -22.567 -20.218  1.00  0.00     0.176 C 
HETATM   10  C1  UNL     1     -68.419 -23.314 -19.033  1.00  0.00     0.034 C 
ENDBRANCH   8   9
ENDBRANCH   4   8
ENDBRANCH   1   2
BRANCH   1  11
HETATM   11  O4  UNL     1     -63.763 -20.147 -22.713  1.00  0.00    -0.299 OA
BRANCH  11  12
HETATM   12  C6  UNL     1     -63.280 -18.931 -22.327  1.00  0.00     0.323 C 
HETATM   13  O5  UNL     1     -64.107 -18.191 -21.687  1.00  0.00    -0.259 OA
BRANCH  12  14
HETATM   14  C7  UNL     1     -61.924 -18.475 -22.610  1.00  0.00     0.259 C 
HETATM   15  C8  UNL     1     -61.496 -17.189 -22.008  1.00  0.00     0.080 C 
HETATM   16  C9  UNL     1     -61.216 -17.265 -20.530  1.00  0.00     0.014 C 
HETATM   17  C10 UNL     1     -60.258 -18.357 -20.171  1.00  0.00     0.086 C 
HETATM   18  C11 UNL     1     -60.564 -19.618 -20.895  1.00  0.00     0.141 C 
HETATM   19  N2  UNL     1     -60.447 -20.760 -20.311  1.00  0.00    -0.251 N 
HETATM   20  O8  UNL     1     -60.977 -19.482 -22.213  1.00  0.00    -0.290 OA
ATOM     21  H2  UNL     1     -60.658 -21.625 -20.809  1.00  0.00     0.196 HD
BRANCH  14  22
HETATM   22  O6  UNL     1     -61.754 -18.398 -24.012  1.00  0.00    -0.357 OA
ATOM     23  H6  UNL     1     -62.276 -17.677 -24.345  1.00  0.00     0.213 HD
ENDBRANCH  14  22
BRANCH  19  24
HETATM   24  O7  UNL     1     -60.032 -20.784 -19.008  1.00  0.00    -0.288 OA
ATOM     25  H7  UNL     1     -60.330 -21.496 -18.453  1.00  0.00     0.244 HD
ENDBRANCH  19  24
ENDBRANCH  12  14
ENDBRANCH  11  12
ENDBRANCH   1  11
BRANCH   1  26
HETATM   26  C12 UNL     1     -63.184 -22.470 -22.580  1.00  0.00     0.248 C 
BRANCH  26  27
HETATM   27  O9  UNL     1     -61.802 -22.513 -22.381  1.00  0.00    -0.383 OA
ATOM     28  H9  UNL     1     -61.310 -22.299 -23.165  1.00  0.00     0.210 HD
ENDBRANCH  26  27
BRANCH  26  29
HETATM   29  C13 UNL     1     -63.421 -22.443 -24.035  1.00  0.00     0.249 C 
HETATM   30  O10 UNL     1     -64.248 -23.187 -24.630  1.00  0.00    -0.271 OA
HETATM   31  N3  UNL     1     -62.707 -21.546 -24.889  1.00  0.00    -0.363 N 
HETATM   32  C14 UNL     1     -62.901 -21.480 -26.318  1.00  0.00     0.149 C 
ATOM     33  H3  UNL     1     -62.022 -20.920 -24.466  1.00  0.00     0.162 HD
ENDBRANCH  26  29
ENDBRANCH   1  26
TORSDOF 11
ENDMDL
MODEL 2
REMARK VINA RESULT: -5.842176962      1.180      1.692
REMARK  11 active torsions:
REMARK  status: ('A' for Active; 'I' for Inactive)
REMARK    1  A    between atoms: C2_2  and  O1_3 
REMARK    2  A    between atoms: O1_3  and  C3_4 
REMARK       I    between atoms: C3_4  and  N1_6 
REMARK       I    between atoms: N1_6  and  C4_8 
REMARK    3  A    between atoms: C4_8  and  C5_10 
REMARK    4  A    between atoms: C5_10  and  O4_11 
REMARK    5  A    between atoms: C5_10  and  C12_26 
REMARK    6  A    between atoms: O4_11  and  C6_12 
REMARK    7  A    between atoms: C6_12  and  C7_14 
REMARK    8  A    between atoms: C7_14  and  O6_15 
REMARK    9  A    between atoms: N2_21  and  O7_23 
REMARK   10  A    between atoms: C12_26  and  O9_27 
REMARK   11  A    between atoms: C12_26  and  C13_29 
REMARK       I    between atoms: C13_29  and  N3_31 
ROOT
HETATM    1  C5  UNL     1     -63.723 -21.300 -21.522  1.00  0.00     0.262 C 
ENDROOT
BRANCH   1   2
HETATM    2  C4  UNL     1     -65.184 -21.547 -21.506  1.00  0.00     0.258 C 
HETATM    3  N1  UNL     1     -66.106 -20.513 -21.683  1.00  0.00    -0.271 N 
HETATM    4  C3  UNL     1     -67.529 -20.751 -21.653  1.00  0.00     0.367 C 
ATOM      5  H1  UNL     1     -65.765 -19.564 -21.838  1.00  0.00     0.174 HD
HETATM    6  O2  UNL     1     -68.333 -19.804 -21.814  1.00  0.00    -0.238 OA
HETATM    7  O3  UNL     1     -65.589 -22.717 -21.329  1.00  0.00    -0.270 OA
BRANCH   4   8
HETATM    8  O1  UNL     1     -67.958 -22.052 -21.440  1.00  0.00    -0.304 OA
BRANCH   8   9
HETATM    9  C2  UNL     1     -69.031 -22.243 -20.537  1.00  0.00     0.176 C 
HETATM   10  C1  UNL     1     -68.574 -23.126 -19.404  1.00  0.00     0.034 C 
ENDBRANCH   8   9
ENDBRANCH   4   8
ENDBRANCH   1   2
BRANCH   1  11
HETATM   11  O4  UNL     1     -63.469 -19.895 -21.431  1.00  0.00    -0.299 OA
BRANCH  11  12
HETATM   12  C6  UNL     1     -63.110 -19.092 -22.475  1.00  0.00     0.323 C 
HETATM   13  O5  UNL     1     -64.023 -18.890 -23.349  1.00  0.00    -0.259 OA
BRANCH  12  14
HETATM   14  C7  UNL     1     -61.786 -18.497 -22.614  1.00  0.00     0.259 C 
HETATM   15  C8  UNL     1     -61.506 -17.266 -21.835  1.00  0.00     0.080 C 
HETATM   16  C9  UNL     1     -61.300 -17.503 -20.363  1.00  0.00     0.014 C 
HETATM   17  C10 UNL     1     -60.270 -18.550 -20.077  1.00  0.00     0.086 C 
HETATM   18  C11 UNL     1     -60.425 -19.731 -20.964  1.00  0.00     0.141 C 
HETATM   19  N2  UNL     1     -60.239 -20.924 -20.515  1.00  0.00    -0.251 N 
HETATM   20  O8  UNL     1     -60.777 -19.465 -22.280  1.00  0.00    -0.290 OA
ATOM     21  H2  UNL     1     -60.346 -21.734 -21.125  1.00  0.00     0.196 HD
BRANCH  14  22
HETATM   22  O6  UNL     1     -61.548 -18.231 -23.983  1.00  0.00    -0.357 OA
ATOM     23  H6  UNL     1     -61.927 -17.388 -24.202  1.00  0.00     0.213 HD
ENDBRANCH  14  22
BRANCH  19  24
HETATM   24  O7  UNL     1     -59.894 -21.077 -19.201  1.00  0.00    -0.288 OA
ATOM     25  H7  UNL     1     -60.531 -21.460 -18.609  1.00  0.00     0.244 HD
ENDBRANCH  19  24
ENDBRANCH  12  14
ENDBRANCH  11  12
ENDBRANCH   1  11
BRANCH   1  26
HETATM   26  C12 UNL     1     -63.187 -21.818 -22.835  1.00  0.00     0.248 C 
BRANCH  26  27
HETATM   27  O9  UNL     1     -64.191 -22.036 -23.782  1.00  0.00    -0.383 OA
ATOM     28  H9  UNL     1     -64.055 -22.828 -24.288  1.00  0.00     0.210 HD
ENDBRANCH  26  27
BRANCH  26  29
HETATM   29  C13 UNL     1     -62.452 -23.085 -22.669  1.00  0.00     0.249 C 
HETATM   30  O10 UNL     1     -61.199 -23.164 -22.548  1.00  0.00    -0.271 OA
HETATM   31  N3  UNL     1     -63.132 -24.342 -22.637  1.00  0.00    -0.363 N 
HETATM   32  C14 UNL     1     -62.460 -25.610 -22.477  1.00  0.00     0.149 C 
ATOM     33  H3  UNL     1     -64.147 -24.344 -22.732  1.00  0.00     0.162 HD
ENDBRANCH  26  29
ENDBRANCH   1  26
TORSDOF 11
ENDMDL
MODEL 3
REMARK VINA RESULT: -5.782890808      2.882      3.734
REMARK  11 active torsions:
REMARK  status: ('A' for Active; 'I' for Inactive)
REMARK    1  A    between atoms: C2_2  and  O1_3 
REMARK    2  A    between atoms: O1_3  and  C3_4 
REMARK       I    between atoms: C3_4  and  N1_6 
REMARK       I    between atoms: N1_6  and  C4_8 
REMARK    3  A    between atoms: C4_8  and  C5_10 
REMARK    4  A    between atoms: C5_10  and  O4_11 
REMARK    5  A    between atoms: C5_10  and  C12_26 
REMARK    6  A    between atoms: O4_11  and  C6_12 
REMARK    7  A    between atoms: C6_12  and  C7_14 
REMARK    8  A    between atoms: C7_14  and  O6_15 
REMARK    9  A    between atoms: N2_21  and  O7_23 
REMARK   10  A    between atoms: C12_26  and  O9_27 
REMARK   11  A    between atoms: C12_26  and  C13_29 
REMARK       I    between atoms: C13_29  and  N3_31 
ROOT
HETATM    1  C5  UNL     1     -65.636 -19.129 -22.381  1.00  0.00     0.262 C 
ENDROOT
BRANCH   1   2
HETATM    2  C4  UNL     1     -66.733 -18.295 -21.836  1.00  0.00     0.258 C 
HETATM    3  N1  UNL     1     -66.566 -16.930 -21.590  1.00  0.00    -0.271 N 
HETATM    4  C3  UNL     1     -67.630 -16.122 -21.045  1.00  0.00     0.367 C 
ATOM      5  H1  UNL     1     -65.669 -16.494 -21.801  1.00  0.00     0.174 HD
HETATM    6  O2  UNL     1     -67.452 -14.899 -20.834  1.00  0.00    -0.238 OA
HETATM    7  O3  UNL     1     -67.833 -18.840 -21.594  1.00  0.00    -0.270 OA
BRANCH   4   8
HETATM    8  O1  UNL     1     -68.835 -16.747 -20.770  1.00  0.00    -0.304 OA
BRANCH   8   9
HETATM    9  C2  UNL     1     -70.007 -15.954 -20.828  1.00  0.00     0.176 C 
HETATM   10  C1  UNL     1     -70.529 -15.738 -19.430  1.00  0.00     0.034 C 
ENDBRANCH   8   9
ENDBRANCH   4   8
ENDBRANCH   1   2
BRANCH   1  11
HETATM   11  O4  UNL     1     -64.374 -18.597 -21.969  1.00  0.00    -0.299 OA
BRANCH  11  12
HETATM   12  C6  UNL     1     -63.177 -19.244 -22.072  1.00  0.00     0.323 C 
HETATM   13  O5  UNL     1     -63.226 -20.514 -21.913  1.00  0.00    -0.259 OA
BRANCH  12  14
HETATM   14  C7  UNL     1     -61.914 -18.566 -22.339  1.00  0.00     0.259 C 
HETATM   15  C8  UNL     1     -61.543 -17.439 -21.448  1.00  0.00     0.080 C 
HETATM   16  C9  UNL     1     -61.085 -17.863 -20.078  1.00  0.00     0.014 C 
HETATM   17  C10 UNL     1     -59.991 -18.883 -20.116  1.00  0.00     0.086 C 
HETATM   18  C11 UNL     1     -60.258 -19.939 -21.126  1.00  0.00     0.141 C 
HETATM   19  N2  UNL     1     -59.964 -21.171 -20.889  1.00  0.00    -0.251 N 
HETATM   20  O8  UNL     1     -60.835 -19.516 -22.315  1.00  0.00    -0.290 OA
ATOM     21  H2  UNL     1     -60.148 -21.895 -21.583  1.00  0.00     0.196 HD
BRANCH  14  22
HETATM   22  O6  UNL     1     -61.918 -18.105 -23.676  1.00  0.00    -0.357 OA
ATOM     23  H6  UNL     1     -61.019 -18.029 -23.976  1.00  0.00     0.213 HD
ENDBRANCH  14  22
BRANCH  19  24
HETATM   24  O7  UNL     1     -59.399 -21.483 -19.683  1.00  0.00    -0.288 OA
ATOM     25  H7  UNL     1     -59.314 -22.400 -19.448  1.00  0.00     0.244 HD
ENDBRANCH  19  24
ENDBRANCH  12  14
ENDBRANCH  11  12
ENDBRANCH   1  11
BRANCH   1  26
HETATM   26  C12 UNL     1     -65.730 -19.079 -23.886  1.00  0.00     0.248 C 
BRANCH  26  27
HETATM   27  O9  UNL     1     -66.820 -18.328 -24.336  1.00  0.00    -0.383 OA
ATOM     28  H9  UNL     1     -67.644 -18.795 -24.264  1.00  0.00     0.210 HD
ENDBRANCH  26  27
BRANCH  26  29
HETATM   29  C13 UNL     1     -65.845 -20.424 -24.478  1.00  0.00     0.249 C 
HETATM   30  O10 UNL     1     -66.264 -20.649 -25.646  1.00  0.00    -0.271 OA
HETATM   31  N3  UNL     1     -65.479 -21.595 -23.743  1.00  0.00    -0.363 N 
HETATM   32  C14 UNL     1     -65.572 -22.933 -24.276  1.00  0.00     0.149 C 
ATOM     33  H3  UNL     1     -65.134 -21.478 -22.791  1.00  0.00     0.162 HD
ENDBRANCH  26  29
ENDBRANCH   1  26
TORSDOF 11
ENDMDL
MODEL 4
REMARK VINA RESULT: -5.773925667      2.565      4.165
REMARK  11 active torsions:
REMARK  status: ('A' for Active; 'I' for Inactive)
REMARK    1  A    between atoms: C2_2  and  O1_3 
REMARK    2  A    between atoms: O1_3  and  C3_4 
REMARK       I    between atoms: C3_4  and  N1_6 
REMARK       I    between atoms: N1_6  and  C4_8 
REMARK    3  A    between atoms: C4_8  and  C5_10 
REMARK    4  A    between atoms: C5_10  and  O4_11 
REMARK    5  A    between atoms: C5_10  and  C12_26 
REMARK    6  A    between atoms: O4_11  and  C6_12 
REMARK    7  A    between atoms: C6_12  and  C7_14 
REMARK    8  A    between atoms: C7_14  and  O6_15 
REMARK    9  A    between atoms: N2_21  and  O7_23 
REMARK   10  A    between atoms: C12_26  and  O9_27 
REMARK   11  A    between atoms: C12_26  and  C13_29 
REMARK       I    between atoms: C13_29  and  N3_31 
ROOT
HETATM    1  C5  UNL     1     -65.377 -20.616 -21.930  1.00  0.00     0.262 C 
ENDROOT
BRANCH   1   2
HETATM    2  C4  UNL     1     -65.389 -22.042 -21.527  1.00  0.00     0.258 C 
HETATM    3  N1  UNL     1     -64.425 -22.944 -21.984  1.00  0.00    -0.271 N 
HETATM    4  C3  UNL     1     -64.447 -24.335 -21.603  1.00  0.00     0.367 C 
ATOM      5  H1  UNL     1     -63.687 -22.609 -22.604  1.00  0.00     0.174 HD
HETATM    6  O2  UNL     1     -63.568 -25.122 -22.029  1.00  0.00    -0.238 OA
HETATM    7  O3  UNL     1     -66.292 -22.436 -20.755  1.00  0.00    -0.270 OA
BRANCH   4   8
HETATM    8  O1  UNL     1     -65.463 -24.755 -20.761  1.00  0.00    -0.304 OA
BRANCH   8   9
HETATM    9  C2  UNL     1     -65.540 -26.139 -20.475  1.00  0.00     0.176 C 
HETATM   10  C1  UNL     1     -65.721 -26.329 -18.990  1.00  0.00     0.034 C 
ENDBRANCH   8   9
ENDBRANCH   4   8
ENDBRANCH   1   2
BRANCH   1  11
HETATM   11  O4  UNL     1     -64.703 -19.838 -20.937  1.00  0.00    -0.299 OA
BRANCH  11  12
HETATM   12  C6  UNL     1     -63.437 -20.068 -20.484  1.00  0.00     0.323 C 
HETATM   13  O5  UNL     1     -63.335 -20.280 -19.225  1.00  0.00    -0.259 OA
BRANCH  12  14
HETATM   14  C7  UNL     1     -62.261 -20.074 -21.347  1.00  0.00     0.259 C 
HETATM   15  C8  UNL     1     -62.395 -19.453 -22.688  1.00  0.00     0.080 C 
HETATM   16  C9  UNL     1     -62.436 -17.948 -22.667  1.00  0.00     0.014 C 
HETATM   17  C10 UNL     1     -61.290 -17.341 -21.920  1.00  0.00     0.086 C 
HETATM   18  C11 UNL     1     -61.024 -18.055 -20.645  1.00  0.00     0.141 C 
HETATM   19  N2  UNL     1     -60.690 -17.408 -19.582  1.00  0.00    -0.251 N 
HETATM   20  O8  UNL     1     -61.160 -19.436 -20.677  1.00  0.00    -0.290 OA
ATOM     21  H2  UNL     1     -60.508 -17.899 -18.707  1.00  0.00     0.196 HD
BRANCH  14  22
HETATM   22  O6  UNL     1     -61.821 -21.408 -21.508  1.00  0.00    -0.357 OA
ATOM     23  H6  UNL     1     -61.086 -21.417 -22.110  1.00  0.00     0.213 HD
ENDBRANCH  14  22
BRANCH  19  24
HETATM   24  O7  UNL     1     -60.584 -16.047 -19.657  1.00  0.00    -0.288 OA
ATOM     25  H7  UNL     1     -61.276 -15.518 -19.277  1.00  0.00     0.244 HD
ENDBRANCH  19  24
ENDBRANCH  12  14
ENDBRANCH  11  12
ENDBRANCH   1  11
BRANCH   1  26
HETATM   26  C12 UNL     1     -66.812 -20.159 -22.031  1.00  0.00     0.248 C 
BRANCH  26  27
HETATM   27  O9  UNL     1     -67.513 -20.798 -23.058  1.00  0.00    -0.383 OA
ATOM     28  H9  UNL     1     -68.455 -20.727 -22.960  1.00  0.00     0.210 HD
ENDBRANCH  26  27
BRANCH  26  29
HETATM   29  C13 UNL     1     -66.915 -18.707 -22.262  1.00  0.00     0.249 C 
HETATM   30  O10 UNL     1     -66.770 -18.159 -23.389  1.00  0.00    -0.271 OA
HETATM   31  N3  UNL     1     -67.191 -17.800 -21.192  1.00  0.00    -0.363 N 
HETATM   32  C14 UNL     1     -67.302 -16.371 -21.365  1.00  0.00     0.149 C 
ATOM     33  H3  UNL     1     -67.317 -18.183 -20.256  1.00  0.00     0.162 HD
ENDBRANCH  26  29
ENDBRANCH   1  26
TORSDOF 11
ENDMDL
MODEL 5
REMARK VINA RESULT: -5.764520934      2.447      3.640
REMARK  11 active torsions:
REMARK  status: ('A' for Active; 'I' for Inactive)
REMARK    1  A    between atoms: C2_2  and  O1_3 
REMARK    2  A    between atoms: O1_3  and  C3_4 
REMARK       I    between atoms: C3_4  and  N1_6 
REMARK       I    between atoms: N1_6  and  C4_8 
REMARK    3  A    between atoms: C4_8  and  C5_10 
REMARK    4  A    between atoms: C5_10  and  O4_11 
REMARK    5  A    between atoms: C5_10  and  C12_26 
REMARK    6  A    between atoms: O4_11  and  C6_12 
REMARK    7  A    between atoms: C6_12  and  C7_14 
REMARK    8  A    between atoms: C7_14  and  O6_15 
REMARK    9  A    between atoms: N2_21  and  O7_23 
REMARK   10  A    between atoms: C12_26  and  O9_27 
REMARK   11  A    between atoms: C12_26  and  C13_29 
REMARK       I    between atoms: C13_29  and  N3_31 
ROOT
HETATM    1  C5  UNL     1     -65.303 -20.502 -21.141  1.00  0.00     0.262 C 
ENDROOT
BRANCH   1   2
HETATM    2  C4  UNL     1     -66.127 -19.389 -21.669  1.00  0.00     0.258 C 
HETATM    3  N1  UNL     1     -67.523 -19.426 -21.631  1.00  0.00    -0.271 N 
HETATM    4  C3  UNL     1     -68.325 -18.349 -22.160  1.00  0.00     0.367 C 
ATOM      5  H1  UNL     1     -67.987 -20.235 -21.219  1.00  0.00     0.174 HD
HETATM    6  O2  UNL     1     -69.576 -18.410 -22.112  1.00  0.00    -0.238 OA
HETATM    7  O3  UNL     1     -65.545 -18.396 -22.160  1.00  0.00    -0.270 OA
BRANCH   4   8
HETATM    8  O1  UNL     1     -67.662 -17.266 -22.712  1.00  0.00    -0.304 OA
BRANCH   8   9
HETATM    9  C2  UNL     1     -68.006 -15.979 -22.232  1.00  0.00     0.176 C 
HETATM   10  C1  UNL     1     -67.511 -15.831 -20.816  1.00  0.00     0.034 C 
ENDBRANCH   8   9
ENDBRANCH   4   8
ENDBRANCH   1   2
BRANCH   1  11
HETATM   11  O4  UNL     1     -63.967 -20.393 -21.639  1.00  0.00    -0.299 OA
BRANCH  11  12
HETATM   12  C6  UNL     1     -62.846 -20.289 -20.868  1.00  0.00     0.323 C 
HETATM   13  O5  UNL     1     -63.047 -20.321 -19.603  1.00  0.00    -0.259 OA
BRANCH  12  14
HETATM   14  C7  UNL     1     -61.502 -20.147 -21.414  1.00  0.00     0.259 C 
HETATM   15  C8  UNL     1     -61.380 -19.638 -22.802  1.00  0.00     0.080 C 
HETATM   16  C9  UNL     1     -61.648 -18.163 -22.942  1.00  0.00     0.014 C 
HETATM   17  C10 UNL     1     -60.835 -17.328 -22.004  1.00  0.00     0.086 C 
HETATM   18  C11 UNL     1     -60.801 -17.910 -20.637  1.00  0.00     0.141 C 
HETATM   19  N2  UNL     1     -60.850 -17.154 -19.595  1.00  0.00    -0.251 N 
HETATM   20  O8  UNL     1     -60.717 -19.293 -20.564  1.00  0.00    -0.290 OA
ATOM     21  H2  UNL     1     -60.827 -17.555 -18.658  1.00  0.00     0.196 HD
BRANCH  14  22
HETATM   22  O6  UNL     1     -60.841 -21.395 -21.329  1.00  0.00    -0.357 OA
ATOM     23  H6  UNL     1     -60.348 -21.425 -20.517  1.00  0.00     0.213 HD
ENDBRANCH  14  22
BRANCH  19  24
HETATM   24  O7  UNL     1     -60.932 -15.801 -19.777  1.00  0.00    -0.288 OA
ATOM     25  H7  UNL     1     -61.086 -15.252 -19.017  1.00  0.00     0.244 HD
ENDBRANCH  19  24
ENDBRANCH  12  14
ENDBRANCH  11  12
ENDBRANCH   1  11
BRANCH   1  26
HETATM   26  C12 UNL     1     -65.913 -21.793 -21.629  1.00  0.00     0.248 C 
BRANCH  26  27
HETATM   27  O9  UNL     1     -66.777 -22.371 -20.695  1.00  0.00    -0.383 OA
ATOM     28  H9  UNL     1     -67.273 -23.098 -21.053  1.00  0.00     0.210 HD
ENDBRANCH  26  27
BRANCH  26  29
HETATM   29  C13 UNL     1     -64.888 -22.797 -21.964  1.00  0.00     0.249 C 
HETATM   30  O10 UNL     1     -64.533 -23.729 -21.192  1.00  0.00    -0.271 OA
HETATM   31  N3  UNL     1     -64.208 -22.777 -23.222  1.00  0.00    -0.363 N 
HETATM   32  C14 UNL     1     -63.197 -23.736 -23.599  1.00  0.00     0.149 C 
ATOM     33  H3  UNL     1     -64.451 -22.045 -23.889  1.00  0.00     0.162 HD
ENDBRANCH  26  29
ENDBRANCH   1  26
TORSDOF 11
ENDMDL
