MODEL 1
REMARK VINA RESULT: -5.814605475      0.000      0.000
REMARK  11 active torsions:
REMARK  status: ('A' for Active; 'I' for Inactive)
REMARK    1  A    between atoms: C2_2  and  O1_3 
REMARK    2  A    between atoms: O1_3  and  C3_4 
REMARK    3  A    between atoms: C3_4  and  C4_6 
REMARK    4  A    between atoms: C4_6  and  N1_7 
REMARK    5  A    between atoms: N1_7  and  C6_9 
REMARK    6  A    between atoms: C7_12  and  N3_13 
REMARK    7  A    between atoms: N3_13  and  C8_15 
REMARK    8  A    between atoms: C8_15  and  N4_16 
REMARK    9  A    between atoms: C8_15  and  C9_20 
REMARK   10  A    between atoms: C11_30  and  N8_31 
REMARK   11  A    between atoms: C12_34  and  N9_35 
ROOT
HETATM    1  C6  UNL     1     -64.608 -19.116 -22.877  1.00  0.00     0.156 A 
HETATM    2  N2  UNL     1     -63.543 -18.654 -22.162  1.00  0.00    -0.174 N 
ATOM      3  H2  UNL     1     -63.645 -18.495 -21.159  1.00  0.00     0.186 HD
HETATM    4  C7  UNL     1     -62.341 -18.400 -22.762  1.00  0.00     0.683 A 
HETATM    5  N7  UNL     1     -62.187 -18.602 -24.068  1.00  0.00    -0.174 N 
ATOM      6  H7  UNL     1     -61.289 -18.412 -24.515  1.00  0.00     0.186 HD
HETATM    7  C11 UNL     1     -63.235 -19.062 -24.802  1.00  0.00     0.151 A 
HETATM    8  C12 UNL     1     -64.482 -19.333 -24.224  1.00  0.00     0.191 A 
ENDROOT
BRANCH   4   9
HETATM    9  N3  UNL     1     -61.367 -17.976 -22.059  1.00  0.00    -0.189 N 
ATOM     10  H3  UNL     1     -60.764 -17.251 -22.447  1.00  0.00     0.180 HD
BRANCH   9  11
HETATM   11  C8  UNL     1     -61.084 -18.473 -20.752  1.00  0.00     0.373 C 
BRANCH  11  12
HETATM   12  N4  UNL     1     -60.228 -17.415 -20.136  1.00  0.00    -0.050 N 
ATOM     13  H43 UNL     1     -59.417 -17.774 -19.631  1.00  0.00     0.277 HD
ATOM     14  H42 UNL     1     -59.703 -16.858 -20.809  1.00  0.00     0.277 HD
ATOM     15  H41 UNL     1     -60.874 -16.876 -19.559  1.00  0.00     0.277 HD
ENDBRANCH  11  12
BRANCH  11  16
HETATM   16  C9  UNL     1     -60.257 -19.720 -20.792  1.00  0.00     0.194 A 
HETATM   17  N5  UNL     1     -60.249 -20.677 -19.880  1.00  0.00    -0.276 N 
HETATM   18  N6  UNL     1     -59.388 -21.609 -20.282  1.00  0.00    -0.243 N 
ATOM     19  H5  UNL     1     -60.802 -20.697 -19.023  1.00  0.00     0.189 HD
HETATM   20  C10 UNL     1     -58.888 -21.182 -21.450  1.00  0.00     0.386 A 
ATOM     21  H6  UNL     1     -59.154 -22.475 -19.797  1.00  0.00     0.192 HD
HETATM   22  O3  UNL     1     -58.042 -21.785 -22.145  1.00  0.00    -0.236 OA
HETATM   23  O4  UNL     1     -59.426 -20.036 -21.744  1.00  0.00    -0.241 OA
ENDBRANCH  11  16
ENDBRANCH   9  11
ENDBRANCH   4   9
BRANCH   1  24
HETATM   24  N1  UNL     1     -65.831 -19.331 -22.190  1.00  0.00    -0.360 N 
HETATM   25  C5  UNL     1     -66.841 -18.330 -21.976  1.00  0.00     0.152 C 
BRANCH  24  26
HETATM   26  C4  UNL     1     -66.172 -20.662 -21.692  1.00  0.00     0.235 C 
BRANCH  26  27
HETATM   27  C3  UNL     1     -64.979 -21.303 -21.053  1.00  0.00     0.276 C 
HETATM   28  O2  UNL     1     -64.384 -20.720 -20.115  1.00  0.00    -0.263 OA
BRANCH  27  29
HETATM   29  O1  UNL     1     -64.500 -22.524 -21.461  1.00  0.00    -0.321 OA
BRANCH  29  30
HETATM   30  C2  UNL     1     -63.841 -22.737 -22.704  1.00  0.00     0.174 C 
HETATM   31  C1  UNL     1     -62.450 -22.163 -22.708  1.00  0.00     0.034 C 
ENDBRANCH  29  30
ENDBRANCH  27  29
ENDBRANCH  26  27
ENDBRANCH  24  26
ENDBRANCH   1  24
BRANCH   7  32
HETATM   32  N8  UNL     1     -63.068 -19.254 -26.058  1.00  0.00    -0.383 N 
ATOM     33  H82 UNL     1     -62.225 -18.903 -26.510  1.00  0.00     0.157 HD
ATOM     34  H81 UNL     1     -63.790 -19.755 -26.576  1.00  0.00     0.157 HD
ENDBRANCH   7  32
BRANCH   8  35
HETATM   35  N9  UNL     1     -65.493 -19.784 -25.096  1.00  0.00    -0.108 N 
HETATM   36  O5  UNL     1     -66.265 -19.018 -25.701  1.00  0.00    -0.531 OA
HETATM   37  O6  UNL     1     -65.622 -21.129 -25.323  1.00  0.00    -0.531 OA
ENDBRANCH   8  35
TORSDOF 11
ENDMDL
MODEL 2
REMARK VINA RESULT: -5.735208041      2.329      4.277
REMARK  11 active torsions:
REMARK  status: ('A' for Active; 'I' for Inactive)
REMARK    1  A    between atoms: C2_2  and  O1_3 
REMARK    2  A    between atoms: O1_3  and  C3_4 
REMARK    3  A    between atoms: C3_4  and  C4_6 
REMARK    4  A    between atoms: C4_6  and  N1_7 
REMARK    5  A    between atoms: N1_7  and  C6_9 
REMARK    6  A    between atoms: C7_12  and  N3_13 
REMARK    7  A    between atoms: N3_13  and  C8_15 
REMARK    8  A    between atoms: C8_15  and  N4_16 
REMARK    9  A    between atoms: C8_15  and  C9_20 
REMARK   10  A    between atoms: C11_30  and  N8_31 
REMARK   11  A    between atoms: C12_34  and  N9_35 
ROOT
HETATM    1  C6  UNL     1     -63.744 -20.397 -22.723  1.00  0.00     0.156 A 
HETATM    2  N2  UNL     1     -62.408 -20.121 -22.760  1.00  0.00    -0.174 N 
ATOM      3  H2  UNL     1     -62.098 -19.187 -23.032  1.00  0.00     0.186 HD
HETATM    4  C7  UNL     1     -61.478 -21.070 -22.440  1.00  0.00     0.683 A 
HETATM    5  N7  UNL     1     -61.862 -22.292 -22.082  1.00  0.00    -0.174 N 
ATOM      6  H7  UNL     1     -61.167 -23.000 -21.843  1.00  0.00     0.186 HD
HETATM    7  C11 UNL     1     -63.188 -22.591 -22.038  1.00  0.00     0.151 A 
HETATM    8  C12 UNL     1     -64.171 -21.646 -22.360  1.00  0.00     0.191 A 
ENDROOT
BRANCH   4   9
HETATM    9  N3  UNL     1     -60.241 -20.772 -22.479  1.00  0.00    -0.189 N 
ATOM     10  H3  UNL     1     -59.737 -20.890 -23.359  1.00  0.00     0.180 HD
BRANCH   9  11
HETATM   11  C8  UNL     1     -59.528 -20.279 -21.345  1.00  0.00     0.373 C 
BRANCH  11  12
HETATM   12  N4  UNL     1     -59.741 -21.323 -20.298  1.00  0.00    -0.050 N 
ATOM     13  H43 UNL     1     -60.564 -21.169 -19.715  1.00  0.00     0.277 HD
ATOM     14  H42 UNL     1     -60.032 -22.229 -20.664  1.00  0.00     0.277 HD
ATOM     15  H41 UNL     1     -58.860 -21.342 -19.783  1.00  0.00     0.277 HD
ENDBRANCH  11  12
BRANCH  11  16
HETATM   16  C9  UNL     1     -60.126 -19.014 -20.813  1.00  0.00     0.194 A 
HETATM   17  N5  UNL     1     -60.351 -18.737 -19.540  1.00  0.00    -0.276 N 
HETATM   18  N6  UNL     1     -60.887 -17.520 -19.482  1.00  0.00    -0.243 N 
ATOM     19  H5  UNL     1     -60.151 -19.345 -18.746  1.00  0.00     0.189 HD
HETATM   20  C10 UNL     1     -60.974 -17.085 -20.747  1.00  0.00     0.386 A 
ATOM     21  H6  UNL     1     -61.174 -17.018 -18.642  1.00  0.00     0.192 HD
HETATM   22  O3  UNL     1     -61.428 -15.977 -21.107  1.00  0.00    -0.236 OA
HETATM   23  O4  UNL     1     -60.508 -18.003 -21.540  1.00  0.00    -0.241 OA
ENDBRANCH  11  16
ENDBRANCH   9  11
ENDBRANCH   4   9
BRANCH   1  24
HETATM   24  N1  UNL     1     -64.648 -19.368 -23.095  1.00  0.00    -0.360 N 
HETATM   25  C5  UNL     1     -65.208 -19.200 -24.409  1.00  0.00     0.152 C 
BRANCH  24  26
HETATM   26  C4  UNL     1     -65.131 -18.415 -22.097  1.00  0.00     0.235 C 
BRANCH  26  27
HETATM   27  C3  UNL     1     -66.606 -18.209 -22.242  1.00  0.00     0.276 C 
HETATM   28  O2  UNL     1     -67.404 -19.076 -21.810  1.00  0.00    -0.263 OA
BRANCH  27  29
HETATM   29  O1  UNL     1     -67.133 -17.090 -22.840  1.00  0.00    -0.321 OA
BRANCH  29  30
HETATM   30  C2  UNL     1     -67.998 -16.175 -22.177  1.00  0.00     0.174 C 
HETATM   31  C1  UNL     1     -67.415 -15.691 -20.878  1.00  0.00     0.034 C 
ENDBRANCH  29  30
ENDBRANCH  27  29
ENDBRANCH  26  27
ENDBRANCH  24  26
ENDBRANCH   1  24
BRANCH   7  32
HETATM   32  N8  UNL     1     -63.540 -23.772 -21.688  1.00  0.00    -0.383 N 
ATOM     33  H82 UNL     1     -62.829 -24.493 -21.574  1.00  0.00     0.157 HD
ATOM     34  H81 UNL     1     -64.531 -23.961 -21.533  1.00  0.00     0.157 HD
ENDBRANCH   7  32
BRANCH   8  35
HETATM   35  N9  UNL     1     -65.508 -22.087 -22.297  1.00  0.00    -0.108 N 
HETATM   36  O5  UNL     1     -66.141 -22.492 -23.288  1.00  0.00    -0.531 OA
HETATM   37  O6  UNL     1     -66.145 -22.104 -21.084  1.00  0.00    -0.531 OA
ENDBRANCH   8  35
TORSDOF 11
ENDMDL
MODEL 3
REMARK VINA RESULT: -5.677682643      2.050      3.536
REMARK  11 active torsions:
REMARK  status: ('A' for Active; 'I' for Inactive)
REMARK    1  A    between atoms: C2_2  and  O1_3 
REMARK    2  A    between atoms: O1_3  and  C3_4 
REMARK    3  A    between atoms: C3_4  and  C4_6 
REMARK    4  A    between atoms: C4_6  and  N1_7 
REMARK    5  A    between atoms: N1_7  and  C6_9 
REMARK    6  A    between atoms: C7_12  and  N3_13 
REMARK    7  A    between atoms: N3_13  and  C8_15 
REMARK    8  A    between atoms: C8_15  and  N4_16 
REMARK    9  A    between atoms: C8_15  and  C9_20 
REMARK   10  A    between atoms: C11_30  and  N8_31 
REMARK   11  A    between atoms: C12_34  and  N9_35 
ROOT
HETATM    1  C6  UNL     1     -64.814 -20.931 -23.156  1.00  0.00     0.156 A 
HETATM    2  N2  UNL     1     -63.801 -21.265 -22.306  1.00  0.00    -0.174 N 
ATOM      3  H2  UNL     1     -64.005 -21.831 -21.482  1.00  0.00     0.186 HD
HETATM    4  C7  UNL     1     -62.517 -20.855 -22.536  1.00  0.00     0.683 A 
HETATM    5  N7  UNL     1     -62.229 -20.116 -23.605  1.00  0.00    -0.174 N 
ATOM      6  H7  UNL     1     -61.270 -19.811 -23.776  1.00  0.00     0.186 HD
HETATM    7  C11 UNL     1     -63.222 -19.771 -24.466  1.00  0.00     0.151 A 
HETATM    8  C12 UNL     1     -64.551 -20.171 -24.264  1.00  0.00     0.191 A 
ENDROOT
BRANCH   4   9
HETATM    9  N3  UNL     1     -61.597 -21.193 -21.723  1.00  0.00    -0.189 N 
ATOM     10  H3  UNL     1     -61.747 -22.007 -21.127  1.00  0.00     0.180 HD
BRANCH   9  11
HETATM   11  C8  UNL     1     -60.364 -20.482 -21.612  1.00  0.00     0.373 C 
BRANCH  11  12
HETATM   12  N4  UNL     1     -59.556 -21.300 -20.658  1.00  0.00    -0.050 N 
ATOM     13  H43 UNL     1     -59.965 -21.383 -19.727  1.00  0.00     0.277 HD
ATOM     14  H42 UNL     1     -59.547 -22.298 -20.866  1.00  0.00     0.277 HD
ATOM     15  H41 UNL     1     -58.634 -20.861 -20.672  1.00  0.00     0.277 HD
ENDBRANCH  11  12
BRANCH  11  16
HETATM   16  C9  UNL     1     -60.546 -19.140 -20.974  1.00  0.00     0.194 A 
HETATM   17  N5  UNL     1     -60.454 -18.875 -19.682  1.00  0.00    -0.276 N 
HETATM   18  N6  UNL     1     -60.678 -17.573 -19.521  1.00  0.00    -0.243 N 
ATOM     19  H5  UNL     1     -60.250 -19.547 -18.942  1.00  0.00     0.189 HD
HETATM   20  C10 UNL     1     -60.904 -17.075 -20.745  1.00  0.00     0.386 A 
ATOM     21  H6  UNL     1     -60.678 -17.057 -18.642  1.00  0.00     0.192 HD
HETATM   22  O3  UNL     1     -61.155 -15.880 -21.011  1.00  0.00    -0.236 OA
HETATM   23  O4  UNL     1     -60.820 -18.039 -21.613  1.00  0.00    -0.241 OA
ENDBRANCH  11  16
ENDBRANCH   9  11
ENDBRANCH   4   9
BRANCH   1  24
HETATM   24  N1  UNL     1     -66.124 -21.370 -22.836  1.00  0.00    -0.360 N 
HETATM   25  C5  UNL     1     -66.846 -22.392 -23.546  1.00  0.00     0.152 C 
BRANCH  24  26
HETATM   26  C4  UNL     1     -66.822 -20.824 -21.672  1.00  0.00     0.235 C 
BRANCH  26  27
HETATM   27  C3  UNL     1     -67.293 -19.431 -21.952  1.00  0.00     0.276 C 
HETATM   28  O2  UNL     1     -68.362 -19.247 -22.582  1.00  0.00    -0.263 OA
BRANCH  27  29
HETATM   29  O1  UNL     1     -66.589 -18.325 -21.540  1.00  0.00    -0.321 OA
BRANCH  29  30
HETATM   30  C2  UNL     1     -66.913 -16.995 -21.929  1.00  0.00     0.174 C 
HETATM   31  C1  UNL     1     -67.542 -16.219 -20.804  1.00  0.00     0.034 C 
ENDBRANCH  29  30
ENDBRANCH  27  29
ENDBRANCH  26  27
ENDBRANCH  24  26
ENDBRANCH   1  24
BRANCH   7  32
HETATM   32  N8  UNL     1     -62.928 -19.063 -25.492  1.00  0.00    -0.383 N 
ATOM     33  H82 UNL     1     -62.030 -18.581 -25.526  1.00  0.00     0.157 HD
ATOM     34  H81 UNL     1     -63.605 -18.996 -26.252  1.00  0.00     0.157 HD
ENDBRANCH   7  32
BRANCH   8  35
HETATM   35  N9  UNL     1     -65.489 -19.729 -25.217  1.00  0.00    -0.108 N 
HETATM   36  O5  UNL     1     -66.145 -18.678 -25.094  1.00  0.00    -0.531 OA
HETATM   37  O6  UNL     1     -65.678 -20.468 -26.356  1.00  0.00    -0.531 OA
ENDBRANCH   8  35
TORSDOF 11
ENDMDL
MODEL 4
REMARK VINA RESULT: -5.638532739      2.131      3.926
REMARK  11 active torsions:
REMARK  status: ('A' for Active; 'I' for Inactive)
REMARK    1  A    between atoms: C2_2  and  O1_3 
REMARK    2  A    between atoms: O1_3  and  C3_4 
REMARK    3  A    between atoms: C3_4  and  C4_6 
REMARK    4  A    between atoms: C4_6  and  N1_7 
REMARK    5  A    between atoms: N1_7  and  C6_9 
REMARK    6  A    between atoms: C7_12  and  N3_13 
REMARK    7  A    between atoms: N3_13  and  C8_15 
REMARK    8  A    between atoms: C8_15  and  N4_16 
REMARK    9  A    between atoms: C8_15  and  C9_20 
REMARK   10  A    between atoms: C11_30  and  N8_31 
REMARK   11  A    between atoms: C12_34  and  N9_35 
ROOT
HETATM    1  C6  UNL     1     -64.794 -20.111 -22.811  1.00  0.00     0.156 A 
HETATM    2  N2  UNL     1     -63.767 -20.472 -21.989  1.00  0.00    -0.174 N 
ATOM      3  H2  UNL     1     -63.893 -20.418 -20.978  1.00  0.00     0.186 HD
HETATM    4  C7  UNL     1     -62.572 -20.904 -22.493  1.00  0.00     0.683 A 
HETATM    5  N7  UNL     1     -62.388 -20.984 -23.809  1.00  0.00    -0.174 N 
ATOM      6  H7  UNL     1     -61.496 -21.307 -24.184  1.00  0.00     0.186 HD
HETATM    7  C11 UNL     1     -63.397 -20.630 -24.648  1.00  0.00     0.151 A 
HETATM    8  C12 UNL     1     -64.635 -20.181 -24.170  1.00  0.00     0.191 A 
ENDROOT
BRANCH   4   9
HETATM    9  N3  UNL     1     -61.639 -21.239 -21.693  1.00  0.00    -0.189 N 
ATOM     10  H3  UNL     1     -61.786 -22.043 -21.082  1.00  0.00     0.180 HD
BRANCH   9  11
HETATM   11  C8  UNL     1     -60.399 -20.539 -21.616  1.00  0.00     0.373 C 
BRANCH  11  12
HETATM   12  N4  UNL     1     -59.586 -21.339 -20.652  1.00  0.00    -0.050 N 
ATOM     13  H43 UNL     1     -59.897 -22.305 -20.543  1.00  0.00     0.277 HD
ATOM     14  H42 UNL     1     -58.647 -21.562 -20.979  1.00  0.00     0.277 HD
ATOM     15  H41 UNL     1     -59.611 -20.793 -19.790  1.00  0.00     0.277 HD
ENDBRANCH  11  12
BRANCH  11  16
HETATM   16  C9  UNL     1     -60.559 -19.179 -21.012  1.00  0.00     0.194 A 
HETATM   17  N5  UNL     1     -60.374 -18.867 -19.740  1.00  0.00    -0.276 N 
HETATM   18  N6  UNL     1     -60.611 -17.564 -19.608  1.00  0.00    -0.243 N 
ATOM     19  H5  UNL     1     -60.099 -19.508 -18.996  1.00  0.00     0.189 HD
HETATM   20  C10 UNL     1     -60.940 -17.114 -20.826  1.00  0.00     0.386 A 
ATOM     21  H6  UNL     1     -60.554 -17.017 -18.749  1.00  0.00     0.192 HD
HETATM   22  O3  UNL     1     -61.235 -15.933 -21.113  1.00  0.00    -0.236 OA
HETATM   23  O4  UNL     1     -60.903 -18.106 -21.666  1.00  0.00    -0.241 OA
ENDBRANCH  11  16
ENDBRANCH   9  11
ENDBRANCH   4   9
BRANCH   1  24
HETATM   24  N1  UNL     1     -65.994 -19.647 -22.215  1.00  0.00    -0.360 N 
HETATM   25  C5  UNL     1     -67.165 -20.450 -21.988  1.00  0.00     0.152 C 
BRANCH  24  26
HETATM   26  C4  UNL     1     -66.087 -18.275 -21.717  1.00  0.00     0.235 C 
BRANCH  26  27
HETATM   27  C3  UNL     1     -67.342 -17.624 -22.210  1.00  0.00     0.276 C 
HETATM   28  O2  UNL     1     -67.500 -17.421 -23.438  1.00  0.00    -0.263 OA
BRANCH  27  29
HETATM   29  O1  UNL     1     -68.345 -17.232 -21.357  1.00  0.00    -0.321 OA
BRANCH  29  30
HETATM   30  C2  UNL     1     -68.283 -16.059 -20.554  1.00  0.00     0.174 C 
HETATM   31  C1  UNL     1     -68.404 -14.807 -21.380  1.00  0.00     0.034 C 
ENDBRANCH  29  30
ENDBRANCH  27  29
ENDBRANCH  26  27
ENDBRANCH  24  26
ENDBRANCH   1  24
BRANCH   7  32
HETATM   32  N8  UNL     1     -63.204 -20.715 -25.912  1.00  0.00    -0.383 N 
ATOM     33  H82 UNL     1     -63.163 -19.863 -26.470  1.00  0.00     0.157 HD
ATOM     34  H81 UNL     1     -63.098 -21.640 -26.329  1.00  0.00     0.157 HD
ENDBRANCH   7  32
BRANCH   8  35
HETATM   35  N9  UNL     1     -65.590 -19.823 -25.143  1.00  0.00    -0.108 N 
HETATM   36  O5  UNL     1     -65.623 -18.706 -25.690  1.00  0.00    -0.531 OA
HETATM   37  O6  UNL     1     -66.516 -20.753 -25.537  1.00  0.00    -0.531 OA
ENDBRANCH   8  35
TORSDOF 11
ENDMDL
MODEL 5
REMARK VINA RESULT: -5.614447563      1.911      2.787
REMARK  11 active torsions:
REMARK  status: ('A' for Active; 'I' for Inactive)
REMARK    1  A    between atoms: C2_2  and  O1_3 
REMARK    2  A    between atoms: O1_3  and  C3_4 
REMARK    3  A    between atoms: C3_4  and  C4_6 
REMARK    4  A    between atoms: C4_6  and  N1_7 
REMARK    5  A    between atoms: N1_7  and  C6_9 
REMARK    6  A    between atoms: C7_12  and  N3_13 
REMARK    7  A    between atoms: N3_13  and  C8_15 
REMARK    8  A    between atoms: C8_15  and  N4_16 
REMARK    9  A    between atoms: C8_15  and  C9_20 
REMARK   10  A    between atoms: C11_30  and  N8_31 
REMARK   11  A    between atoms: C12_34  and  N9_35 
ROOT
HETATM    1  C6  UNL     1     -64.641 -21.091 -22.824  1.00  0.00     0.156 A 
HETATM    2  N2  UNL     1     -63.569 -21.392 -22.037  1.00  0.00    -0.174 N 
ATOM      3  H2  UNL     1     -63.713 -21.922 -21.177  1.00  0.00     0.186 HD
HETATM    4  C7  UNL     1     -62.305 -20.997 -22.377  1.00  0.00     0.683 A 
HETATM    5  N7  UNL     1     -62.095 -20.307 -23.495  1.00  0.00    -0.174 N 
ATOM      6  H7  UNL     1     -61.151 -20.013 -23.748  1.00  0.00     0.186 HD
HETATM    7  C11 UNL     1     -63.148 -19.995 -24.296  1.00  0.00     0.151 A 
HETATM    8  C12 UNL     1     -64.458 -20.380 -23.981  1.00  0.00     0.191 A 
ENDROOT
BRANCH   4   9
HETATM    9  N3  UNL     1     -61.328 -21.304 -21.619  1.00  0.00    -0.189 N 
ATOM     10  H3  UNL     1     -61.398 -22.147 -21.049  1.00  0.00     0.180 HD
BRANCH   9  11
HETATM   11  C8  UNL     1     -60.140 -20.518 -21.534  1.00  0.00     0.373 C 
BRANCH  11  12
HETATM   12  N4  UNL     1     -59.287 -21.251 -20.551  1.00  0.00    -0.050 N 
ATOM     13  H43 UNL     1     -58.628 -20.659 -20.045  1.00  0.00     0.277 HD
ATOM     14  H42 UNL     1     -59.789 -21.586 -19.729  1.00  0.00     0.277 HD
ATOM     15  H41 UNL     1     -58.848 -21.989 -21.102  1.00  0.00     0.277 HD
ENDBRANCH  11  12
BRANCH  11  16
HETATM   16  C9  UNL     1     -60.402 -19.167 -20.946  1.00  0.00     0.194 A 
HETATM   17  N5  UNL     1     -60.283 -18.838 -19.671  1.00  0.00    -0.276 N 
HETATM   18  N6  UNL     1     -60.601 -17.551 -19.556  1.00  0.00    -0.243 N 
ATOM     19  H5  UNL     1     -59.998 -19.458 -18.913  1.00  0.00     0.189 HD
HETATM   20  C10 UNL     1     -60.911 -17.127 -20.790  1.00  0.00     0.386 A 
ATOM     21  H6  UNL     1     -60.608 -16.997 -18.700  1.00  0.00     0.192 HD
HETATM   22  O3  UNL     1     -61.264 -15.968 -21.095  1.00  0.00    -0.236 OA
HETATM   23  O4  UNL     1     -60.785 -18.120 -21.620  1.00  0.00    -0.241 OA
ENDBRANCH  11  16
ENDBRANCH   9  11
ENDBRANCH   4   9
BRANCH   1  24
HETATM   24  N1  UNL     1     -65.925 -21.511 -22.392  1.00  0.00    -0.360 N 
HETATM   25  C5  UNL     1     -66.915 -20.653 -21.800  1.00  0.00     0.152 C 
BRANCH  24  26
HETATM   26  C4  UNL     1     -66.354 -22.895 -22.592  1.00  0.00     0.235 C 
BRANCH  26  27
HETATM   27  C3  UNL     1     -65.965 -23.737 -21.418  1.00  0.00     0.276 C 
HETATM   28  O2  UNL     1     -66.831 -24.071 -20.574  1.00  0.00    -0.263 OA
BRANCH  27  29
HETATM   29  O1  UNL     1     -64.674 -24.167 -21.223  1.00  0.00    -0.321 OA
BRANCH  29  30
HETATM   30  C2  UNL     1     -64.057 -25.184 -22.003  1.00  0.00     0.174 C 
HETATM   31  C1  UNL     1     -62.649 -24.820 -22.389  1.00  0.00     0.034 C 
ENDBRANCH  29  30
ENDBRANCH  27  29
ENDBRANCH  26  27
ENDBRANCH  24  26
ENDBRANCH   1  24
BRANCH   7  32
HETATM   32  N8  UNL     1     -62.928 -19.333 -25.370  1.00  0.00    -0.383 N 
ATOM     33  H82 UNL     1     -62.759 -19.834 -26.242  1.00  0.00     0.157 HD
ATOM     34  H81 UNL     1     -62.926 -18.314 -25.325  1.00  0.00     0.157 HD
ENDBRANCH   7  32
BRANCH   8  35
HETATM   35  N9  UNL     1     -65.464 -19.976 -24.882  1.00  0.00    -0.108 N 
HETATM   36  O5  UNL     1     -66.071 -18.894 -24.787  1.00  0.00    -0.531 OA
HETATM   37  O6  UNL     1     -65.777 -20.792 -25.936  1.00  0.00    -0.531 OA
ENDBRANCH   8  35
TORSDOF 11
ENDMDL
