MODEL 1
REMARK VINA RESULT: -6.071730673      0.000      0.000
REMARK  10 active torsions:
REMARK  status: ('A' for Active; 'I' for Inactive)
REMARK    1  A    between atoms: C2_2  and  C3_3 
REMARK    2  A    between atoms: C3_3  and  O2_5 
REMARK    3  A    between atoms: O2_5  and  C4_6 
REMARK    4  A    between atoms: C4_6  and  C6_8 
REMARK    5  A    between atoms: C6_8  and  C7_9 
REMARK    6  A    between atoms: C6_8  and  N4_18 
REMARK    7  A    between atoms: C7_9  and  N1_10 
REMARK    8  A    between atoms: C7_9  and  N2_14 
REMARK    9  A    between atoms: N5_21  and  C11_22 
REMARK   10  A    between atoms: C14_28  and  N8_29 
ROOT
HETATM    1  N2  UNL     1     -60.282 -20.766 -21.349  1.00  0.00    -0.298 N 
ATOM      2  H2  UNL     1     -60.242 -20.021 -20.654  1.00  0.00     0.173 HD
HETATM    3  C8  UNL     1     -59.079 -21.314 -21.806  1.00  0.00     0.179 C 
HETATM    4  N3  UNL     1     -58.068 -21.788 -22.176  1.00  0.00    -0.172 NA
ENDROOT
BRANCH   1   5
HETATM    5  C7  UNL     1     -61.577 -21.203 -21.810  1.00  0.00     0.316 C 
BRANCH   5   6
HETATM    6  C6  UNL     1     -62.207 -20.212 -22.769  1.00  0.00     0.167 C 
BRANCH   6   7
HETATM    7  C4  UNL     1     -61.418 -18.926 -22.854  1.00  0.00     0.154 C 
HETATM    8  C5  UNL     1     -61.318 -18.458 -24.315  1.00  0.00     0.042 C 
BRANCH   7   9
HETATM    9  O2  UNL     1     -61.987 -17.863 -22.163  1.00  0.00    -0.314 OA
BRANCH   9  10
HETATM   10  C3  UNL     1     -61.305 -17.179 -21.196  1.00  0.00     0.258 C 
HETATM   11  O1  UNL     1     -61.309 -15.908 -21.252  1.00  0.00    -0.265 OA
BRANCH  10  12
HETATM   12  C2  UNL     1     -60.565 -17.845 -20.092  1.00  0.00     0.106 C 
HETATM   13  C1  UNL     1     -61.534 -18.590 -19.204  1.00  0.00     0.015 C 
ENDBRANCH  10  12
ENDBRANCH   9  10
ENDBRANCH   7   9
ENDBRANCH   6   7
BRANCH   6  14
HETATM   14  N4  UNL     1     -63.589 -20.058 -22.639  1.00  0.00    -0.360 N 
HETATM   15  C9  UNL     1     -64.405 -19.874 -23.750  1.00  0.00     0.083 C 
HETATM   16  C10 UNL     1     -65.756 -19.292 -23.485  1.00  0.00     0.169 C 
HETATM   17  N5  UNL     1     -66.015 -18.946 -22.107  1.00  0.00    -0.357 N 
HETATM   18  C15 UNL     1     -65.129 -19.219 -21.018  1.00  0.00     0.169 C 
HETATM   19  C16 UNL     1     -64.177 -20.335 -21.394  1.00  0.00     0.083 C 
BRANCH  17  20
HETATM   20  C11 UNL     1     -67.252 -18.290 -21.843  1.00  0.00     0.122 A 
HETATM   21  C12 UNL     1     -67.278 -17.016 -21.342  1.00  0.00     0.094 A 
HETATM   22  C13 UNL     1     -68.500 -16.393 -21.083  1.00  0.00     0.135 A 
HETATM   23  N6  UNL     1     -68.526 -15.065 -20.561  1.00  0.00    -0.082 NA
HETATM   24  N7  UNL     1     -69.634 -17.041 -21.324  1.00  0.00    -0.179 N 
HETATM   25  C14 UNL     1     -69.623 -18.294 -21.818  1.00  0.00     0.678 A 
ATOM     26  H7  UNL     1     -70.525 -16.583 -21.134  1.00  0.00     0.185 HD
HETATM   27  N9  UNL     1     -68.443 -18.889 -22.065  1.00  0.00    -0.177 N 
ATOM     28  H9  UNL     1     -68.447 -19.838 -22.438  1.00  0.00     0.185 HD
BRANCH  25  29
HETATM   29  N8  UNL     1     -70.768 -18.852 -22.023  1.00  0.00    -0.234 N 
ATOM     30  H82 UNL     1     -71.646 -18.516 -21.625  1.00  0.00     0.174 HD
ATOM     31  H81 UNL     1     -70.780 -19.676 -22.624  1.00  0.00     0.174 HD
ENDBRANCH  25  29
ENDBRANCH  17  20
ENDBRANCH   6  14
ENDBRANCH   5   6
BRANCH   5  32
HETATM   32  N1  UNL     1     -61.370 -22.492 -22.464  1.00  0.00    -0.056 N 
ATOM     33  H13 UNL     1     -60.499 -22.512 -22.995  1.00  0.00     0.276 HD
ATOM     34  H12 UNL     1     -61.156 -23.228 -21.791  1.00  0.00     0.276 HD
ATOM     35  H11 UNL     1     -62.173 -22.733 -23.046  1.00  0.00     0.276 HD
ENDBRANCH   5  32
ENDBRANCH   1   5
TORSDOF 10
ENDMDL
MODEL 2
REMARK VINA RESULT: -5.891291594      2.892      7.410
REMARK  10 active torsions:
REMARK  status: ('A' for Active; 'I' for Inactive)
REMARK    1  A    between atoms: C2_2  and  C3_3 
REMARK    2  A    between atoms: C3_3  and  O2_5 
REMARK    3  A    between atoms: O2_5  and  C4_6 
REMARK    4  A    between atoms: C4_6  and  C6_8 
REMARK    5  A    between atoms: C6_8  and  C7_9 
REMARK    6  A    between atoms: C6_8  and  N4_18 
REMARK    7  A    between atoms: C7_9  and  N1_10 
REMARK    8  A    between atoms: C7_9  and  N2_14 
REMARK    9  A    between atoms: N5_21  and  C11_22 
REMARK   10  A    between atoms: C14_28  and  N8_29 
ROOT
HETATM    1  N2  UNL     1     -68.744 -19.137 -24.783  1.00  0.00    -0.298 N 
ATOM      2  H2  UNL     1     -69.585 -19.421 -24.282  1.00  0.00     0.173 HD
HETATM    3  C8  UNL     1     -68.686 -17.840 -25.304  1.00  0.00     0.179 C 
HETATM    4  N3  UNL     1     -68.629 -16.743 -25.724  1.00  0.00    -0.172 NA
ENDROOT
BRANCH   1   5
HETATM    5  C7  UNL     1     -67.674 -20.094 -24.920  1.00  0.00     0.316 C 
BRANCH   5   6
HETATM    6  C6  UNL     1     -67.233 -20.657 -23.583  1.00  0.00     0.167 C 
BRANCH   6   7
HETATM    7  C4  UNL     1     -68.124 -20.194 -22.454  1.00  0.00     0.154 C 
HETATM    8  C5  UNL     1     -68.429 -21.364 -21.503  1.00  0.00     0.042 C 
BRANCH   7   9
HETATM    9  O2  UNL     1     -67.563 -19.206 -21.654  1.00  0.00    -0.314 OA
BRANCH   9  10
HETATM   10  C3  UNL     1     -67.950 -17.898 -21.741  1.00  0.00     0.258 C 
HETATM   11  O1  UNL     1     -69.196 -17.649 -21.790  1.00  0.00    -0.265 OA
BRANCH  10  12
HETATM   12  C2  UNL     1     -66.991 -16.763 -21.778  1.00  0.00     0.106 C 
HETATM   13  C1  UNL     1     -67.437 -15.687 -20.815  1.00  0.00     0.015 C 
ENDBRANCH  10  12
ENDBRANCH   9  10
ENDBRANCH   7   9
ENDBRANCH   6   7
BRANCH   6  14
HETATM   14  N4  UNL     1     -65.861 -20.583 -23.331  1.00  0.00    -0.360 N 
HETATM   15  C9  UNL     1     -65.174 -21.642 -22.748  1.00  0.00     0.083 C 
HETATM   16  C10 UNL     1     -63.853 -21.309 -22.132  1.00  0.00     0.169 C 
HETATM   17  N5  UNL     1     -63.490 -19.912 -22.178  1.00  0.00    -0.357 N 
HETATM   18  C15 UNL     1     -64.242 -18.896 -22.846  1.00  0.00     0.169 C 
HETATM   19  C16 UNL     1     -65.136 -19.522 -23.897  1.00  0.00     0.083 C 
BRANCH  17  20
HETATM   20  C11 UNL     1     -62.288 -19.550 -21.502  1.00  0.00     0.122 A 
HETATM   21  C12 UNL     1     -61.267 -20.451 -21.356  1.00  0.00     0.094 A 
HETATM   22  C13 UNL     1     -60.101 -20.080 -20.685  1.00  0.00     0.135 A 
HETATM   23  N6  UNL     1     -59.037 -21.019 -20.533  1.00  0.00    -0.082 NA
HETATM   24  N7  UNL     1     -59.988 -18.853 -20.190  1.00  0.00    -0.179 N 
HETATM   25  C14 UNL     1     -60.984 -17.957 -20.328  1.00  0.00     0.678 A 
ATOM     26  H7  UNL     1     -59.135 -18.585 -19.700  1.00  0.00     0.185 HD
HETATM   27  N9  UNL     1     -62.104 -18.320 -20.975  1.00  0.00    -0.177 N 
ATOM     28  H9  UNL     1     -62.852 -17.633 -21.072  1.00  0.00     0.185 HD
BRANCH  25  29
HETATM   29  N8  UNL     1     -60.793 -16.787 -19.817  1.00  0.00    -0.234 N 
ATOM     30  H82 UNL     1     -59.883 -16.327 -19.771  1.00  0.00     0.174 HD
ATOM     31  H81 UNL     1     -61.611 -16.306 -19.444  1.00  0.00     0.174 HD
ENDBRANCH  25  29
ENDBRANCH  17  20
ENDBRANCH   6  14
ENDBRANCH   5   6
BRANCH   5  32
HETATM   32  N1  UNL     1     -68.177 -21.158 -25.786  1.00  0.00    -0.056 N 
ATOM     33  H13 UNL     1     -68.232 -22.050 -25.295  1.00  0.00     0.276 HD
ATOM     34  H12 UNL     1     -69.168 -21.037 -25.995  1.00  0.00     0.276 HD
ATOM     35  H11 UNL     1     -67.616 -21.226 -26.635  1.00  0.00     0.276 HD
ENDBRANCH   5  32
ENDBRANCH   1   5
TORSDOF 10
ENDMDL
MODEL 3
REMARK VINA RESULT: -5.875535312      1.884      2.486
REMARK  10 active torsions:
REMARK  status: ('A' for Active; 'I' for Inactive)
REMARK    1  A    between atoms: C2_2  and  C3_3 
REMARK    2  A    between atoms: C3_3  and  O2_5 
REMARK    3  A    between atoms: O2_5  and  C4_6 
REMARK    4  A    between atoms: C4_6  and  C6_8 
REMARK    5  A    between atoms: C6_8  and  C7_9 
REMARK    6  A    between atoms: C6_8  and  N4_18 
REMARK    7  A    between atoms: C7_9  and  N1_10 
REMARK    8  A    between atoms: C7_9  and  N2_14 
REMARK    9  A    between atoms: N5_21  and  C11_22 
REMARK   10  A    between atoms: C14_28  and  N8_29 
ROOT
HETATM    1  N2  UNL     1     -61.975 -23.013 -22.339  1.00  0.00    -0.298 N 
ATOM      2  H2  UNL     1     -61.262 -22.499 -21.821  1.00  0.00     0.173 HD
HETATM    3  C8  UNL     1     -61.622 -24.238 -22.918  1.00  0.00     0.179 C 
HETATM    4  N3  UNL     1     -61.330 -25.276 -23.387  1.00  0.00    -0.172 NA
ENDROOT
BRANCH   1   5
HETATM    5  C7  UNL     1     -63.295 -22.443 -22.438  1.00  0.00     0.316 C 
BRANCH   5   6
HETATM    6  C6  UNL     1     -63.265 -21.013 -22.944  1.00  0.00     0.167 C 
BRANCH   6   7
HETATM    7  C4  UNL     1     -62.087 -20.244 -22.394  1.00  0.00     0.154 C 
HETATM    8  C5  UNL     1     -61.242 -19.670 -23.544  1.00  0.00     0.042 C 
BRANCH   7   9
HETATM    9  O2  UNL     1     -62.437 -19.150 -21.612  1.00  0.00    -0.314 OA
BRANCH   9  10
HETATM   10  C3  UNL     1     -61.868 -18.920 -20.391  1.00  0.00     0.258 C 
HETATM   11  O1  UNL     1     -62.201 -19.681 -19.428  1.00  0.00    -0.265 OA
BRANCH  10  12
HETATM   12  C2  UNL     1     -60.886 -17.834 -20.138  1.00  0.00     0.106 C 
HETATM   13  C1  UNL     1     -61.315 -16.579 -20.862  1.00  0.00     0.015 C 
ENDBRANCH  10  12
ENDBRANCH   9  10
ENDBRANCH   7   9
ENDBRANCH   6   7
BRANCH   6  14
HETATM   14  N4  UNL     1     -64.490 -20.344 -22.902  1.00  0.00    -0.360 N 
HETATM   15  C9  UNL     1     -65.028 -19.746 -24.036  1.00  0.00     0.083 C 
HETATM   16  C10 UNL     1     -66.079 -18.710 -23.798  1.00  0.00     0.169 C 
HETATM   17  N5  UNL     1     -66.359 -18.428 -22.409  1.00  0.00    -0.357 N 
HETATM   18  C15 UNL     1     -65.788 -19.133 -21.304  1.00  0.00     0.169 C 
HETATM   19  C16 UNL     1     -65.290 -20.490 -21.757  1.00  0.00     0.083 C 
BRANCH  17  20
HETATM   20  C11 UNL     1     -67.277 -17.369 -22.153  1.00  0.00     0.122 A 
HETATM   21  C12 UNL     1     -67.938 -16.749 -23.180  1.00  0.00     0.094 A 
HETATM   22  C13 UNL     1     -68.828 -15.709 -22.909  1.00  0.00     0.135 A 
HETATM   23  N6  UNL     1     -69.516 -15.063 -23.980  1.00  0.00    -0.082 NA
HETATM   24  N7  UNL     1     -69.030 -15.325 -21.654  1.00  0.00    -0.179 N 
HETATM   25  C14 UNL     1     -68.387 -15.926 -20.635  1.00  0.00     0.678 A 
ATOM     26  H7  UNL     1     -69.680 -14.564 -21.460  1.00  0.00     0.185 HD
HETATM   27  N9  UNL     1     -67.531 -16.927 -20.901  1.00  0.00    -0.177 N 
ATOM     28  H9  UNL     1     -67.050 -17.375 -20.121  1.00  0.00     0.185 HD
BRANCH  25  29
HETATM   29  N8  UNL     1     -68.640 -15.492 -19.446  1.00  0.00    -0.234 N 
ATOM     30  H82 UNL     1     -69.135 -14.621 -19.251  1.00  0.00     0.174 HD
ATOM     31  H81 UNL     1     -68.321 -16.066 -18.666  1.00  0.00     0.174 HD
ENDBRANCH  25  29
ENDBRANCH  17  20
ENDBRANCH   6  14
ENDBRANCH   5   6
BRANCH   5  32
HETATM   32  N1  UNL     1     -64.048 -23.297 -23.353  1.00  0.00    -0.056 N 
ATOM     33  H13 UNL     1     -64.359 -22.785 -24.179  1.00  0.00     0.276 HD
ATOM     34  H12 UNL     1     -63.447 -23.980 -23.814  1.00  0.00     0.276 HD
ATOM     35  H11 UNL     1     -64.827 -23.743 -22.869  1.00  0.00     0.276 HD
ENDBRANCH   5  32
ENDBRANCH   1   5
TORSDOF 10
ENDMDL
MODEL 4
REMARK VINA RESULT: -5.856820212      1.843      2.300
REMARK  10 active torsions:
REMARK  status: ('A' for Active; 'I' for Inactive)
REMARK    1  A    between atoms: C2_2  and  C3_3 
REMARK    2  A    between atoms: C3_3  and  O2_5 
REMARK    3  A    between atoms: O2_5  and  C4_6 
REMARK    4  A    between atoms: C4_6  and  C6_8 
REMARK    5  A    between atoms: C6_8  and  C7_9 
REMARK    6  A    between atoms: C6_8  and  N4_18 
REMARK    7  A    between atoms: C7_9  and  N1_10 
REMARK    8  A    between atoms: C7_9  and  N2_14 
REMARK    9  A    between atoms: N5_21  and  C11_22 
REMARK   10  A    between atoms: C14_28  and  N8_29 
ROOT
HETATM    1  N2  UNL     1     -61.895 -23.010 -22.406  1.00  0.00    -0.298 N 
ATOM      2  H2  UNL     1     -61.144 -22.513 -21.926  1.00  0.00     0.173 HD
HETATM    3  C8  UNL     1     -61.594 -24.228 -23.027  1.00  0.00     0.179 C 
HETATM    4  N3  UNL     1     -61.347 -25.261 -23.531  1.00  0.00    -0.172 NA
ENDROOT
BRANCH   1   5
HETATM    5  C7  UNL     1     -63.211 -22.422 -22.411  1.00  0.00     0.316 C 
BRANCH   5   6
HETATM    6  C6  UNL     1     -63.200 -20.996 -22.925  1.00  0.00     0.167 C 
BRANCH   6   7
HETATM    7  C4  UNL     1     -62.033 -20.207 -22.379  1.00  0.00     0.154 C 
HETATM    8  C5  UNL     1     -61.203 -19.617 -23.531  1.00  0.00     0.042 C 
BRANCH   7   9
HETATM    9  O2  UNL     1     -62.398 -19.120 -21.593  1.00  0.00    -0.314 OA
BRANCH   9  10
HETATM   10  C3  UNL     1     -61.825 -18.881 -20.376  1.00  0.00     0.258 C 
HETATM   11  O1  UNL     1     -62.154 -19.636 -19.406  1.00  0.00    -0.265 OA
BRANCH  10  12
HETATM   12  C2  UNL     1     -60.844 -17.792 -20.134  1.00  0.00     0.106 C 
HETATM   13  C1  UNL     1     -61.250 -16.558 -20.906  1.00  0.00     0.015 C 
ENDBRANCH  10  12
ENDBRANCH   9  10
ENDBRANCH   7   9
ENDBRANCH   6   7
BRANCH   6  14
HETATM   14  N4  UNL     1     -64.434 -20.342 -22.886  1.00  0.00    -0.360 N 
HETATM   15  C9  UNL     1     -65.001 -19.797 -24.034  1.00  0.00     0.083 C 
HETATM   16  C10 UNL     1     -66.062 -18.768 -23.817  1.00  0.00     0.169 C 
HETATM   17  N5  UNL     1     -66.323 -18.436 -22.435  1.00  0.00    -0.357 N 
HETATM   18  C15 UNL     1     -65.722 -19.089 -21.314  1.00  0.00     0.169 C 
HETATM   19  C16 UNL     1     -65.213 -20.455 -21.723  1.00  0.00     0.083 C 
BRANCH  17  20
HETATM   20  C11 UNL     1     -67.252 -17.381 -22.204  1.00  0.00     0.122 A 
HETATM   21  C12 UNL     1     -67.502 -16.930 -20.935  1.00  0.00     0.094 A 
HETATM   22  C13 UNL     1     -68.421 -15.902 -20.729  1.00  0.00     0.135 A 
HETATM   23  N6  UNL     1     -68.681 -15.433 -19.406  1.00  0.00    -0.082 NA
HETATM   24  N7  UNL     1     -69.051 -15.363 -21.767  1.00  0.00    -0.179 N 
HETATM   25  C14 UNL     1     -68.815 -15.796 -23.019  1.00  0.00     0.678 A 
ATOM     26  H7  UNL     1     -69.723 -14.612 -21.612  1.00  0.00     0.185 HD
HETATM   27  N9  UNL     1     -67.928 -16.787 -23.212  1.00  0.00    -0.177 N 
ATOM     28  H9  UNL     1     -67.758 -17.107 -24.166  1.00  0.00     0.185 HD
BRANCH  25  29
HETATM   29  N8  UNL     1     -69.469 -15.219 -23.971  1.00  0.00    -0.234 N 
ATOM     30  H82 UNL     1     -70.311 -15.606 -24.399  1.00  0.00     0.174 HD
ATOM     31  H81 UNL     1     -69.111 -14.324 -24.303  1.00  0.00     0.174 HD
ENDBRANCH  25  29
ENDBRANCH  17  20
ENDBRANCH   6  14
ENDBRANCH   5   6
BRANCH   5  32
HETATM   32  N1  UNL     1     -64.040 -23.270 -23.264  1.00  0.00    -0.056 N 
ATOM     33  H13 UNL     1     -63.610 -23.426 -24.176  1.00  0.00     0.276 HD
ATOM     34  H12 UNL     1     -64.055 -24.236 -22.936  1.00  0.00     0.276 HD
ATOM     35  H11 UNL     1     -64.980 -22.884 -23.349  1.00  0.00     0.276 HD
ENDBRANCH   5  32
ENDBRANCH   1   5
TORSDOF 10
ENDMDL
MODEL 5
REMARK VINA RESULT: -5.813086097      0.567      1.528
REMARK  10 active torsions:
REMARK  status: ('A' for Active; 'I' for Inactive)
REMARK    1  A    between atoms: C2_2  and  C3_3 
REMARK    2  A    between atoms: C3_3  and  O2_5 
REMARK    3  A    between atoms: O2_5  and  C4_6 
REMARK    4  A    between atoms: C4_6  and  C6_8 
REMARK    5  A    between atoms: C6_8  and  C7_9 
REMARK    6  A    between atoms: C6_8  and  N4_18 
REMARK    7  A    between atoms: C7_9  and  N1_10 
REMARK    8  A    between atoms: C7_9  and  N2_14 
REMARK    9  A    between atoms: N5_21  and  C11_22 
REMARK   10  A    between atoms: C14_28  and  N8_29 
ROOT
HETATM    1  N2  UNL     1     -60.371 -20.816 -21.305  1.00  0.00    -0.298 N 
ATOM      2  H2  UNL     1     -60.356 -20.127 -20.552  1.00  0.00     0.173 HD
HETATM    3  C8  UNL     1     -59.150 -21.307 -21.781  1.00  0.00     0.179 C 
HETATM    4  N3  UNL     1     -58.124 -21.734 -22.166  1.00  0.00    -0.172 NA
ENDROOT
BRANCH   1   5
HETATM    5  C7  UNL     1     -61.649 -21.233 -21.826  1.00  0.00     0.316 C 
BRANCH   5   6
HETATM    6  C6  UNL     1     -62.245 -20.210 -22.772  1.00  0.00     0.167 C 
BRANCH   6   7
HETATM    7  C4  UNL     1     -61.439 -18.931 -22.802  1.00  0.00     0.154 C 
HETATM    8  C5  UNL     1     -61.291 -18.429 -24.248  1.00  0.00     0.042 C 
BRANCH   7   9
HETATM    9  O2  UNL     1     -62.017 -17.878 -22.103  1.00  0.00    -0.314 OA
BRANCH   9  10
HETATM   10  C3  UNL     1     -61.331 -17.177 -21.152  1.00  0.00     0.258 C 
HETATM   11  O1  UNL     1     -61.324 -15.908 -21.239  1.00  0.00    -0.265 OA
BRANCH  10  12
HETATM   12  C2  UNL     1     -60.600 -17.822 -20.030  1.00  0.00     0.106 C 
HETATM   13  C1  UNL     1     -61.567 -18.606 -19.173  1.00  0.00     0.015 C 
ENDBRANCH  10  12
ENDBRANCH   9  10
ENDBRANCH   7   9
ENDBRANCH   6   7
BRANCH   6  14
HETATM   14  N4  UNL     1     -63.628 -20.043 -22.671  1.00  0.00    -0.360 N 
HETATM   15  C9  UNL     1     -64.413 -19.806 -23.794  1.00  0.00     0.083 C 
HETATM   16  C10 UNL     1     -65.763 -19.217 -23.540  1.00  0.00     0.169 C 
HETATM   17  N5  UNL     1     -66.053 -18.921 -22.157  1.00  0.00    -0.357 N 
HETATM   18  C15 UNL     1     -65.199 -19.247 -21.057  1.00  0.00     0.169 C 
HETATM   19  C16 UNL     1     -64.250 -20.360 -21.452  1.00  0.00     0.083 C 
BRANCH  17  20
HETATM   20  C11 UNL     1     -67.288 -18.260 -21.899  1.00  0.00     0.122 A 
HETATM   21  C12 UNL     1     -68.451 -18.693 -22.479  1.00  0.00     0.094 A 
HETATM   22  C13 UNL     1     -69.650 -18.027 -22.220  1.00  0.00     0.135 A 
HETATM   23  N6  UNL     1     -70.861 -18.479 -22.825  1.00  0.00    -0.082 NA
HETATM   24  N7  UNL     1     -69.657 -16.974 -21.410  1.00  0.00    -0.179 N 
HETATM   25  C14 UNL     1     -68.522 -16.539 -20.832  1.00  0.00     0.678 A 
ATOM     26  H7  UNL     1     -70.534 -16.490 -21.223  1.00  0.00     0.185 HD
HETATM   27  N9  UNL     1     -67.370 -17.183 -21.086  1.00  0.00    -0.177 N 
ATOM     28  H9  UNL     1     -66.516 -16.844 -20.642  1.00  0.00     0.185 HD
BRANCH  25  29
HETATM   29  N8  UNL     1     -68.616 -15.509 -20.059  1.00  0.00    -0.234 N 
ATOM     30  H82 UNL     1     -69.492 -15.027 -19.856  1.00  0.00     0.174 HD
ATOM     31  H81 UNL     1     -67.754 -15.170 -19.633  1.00  0.00     0.174 HD
ENDBRANCH  25  29
ENDBRANCH  17  20
ENDBRANCH   6  14
ENDBRANCH   5   6
BRANCH   5  32
HETATM   32  N1  UNL     1     -61.421 -22.501 -22.516  1.00  0.00    -0.056 N 
ATOM     33  H13 UNL     1     -60.613 -22.453 -23.137  1.00  0.00     0.276 HD
ATOM     34  H12 UNL     1     -61.082 -23.222 -21.879  1.00  0.00     0.276 HD
ATOM     35  H11 UNL     1     -62.262 -22.797 -23.011  1.00  0.00     0.276 HD
ENDBRANCH   5  32
ENDBRANCH   1   5
TORSDOF 10
ENDMDL
