MODEL 1
REMARK VINA RESULT: -3.943275627      0.000      0.000
REMARK  1 active torsions:
REMARK  status: ('A' for Active; 'I' for Inactive)
REMARK    1  A    between atoms: C3_3  and  N1_4 
ROOT
HETATM    1  C1  UNL     1      15.482  19.346  57.368  1.00  0.00     0.014 C 
HETATM    2  C2  UNL     1      16.120  18.481  57.917  1.00  0.00    -0.097 C 
HETATM    3  C3  UNL     1      16.912  17.411  58.567  1.00  0.00     0.220 C 
ENDROOT
BRANCH   3   4
HETATM    4  N1  UNL     1      17.324  16.423  57.598  1.00  0.00    -0.354 N 
HETATM    5  C4  UNL     1      16.562  15.337  57.439  1.00  0.00     0.093 A 
HETATM    6  C5  UNL     1      16.866  14.330  56.539  1.00  0.00     0.045 A 
HETATM    7  C6  UNL     1      18.003  14.463  55.779  1.00  0.00     0.069 A 
HETATM    8  N2  UNL     1      18.301  13.424  54.862  1.00  0.00    -0.101 NA
HETATM    9  C7  UNL     1      18.773  15.579  55.951  1.00  0.00     0.084 A 
HETATM   10  C8  UNL     1      19.959  15.737  55.172  1.00  0.00     0.102 C 
HETATM   11  C9  UNL     1      18.430  16.564  56.867  1.00  0.00     0.116 A 
HETATM   12  N3  UNL     1      20.933  15.857  54.541  1.00  0.00    -0.191 NA
ENDBRANCH   3   4
TORSDOF 1
ENDMDL
MODEL 2
REMARK VINA RESULT: -3.828925223      2.503      4.073
REMARK  1 active torsions:
REMARK  status: ('A' for Active; 'I' for Inactive)
REMARK    1  A    between atoms: C3_3  and  N1_4 
ROOT
HETATM    1  C1  UNL     1      22.152  15.664  60.371  1.00  0.00     0.014 C 
HETATM    2  C2  UNL     1      21.877  16.257  59.357  1.00  0.00    -0.097 C 
HETATM    3  C3  UNL     1      21.515  16.978  58.115  1.00  0.00     0.220 C 
ENDROOT
BRANCH   3   4
HETATM    4  N1  UNL     1      20.175  16.635  57.700  1.00  0.00    -0.354 N 
HETATM    5  C4  UNL     1      19.160  17.365  58.171  1.00  0.00     0.093 A 
HETATM    6  C5  UNL     1      17.839  17.120  57.837  1.00  0.00     0.045 A 
HETATM    7  C6  UNL     1      17.570  16.078  56.981  1.00  0.00     0.069 A 
HETATM    8  N2  UNL     1      16.213  15.841  56.649  1.00  0.00    -0.101 NA
HETATM    9  C7  UNL     1      18.617  15.340  56.507  1.00  0.00     0.084 A 
HETATM   10  C8  UNL     1      18.360  14.253  55.617  1.00  0.00     0.102 C 
HETATM   11  C9  UNL     1      19.927  15.621  56.869  1.00  0.00     0.116 A 
HETATM   12  N3  UNL     1      18.144  13.359  54.899  1.00  0.00    -0.191 NA
ENDBRANCH   3   4
TORSDOF 1
ENDMDL
MODEL 3
REMARK VINA RESULT: -3.823711673      0.882      1.477
REMARK  1 active torsions:
REMARK  status: ('A' for Active; 'I' for Inactive)
REMARK    1  A    between atoms: C3_3  and  N1_4 
ROOT
HETATM    1  C1  UNL     1      18.983  18.308  59.985  1.00  0.00     0.014 C 
HETATM    2  C2  UNL     1      18.035  17.961  59.323  1.00  0.00    -0.097 C 
HETATM    3  C3  UNL     1      16.885  17.516  58.502  1.00  0.00     0.220 C 
ENDROOT
BRANCH   3   4
HETATM    4  N1  UNL     1      17.297  16.505  57.557  1.00  0.00    -0.354 N 
HETATM    5  C4  UNL     1      16.552  15.401  57.446  1.00  0.00     0.093 A 
HETATM    6  C5  UNL     1      16.857  14.373  56.572  1.00  0.00     0.045 A 
HETATM    7  C6  UNL     1      17.978  14.502  55.787  1.00  0.00     0.069 A 
HETATM    8  N2  UNL     1      18.278  13.441  54.896  1.00  0.00    -0.101 NA
HETATM    9  C7  UNL     1      18.730  15.636  55.909  1.00  0.00     0.084 A 
HETATM   10  C8  UNL     1      19.898  15.791  55.103  1.00  0.00     0.102 C 
HETATM   11  C9  UNL     1      18.387  16.644  56.800  1.00  0.00     0.116 A 
HETATM   12  N3  UNL     1      20.858  15.908  54.450  1.00  0.00    -0.191 NA
ENDBRANCH   3   4
TORSDOF 1
ENDMDL
MODEL 4
REMARK VINA RESULT: -3.820188898      2.205      4.258
REMARK  1 active torsions:
REMARK  status: ('A' for Active; 'I' for Inactive)
REMARK    1  A    between atoms: C3_3  and  N1_4 
ROOT
HETATM    1  C1  UNL     1      17.448  16.794  51.485  1.00  0.00     0.014 C 
HETATM    2  C2  UNL     1      18.016  16.070  52.267  1.00  0.00    -0.097 C 
HETATM    3  C3  UNL     1      18.693  15.186  53.243  1.00  0.00     0.220 C 
ENDROOT
BRANCH   3   4
HETATM    4  N1  UNL     1      18.135  15.364  54.563  1.00  0.00    -0.354 N 
HETATM    5  C4  UNL     1      17.665  14.288  55.201  1.00  0.00     0.093 A 
HETATM    6  C5  UNL     1      17.110  14.348  56.468  1.00  0.00     0.045 A 
HETATM    7  C6  UNL     1      17.045  15.573  57.088  1.00  0.00     0.069 A 
HETATM    8  N2  UNL     1      16.474  15.618  58.385  1.00  0.00    -0.101 NA
HETATM    9  C7  UNL     1      17.529  16.664  56.425  1.00  0.00     0.084 A 
HETATM   10  C8  UNL     1      17.471  17.946  57.051  1.00  0.00     0.102 C 
HETATM   11  C9  UNL     1      18.078  16.558  55.154  1.00  0.00     0.116 A 
HETATM   12  N3  UNL     1      17.410  18.994  57.562  1.00  0.00    -0.191 NA
ENDBRANCH   3   4
TORSDOF 1
ENDMDL
MODEL 5
REMARK VINA RESULT: -3.813148569      2.552      4.208
REMARK  1 active torsions:
REMARK  status: ('A' for Active; 'I' for Inactive)
REMARK    1  A    between atoms: C3_3  and  N1_4 
ROOT
HETATM    1  C1  UNL     1      21.947  15.644  60.381  1.00  0.00     0.014 C 
HETATM    2  C2  UNL     1      21.514  16.442  59.586  1.00  0.00    -0.097 C 
HETATM    3  C3  UNL     1      20.964  17.406  58.605  1.00  0.00     0.220 C 
ENDROOT
BRANCH   3   4
HETATM    4  N1  UNL     1      19.940  16.782  57.799  1.00  0.00    -0.354 N 
HETATM    5  C4  UNL     1      20.281  15.736  57.042  1.00  0.00     0.093 A 
HETATM    6  C5  UNL     1      19.378  15.067  56.233  1.00  0.00     0.045 A 
HETATM    7  C6  UNL     1      18.076  15.507  56.217  1.00  0.00     0.069 A 
HETATM    8  N2  UNL     1      17.163  14.811  55.384  1.00  0.00    -0.101 NA
HETATM    9  C7  UNL     1      17.741  16.577  56.996  1.00  0.00     0.084 A 
HETATM   10  C8  UNL     1      16.393  17.049  56.994  1.00  0.00     0.102 C 
HETATM   11  C9  UNL     1      18.679  17.218  57.793  1.00  0.00     0.116 A 
HETATM   12  N3  UNL     1      15.293  17.439  56.980  1.00  0.00    -0.191 NA
ENDBRANCH   3   4
TORSDOF 1
ENDMDL
