MODEL 1
REMARK VINA RESULT: -3.821965753      0.000      0.000
REMARK  1 active torsions:
REMARK  status: ('A' for Active; 'I' for Inactive)
REMARK    1  A    between atoms: O1_2  and  C2_3 
ROOT
HETATM    1  C2  UNL     1      18.332  15.977  54.204  1.00  0.00     0.144 A 
HETATM    2  C3  UNL     1      18.532  14.648  53.865  1.00  0.00     0.056 A 
HETATM    3  C4  UNL     1      18.184  13.692  54.796  1.00  0.00     0.007 A 
HETATM    4  C5  UNL     1      17.657  14.024  56.019  1.00  0.00     0.041 A 
HETATM    5  C6  UNL     1      17.469  15.355  56.326  1.00  0.00     0.117 A 
HETATM    6  C7  UNL     1      16.916  15.766  57.603  1.00  0.00     0.118 C 
HETATM    7  N1  UNL     1      16.460  16.091  58.620  1.00  0.00    -0.190 NA
HETATM    8  N2  UNL     1      17.810  16.283  55.415  1.00  0.00    -0.324 N 
HETATM    9  C8  UNL     1      17.593  17.688  55.788  1.00  0.00     0.159 C 
ENDROOT
BRANCH   1  10
HETATM   10  O1  UNL     1      18.656  16.987  53.323  1.00  0.00    -0.341 OA
HETATM   11  C1  UNL     1      18.261  17.010  51.988  1.00  0.00     0.211 C 
ENDBRANCH   1  10
TORSDOF 1
ENDMDL
MODEL 2
REMARK VINA RESULT: -3.681504577      1.554      1.711
REMARK  1 active torsions:
REMARK  status: ('A' for Active; 'I' for Inactive)
REMARK    1  A    between atoms: O1_2  and  C2_3 
ROOT
HETATM    1  C2  UNL     1      18.834  15.135  55.366  1.00  0.00     0.144 A 
HETATM    2  C3  UNL     1      18.050  14.010  55.159  1.00  0.00     0.056 A 
HETATM    3  C4  UNL     1      16.932  13.855  55.950  1.00  0.00     0.007 A 
HETATM    4  C5  UNL     1      16.589  14.771  56.914  1.00  0.00     0.041 A 
HETATM    5  C6  UNL     1      17.388  15.879  57.095  1.00  0.00     0.117 A 
HETATM    6  C7  UNL     1      17.076  16.881  58.098  1.00  0.00     0.118 C 
HETATM    7  N1  UNL     1      16.816  17.687  58.892  1.00  0.00    -0.190 NA
HETATM    8  N2  UNL     1      18.477  16.025  56.322  1.00  0.00    -0.324 N 
HETATM    9  C8  UNL     1      19.299  17.223  56.553  1.00  0.00     0.159 C 
ENDROOT
BRANCH   1  10
HETATM   10  O1  UNL     1      19.966  15.355  54.613  1.00  0.00    -0.341 OA
HETATM   11  C1  UNL     1      19.952  15.876  53.321  1.00  0.00     0.211 C 
ENDBRANCH   1  10
TORSDOF 1
ENDMDL
MODEL 3
REMARK VINA RESULT: -3.613950260      2.000      3.909
REMARK  1 active torsions:
REMARK  status: ('A' for Active; 'I' for Inactive)
REMARK    1  A    between atoms: O1_2  and  C2_3 
ROOT
HETATM    1  C2  UNL     1      18.083  15.540  56.475  1.00  0.00     0.144 A 
HETATM    2  C3  UNL     1      17.705  14.226  56.245  1.00  0.00     0.056 A 
HETATM    3  C4  UNL     1      17.969  13.693  55.002  1.00  0.00     0.007 A 
HETATM    4  C5  UNL     1      18.583  14.420  54.013  1.00  0.00     0.041 A 
HETATM    5  C6  UNL     1      18.947  15.725  54.272  1.00  0.00     0.117 A 
HETATM    6  C7  UNL     1      19.599  16.542  53.266  1.00  0.00     0.118 C 
HETATM    7  N1  UNL     1      20.133  17.189  52.463  1.00  0.00    -0.190 NA
HETATM    8  N2  UNL     1      18.688  16.240  55.486  1.00  0.00    -0.324 N 
HETATM    9  C8  UNL     1      19.094  17.634  55.714  1.00  0.00     0.159 C 
ENDROOT
BRANCH   1  10
HETATM   10  O1  UNL     1      17.851  16.139  57.694  1.00  0.00    -0.341 OA
HETATM   11  C1  UNL     1      16.581  16.408  58.200  1.00  0.00     0.211 C 
ENDBRANCH   1  10
TORSDOF 1
ENDMDL
MODEL 4
REMARK VINA RESULT: -3.539783345      2.160      3.774
REMARK  1 active torsions:
REMARK  status: ('A' for Active; 'I' for Inactive)
REMARK    1  A    between atoms: O1_2  and  C2_3 
ROOT
HETATM    1  C2  UNL     1      17.408  15.816  56.836  1.00  0.00     0.144 A 
HETATM    2  C3  UNL     1      16.713  14.618  56.767  1.00  0.00     0.056 A 
HETATM    3  C4  UNL     1      17.097  13.712  55.801  1.00  0.00     0.007 A 
HETATM    4  C5  UNL     1      18.127  13.967  54.930  1.00  0.00     0.041 A 
HETATM    5  C6  UNL     1      18.798  15.168  55.025  1.00  0.00     0.117 A 
HETATM    6  C7  UNL     1      19.895  15.494  54.133  1.00  0.00     0.118 C 
HETATM    7  N1  UNL     1      20.781  15.746  53.426  1.00  0.00    -0.190 NA
HETATM    8  N2  UNL     1      18.420  16.048  55.969  1.00  0.00    -0.324 N 
HETATM    9  C8  UNL     1      19.166  17.314  56.030  1.00  0.00     0.159 C 
ENDROOT
BRANCH   1  10
HETATM   10  O1  UNL     1      17.079  16.768  57.777  1.00  0.00    -0.341 OA
HETATM   11  C1  UNL     1      16.008  17.650  57.649  1.00  0.00     0.211 C 
ENDBRANCH   1  10
TORSDOF 1
ENDMDL
MODEL 5
REMARK VINA RESULT: -3.380757292      2.432      3.891
REMARK  1 active torsions:
REMARK  status: ('A' for Active; 'I' for Inactive)
REMARK    1  A    between atoms: O1_2  and  C2_3 
ROOT
HETATM    1  C2  UNL     1      19.673  15.739  56.076  1.00  0.00     0.144 A 
HETATM    2  C3  UNL     1      19.118  14.627  56.691  1.00  0.00     0.056 A 
HETATM    3  C4  UNL     1      18.175  13.910  55.985  1.00  0.00     0.007 A 
HETATM    4  C5  UNL     1      17.788  14.268  54.718  1.00  0.00     0.041 A 
HETATM    5  C6  UNL     1      18.359  15.378  54.133  1.00  0.00     0.117 A 
HETATM    6  C7  UNL     1      17.989  15.804  52.796  1.00  0.00     0.118 C 
HETATM    7  N1  UNL     1      17.701  16.134  51.721  1.00  0.00    -0.190 NA
HETATM    8  N2  UNL     1      19.277  16.073  54.826  1.00  0.00    -0.324 N 
HETATM    9  C8  UNL     1      19.857  17.250  54.161  1.00  0.00     0.159 C 
ENDROOT
BRANCH   1  10
HETATM   10  O1  UNL     1      20.621  16.503  56.722  1.00  0.00    -0.341 OA
HETATM   11  C1  UNL     1      21.377  16.053  57.802  1.00  0.00     0.211 C 
ENDBRANCH   1  10
TORSDOF 1
ENDMDL
