MODEL 1
REMARK VINA RESULT: -4.006740192      0.000      0.000
REMARK  1 active torsions:
REMARK  status: ('A' for Active; 'I' for Inactive)
REMARK    1  A    between atoms: O1_2  and  C2_3 
ROOT
HETATM    1  C2  UNL     1      18.765  15.456  56.302  1.00  0.00     0.070 A 
HETATM    2  C3  UNL     1      19.852  16.092  56.862  1.00  0.00     0.039 A 
HETATM    3  C4  UNL     1      19.628  16.981  57.910  1.00  0.00     0.036 A 
HETATM    4  C5  UNL     1      18.356  17.230  58.386  1.00  0.00     0.080 A 
HETATM    5  C6  UNL     1      17.265  16.592  57.824  1.00  0.00     0.080 A 
HETATM    6  C7  UNL     1      17.495  15.718  56.792  1.00  0.00     0.070 A 
HETATM    7  N1  UNL     1      16.173  17.029  58.487  1.00  0.00    -0.284 N 
ATOM      8  H1  UNL     1      15.208  16.749  58.313  1.00  0.00     0.188 HD
HETATM    9  N2  UNL     1      16.587  17.890  59.405  1.00  0.00    -0.240 N 
ATOM     10  H2  UNL     1      15.974  18.381  60.057  1.00  0.00     0.208 HD
HETATM   11  N3  UNL     1      17.886  18.026  59.364  1.00  0.00    -0.280 N 
HETATM   12  C8  UNL     1      18.645  18.895  60.239  1.00  0.00     0.179 C 
ENDROOT
BRANCH   1  13
HETATM   13  O1  UNL     1      18.936  14.548  55.241  1.00  0.00    -0.356 OA
HETATM   14  C1  UNL     1      18.014  13.489  55.089  1.00  0.00     0.210 C 
ENDBRANCH   1  13
TORSDOF 1
ENDMDL
MODEL 2
REMARK VINA RESULT: -3.832515924      1.572      1.650
REMARK  1 active torsions:
REMARK  status: ('A' for Active; 'I' for Inactive)
REMARK    1  A    between atoms: O1_2  and  C2_3 
ROOT
HETATM    1  C2  UNL     1      17.553  15.893  55.599  1.00  0.00     0.070 A 
HETATM    2  C3  UNL     1      17.815  17.193  55.222  1.00  0.00     0.039 A 
HETATM    3  C4  UNL     1      17.643  18.202  56.166  1.00  0.00     0.036 A 
HETATM    4  C5  UNL     1      17.222  17.923  57.451  1.00  0.00     0.080 A 
HETATM    5  C6  UNL     1      16.958  16.619  57.830  1.00  0.00     0.080 A 
HETATM    6  C7  UNL     1      17.130  15.632  56.893  1.00  0.00     0.070 A 
HETATM    7  N1  UNL     1      16.571  16.660  59.122  1.00  0.00    -0.284 N 
ATOM      8  H1  UNL     1      16.305  15.862  59.699  1.00  0.00     0.188 HD
HETATM    9  N2  UNL     1      16.599  17.929  59.504  1.00  0.00    -0.240 N 
ATOM     10  H2  UNL     1      16.352  18.258  60.438  1.00  0.00     0.208 HD
HETATM   11  N3  UNL     1      16.985  18.701  58.523  1.00  0.00    -0.280 N 
HETATM   12  C8  UNL     1      17.118  20.140  58.620  1.00  0.00     0.179 C 
ENDROOT
BRANCH   1  13
HETATM   13  O1  UNL     1      17.710  14.837  54.684  1.00  0.00    -0.356 OA
HETATM   14  C1  UNL     1      17.952  13.535  55.175  1.00  0.00     0.210 C 
ENDBRANCH   1  13
TORSDOF 1
ENDMDL
MODEL 3
REMARK VINA RESULT: -3.803680359      1.785      2.204
REMARK  1 active torsions:
REMARK  status: ('A' for Active; 'I' for Inactive)
REMARK    1  A    between atoms: O1_2  and  C2_3 
ROOT
HETATM    1  C2  UNL     1      19.312  15.762  54.976  1.00  0.00     0.070 A 
HETATM    2  C3  UNL     1      19.623  16.998  55.501  1.00  0.00     0.039 A 
HETATM    3  C4  UNL     1      18.844  17.484  56.548  1.00  0.00     0.036 A 
HETATM    4  C5  UNL     1      17.785  16.759  57.058  1.00  0.00     0.080 A 
HETATM    5  C6  UNL     1      17.474  15.518  56.532  1.00  0.00     0.080 A 
HETATM    6  C7  UNL     1      18.245  15.047  55.500  1.00  0.00     0.070 A 
HETATM    7  N1  UNL     1      16.409  15.059  57.222  1.00  0.00    -0.284 N 
ATOM      8  H1  UNL     1      15.934  14.168  57.078  1.00  0.00     0.188 HD
HETATM    9  N2  UNL     1      16.094  15.979  58.122  1.00  0.00    -0.240 N 
ATOM     10  H2  UNL     1      15.324  15.899  58.787  1.00  0.00     0.208 HD
HETATM   11  N3  UNL     1      16.902  17.002  58.043  1.00  0.00    -0.280 N 
HETATM   12  C8  UNL     1      16.821  18.174  58.890  1.00  0.00     0.179 C 
ENDROOT
BRANCH   1  13
HETATM   13  O1  UNL     1      20.066  15.224  53.918  1.00  0.00    -0.356 OA
HETATM   14  C1  UNL     1      21.061  16.022  53.310  1.00  0.00     0.210 C 
ENDBRANCH   1  13
TORSDOF 1
ENDMDL
MODEL 4
REMARK VINA RESULT: -3.695309767      4.445      5.326
REMARK  1 active torsions:
REMARK  status: ('A' for Active; 'I' for Inactive)
REMARK    1  A    between atoms: O1_2  and  C2_3 
ROOT
HETATM    1  C2  UNL     1      18.661  15.034  55.478  1.00  0.00     0.070 A 
HETATM    2  C3  UNL     1      19.791  15.815  55.597  1.00  0.00     0.039 A 
HETATM    3  C4  UNL     1      20.229  16.516  54.477  1.00  0.00     0.036 A 
HETATM    4  C5  UNL     1      19.560  16.441  53.271  1.00  0.00     0.080 A 
HETATM    5  C6  UNL     1      18.426  15.658  53.152  1.00  0.00     0.080 A 
HETATM    6  C7  UNL     1      18.002  14.970  54.260  1.00  0.00     0.070 A 
HETATM    7  N1  UNL     1      18.000  15.783  51.877  1.00  0.00    -0.284 N 
ATOM      8  H1  UNL     1      17.184  15.329  51.466  1.00  0.00     0.188 HD
HETATM    9  N2  UNL     1      18.836  16.603  51.258  1.00  0.00    -0.240 N 
ATOM     10  H2  UNL     1      18.758  16.879  50.279  1.00  0.00     0.208 HD
HETATM   11  N3  UNL     1      19.776  17.008  52.071  1.00  0.00    -0.280 N 
HETATM   12  C8  UNL     1      20.844  17.912  51.698  1.00  0.00     0.179 C 
ENDROOT
BRANCH   1  13
HETATM   13  O1  UNL     1      18.177  14.304  56.579  1.00  0.00    -0.356 OA
HETATM   14  C1  UNL     1      16.791  14.316  56.852  1.00  0.00     0.210 C 
ENDBRANCH   1  13
TORSDOF 1
ENDMDL
MODEL 5
REMARK VINA RESULT: -3.658261158      2.228      2.766
REMARK  1 active torsions:
REMARK  status: ('A' for Active; 'I' for Inactive)
REMARK    1  A    between atoms: O1_2  and  C2_3 
ROOT
HETATM    1  C2  UNL     1      19.793  16.077  55.711  1.00  0.00     0.070 A 
HETATM    2  C3  UNL     1      19.508  17.404  55.469  1.00  0.00     0.039 A 
HETATM    3  C4  UNL     1      18.279  17.903  55.894  1.00  0.00     0.036 A 
HETATM    4  C5  UNL     1      17.360  17.101  56.542  1.00  0.00     0.080 A 
HETATM    5  C6  UNL     1      17.646  15.770  56.785  1.00  0.00     0.080 A 
HETATM    6  C7  UNL     1      18.858  15.287  56.363  1.00  0.00     0.070 A 
HETATM    7  N1  UNL     1      16.575  15.252  57.423  1.00  0.00    -0.284 N 
ATOM      8  H1  UNL     1      16.469  14.289  57.742  1.00  0.00     0.188 HD
HETATM    9  N2  UNL     1      15.686  16.225  57.558  1.00  0.00    -0.240 N 
ATOM     10  H2  UNL     1      14.775  16.119  58.006  1.00  0.00     0.208 HD
HETATM   11  N3  UNL     1      16.133  17.338  57.040  1.00  0.00    -0.280 N 
HETATM   12  C8  UNL     1      15.397  18.586  57.027  1.00  0.00     0.179 C 
ENDROOT
BRANCH   1  13
HETATM   13  O1  UNL     1      21.019  15.523  55.302  1.00  0.00    -0.356 OA
HETATM   14  C1  UNL     1      22.207  15.938  55.944  1.00  0.00     0.210 C 
ENDBRANCH   1  13
TORSDOF 1
ENDMDL
