MODEL 1
REMARK VINA RESULT: -4.009824988      0.000      0.000
REMARK  1 active torsions:
REMARK  status: ('A' for Active; 'I' for Inactive)
REMARK    1  A    between atoms: C4_8  and  N3_9 
ROOT
HETATM    1  C1  UNL     1      17.362  19.015  59.845  1.00  0.00     0.165 C 
HETATM    2  N1  UNL     1      16.624  17.822  59.561  1.00  0.00    -0.230 N 
ATOM      3  H1  UNL     1      15.871  17.518  60.178  1.00  0.00     0.177 HD
HETATM    4  C2  UNL     1      16.933  17.130  58.495  1.00  0.00     0.677 A 
HETATM    5  N2  UNL     1      16.237  15.939  58.160  1.00  0.00    -0.200 N 
ATOM      6  H2  UNL     1      15.480  15.610  58.758  1.00  0.00     0.183 HD
HETATM    7  C3  UNL     1      16.559  15.259  57.091  1.00  0.00     0.136 A 
HETATM    8  C4  UNL     1      17.629  15.685  56.208  1.00  0.00     0.061 A 
HETATM    9  C7  UNL     1      18.302  16.785  56.481  1.00  0.00     0.136 A 
HETATM   10  N4  UNL     1      17.981  17.553  57.635  1.00  0.00    -0.200 N 
ATOM     11  H4  UNL     1      18.503  18.405  57.844  1.00  0.00     0.183 HD
ENDROOT
BRANCH   8  12
HETATM   12  N3  UNL     1      17.956  14.928  55.058  1.00  0.00    -0.387 N 
HETATM   13  C5  UNL     1      18.271  15.511  53.778  1.00  0.00     0.149 C 
HETATM   14  C6  UNL     1      17.966  13.472  55.202  1.00  0.00     0.149 C 
ENDBRANCH   8  12
TORSDOF 1
ENDMDL
MODEL 2
REMARK VINA RESULT: -3.955065870      0.124      1.072
REMARK  1 active torsions:
REMARK  status: ('A' for Active; 'I' for Inactive)
REMARK    1  A    between atoms: C4_8  and  N3_9 
ROOT
HETATM    1  C1  UNL     1      17.391  19.059  59.895  1.00  0.00     0.165 C 
HETATM    2  N1  UNL     1      16.619  17.894  59.588  1.00  0.00    -0.230 N 
ATOM      3  H1  UNL     1      15.828  17.626  60.173  1.00  0.00     0.177 HD
HETATM    4  C2  UNL     1      16.946  17.180  58.542  1.00  0.00     0.677 A 
HETATM    5  N2  UNL     1      16.219  16.014  58.186  1.00  0.00    -0.200 N 
ATOM      6  H2  UNL     1      15.423  15.722  58.753  1.00  0.00     0.183 HD
HETATM    7  C3  UNL     1      16.559  15.312  57.138  1.00  0.00     0.136 A 
HETATM    8  C4  UNL     1      17.683  15.686  56.300  1.00  0.00     0.061 A 
HETATM    9  C7  UNL     1      18.387  16.761  56.593  1.00  0.00     0.136 A 
HETATM   10  N4  UNL     1      18.047  17.552  57.726  1.00  0.00    -0.200 N 
ATOM     11  H4  UNL     1      18.593  18.385  57.951  1.00  0.00     0.183 HD
ENDROOT
BRANCH   8  12
HETATM   12  N3  UNL     1      18.028  14.905  55.171  1.00  0.00    -0.387 N 
HETATM   13  C5  UNL     1      17.994  13.465  55.153  1.00  0.00     0.149 C 
HETATM   14  C6  UNL     1      18.440  15.626  53.966  1.00  0.00     0.149 C 
ENDBRANCH   8  12
TORSDOF 1
ENDMDL
MODEL 3
REMARK VINA RESULT: -3.460549501      2.008      2.213
REMARK  1 active torsions:
REMARK  status: ('A' for Active; 'I' for Inactive)
REMARK    1  A    between atoms: C4_8  and  N3_9 
ROOT
HETATM    1  C1  UNL     1      14.949  20.287  56.723  1.00  0.00     0.165 C 
HETATM    2  N1  UNL     1      14.886  19.055  57.448  1.00  0.00    -0.230 N 
ATOM      3  H1  UNL     1      14.200  18.924  58.191  1.00  0.00     0.177 HD
HETATM    4  C2  UNL     1      15.725  18.100  57.140  1.00  0.00     0.677 A 
HETATM    5  N2  UNL     1      15.712  16.855  57.821  1.00  0.00    -0.200 N 
ATOM      6  H2  UNL     1      15.037  16.695  58.569  1.00  0.00     0.183 HD
HETATM    7  C3  UNL     1      16.557  15.911  57.500  1.00  0.00     0.136 A 
HETATM    8  C4  UNL     1      17.536  16.090  56.444  1.00  0.00     0.061 A 
HETATM    9  C7  UNL     1      17.585  17.230  55.785  1.00  0.00     0.136 A 
HETATM   10  N4  UNL     1      16.681  18.281  56.104  1.00  0.00    -0.200 N 
ATOM     11  H4  UNL     1      16.719  19.163  55.592  1.00  0.00     0.183 HD
ENDROOT
BRANCH   8  12
HETATM   12  N3  UNL     1      18.439  15.049  56.119  1.00  0.00    -0.387 N 
HETATM   13  C5  UNL     1      18.042  13.806  55.508  1.00  0.00     0.149 C 
HETATM   14  C6  UNL     1      19.851  15.275  56.431  1.00  0.00     0.149 C 
ENDBRANCH   8  12
TORSDOF 1
ENDMDL
MODEL 4
REMARK VINA RESULT: -3.383458503      2.049      2.176
REMARK  1 active torsions:
REMARK  status: ('A' for Active; 'I' for Inactive)
REMARK    1  A    between atoms: C4_8  and  N3_9 
ROOT
HETATM    1  C1  UNL     1      14.872  20.279  56.706  1.00  0.00     0.165 C 
HETATM    2  N1  UNL     1      14.820  19.040  57.419  1.00  0.00    -0.230 N 
ATOM      3  H1  UNL     1      14.099  18.875  58.121  1.00  0.00     0.177 HD
HETATM    4  C2  UNL     1      15.714  18.123  57.154  1.00  0.00     0.677 A 
HETATM    5  N2  UNL     1      15.714  16.874  57.827  1.00  0.00    -0.200 N 
ATOM      6  H2  UNL     1      15.005  16.680  58.534  1.00  0.00     0.183 HD
HETATM    7  C3  UNL     1      16.615  15.968  57.550  1.00  0.00     0.136 A 
HETATM    8  C4  UNL     1      17.644  16.195  56.553  1.00  0.00     0.061 A 
HETATM    9  C7  UNL     1      17.682  17.341  55.903  1.00  0.00     0.136 A 
HETATM   10  N4  UNL     1      16.719  18.352  56.176  1.00  0.00    -0.200 N 
ATOM     11  H4  UNL     1      16.749  19.238  55.671  1.00  0.00     0.183 HD
ENDROOT
BRANCH   8  12
HETATM   12  N3  UNL     1      18.607  15.196  56.274  1.00  0.00    -0.387 N 
HETATM   13  C5  UNL     1      20.018  15.351  56.525  1.00  0.00     0.149 C 
HETATM   14  C6  UNL     1      18.116  13.943  55.700  1.00  0.00     0.149 C 
ENDBRANCH   8  12
TORSDOF 1
ENDMDL
MODEL 5
REMARK VINA RESULT: -3.358005764      1.072      1.072
REMARK  1 active torsions:
REMARK  status: ('A' for Active; 'I' for Inactive)
REMARK    1  A    between atoms: C4_8  and  N3_9 
ROOT
HETATM    1  C1  UNL     1      19.084  18.638  60.636  1.00  0.00     0.165 C 
HETATM    2  N1  UNL     1      17.880  17.966  60.254  1.00  0.00    -0.230 N 
ATOM      3  H1  UNL     1      17.055  18.000  60.852  1.00  0.00     0.177 HD
HETATM    4  C2  UNL     1      17.857  17.308  59.124  1.00  0.00     0.677 A 
HETATM    5  N2  UNL     1      16.693  16.622  58.691  1.00  0.00    -0.200 N 
ATOM      6  H2  UNL     1      15.852  16.638  59.268  1.00  0.00     0.183 HD
HETATM    7  C3  UNL     1      16.688  15.969  57.558  1.00  0.00     0.136 A 
HETATM    8  C4  UNL     1      17.858  15.916  56.702  1.00  0.00     0.061 A 
HETATM    9  C7  UNL     1      18.961  16.539  57.065  1.00  0.00     0.136 A 
HETATM   10  N4  UNL     1      19.007  17.261  58.290  1.00  0.00    -0.200 N 
ATOM     11  H4  UNL     1      19.861  17.743  58.569  1.00  0.00     0.183 HD
ENDROOT
BRANCH   8  12
HETATM   12  N3  UNL     1      17.823  15.201  55.481  1.00  0.00    -0.387 N 
HETATM   13  C5  UNL     1      18.195  15.767  54.210  1.00  0.00     0.149 C 
HETATM   14  C6  UNL     1      17.379  13.808  55.541  1.00  0.00     0.149 C 
ENDBRANCH   8  12
TORSDOF 1
ENDMDL
