MODEL 1
REMARK VINA RESULT: -7.319614474      0.000      0.000
REMARK  14 active torsions:
REMARK  status: ('A' for Active; 'I' for Inactive)
REMARK    1  A    between atoms: C2_2  and  N1_3 
REMARK    2  A    between atoms: N3_10  and  C7_12 
REMARK    3  A    between atoms: C7_12  and  C8_13 
REMARK    4  A    between atoms: C8_13  and  N4_14 
REMARK       I    between atoms: N4_14  and  C9_16 
REMARK       I    between atoms: C9_16  and  N5_18 
REMARK    5  A    between atoms: C10_21  and  O2_22 
REMARK    6  A    between atoms: C11_24  and  C12_25 
REMARK    7  A    between atoms: C16_32  and  C17_33 
REMARK    8  A    between atoms: C17_33  and  C18_34 
REMARK    9  A    between atoms: C22_39  and  O4_40 
REMARK   10  A    between atoms: C23_42  and  C24_43 
REMARK   11  A    between atoms: C24_43  and  C25_44 
REMARK   12  A    between atoms: C25_44  and  C26_45 
REMARK   13  A    between atoms: C26_45  and  C27_46 
REMARK   14  A    between atoms: C27_46  and  N9_47 
ROOT
HETATM    1  N4  UNL     1      17.861 -16.295  23.255  1.00  0.00    -0.340 N 
ATOM      2  H4  UNL     1      17.582 -17.073  22.657  1.00  0.00     0.164 HD
HETATM    3  C9  UNL     1      17.438 -14.976  22.966  1.00  0.00     0.338 C 
HETATM    4  O1  UNL     1      17.776 -14.025  23.694  1.00  0.00    -0.245 OA
HETATM    5  N5  UNL     1      16.586 -14.664  21.799  1.00  0.00    -0.225 N 
HETATM    6  N6  UNL     1      16.110 -15.650  20.984  1.00  0.00    -0.275 N 
ATOM      7  H6  UNL     1      16.894 -16.089  20.502  1.00  0.00     0.189 HD
HETATM    8  C10 UNL     1      14.925 -16.266  20.581  1.00  0.00     0.154 C 
HETATM    9  C11 UNL     1      13.725 -15.759  19.870  1.00  0.00     0.164 C 
HETATM   10  N7  UNL     1      14.036 -15.390  18.505  1.00  0.00    -0.343 N 
ATOM     11  H7  UNL     1      13.682 -16.005  17.772  1.00  0.00     0.163 HD
HETATM   12  C15 UNL     1      14.768 -14.283  18.093  1.00  0.00     0.268 C 
HETATM   13  O3  UNL     1      15.440 -14.481  17.005  1.00  0.00    -0.266 OA
HETATM   14  C16 UNL     1      14.944 -12.950  18.619  1.00  0.00     0.100 C 
HETATM   15  N8  UNL     1      14.518 -12.627  19.952  1.00  0.00    -0.329 N 
HETATM   16  C21 UNL     1      13.255 -11.855  19.972  1.00  0.00     0.158 C 
HETATM   17  C22 UNL     1      15.118 -12.917  21.172  1.00  0.00     0.147 C 
HETATM   18  C23 UNL     1      16.436 -13.190  21.683  1.00  0.00     0.210 C 
ENDROOT
BRANCH  18  19
HETATM   19  C24 UNL     1      17.644 -12.593  21.095  1.00  0.00     0.005 C 
BRANCH  19  20
HETATM   20  C25 UNL     1      18.290 -13.140  19.906  1.00  0.00    -0.026 C 
BRANCH  20  21
HETATM   21  C26 UNL     1      19.725 -13.130  19.660  1.00  0.00     0.054 C 
BRANCH  21  22
HETATM   22  C27 UNL     1      20.385 -13.698  20.943  1.00  0.00     0.233 C 
BRANCH  22  23
HETATM   23  N9  UNL     1      20.464 -15.124  20.878  1.00  0.00    -0.079 N 
ATOM     24  H93 UNL     1      21.154 -15.496  21.531  1.00  0.00     0.274 HD
ATOM     25  H92 UNL     1      19.631 -15.567  21.266  1.00  0.00     0.274 HD
ATOM     26  H91 UNL     1      20.646 -15.429  19.922  1.00  0.00     0.274 HD
ENDBRANCH  22  23
ENDBRANCH  21  22
ENDBRANCH  20  21
ENDBRANCH  19  20
ENDBRANCH  18  19
BRANCH   1  27
HETATM   27  C8  UNL     1      18.694 -16.519  24.411  1.00  0.00     0.153 C 
BRANCH  27  28
HETATM   28  C7  UNL     1      20.026 -17.042  23.925  1.00  0.00     0.266 C 
BRANCH  28  29
HETATM   29  N3  UNL     1      21.045 -16.995  24.925  1.00  0.00    -0.008 N 
HETATM   30  C3  UNL     1      21.664 -15.694  24.895  1.00  0.00     0.279 C 
HETATM   31  N1  UNL     1      21.483 -14.855  25.811  1.00  0.00    -0.336 N 
HETATM   32  N2  UNL     1      22.433 -15.720  23.706  1.00  0.00    -0.354 N 
ATOM     33  H1  UNL     1      20.848 -15.148  26.552  1.00  0.00     0.167 HD
HETATM   34  C4  UNL     1      23.024 -17.067  23.638  1.00  0.00     0.151 C 
ATOM     35  H2  UNL     1      22.552 -14.962  23.034  1.00  0.00     0.162 HD
HETATM   36  C5  UNL     1      22.101 -17.879  24.512  1.00  0.00     0.266 C 
HETATM   37  C6  UNL     1      20.552 -17.303  26.246  1.00  0.00     0.283 C 
BRANCH  31  38
HETATM   38  C2  UNL     1      22.027 -13.580  25.958  1.00  0.00     0.059 C 
HETATM   39  C1  UNL     1      21.118 -12.638  26.695  1.00  0.00     0.055 C 
ENDBRANCH  31  38
ENDBRANCH  28  29
ENDBRANCH  27  28
ENDBRANCH   1  27
BRANCH   8  40
HETATM   40  O2  UNL     1      14.735 -17.555  20.828  1.00  0.00    -0.347 OA
ATOM     41  H2  UNL     1      15.223 -18.207  20.339  1.00  0.00     0.219 HD
ENDBRANCH   8  40
BRANCH  17  42
HETATM   42  O4  UNL     1      14.232 -12.956  22.138  1.00  0.00    -0.347 OA
ATOM     43  H4  UNL     1      14.452 -13.622  22.780  1.00  0.00     0.219 HD
ENDBRANCH  17  42
BRANCH   9  44
HETATM   44  C12 UNL     1      12.635 -16.860  19.726  1.00  0.00     0.008 C 
HETATM   45  C13 UNL     1      12.481 -17.301  18.303  1.00  0.00     0.012 C 
HETATM   46  C14 UNL     1      11.361 -16.468  20.393  1.00  0.00     0.012 C 
ENDBRANCH   9  44
BRANCH  14  47
HETATM   47  C17 UNL     1      14.667 -11.956  17.569  1.00  0.00     0.012 C 
BRANCH  47  48
HETATM   48  C18 UNL     1      15.596 -11.591  16.517  1.00  0.00     0.002 C 
HETATM   49  C19 UNL     1      16.985 -11.174  16.843  1.00  0.00     0.013 C 
HETATM   50  C20 UNL     1      14.995 -10.324  15.833  1.00  0.00     0.013 C 
ENDBRANCH  47  48
ENDBRANCH  14  47
TORSDOF 14
ENDMDL
MODEL 2
REMARK VINA RESULT: -7.210616295      2.323      8.065
REMARK  14 active torsions:
REMARK  status: ('A' for Active; 'I' for Inactive)
REMARK    1  A    between atoms: C2_2  and  N1_3 
REMARK    2  A    between atoms: N3_10  and  C7_12 
REMARK    3  A    between atoms: C7_12  and  C8_13 
REMARK    4  A    between atoms: C8_13  and  N4_14 
REMARK       I    between atoms: N4_14  and  C9_16 
REMARK       I    between atoms: C9_16  and  N5_18 
REMARK    5  A    between atoms: C10_21  and  O2_22 
REMARK    6  A    between atoms: C11_24  and  C12_25 
REMARK    7  A    between atoms: C16_32  and  C17_33 
REMARK    8  A    between atoms: C17_33  and  C18_34 
REMARK    9  A    between atoms: C22_39  and  O4_40 
REMARK   10  A    between atoms: C23_42  and  C24_43 
REMARK   11  A    between atoms: C24_43  and  C25_44 
REMARK   12  A    between atoms: C25_44  and  C26_45 
REMARK   13  A    between atoms: C26_45  and  C27_46 
REMARK   14  A    between atoms: C27_46  and  N9_47 
ROOT
HETATM    1  N4  UNL     1      14.477 -15.946  22.078  1.00  0.00    -0.340 N 
ATOM      2  H4  UNL     1      14.145 -16.305  22.973  1.00  0.00     0.164 HD
HETATM    3  C9  UNL     1      15.857 -15.726  21.857  1.00  0.00     0.338 C 
HETATM    4  O1  UNL     1      16.266 -15.288  20.766  1.00  0.00    -0.245 OA
HETATM    5  N5  UNL     1      16.871 -15.997  22.899  1.00  0.00    -0.225 N 
HETATM    6  N6  UNL     1      16.524 -16.541  24.102  1.00  0.00    -0.275 N 
ATOM      7  H6  UNL     1      15.940 -15.877  24.610  1.00  0.00     0.189 HD
HETATM    8  C10 UNL     1      16.691 -17.689  24.877  1.00  0.00     0.154 C 
HETATM    9  C11 UNL     1      17.890 -18.328  25.474  1.00  0.00     0.164 C 
HETATM   10  N7  UNL     1      18.467 -17.502  26.513  1.00  0.00    -0.343 N 
ATOM     11  H7  UNL     1      18.346 -17.823  27.474  1.00  0.00     0.163 HD
HETATM   12  C15 UNL     1      19.168 -16.316  26.335  1.00  0.00     0.268 C 
HETATM   13  O3  UNL     1      19.022 -15.474  27.307  1.00  0.00    -0.266 OA
HETATM   14  C16 UNL     1      20.031 -15.813  25.292  1.00  0.00     0.100 C 
HETATM   15  N8  UNL     1      20.092 -16.466  24.014  1.00  0.00    -0.329 N 
HETATM   16  C21 UNL     1      21.317 -17.281  23.851  1.00  0.00     0.158 C 
HETATM   17  C22 UNL     1      19.198 -16.423  22.950  1.00  0.00     0.147 C 
HETATM   18  C23 UNL     1      18.199 -15.530  22.423  1.00  0.00     0.210 C 
ENDROOT
BRANCH  18  19
HETATM   19  C24 UNL     1      18.308 -14.070  22.546  1.00  0.00     0.005 C 
BRANCH  19  20
HETATM   20  C25 UNL     1      19.526 -13.343  22.202  1.00  0.00    -0.026 C 
BRANCH  20  21
HETATM   21  C26 UNL     1      20.402 -13.670  21.086  1.00  0.00     0.054 C 
BRANCH  21  22
HETATM   22  C27 UNL     1      20.659 -12.336  20.336  1.00  0.00     0.233 C 
BRANCH  22  23
HETATM   23  N9  UNL     1      20.409 -12.491  18.937  1.00  0.00    -0.079 N 
ATOM     24  H93 UNL     1      21.091 -13.109  18.497  1.00  0.00     0.274 HD
ATOM     25  H92 UNL     1      19.568 -13.041  18.761  1.00  0.00     0.274 HD
ATOM     26  H91 UNL     1      20.371 -11.581  18.478  1.00  0.00     0.274 HD
ENDBRANCH  22  23
ENDBRANCH  21  22
ENDBRANCH  20  21
ENDBRANCH  19  20
ENDBRANCH  18  19
BRANCH   1  27
HETATM   27  C8  UNL     1      13.549 -15.655  21.014  1.00  0.00     0.153 C 
BRANCH  27  28
HETATM   28  C7  UNL     1      12.607 -14.581  21.505  1.00  0.00     0.266 C 
BRANCH  28  29
HETATM   29  N3  UNL     1      12.736 -13.351  20.790  1.00  0.00    -0.008 N 
HETATM   30  C3  UNL     1      13.833 -12.603  21.350  1.00  0.00     0.279 C 
HETATM   31  N1  UNL     1      14.914 -12.451  20.731  1.00  0.00    -0.336 N 
HETATM   32  N2  UNL     1      13.328 -12.157  22.596  1.00  0.00    -0.354 N 
ATOM     33  H1  UNL     1      14.968 -12.917  19.826  1.00  0.00     0.167 HD
HETATM   34  C4  UNL     1      11.929 -11.769  22.348  1.00  0.00     0.151 C 
ATOM     35  H2  UNL     1      13.830 -12.113  23.483  1.00  0.00     0.162 HD
HETATM   36  C5  UNL     1      11.587 -12.544  21.100  1.00  0.00     0.266 C 
HETATM   37  C6  UNL     1      12.912 -13.541  19.370  1.00  0.00     0.283 C 
BRANCH  31  38
HETATM   38  C2  UNL     1      16.051 -11.735  21.104  1.00  0.00     0.059 C 
HETATM   39  C1  UNL     1      17.071 -11.643  20.005  1.00  0.00     0.055 C 
ENDBRANCH  31  38
ENDBRANCH  28  29
ENDBRANCH  27  28
ENDBRANCH   1  27
BRANCH   8  40
HETATM   40  O2  UNL     1      15.635 -18.421  25.207  1.00  0.00    -0.347 OA
ATOM     41  H2  UNL     1      15.132 -18.202  25.982  1.00  0.00     0.219 HD
ENDBRANCH   8  40
BRANCH  17  42
HETATM   42  O4  UNL     1      19.285 -17.504  22.214  1.00  0.00    -0.347 OA
ATOM     43  H4  UNL     1      19.742 -18.198  22.675  1.00  0.00     0.219 HD
ENDBRANCH  17  42
BRANCH   9  44
HETATM   44  C12 UNL     1      17.530 -19.656  26.201  1.00  0.00     0.008 C 
HETATM   45  C13 UNL     1      17.703 -19.537  27.684  1.00  0.00     0.012 C 
HETATM   46  C14 UNL     1      18.224 -20.826  25.590  1.00  0.00     0.012 C 
ENDBRANCH   9  44
BRANCH  14  47
HETATM   47  C17 UNL     1      21.305 -15.358  25.871  1.00  0.00     0.012 C 
BRANCH  47  48
HETATM   48  C18 UNL     1      21.759 -13.980  25.881  1.00  0.00     0.002 C 
HETATM   49  C19 UNL     1      20.786 -12.862  25.982  1.00  0.00     0.013 C 
HETATM   50  C20 UNL     1      22.434 -13.740  24.495  1.00  0.00     0.013 C 
ENDBRANCH  47  48
ENDBRANCH  14  47
TORSDOF 14
ENDMDL
MODEL 3
REMARK VINA RESULT: -7.168942556      1.089      1.270
REMARK  14 active torsions:
REMARK  status: ('A' for Active; 'I' for Inactive)
REMARK    1  A    between atoms: C2_2  and  N1_3 
REMARK    2  A    between atoms: N3_10  and  C7_12 
REMARK    3  A    between atoms: C7_12  and  C8_13 
REMARK    4  A    between atoms: C8_13  and  N4_14 
REMARK       I    between atoms: N4_14  and  C9_16 
REMARK       I    between atoms: C9_16  and  N5_18 
REMARK    5  A    between atoms: C10_21  and  O2_22 
REMARK    6  A    between atoms: C11_24  and  C12_25 
REMARK    7  A    between atoms: C16_32  and  C17_33 
REMARK    8  A    between atoms: C17_33  and  C18_34 
REMARK    9  A    between atoms: C22_39  and  O4_40 
REMARK   10  A    between atoms: C23_42  and  C24_43 
REMARK   11  A    between atoms: C24_43  and  C25_44 
REMARK   12  A    between atoms: C25_44  and  C26_45 
REMARK   13  A    between atoms: C26_45  and  C27_46 
REMARK   14  A    between atoms: C27_46  and  N9_47 
ROOT
HETATM    1  N4  UNL     1      18.512 -15.884  22.839  1.00  0.00    -0.340 N 
ATOM      2  H4  UNL     1      18.212 -16.686  22.284  1.00  0.00     0.164 HD
HETATM    3  C9  UNL     1      17.998 -14.592  22.576  1.00  0.00     0.338 C 
HETATM    4  O1  UNL     1      18.360 -13.612  23.251  1.00  0.00    -0.245 OA
HETATM    5  N5  UNL     1      17.018 -14.344  21.496  1.00  0.00    -0.225 N 
HETATM    6  N6  UNL     1      16.512 -15.367  20.748  1.00  0.00    -0.275 N 
ATOM      7  H6  UNL     1      17.264 -15.778  20.195  1.00  0.00     0.189 HD
HETATM    8  C10 UNL     1      15.324 -16.046  20.476  1.00  0.00     0.154 C 
HETATM    9  C11 UNL     1      14.036 -15.610  19.883  1.00  0.00     0.164 C 
HETATM   10  N7  UNL     1      14.189 -15.253  18.489  1.00  0.00    -0.343 N 
ATOM     11  H7  UNL     1      13.794 -15.898  17.804  1.00  0.00     0.163 HD
HETATM   12  C15 UNL     1      14.821 -14.122  17.988  1.00  0.00     0.268 C 
HETATM   13  O3  UNL     1      15.389 -14.309  16.840  1.00  0.00    -0.266 OA
HETATM   14  C16 UNL     1      14.984 -12.772  18.474  1.00  0.00     0.100 C 
HETATM   15  N8  UNL     1      14.679 -12.443  19.838  1.00  0.00    -0.329 N 
HETATM   16  C21 UNL     1      13.387 -11.731  19.975  1.00  0.00     0.158 C 
HETATM   17  C22 UNL     1      15.411 -12.681  20.996  1.00  0.00     0.147 C 
HETATM   18  C23 UNL     1      16.786 -12.881  21.374  1.00  0.00     0.210 C 
ENDROOT
BRANCH  18  19
HETATM   19  C24 UNL     1      17.898 -12.239  20.658  1.00  0.00     0.005 C 
BRANCH  19  20
HETATM   20  C25 UNL     1      18.608 -12.894  19.564  1.00  0.00    -0.026 C 
BRANCH  20  21
HETATM   21  C26 UNL     1      20.009 -13.289  19.600  1.00  0.00     0.054 C 
BRANCH  21  22
HETATM   22  C27 UNL     1      20.635 -12.541  20.806  1.00  0.00     0.233 C 
BRANCH  22  23
HETATM   23  N9  UNL     1      21.136 -13.472  21.768  1.00  0.00    -0.079 N 
ATOM     24  H93 UNL     1      21.203 -14.415  21.384  1.00  0.00     0.274 HD
ATOM     25  H92 UNL     1      22.124 -13.316  21.967  1.00  0.00     0.274 HD
ATOM     26  H91 UNL     1      20.570 -13.450  22.617  1.00  0.00     0.274 HD
ENDBRANCH  22  23
ENDBRANCH  21  22
ENDBRANCH  20  21
ENDBRANCH  19  20
ENDBRANCH  18  19
BRANCH   1  27
HETATM   27  C8  UNL     1      19.466 -16.046  23.908  1.00  0.00     0.153 C 
BRANCH  27  28
HETATM   28  C7  UNL     1      20.624 -16.856  23.373  1.00  0.00     0.266 C 
BRANCH  28  29
HETATM   29  N3  UNL     1      21.597 -17.169  24.371  1.00  0.00    -0.008 N 
HETATM   30  C3  UNL     1      22.833 -16.509  24.036  1.00  0.00     0.279 C 
HETATM   31  N1  UNL     1      23.261 -15.532  24.697  1.00  0.00    -0.336 N 
HETATM   32  N2  UNL     1      23.314 -17.247  22.927  1.00  0.00    -0.354 N 
ATOM     33  H1  UNL     1      22.659 -15.225  25.462  1.00  0.00     0.167 HD
HETATM   34  C4  UNL     1      23.033 -18.660  23.231  1.00  0.00     0.151 C 
ATOM     35  H2  UNL     1      23.763 -16.876  22.089  1.00  0.00     0.162 HD
HETATM   36  C5  UNL     1      21.918 -18.566  24.243  1.00  0.00     0.266 C 
HETATM   37  C6  UNL     1      21.170 -16.821  25.704  1.00  0.00     0.283 C 
BRANCH  31  38
HETATM   38  C2  UNL     1      24.441 -14.806  24.537  1.00  0.00     0.059 C 
HETATM   39  C1  UNL     1      24.225 -13.321  24.581  1.00  0.00     0.055 C 
ENDBRANCH  31  38
ENDBRANCH  28  29
ENDBRANCH  27  28
ENDBRANCH   1  27
BRANCH   8  40
HETATM   40  O2  UNL     1      15.223 -17.338  20.760  1.00  0.00    -0.347 OA
ATOM     41  H2  UNL     1      14.524 -17.644  21.325  1.00  0.00     0.219 HD
ENDBRANCH   8  40
BRANCH  17  42
HETATM   42  O4  UNL     1      14.630 -12.743  22.046  1.00  0.00    -0.347 OA
ATOM     43  H4  UNL     1      13.729 -12.914  21.796  1.00  0.00     0.219 HD
ENDBRANCH  17  42
BRANCH   9  44
HETATM   44  C12 UNL     1      12.992 -16.764  19.867  1.00  0.00     0.008 C 
HETATM   45  C13 UNL     1      12.689 -17.214  18.470  1.00  0.00     0.012 C 
HETATM   46  C14 UNL     1      11.789 -16.434  20.683  1.00  0.00     0.012 C 
ENDBRANCH   9  44
BRANCH  14  47
HETATM   47  C17 UNL     1      14.554 -11.813  17.443  1.00  0.00     0.012 C 
BRANCH  47  48
HETATM   48  C18 UNL     1      15.456 -10.998  16.650  1.00  0.00     0.002 C 
HETATM   49  C19 UNL     1      15.572 -11.204  15.184  1.00  0.00     0.013 C 
HETATM   50  C20 UNL     1      16.892 -11.317  17.170  1.00  0.00     0.013 C 
ENDBRANCH  47  48
ENDBRANCH  14  47
TORSDOF 14
ENDMDL
MODEL 4
REMARK VINA RESULT: -7.095614624      1.004      1.171
REMARK  14 active torsions:
REMARK  status: ('A' for Active; 'I' for Inactive)
REMARK    1  A    between atoms: C2_2  and  N1_3 
REMARK    2  A    between atoms: N3_10  and  C7_12 
REMARK    3  A    between atoms: C7_12  and  C8_13 
REMARK    4  A    between atoms: C8_13  and  N4_14 
REMARK       I    between atoms: N4_14  and  C9_16 
REMARK       I    between atoms: C9_16  and  N5_18 
REMARK    5  A    between atoms: C10_21  and  O2_22 
REMARK    6  A    between atoms: C11_24  and  C12_25 
REMARK    7  A    between atoms: C16_32  and  C17_33 
REMARK    8  A    between atoms: C17_33  and  C18_34 
REMARK    9  A    between atoms: C22_39  and  O4_40 
REMARK   10  A    between atoms: C23_42  and  C24_43 
REMARK   11  A    between atoms: C24_43  and  C25_44 
REMARK   12  A    between atoms: C25_44  and  C26_45 
REMARK   13  A    between atoms: C26_45  and  C27_46 
REMARK   14  A    between atoms: C27_46  and  N9_47 
ROOT
HETATM    1  N4  UNL     1      17.474 -17.268  23.004  1.00  0.00    -0.340 N 
ATOM      2  H4  UNL     1      17.133 -18.005  22.387  1.00  0.00     0.164 HD
HETATM    3  C9  UNL     1      17.166 -15.911  22.747  1.00  0.00     0.338 C 
HETATM    4  O1  UNL     1      17.580 -15.010  23.498  1.00  0.00    -0.245 OA
HETATM    5  N5  UNL     1      16.347 -15.501  21.585  1.00  0.00    -0.225 N 
HETATM    6  N6  UNL     1      15.793 -16.422  20.746  1.00  0.00    -0.275 N 
ATOM      7  H6  UNL     1      16.539 -16.915  20.255  1.00  0.00     0.189 HD
HETATM    8  C10 UNL     1      14.562 -16.926  20.326  1.00  0.00     0.154 C 
HETATM    9  C11 UNL     1      13.412 -16.302  19.625  1.00  0.00     0.164 C 
HETATM   10  N7  UNL     1      13.759 -15.928  18.270  1.00  0.00    -0.343 N 
ATOM     11  H7  UNL     1      13.357 -16.493  17.522  1.00  0.00     0.163 HD
HETATM   12  C15 UNL     1      14.583 -14.878  17.886  1.00  0.00     0.268 C 
HETATM   13  O3  UNL     1      15.241 -15.106  16.795  1.00  0.00    -0.266 OA
HETATM   14  C16 UNL     1      14.870 -13.578  18.444  1.00  0.00     0.100 C 
HETATM   15  N8  UNL     1      14.468 -13.251  19.784  1.00  0.00    -0.329 N 
HETATM   16  C21 UNL     1      13.274 -12.375  19.820  1.00  0.00     0.158 C 
HETATM   17  C22 UNL     1      15.035 -13.620  20.998  1.00  0.00     0.147 C 
HETATM   18  C23 UNL     1      16.324 -14.017  21.504  1.00  0.00     0.210 C 
ENDROOT
BRANCH  18  19
HETATM   19  C24 UNL     1      17.581 -13.510  20.934  1.00  0.00     0.005 C 
BRANCH  19  20
HETATM   20  C25 UNL     1      18.151 -12.222  21.315  1.00  0.00    -0.026 C 
BRANCH  20  21
HETATM   21  C26 UNL     1      19.451 -11.728  20.884  1.00  0.00     0.054 C 
BRANCH  21  22
HETATM   22  C27 UNL     1      20.142 -12.912  20.158  1.00  0.00     0.233 C 
BRANCH  22  23
HETATM   23  N9  UNL     1      20.408 -12.578  18.794  1.00  0.00    -0.079 N 
ATOM     24  H93 UNL     1      20.989 -13.282  18.338  1.00  0.00     0.274 HD
ATOM     25  H92 UNL     1      19.574 -12.668  18.213  1.00  0.00     0.274 HD
ATOM     26  H91 UNL     1      20.818 -11.647  18.727  1.00  0.00     0.274 HD
ENDBRANCH  22  23
ENDBRANCH  21  22
ENDBRANCH  20  21
ENDBRANCH  19  20
ENDBRANCH  18  19
BRANCH   1  27
HETATM   27  C8  UNL     1      18.280 -17.590  24.156  1.00  0.00     0.153 C 
BRANCH  27  28
HETATM   28  C7  UNL     1      19.728 -17.387  23.776  1.00  0.00     0.266 C 
BRANCH  28  29
HETATM   29  N3  UNL     1      20.531 -16.916  24.859  1.00  0.00    -0.008 N 
HETATM   30  C3  UNL     1      20.763 -15.504  24.685  1.00  0.00     0.279 C 
HETATM   31  N1  UNL     1      20.221 -14.649  25.425  1.00  0.00    -0.336 N 
HETATM   32  N2  UNL     1      21.679 -15.450  23.606  1.00  0.00    -0.354 N 
ATOM     33  H1  UNL     1      19.587 -15.022  26.132  1.00  0.00     0.167 HD
HETATM   34  C4  UNL     1      22.624 -16.558  23.823  1.00  0.00     0.151 C 
ATOM     35  H2  UNL     1      21.683 -14.780  22.836  1.00  0.00     0.162 HD
HETATM   36  C5  UNL     1      21.841 -17.491  24.713  1.00  0.00     0.266 C 
HETATM   37  C6  UNL     1      19.950 -17.188  26.152  1.00  0.00     0.283 C 
BRANCH  31  38
HETATM   38  C2  UNL     1      20.361 -13.262  25.420  1.00  0.00     0.059 C 
HETATM   39  C1  UNL     1      21.039 -12.737  26.654  1.00  0.00     0.055 C 
ENDBRANCH  31  38
ENDBRANCH  28  29
ENDBRANCH  27  28
ENDBRANCH   1  27
BRANCH   8  40
HETATM   40  O2  UNL     1      14.262 -18.200  20.541  1.00  0.00    -0.347 OA
ATOM     41  H2  UNL     1      13.735 -18.441  21.293  1.00  0.00     0.219 HD
ENDBRANCH   8  40
BRANCH  17  42
HETATM   42  O4  UNL     1      14.146 -13.608  21.961  1.00  0.00    -0.347 OA
ATOM     43  H4  UNL     1      14.215 -14.385  22.503  1.00  0.00     0.219 HD
ENDBRANCH  17  42
BRANCH   9  44
HETATM   44  C12 UNL     1      12.233 -17.303  19.452  1.00  0.00     0.008 C 
HETATM   45  C13 UNL     1      11.981 -17.614  18.009  1.00  0.00     0.012 C 
HETATM   46  C14 UNL     1      11.026 -16.871  20.211  1.00  0.00     0.012 C 
ENDBRANCH   9  44
BRANCH  14  47
HETATM   47  C17 UNL     1      14.683 -12.539  17.418  1.00  0.00     0.012 C 
BRANCH  47  48
HETATM   48  C18 UNL     1      15.749 -11.724  16.869  1.00  0.00     0.002 C 
HETATM   49  C19 UNL     1      16.245 -11.955  15.487  1.00  0.00     0.013 C 
HETATM   50  C20 UNL     1      17.005 -12.007  17.750  1.00  0.00     0.013 C 
ENDBRANCH  47  48
ENDBRANCH  14  47
TORSDOF 14
ENDMDL
MODEL 5
REMARK VINA RESULT: -7.027350911      2.517      8.738
REMARK  14 active torsions:
REMARK  status: ('A' for Active; 'I' for Inactive)
REMARK    1  A    between atoms: C2_2  and  N1_3 
REMARK    2  A    between atoms: N3_10  and  C7_12 
REMARK    3  A    between atoms: C7_12  and  C8_13 
REMARK    4  A    between atoms: C8_13  and  N4_14 
REMARK       I    between atoms: N4_14  and  C9_16 
REMARK       I    between atoms: C9_16  and  N5_18 
REMARK    5  A    between atoms: C10_21  and  O2_22 
REMARK    6  A    between atoms: C11_24  and  C12_25 
REMARK    7  A    between atoms: C16_32  and  C17_33 
REMARK    8  A    between atoms: C17_33  and  C18_34 
REMARK    9  A    between atoms: C22_39  and  O4_40 
REMARK   10  A    between atoms: C23_42  and  C24_43 
REMARK   11  A    between atoms: C24_43  and  C25_44 
REMARK   12  A    between atoms: C25_44  and  C26_45 
REMARK   13  A    between atoms: C26_45  and  C27_46 
REMARK   14  A    between atoms: C27_46  and  N9_47 
ROOT
HETATM    1  N4  UNL     1      13.898 -15.884  21.955  1.00  0.00    -0.340 N 
ATOM      2  H4  UNL     1      13.617 -16.335  22.826  1.00  0.00     0.164 HD
HETATM    3  C9  UNL     1      15.249 -15.531  21.730  1.00  0.00     0.338 C 
HETATM    4  O1  UNL     1      15.596 -14.980  20.669  1.00  0.00    -0.245 OA
HETATM    5  N5  UNL     1      16.305 -15.792  22.732  1.00  0.00    -0.225 N 
HETATM    6  N6  UNL     1      16.033 -16.452  23.895  1.00  0.00    -0.275 N 
ATOM      7  H6  UNL     1      15.407 -15.880  24.462  1.00  0.00     0.189 HD
HETATM    8  C10 UNL     1      16.312 -17.636  24.577  1.00  0.00     0.154 C 
HETATM    9  C11 UNL     1      17.573 -18.214  25.104  1.00  0.00     0.164 C 
HETATM   10  N7  UNL     1      18.102 -17.422  26.194  1.00  0.00    -0.343 N 
ATOM     11  H7  UNL     1      18.030 -17.823  27.129  1.00  0.00     0.163 HD
HETATM   12  C15 UNL     1      18.698 -16.171  26.096  1.00  0.00     0.268 C 
HETATM   13  O3  UNL     1      18.503 -15.420  27.132  1.00  0.00    -0.266 OA
HETATM   14  C16 UNL     1      19.492 -15.520  25.081  1.00  0.00     0.100 C 
HETATM   15  N8  UNL     1      19.578 -16.068  23.756  1.00  0.00    -0.329 N 
HETATM   16  C21 UNL     1      20.864 -16.763  23.512  1.00  0.00     0.158 C 
HETATM   17  C22 UNL     1      18.661 -16.022  22.712  1.00  0.00     0.147 C 
HETATM   18  C23 UNL     1      17.579 -15.180  22.271  1.00  0.00     0.210 C 
ENDROOT
BRANCH  18  19
HETATM   19  C24 UNL     1      17.568 -13.729  22.503  1.00  0.00     0.005 C 
BRANCH  19  20
HETATM   20  C25 UNL     1      18.541 -12.831  21.889  1.00  0.00    -0.026 C 
BRANCH  20  21
HETATM   21  C26 UNL     1      18.206 -11.614  21.162  1.00  0.00     0.054 C 
BRANCH  21  22
HETATM   22  C27 UNL     1      16.744 -11.794  20.675  1.00  0.00     0.233 C 
BRANCH  22  23
HETATM   23  N9  UNL     1      16.006 -10.582  20.846  1.00  0.00    -0.079 N 
ATOM     24  H93 UNL     1      15.645 -10.488  21.795  1.00  0.00     0.274 HD
ATOM     25  H92 UNL     1      16.615  -9.763  20.831  1.00  0.00     0.274 HD
ATOM     26  H91 UNL     1      15.263 -10.514  20.151  1.00  0.00     0.274 HD
ENDBRANCH  22  23
ENDBRANCH  21  22
ENDBRANCH  20  21
ENDBRANCH  19  20
ENDBRANCH  18  19
BRANCH   1  27
HETATM   27  C8  UNL     1      12.925 -15.593  20.932  1.00  0.00     0.153 C 
BRANCH  27  28
HETATM   28  C7  UNL     1      12.223 -16.885  20.583  1.00  0.00     0.266 C 
BRANCH  28  29
HETATM   29  N3  UNL     1      12.005 -17.043  19.180  1.00  0.00    -0.008 N 
HETATM   30  C3  UNL     1      11.881 -18.449  18.886  1.00  0.00     0.279 C 
HETATM   31  N1  UNL     1      10.782 -18.962  18.566  1.00  0.00    -0.336 N 
HETATM   32  N2  UNL     1      13.204 -18.934  19.025  1.00  0.00    -0.354 N 
ATOM     33  H1  UNL     1       9.987 -18.324  18.560  1.00  0.00     0.167 HD
HETATM   34  C4  UNL     1      14.076 -17.904  18.437  1.00  0.00     0.151 C 
ATOM     35  H2  UNL     1      13.493 -19.817  19.447  1.00  0.00     0.162 HD
HETATM   36  C5  UNL     1      13.218 -16.665  18.505  1.00  0.00     0.266 C 
HETATM   37  C6  UNL     1      10.856 -16.312  18.702  1.00  0.00     0.283 C 
BRANCH  31  38
HETATM   38  C2  UNL     1      10.493 -20.281  18.217  1.00  0.00     0.059 C 
HETATM   39  C1  UNL     1      10.414 -21.197  19.405  1.00  0.00     0.055 C 
ENDBRANCH  31  38
ENDBRANCH  28  29
ENDBRANCH  27  28
ENDBRANCH   1  27
BRANCH   8  40
HETATM   40  O2  UNL     1      15.328 -18.478  24.867  1.00  0.00    -0.347 OA
ATOM     41  H2  UNL     1      15.510 -19.407  24.948  1.00  0.00     0.219 HD
ENDBRANCH   8  40
BRANCH  17  42
HETATM   42  O4  UNL     1      18.821 -17.034  21.895  1.00  0.00    -0.347 OA
ATOM     43  H4  UNL     1      18.154 -17.697  22.033  1.00  0.00     0.219 HD
ENDBRANCH  17  42
BRANCH   9  44
HETATM   44  C12 UNL     1      17.341 -19.619  25.733  1.00  0.00     0.008 C 
HETATM   45  C13 UNL     1      17.566 -19.604  27.214  1.00  0.00     0.012 C 
HETATM   46  C14 UNL     1      18.092 -20.681  25.006  1.00  0.00     0.012 C 
ENDBRANCH   9  44
BRANCH  14  47
HETATM   47  C17 UNL     1      20.737 -15.003  25.673  1.00  0.00     0.012 C 
BRANCH  47  48
HETATM   48  C18 UNL     1      21.251 -13.663  25.466  1.00  0.00     0.002 C 
HETATM   49  C19 UNL     1      22.712 -13.422  25.349  1.00  0.00     0.013 C 
HETATM   50  C20 UNL     1      20.855 -12.849  26.736  1.00  0.00     0.013 C 
ENDBRANCH  47  48
ENDBRANCH  14  47
TORSDOF 14
ENDMDL
