MODEL 1
REMARK VINA RESULT: -8.213102960      0.000      0.000
REMARK  13 active torsions:
REMARK  status: ('A' for Active; 'I' for Inactive)
REMARK    1  A    between atoms: C2_2  and  C4_4 
REMARK    2  A    between atoms: C4_4  and  C5_5 
REMARK    3  A    between atoms: C10_16  and  C11_17 
REMARK    4  A    between atoms: C11_17  and  C12_18 
REMARK    5  A    between atoms: C16_23  and  O3_24 
REMARK    6  A    between atoms: C17_26  and  C18_27 
REMARK    7  A    between atoms: C18_27  and  C19_28 
REMARK    8  A    between atoms: C19_28  and  C20_29 
REMARK    9  A    between atoms: C20_29  and  N4_30 
REMARK   10  A    between atoms: C22_37  and  O4_38 
REMARK   11  A    between atoms: C23_40  and  C24_41 
REMARK   12  A    between atoms: C24_41  and  C25_42 
REMARK   13  A    between atoms: C28_47  and  O5_48 
ROOT
HETATM    1  C5  UNL     1      16.238 -12.418  19.047  1.00  0.00     0.159 C 
HETATM    2  N1  UNL     1      14.787 -12.603  19.043  1.00  0.00    -0.347 N 
ATOM      3  H1  UNL     1      14.358 -12.783  18.135  1.00  0.00     0.163 HD
HETATM    4  C6  UNL     1      13.923 -12.562  20.131  1.00  0.00     0.240 C 
HETATM    5  O1  UNL     1      12.827 -11.908  19.959  1.00  0.00    -0.271 OA
HETATM    6  C7  UNL     1      14.080 -13.169  21.471  1.00  0.00     0.172 C 
HETATM    7  C8  UNL     1      13.366 -12.222  22.453  1.00  0.00     0.042 C 
HETATM    8  N2  UNL     1      13.483 -14.488  21.585  1.00  0.00    -0.346 N 
ATOM      9  H2  UNL     1      12.472 -14.523  21.719  1.00  0.00     0.163 HD
HETATM   10  C9  UNL     1      14.157 -15.723  21.529  1.00  0.00     0.241 C 
HETATM   11  O2  UNL     1      13.836 -16.602  22.392  1.00  0.00    -0.271 OA
HETATM   12  C10 UNL     1      15.196 -16.105  20.579  1.00  0.00     0.178 C 
HETATM   13  N3  UNL     1      16.175 -17.068  21.107  1.00  0.00    -0.355 N 
HETATM   14  C15 UNL     1      16.472 -18.154  20.146  1.00  0.00     0.152 C 
HETATM   15  C16 UNL     1      16.809 -17.076  22.342  1.00  0.00     0.137 C 
HETATM   16  C17 UNL     1      17.612 -16.160  23.142  1.00  0.00     0.158 C 
HETATM   17  N7  UNL     1      17.478 -14.769  23.035  1.00  0.00    -0.357 N 
ATOM     18  H7  UNL     1      16.530 -14.485  23.284  1.00  0.00     0.162 HD
HETATM   19  C22 UNL     1      18.246 -13.649  22.692  1.00  0.00     0.159 C 
HETATM   20  C23 UNL     1      18.560 -13.018  21.408  1.00  0.00     0.062 C 
HETATM   21  N8  UNL     1      17.718 -11.868  21.131  1.00  0.00    -0.339 N 
ATOM     22  H8  UNL     1      17.932 -11.054  21.707  1.00  0.00     0.167 HD
HETATM   23  C28 UNL     1      16.681 -11.661  20.237  1.00  0.00     0.139 C 
ENDROOT
BRANCH  16  24
HETATM   24  C18 UNL     1      17.482 -16.529  24.639  1.00  0.00     0.035 C 
BRANCH  24  25
HETATM   25  C19 UNL     1      18.569 -16.041  25.498  1.00  0.00     0.022 C 
BRANCH  25  26
HETATM   26  C20 UNL     1      19.885 -16.487  24.847  1.00  0.00     0.122 C 
BRANCH  26  27
HETATM   27  N4  UNL     1      20.780 -15.345  24.650  1.00  0.00    -0.367 N 
HETATM   28  C21 UNL     1      21.365 -15.149  23.509  1.00  0.00     0.196 C 
HETATM   29  N5  UNL     1      21.173 -16.022  22.395  1.00  0.00    -0.067 NA
HETATM   30  N6  UNL     1      22.220 -14.022  23.397  1.00  0.00    -0.067 NA
ATOM     31  H4  UNL     1      20.944 -14.696  25.420  1.00  0.00     0.161 HD
ENDBRANCH  26  27
ENDBRANCH  25  26
ENDBRANCH  24  25
ENDBRANCH  16  24
BRANCH  15  32
HETATM   32  O3  UNL     1      16.642 -18.225  22.952  1.00  0.00    -0.348 OA
ATOM     33  H3  UNL     1      16.353 -18.098  23.848  1.00  0.00     0.219 HD
ENDBRANCH  15  32
BRANCH  19  34
HETATM   34  O4  UNL     1      18.818 -12.978  23.678  1.00  0.00    -0.345 OA
ATOM     35  H4  UNL     1      18.875 -12.033  23.590  1.00  0.00     0.219 HD
ENDBRANCH  19  34
BRANCH  12  36
HETATM   36  C11 UNL     1      14.626 -16.441  19.271  1.00  0.00     0.038 C 
BRANCH  36  37
HETATM   37  C12 UNL     1      13.266 -16.992  19.101  1.00  0.00    -0.020 C 
HETATM   38  C13 UNL     1      13.306 -18.033  17.925  1.00  0.00     0.009 C 
HETATM   39  C14 UNL     1      12.204 -16.018  18.616  1.00  0.00     0.009 C 
ENDBRANCH  36  37
ENDBRANCH  12  36
BRANCH  20  40
HETATM   40  C24 UNL     1      19.151 -13.725  20.273  1.00  0.00     0.065 C 
BRANCH  40  41
HETATM   41  C25 UNL     1      20.317 -13.097  19.564  1.00  0.00    -0.017 C 
HETATM   42  C26 UNL     1      20.142 -12.457  18.272  1.00  0.00     0.010 C 
HETATM   43  C27 UNL     1      21.023 -12.094  20.493  1.00  0.00     0.010 C 
ENDBRANCH  40  41
ENDBRANCH  20  40
BRANCH  23  44
HETATM   44  O5  UNL     1      15.922 -10.619  20.432  1.00  0.00    -0.348 OA
ATOM     45  H5  UNL     1      15.081 -10.878  20.791  1.00  0.00     0.219 HD
ENDBRANCH  23  44
BRANCH   1  46
HETATM   46  C4  UNL     1      16.650 -11.677  17.762  1.00  0.00     0.037 C 
BRANCH  46  47
HETATM   47  C2  UNL     1      15.684 -11.751  16.660  1.00  0.00    -0.020 C 
HETATM   48  C1  UNL     1      15.942 -12.834  15.647  1.00  0.00     0.009 C 
HETATM   49  C3  UNL     1      15.759 -10.413  15.908  1.00  0.00     0.009 C 
ENDBRANCH  46  47
ENDBRANCH   1  46
TORSDOF 13
ENDMDL
MODEL 2
REMARK VINA RESULT: -8.067439423      0.869      1.016
REMARK  13 active torsions:
REMARK  status: ('A' for Active; 'I' for Inactive)
REMARK    1  A    between atoms: C2_2  and  C4_4 
REMARK    2  A    between atoms: C4_4  and  C5_5 
REMARK    3  A    between atoms: C10_16  and  C11_17 
REMARK    4  A    between atoms: C11_17  and  C12_18 
REMARK    5  A    between atoms: C16_23  and  O3_24 
REMARK    6  A    between atoms: C17_26  and  C18_27 
REMARK    7  A    between atoms: C18_27  and  C19_28 
REMARK    8  A    between atoms: C19_28  and  C20_29 
REMARK    9  A    between atoms: C20_29  and  N4_30 
REMARK   10  A    between atoms: C22_37  and  O4_38 
REMARK   11  A    between atoms: C23_40  and  C24_41 
REMARK   12  A    between atoms: C24_41  and  C25_42 
REMARK   13  A    between atoms: C28_47  and  O5_48 
ROOT
HETATM    1  C5  UNL     1      16.222 -12.387  19.035  1.00  0.00     0.159 C 
HETATM    2  N1  UNL     1      14.770 -12.568  19.041  1.00  0.00    -0.347 N 
ATOM      3  H1  UNL     1      14.334 -12.741  18.135  1.00  0.00     0.163 HD
HETATM    4  C6  UNL     1      13.915 -12.532  20.136  1.00  0.00     0.240 C 
HETATM    5  O1  UNL     1      12.820 -11.873  19.978  1.00  0.00    -0.271 OA
HETATM    6  C7  UNL     1      14.081 -13.148  21.471  1.00  0.00     0.172 C 
HETATM    7  C8  UNL     1      13.378 -12.205  22.465  1.00  0.00     0.042 C 
HETATM    8  N2  UNL     1      13.480 -14.465  21.582  1.00  0.00    -0.346 N 
ATOM      9  H2  UNL     1      12.471 -14.498  21.723  1.00  0.00     0.163 HD
HETATM   10  C9  UNL     1      14.150 -15.703  21.513  1.00  0.00     0.241 C 
HETATM   11  O2  UNL     1      13.833 -16.586  22.372  1.00  0.00    -0.271 OA
HETATM   12  C10 UNL     1      15.181 -16.081  20.552  1.00  0.00     0.178 C 
HETATM   13  N3  UNL     1      16.161 -17.051  21.066  1.00  0.00    -0.355 N 
HETATM   14  C15 UNL     1      16.448 -18.132  20.096  1.00  0.00     0.152 C 
HETATM   15  C16 UNL     1      16.805 -17.069  22.296  1.00  0.00     0.137 C 
HETATM   16  C17 UNL     1      17.617 -16.160  23.095  1.00  0.00     0.158 C 
HETATM   17  N7  UNL     1      17.486 -14.768  22.998  1.00  0.00    -0.357 N 
ATOM     18  H7  UNL     1      16.541 -14.483  23.257  1.00  0.00     0.162 HD
HETATM   19  C22 UNL     1      18.254 -13.649  22.657  1.00  0.00     0.159 C 
HETATM   20  C23 UNL     1      18.561 -13.009  21.374  1.00  0.00     0.062 C 
HETATM   21  N8  UNL     1      17.720 -11.856  21.111  1.00  0.00    -0.339 N 
ATOM     22  H8  UNL     1      17.941 -11.046  21.691  1.00  0.00     0.167 HD
HETATM   23  C28 UNL     1      16.677 -11.639  20.227  1.00  0.00     0.139 C 
ENDROOT
BRANCH  16  24
HETATM   24  C18 UNL     1      17.497 -16.538  24.590  1.00  0.00     0.035 C 
BRANCH  24  25
HETATM   25  C19 UNL     1      17.722 -15.434  25.533  1.00  0.00     0.022 C 
BRANCH  25  26
HETATM   26  C20 UNL     1      19.186 -15.526  25.984  1.00  0.00     0.122 C 
BRANCH  26  27
HETATM   27  N4  UNL     1      19.651 -14.239  26.505  1.00  0.00    -0.367 N 
HETATM   28  C21 UNL     1      20.706 -13.666  26.013  1.00  0.00     0.196 C 
HETATM   29  N5  UNL     1      21.464 -14.249  24.951  1.00  0.00    -0.067 NA
HETATM   30  N6  UNL     1      21.095 -12.421  26.572  1.00  0.00    -0.067 NA
ATOM     31  H4  UNL     1      19.138 -13.787  27.262  1.00  0.00     0.161 HD
ENDBRANCH  26  27
ENDBRANCH  25  26
ENDBRANCH  24  25
ENDBRANCH  16  24
BRANCH  15  32
HETATM   32  O3  UNL     1      16.639 -18.220  22.899  1.00  0.00    -0.348 OA
ATOM     33  H3  UNL     1      16.224 -18.852  22.324  1.00  0.00     0.219 HD
ENDBRANCH  15  32
BRANCH  19  34
HETATM   34  O4  UNL     1      18.837 -12.985  23.643  1.00  0.00    -0.345 OA
ATOM     35  H4  UNL     1      19.320 -13.492  24.285  1.00  0.00     0.219 HD
ENDBRANCH  19  34
BRANCH  12  36
HETATM   36  C11 UNL     1      14.600 -16.408  19.246  1.00  0.00     0.038 C 
BRANCH  36  37
HETATM   37  C12 UNL     1      13.253 -16.993  19.085  1.00  0.00    -0.020 C 
HETATM   38  C13 UNL     1      13.314 -18.037  17.913  1.00  0.00     0.009 C 
HETATM   39  C14 UNL     1      12.164 -16.050  18.604  1.00  0.00     0.009 C 
ENDBRANCH  36  37
ENDBRANCH  12  36
BRANCH  20  40
HETATM   40  C24 UNL     1      19.141 -13.711  20.231  1.00  0.00     0.065 C 
BRANCH  40  41
HETATM   41  C25 UNL     1      20.300 -13.080  19.513  1.00  0.00    -0.017 C 
HETATM   42  C26 UNL     1      20.112 -12.428  18.230  1.00  0.00     0.010 C 
HETATM   43  C27 UNL     1      21.020 -12.087  20.444  1.00  0.00     0.010 C 
ENDBRANCH  40  41
ENDBRANCH  20  40
BRANCH  23  44
HETATM   44  O5  UNL     1      15.922 -10.597  20.434  1.00  0.00    -0.348 OA
ATOM     45  H5  UNL     1      16.340  -9.994  21.039  1.00  0.00     0.219 HD
ENDBRANCH  23  44
BRANCH   1  46
HETATM   46  C4  UNL     1      16.626 -11.639  17.752  1.00  0.00     0.037 C 
BRANCH  46  47
HETATM   47  C2  UNL     1      15.666 -11.731  16.646  1.00  0.00    -0.020 C 
HETATM   48  C1  UNL     1      15.953 -12.805  15.631  1.00  0.00     0.009 C 
HETATM   49  C3  UNL     1      15.716 -10.390  15.898  1.00  0.00     0.009 C 
ENDBRANCH  46  47
ENDBRANCH   1  46
TORSDOF 13
ENDMDL
MODEL 3
REMARK VINA RESULT: -7.428901883      1.918      2.740
REMARK  13 active torsions:
REMARK  status: ('A' for Active; 'I' for Inactive)
REMARK    1  A    between atoms: C2_2  and  C4_4 
REMARK    2  A    between atoms: C4_4  and  C5_5 
REMARK    3  A    between atoms: C10_16  and  C11_17 
REMARK    4  A    between atoms: C11_17  and  C12_18 
REMARK    5  A    between atoms: C16_23  and  O3_24 
REMARK    6  A    between atoms: C17_26  and  C18_27 
REMARK    7  A    between atoms: C18_27  and  C19_28 
REMARK    8  A    between atoms: C19_28  and  C20_29 
REMARK    9  A    between atoms: C20_29  and  N4_30 
REMARK   10  A    between atoms: C22_37  and  O4_38 
REMARK   11  A    between atoms: C23_40  and  C24_41 
REMARK   12  A    between atoms: C24_41  and  C25_42 
REMARK   13  A    between atoms: C28_47  and  O5_48 
ROOT
HETATM    1  C5  UNL     1      16.087 -12.471  19.201  1.00  0.00     0.159 C 
HETATM    2  N1  UNL     1      14.630 -12.566  19.112  1.00  0.00    -0.347 N 
ATOM      3  H1  UNL     1      14.242 -12.678  18.175  1.00  0.00     0.163 HD
HETATM    4  C6  UNL     1      13.711 -12.521  20.153  1.00  0.00     0.240 C 
HETATM    5  O1  UNL     1      12.667 -11.793  19.956  1.00  0.00    -0.271 OA
HETATM    6  C7  UNL     1      13.757 -13.196  21.470  1.00  0.00     0.172 C 
HETATM    7  C8  UNL     1      13.047 -12.252  22.457  1.00  0.00     0.042 C 
HETATM    8  N2  UNL     1      13.077 -14.479  21.488  1.00  0.00    -0.346 N 
ATOM      9  H2  UNL     1      12.060 -14.458  21.566  1.00  0.00     0.163 HD
HETATM   10  C9  UNL     1      13.679 -15.750  21.408  1.00  0.00     0.241 C 
HETATM   11  O2  UNL     1      13.259 -16.646  22.209  1.00  0.00    -0.271 OA
HETATM   12  C10 UNL     1      14.745 -16.152  20.497  1.00  0.00     0.178 C 
HETATM   13  N3  UNL     1      15.634 -17.197  21.028  1.00  0.00    -0.355 N 
HETATM   14  C15 UNL     1      15.920 -18.255  20.033  1.00  0.00     0.152 C 
HETATM   15  C16 UNL     1      16.197 -17.300  22.293  1.00  0.00     0.137 C 
HETATM   16  C17 UNL     1      17.008 -16.472  23.177  1.00  0.00     0.158 C 
HETATM   17  N7  UNL     1      16.962 -15.072  23.131  1.00  0.00    -0.357 N 
ATOM     18  H7  UNL     1      16.020 -14.741  23.343  1.00  0.00     0.162 HD
HETATM   19  C22 UNL     1      17.813 -13.988  22.883  1.00  0.00     0.159 C 
HETATM   20  C23 UNL     1      18.235 -13.319  21.649  1.00  0.00     0.062 C 
HETATM   21  N8  UNL     1      17.479 -12.109  21.385  1.00  0.00    -0.339 N 
ATOM     22  H8  UNL     1      17.709 -11.336  22.010  1.00  0.00     0.167 HD
HETATM   23  C28 UNL     1      16.507 -11.797  20.448  1.00  0.00     0.139 C 
ENDROOT
BRANCH  16  24
HETATM   24  C18 UNL     1      16.773 -16.899  24.646  1.00  0.00     0.035 C 
BRANCH  24  25
HETATM   25  C19 UNL     1      17.959 -17.412  25.344  1.00  0.00     0.022 C 
BRANCH  25  26
HETATM   26  C20 UNL     1      17.539 -18.720  26.030  1.00  0.00     0.122 C 
BRANCH  26  27
HETATM   27  N4  UNL     1      16.179 -19.096  25.640  1.00  0.00    -0.367 N 
HETATM   28  C21 UNL     1      15.460 -19.864  26.399  1.00  0.00     0.196 C 
HETATM   29  N5  UNL     1      15.945 -20.379  27.639  1.00  0.00    -0.067 NA
HETATM   30  N6  UNL     1      14.152 -20.187  25.951  1.00  0.00    -0.067 NA
ATOM     31  H4  UNL     1      15.793 -18.750  24.761  1.00  0.00     0.161 HD
ENDBRANCH  26  27
ENDBRANCH  25  26
ENDBRANCH  24  25
ENDBRANCH  16  24
BRANCH  15  32
HETATM   32  O3  UNL     1      15.929 -18.462  22.837  1.00  0.00    -0.348 OA
ATOM     33  H3  UNL     1      16.476 -19.147  22.470  1.00  0.00     0.219 HD
ENDBRANCH  15  32
BRANCH  19  34
HETATM   34  O4  UNL     1      18.369 -13.398  23.930  1.00  0.00    -0.345 OA
ATOM     35  H4  UNL     1      18.035 -12.543  24.179  1.00  0.00     0.219 HD
ENDBRANCH  19  34
BRANCH  12  36
HETATM   36  C11 UNL     1      14.230 -16.394  19.146  1.00  0.00     0.038 C 
BRANCH  36  37
HETATM   37  C12 UNL     1      12.972 -17.122  18.880  1.00  0.00    -0.020 C 
HETATM   38  C13 UNL     1      13.181 -17.999  17.593  1.00  0.00     0.009 C 
HETATM   39  C14 UNL     1      11.775 -16.274  18.485  1.00  0.00     0.009 C 
ENDBRANCH  36  37
ENDBRANCH  12  36
BRANCH  20  40
HETATM   40  C24 UNL     1      18.845 -14.010  20.515  1.00  0.00     0.065 C 
BRANCH  40  41
HETATM   41  C25 UNL     1      20.154 -13.500  19.984  1.00  0.00    -0.017 C 
HETATM   42  C26 UNL     1      20.198 -12.646  18.811  1.00  0.00     0.010 C 
HETATM   43  C27 UNL     1      20.943 -12.800  21.105  1.00  0.00     0.010 C 
ENDBRANCH  40  41
ENDBRANCH  20  40
BRANCH  23  44
HETATM   44  O5  UNL     1      15.802 -10.721  20.653  1.00  0.00    -0.348 OA
ATOM     45  H5  UNL     1      15.521 -10.669  21.559  1.00  0.00     0.219 HD
ENDBRANCH  23  44
BRANCH   1  46
HETATM   46  C4  UNL     1      16.613 -11.700  17.977  1.00  0.00     0.037 C 
BRANCH  46  47
HETATM   47  C2  UNL     1      15.729 -11.709  16.805  1.00  0.00    -0.020 C 
HETATM   48  C1  UNL     1      15.922 -12.865  15.861  1.00  0.00     0.009 C 
HETATM   49  C3  UNL     1      16.031 -10.431  16.009  1.00  0.00     0.009 C 
ENDBRANCH  46  47
ENDBRANCH   1  46
TORSDOF 13
ENDMDL
MODEL 4
REMARK VINA RESULT: -7.354743246      1.695      2.200
REMARK  13 active torsions:
REMARK  status: ('A' for Active; 'I' for Inactive)
REMARK    1  A    between atoms: C2_2  and  C4_4 
REMARK    2  A    between atoms: C4_4  and  C5_5 
REMARK    3  A    between atoms: C10_16  and  C11_17 
REMARK    4  A    between atoms: C11_17  and  C12_18 
REMARK    5  A    between atoms: C16_23  and  O3_24 
REMARK    6  A    between atoms: C17_26  and  C18_27 
REMARK    7  A    between atoms: C18_27  and  C19_28 
REMARK    8  A    between atoms: C19_28  and  C20_29 
REMARK    9  A    between atoms: C20_29  and  N4_30 
REMARK   10  A    between atoms: C22_37  and  O4_38 
REMARK   11  A    between atoms: C23_40  and  C24_41 
REMARK   12  A    between atoms: C24_41  and  C25_42 
REMARK   13  A    between atoms: C28_47  and  O5_48 
ROOT
HETATM    1  C5  UNL     1      16.081 -12.396  19.165  1.00  0.00     0.159 C 
HETATM    2  N1  UNL     1      14.626 -12.538  19.126  1.00  0.00    -0.347 N 
ATOM      3  H1  UNL     1      14.212 -12.672  18.204  1.00  0.00     0.163 HD
HETATM    4  C6  UNL     1      13.741 -12.511  20.197  1.00  0.00     0.240 C 
HETATM    5  O1  UNL     1      12.669 -11.818  20.029  1.00  0.00    -0.271 OA
HETATM    6  C7  UNL     1      13.853 -13.171  21.518  1.00  0.00     0.172 C 
HETATM    7  C8  UNL     1      13.147 -12.239  22.519  1.00  0.00     0.042 C 
HETATM    8  N2  UNL     1      13.215 -14.474  21.571  1.00  0.00    -0.346 N 
ATOM      9  H2  UNL     1      12.202 -14.484  21.683  1.00  0.00     0.163 HD
HETATM   10  C9  UNL     1      13.854 -15.726  21.483  1.00  0.00     0.241 C 
HETATM   11  O2  UNL     1      13.490 -16.626  22.306  1.00  0.00    -0.271 OA
HETATM   12  C10 UNL     1      14.902 -16.104  20.540  1.00  0.00     0.178 C 
HETATM   13  N3  UNL     1      15.841 -17.115  21.051  1.00  0.00    -0.355 N 
HETATM   14  C15 UNL     1      16.127 -18.173  20.057  1.00  0.00     0.152 C 
HETATM   15  C16 UNL     1      16.449 -17.186  22.297  1.00  0.00     0.137 C 
HETATM   16  C17 UNL     1      17.262 -16.324  23.146  1.00  0.00     0.158 C 
HETATM   17  N7  UNL     1      17.170 -14.926  23.088  1.00  0.00    -0.357 N 
ATOM     18  H7  UNL     1      16.226 -14.624  23.328  1.00  0.00     0.162 HD
HETATM   19  C22 UNL     1      17.977 -13.819  22.801  1.00  0.00     0.159 C 
HETATM   20  C23 UNL     1      18.336 -13.150  21.548  1.00  0.00     0.062 C 
HETATM   21  N8  UNL     1      17.534 -11.967  21.297  1.00  0.00    -0.339 N 
ATOM     22  H8  UNL     1      17.759 -11.181  21.908  1.00  0.00     0.167 HD
HETATM   23  C28 UNL     1      16.522 -11.696  20.391  1.00  0.00     0.139 C 
ENDROOT
BRANCH  16  24
HETATM   24  C18 UNL     1      17.090 -16.743  24.625  1.00  0.00     0.035 C 
BRANCH  24  25
HETATM   25  C19 UNL     1      18.249 -16.476  25.488  1.00  0.00     0.022 C 
BRANCH  25  26
HETATM   26  C20 UNL     1      18.681 -17.825  26.080  1.00  0.00     0.122 C 
BRANCH  26  27
HETATM   27  N4  UNL     1      18.907 -17.709  27.522  1.00  0.00    -0.367 N 
HETATM   28  C21 UNL     1      18.328 -18.521  28.352  1.00  0.00     0.196 C 
HETATM   29  N5  UNL     1      17.451 -19.560  27.913  1.00  0.00    -0.067 NA
HETATM   30  N6  UNL     1      18.595 -18.343  29.734  1.00  0.00    -0.067 NA
ATOM     31  H4  UNL     1      19.527 -16.981  27.878  1.00  0.00     0.161 HD
ENDBRANCH  26  27
ENDBRANCH  25  26
ENDBRANCH  24  25
ENDBRANCH  16  24
BRANCH  15  32
HETATM   32  O3  UNL     1      16.236 -18.350  22.860  1.00  0.00    -0.348 OA
ATOM     33  H3  UNL     1      15.416 -18.354  23.339  1.00  0.00     0.219 HD
ENDBRANCH  15  32
BRANCH  19  34
HETATM   34  O4  UNL     1      18.548 -13.201  23.823  1.00  0.00    -0.345 OA
ATOM     35  H4  UNL     1      19.325 -12.684  23.643  1.00  0.00     0.219 HD
ENDBRANCH  19  34
BRANCH  12  36
HETATM   36  C11 UNL     1      14.350 -16.376  19.209  1.00  0.00     0.038 C 
BRANCH  36  37
HETATM   37  C12 UNL     1      13.068 -17.079  18.995  1.00  0.00    -0.020 C 
HETATM   38  C13 UNL     1      13.241 -18.042  17.766  1.00  0.00     0.009 C 
HETATM   39  C14 UNL     1      11.897 -16.219  18.552  1.00  0.00     0.009 C 
ENDBRANCH  36  37
ENDBRANCH  12  36
BRANCH  20  40
HETATM   40  C24 UNL     1      18.930 -13.833  20.400  1.00  0.00     0.065 C 
BRANCH  40  41
HETATM   41  C25 UNL     1      20.192 -13.274  19.806  1.00  0.00    -0.017 C 
HETATM   42  C26 UNL     1      20.151 -12.471  18.597  1.00  0.00     0.010 C 
HETATM   43  C27 UNL     1      20.971 -12.482  20.871  1.00  0.00     0.010 C 
ENDBRANCH  40  41
ENDBRANCH  20  40
BRANCH  23  44
HETATM   44  O5  UNL     1      15.789 -10.640  20.610  1.00  0.00    -0.348 OA
ATOM     45  H5  UNL     1      15.086 -10.581  19.974  1.00  0.00     0.219 HD
ENDBRANCH  23  44
BRANCH   1  46
HETATM   46  C4  UNL     1      16.542 -11.621  17.917  1.00  0.00     0.037 C 
BRANCH  46  47
HETATM   47  C2  UNL     1      15.655 -11.729  16.752  1.00  0.00    -0.020 C 
HETATM   48  C1  UNL     1      15.961 -12.864  15.813  1.00  0.00     0.009 C 
HETATM   49  C3  UNL     1      15.816 -10.431  15.947  1.00  0.00     0.009 C 
ENDBRANCH  46  47
ENDBRANCH   1  46
TORSDOF 13
ENDMDL
MODEL 5
REMARK VINA RESULT: -7.269706255      1.491      1.835
REMARK  13 active torsions:
REMARK  status: ('A' for Active; 'I' for Inactive)
REMARK    1  A    between atoms: C2_2  and  C4_4 
REMARK    2  A    between atoms: C4_4  and  C5_5 
REMARK    3  A    between atoms: C10_16  and  C11_17 
REMARK    4  A    between atoms: C11_17  and  C12_18 
REMARK    5  A    between atoms: C16_23  and  O3_24 
REMARK    6  A    between atoms: C17_26  and  C18_27 
REMARK    7  A    between atoms: C18_27  and  C19_28 
REMARK    8  A    between atoms: C19_28  and  C20_29 
REMARK    9  A    between atoms: C20_29  and  N4_30 
REMARK   10  A    between atoms: C22_37  and  O4_38 
REMARK   11  A    between atoms: C23_40  and  C24_41 
REMARK   12  A    between atoms: C24_41  and  C25_42 
REMARK   13  A    between atoms: C28_47  and  O5_48 
ROOT
HETATM    1  C5  UNL     1      15.241 -13.124  18.321  1.00  0.00     0.159 C 
HETATM    2  N1  UNL     1      13.992 -13.783  18.701  1.00  0.00    -0.347 N 
ATOM      3  H1  UNL     1      13.556 -14.367  17.988  1.00  0.00     0.163 HD
HETATM    4  C6  UNL     1      13.330 -13.708  19.921  1.00  0.00     0.240 C 
HETATM    5  O1  UNL     1      12.053 -13.551  19.862  1.00  0.00    -0.271 OA
HETATM    6  C7  UNL     1      13.883 -13.783  21.291  1.00  0.00     0.172 C 
HETATM    7  C8  UNL     1      12.988 -12.883  22.162  1.00  0.00     0.042 C 
HETATM    8  N2  UNL     1      13.872 -15.124  21.849  1.00  0.00    -0.346 N 
ATOM      9  H2  UNL     1      12.983 -15.458  22.220  1.00  0.00     0.163 HD
HETATM   10  C9  UNL     1      14.964 -16.010  21.928  1.00  0.00     0.241 C 
HETATM   11  O2  UNL     1      15.128 -16.637  23.024  1.00  0.00    -0.271 OA
HETATM   12  C10 UNL     1      15.939 -16.287  20.878  1.00  0.00     0.178 C 
HETATM   13  N3  UNL     1      17.276 -16.649  21.372  1.00  0.00    -0.355 N 
HETATM   14  C15 UNL     1      17.850 -17.807  20.652  1.00  0.00     0.152 C 
HETATM   15  C16 UNL     1      18.016 -16.062  22.390  1.00  0.00     0.137 C 
HETATM   16  C17 UNL     1      18.490 -14.729  22.741  1.00  0.00     0.158 C 
HETATM   17  N7  UNL     1      17.807 -13.571  22.345  1.00  0.00    -0.357 N 
ATOM     18  H7  UNL     1      16.864 -13.565  22.735  1.00  0.00     0.162 HD
HETATM   19  C22 UNL     1      18.022 -12.419  21.578  1.00  0.00     0.159 C 
HETATM   20  C23 UNL     1      17.896 -12.144  20.144  1.00  0.00     0.062 C 
HETATM   21  N8  UNL     1      16.642 -11.493  19.811  1.00  0.00    -0.339 N 
ATOM     22  H8  UNL     1      16.591 -10.520  20.113  1.00  0.00     0.167 HD
HETATM   23  C28 UNL     1      15.501 -11.935  19.162  1.00  0.00     0.139 C 
ENDROOT
BRANCH  16  24
HETATM   24  C18 UNL     1      18.709 -14.643  24.270  1.00  0.00     0.035 C 
BRANCH  24  25
HETATM   25  C19 UNL     1      19.729 -13.678  24.701  1.00  0.00     0.022 C 
BRANCH  25  26
HETATM   26  C20 UNL     1      21.060 -14.440  24.771  1.00  0.00     0.122 C 
BRANCH  26  27
HETATM   27  N4  UNL     1      22.172 -13.519  25.018  1.00  0.00    -0.367 N 
HETATM   28  C21 UNL     1      23.355 -13.767  24.548  1.00  0.00     0.196 C 
HETATM   29  N5  UNL     1      23.637 -14.934  23.774  1.00  0.00    -0.067 NA
HETATM   30  N6  UNL     1      24.382 -12.830  24.833  1.00  0.00    -0.067 NA
ATOM     31  H4  UNL     1      22.013 -12.674  25.566  1.00  0.00     0.161 HD
ENDBRANCH  26  27
ENDBRANCH  25  26
ENDBRANCH  24  25
ENDBRANCH  16  24
BRANCH  15  32
HETATM   32  O3  UNL     1      18.393 -16.953  23.275  1.00  0.00    -0.348 OA
ATOM     33  H3  UNL     1      18.973 -17.597  22.886  1.00  0.00     0.219 HD
ENDBRANCH  15  32
BRANCH  19  34
HETATM   34  O4  UNL     1      18.407 -11.325  22.216  1.00  0.00    -0.345 OA
ATOM     35  H4  UNL     1      18.080 -10.493  21.894  1.00  0.00     0.219 HD
ENDBRANCH  19  34
BRANCH  12  36
HETATM   36  C11 UNL     1      15.384 -17.180  19.857  1.00  0.00     0.038 C 
BRANCH  36  37
HETATM   37  C12 UNL     1      14.706 -16.691  18.638  1.00  0.00    -0.020 C 
HETATM   38  C13 UNL     1      13.250 -17.281  18.621  1.00  0.00     0.009 C 
HETATM   39  C14 UNL     1      15.259 -17.195  17.315  1.00  0.00     0.009 C 
ENDBRANCH  36  37
ENDBRANCH  12  36
BRANCH  20  40
HETATM   40  C24 UNL     1      18.565 -12.918  19.102  1.00  0.00     0.065 C 
BRANCH  40  41
HETATM   41  C25 UNL     1      20.017 -12.646  18.825  1.00  0.00    -0.017 C 
HETATM   42  C26 UNL     1      20.414 -11.795  17.718  1.00  0.00     0.010 C 
HETATM   43  C27 UNL     1      20.707 -12.119  20.095  1.00  0.00     0.010 C 
ENDBRANCH  40  41
ENDBRANCH  20  40
BRANCH  23  44
HETATM   44  O5  UNL     1      14.425 -11.208  19.279  1.00  0.00    -0.348 OA
ATOM     45  H5  UNL     1      13.664 -11.755  19.436  1.00  0.00     0.219 HD
ENDBRANCH  23  44
BRANCH   1  46
HETATM   46  C4  UNL     1      15.160 -12.718  16.838  1.00  0.00     0.037 C 
BRANCH  46  47
HETATM   47  C2  UNL     1      16.453 -12.490  16.181  1.00  0.00    -0.020 C 
HETATM   48  C1  UNL     1      16.947 -11.069  16.207  1.00  0.00     0.009 C 
HETATM   49  C3  UNL     1      16.276 -12.871  14.704  1.00  0.00     0.009 C 
ENDBRANCH  46  47
ENDBRANCH   1  46
TORSDOF 13
ENDMDL
