MODEL 1
REMARK VINA RESULT: -8.944878734      0.000      0.000
REMARK  19 active torsions:
REMARK  status: ('A' for Active; 'I' for Inactive)
REMARK    1  A    between atoms: N1_1  and  C1_4 
REMARK    2  A    between atoms: C2_10  and  N4_11 
REMARK    3  A    between atoms: C3_15  and  C4_16 
REMARK    4  A    between atoms: C4_16  and  O2_17 
REMARK    5  A    between atoms: C4_16  and  N7_19 
REMARK    6  A    between atoms: N7_19  and  C5_22 
REMARK    7  A    between atoms: C5_22  and  O3_23 
REMARK    8  A    between atoms: C5_22  and  C6_25 
REMARK    9  A    between atoms: C6_25  and  C7_26 
REMARK   10  A    between atoms: C6_25  and  N10_37 
REMARK   11  A    between atoms: C7_26  and  C8_27 
REMARK   12  A    between atoms: C8_27  and  C9_28 
REMARK   13  A    between atoms: C9_28  and  N8_29 
REMARK   14  A    between atoms: C9_28  and  N9_33 
REMARK   15  A    between atoms: N10_37  and  N11_39 
REMARK       I    between atoms: N11_39  and  C10_41 
REMARK   16  A    between atoms: C10_41  and  C11_43 
REMARK   17  A    between atoms: C12_45  and  N12_46 
REMARK   18  A    between atoms: C13_49  and  O8_50 
REMARK   19  A    between atoms: C14_52  and  O9_53 
ROOT
HETATM    1  C6  UNL     1     -20.638   5.148 -16.303  1.00  0.00     0.234 C 
ENDROOT
BRANCH   1   2
HETATM    2  C5  UNL     1     -21.109   5.672 -14.992  1.00  0.00     0.358 C 
BRANCH   2   3
HETATM    3  N7  UNL     1     -21.630   4.509 -14.209  1.00  0.00    -0.013 N 
ATOM      4  H72 UNL     1     -21.102   4.348 -13.352  1.00  0.00     0.283 HD
ATOM      5  H71 UNL     1     -21.437   3.615 -14.662  1.00  0.00     0.283 HD
BRANCH   3   6
HETATM    6  C4  UNL     1     -23.028   4.708 -13.962  1.00  0.00     0.393 C 
BRANCH   6   7
HETATM    7  C3  UNL     1     -23.848   3.619 -14.486  1.00  0.00     0.168 A 
HETATM    8  N6  UNL     1     -25.010   3.133 -14.047  1.00  0.00    -0.266 N 
HETATM    9  N5  UNL     1     -25.381   2.148 -14.870  1.00  0.00     0.004 NA
ATOM     10  H6  UNL     1     -25.525   3.456 -13.227  1.00  0.00     0.185 HD
HETATM   11  N4  UNL     1     -24.486   1.984 -15.827  1.00  0.00    -0.156 N 
HETATM   12  N13 UNL     1     -23.540   2.897 -15.589  1.00  0.00    -0.263 N 
ATOM     13  H13 UNL     1     -22.703   3.030 -16.157  1.00  0.00     0.190 HD
BRANCH  11  14
HETATM   14  C2  UNL     1     -24.499   1.046 -16.891  1.00  0.00     0.210 A 
HETATM   15  C1  UNL     1     -25.599   0.565 -17.571  1.00  0.00     0.170 A 
HETATM   16  N2  UNL     1     -25.167  -0.300 -18.509  1.00  0.00    -0.222 N 
HETATM   17  O1  UNL     1     -23.884  -0.352 -18.418  1.00  0.00    -0.153 OA
ATOM     18  H2  UNL     1     -25.748  -0.817 -19.169  1.00  0.00     0.198 HD
HETATM   19  N3  UNL     1     -23.446   0.422 -17.481  1.00  0.00    -0.219 N 
ATOM     20  H3  UNL     1     -22.466   0.545 -17.224  1.00  0.00     0.198 HD
BRANCH  15  21
HETATM   21  N1  UNL     1     -26.836   0.900 -17.337  1.00  0.00    -0.381 N 
ATOM     22  H12 UNL     1     -27.595   0.870 -18.018  1.00  0.00     0.157 HD
ATOM     23  H11 UNL     1     -27.217   1.231 -16.450  1.00  0.00     0.157 HD
ENDBRANCH  15  21
ENDBRANCH  11  14
ENDBRANCH   6   7
BRANCH   6  24
HETATM   24  O2  UNL     1     -23.345   4.892 -12.608  1.00  0.00    -0.364 OA
ATOM     25  H2  UNL     1     -23.196   5.803 -12.385  1.00  0.00     0.212 HD
ENDBRANCH   6  24
ENDBRANCH   3   6
ENDBRANCH   2   3
BRANCH   2  26
HETATM   26  O3  UNL     1     -22.070   6.628 -14.971  1.00  0.00    -0.367 OA
ATOM     27  H3  UNL     1     -21.870   7.207 -14.245  1.00  0.00     0.212 HD
ENDBRANCH   2  26
ENDBRANCH   1   2
BRANCH   1  28
HETATM   28  C7  UNL     1     -19.937   6.431 -16.903  1.00  0.00    -0.071 C 
BRANCH  28  29
HETATM   29  C8  UNL     1     -19.422   7.373 -17.426  1.00  0.00    -0.043 C 
BRANCH  29  30
HETATM   30  C9  UNL     1     -18.782   8.472 -18.113  1.00  0.00     0.456 C 
BRANCH  30  31
HETATM   31  N8  UNL     1     -18.842   8.293 -19.528  1.00  0.00    -0.040 N 
ATOM     32  H83 UNL     1     -17.916   8.340 -19.954  1.00  0.00     0.277 HD
ATOM     33  H82 UNL     1     -19.078   7.332 -19.777  1.00  0.00     0.277 HD
ATOM     34  H81 UNL     1     -19.486   8.961 -19.952  1.00  0.00     0.277 HD
ENDBRANCH  30  31
BRANCH  30  35
HETATM   35  N9  UNL     1     -19.472   9.741 -17.823  1.00  0.00    -0.040 N 
ATOM     36  H93 UNL     1     -20.486   9.640 -17.876  1.00  0.00     0.277 HD
ATOM     37  H92 UNL     1     -19.395   9.997 -16.839  1.00  0.00     0.277 HD
ATOM     38  H91 UNL     1     -19.134  10.484 -18.435  1.00  0.00     0.277 HD
ENDBRANCH  30  35
ENDBRANCH  29  30
ENDBRANCH  28  29
ENDBRANCH   1  28
BRANCH   1  39
HETATM   39  N10 UNL     1     -21.430   4.714 -17.306  1.00  0.00    -0.313 N 
ATOM     40  H10 UNL     1     -22.260   5.305 -17.270  1.00  0.00     0.182 HD
BRANCH  39  41
HETATM   41  N11 UNL     1     -21.631   3.904 -18.287  1.00  0.00    -0.267 N 
HETATM   42  C10 UNL     1     -21.221   3.741 -19.621  1.00  0.00     0.296 C 
HETATM   43  O4  UNL     1     -20.420   4.577 -20.120  1.00  0.00    -0.264 OA
ATOM     44  H11 UNL     1     -22.278   3.163 -18.017  1.00  0.00     0.190 HD
BRANCH  42  45
HETATM   45  C11 UNL     1     -21.629   2.661 -20.523  1.00  0.00     0.183 A 
HETATM   46  O5  UNL     1     -20.755   2.112 -21.356  1.00  0.00    -0.278 OA
HETATM   47  C12 UNL     1     -21.307   1.172 -22.065  1.00  0.00     0.252 A 
HETATM   48  C13 UNL     1     -22.605   1.071 -21.709  1.00  0.00     0.160 A 
HETATM   49  C14 UNL     1     -22.841   2.050 -20.686  1.00  0.00     0.143 A 
BRANCH  47  50
HETATM   50  N12 UNL     1     -20.621   0.382 -23.058  1.00  0.00    -0.087 N 
HETATM   51  O6  UNL     1     -21.249  -0.208 -23.950  1.00  0.00    -0.530 OA
HETATM   52  O7  UNL     1     -19.251   0.326 -22.980  1.00  0.00    -0.530 OA
ENDBRANCH  47  50
BRANCH  48  53
HETATM   53  O8  UNL     1     -23.586   0.242 -22.168  1.00  0.00    -0.354 OA
ATOM     54  H8  UNL     1     -24.221  -0.282 -21.694  1.00  0.00     0.218 HD
ENDBRANCH  48  53
BRANCH  49  55
HETATM   55  O9  UNL     1     -24.000   2.246 -20.088  1.00  0.00    -0.355 OA
ATOM     56  H9  UNL     1     -24.860   1.877 -20.252  1.00  0.00     0.218 HD
ENDBRANCH  49  55
ENDBRANCH  42  45
ENDBRANCH  39  41
ENDBRANCH   1  39
TORSDOF 19
ENDMDL
MODEL 2
REMARK VINA RESULT: -8.773257657      1.241      1.525
REMARK  19 active torsions:
REMARK  status: ('A' for Active; 'I' for Inactive)
REMARK    1  A    between atoms: N1_1  and  C1_4 
REMARK    2  A    between atoms: C2_10  and  N4_11 
REMARK    3  A    between atoms: C3_15  and  C4_16 
REMARK    4  A    between atoms: C4_16  and  O2_17 
REMARK    5  A    between atoms: C4_16  and  N7_19 
REMARK    6  A    between atoms: N7_19  and  C5_22 
REMARK    7  A    between atoms: C5_22  and  O3_23 
REMARK    8  A    between atoms: C5_22  and  C6_25 
REMARK    9  A    between atoms: C6_25  and  C7_26 
REMARK   10  A    between atoms: C6_25  and  N10_37 
REMARK   11  A    between atoms: C7_26  and  C8_27 
REMARK   12  A    between atoms: C8_27  and  C9_28 
REMARK   13  A    between atoms: C9_28  and  N8_29 
REMARK   14  A    between atoms: C9_28  and  N9_33 
REMARK   15  A    between atoms: N10_37  and  N11_39 
REMARK       I    between atoms: N11_39  and  C10_41 
REMARK   16  A    between atoms: C10_41  and  C11_43 
REMARK   17  A    between atoms: C12_45  and  N12_46 
REMARK   18  A    between atoms: C13_49  and  O8_50 
REMARK   19  A    between atoms: C14_52  and  O9_53 
ROOT
HETATM    1  C6  UNL     1     -19.886   5.142 -17.226  1.00  0.00     0.234 C 
ENDROOT
BRANCH   1   2
HETATM    2  C5  UNL     1     -20.191   5.576 -15.836  1.00  0.00     0.358 C 
BRANCH   2   3
HETATM    3  N7  UNL     1     -20.970   4.476 -15.187  1.00  0.00    -0.013 N 
ATOM      4  H72 UNL     1     -20.441   4.004 -14.453  1.00  0.00     0.283 HD
ATOM      5  H71 UNL     1     -21.101   3.674 -15.803  1.00  0.00     0.283 HD
BRANCH   3   6
HETATM    6  C4  UNL     1     -22.212   5.009 -14.710  1.00  0.00     0.393 C 
BRANCH   6   7
HETATM    7  C3  UNL     1     -23.302   4.039 -14.786  1.00  0.00     0.168 A 
HETATM    8  N6  UNL     1     -24.185   3.667 -13.858  1.00  0.00    -0.266 N 
HETATM    9  N5  UNL     1     -25.001   2.763 -14.407  1.00  0.00     0.004 NA
ATOM     10  H6  UNL     1     -24.229   4.011 -12.899  1.00  0.00     0.185 HD
HETATM   11  N4  UNL     1     -24.666   2.540 -15.665  1.00  0.00    -0.156 N 
HETATM   12  N13 UNL     1     -23.615   3.333 -15.897  1.00  0.00    -0.263 N 
ATOM     13  H13 UNL     1     -23.119   3.396 -16.787  1.00  0.00     0.190 HD
BRANCH  11  14
HETATM   14  C2  UNL     1     -25.270   1.654 -16.592  1.00  0.00     0.210 A 
HETATM   15  C1  UNL     1     -25.888   0.450 -16.321  1.00  0.00     0.170 A 
HETATM   16  N2  UNL     1     -26.331  -0.066 -17.483  1.00  0.00    -0.222 N 
HETATM   17  O1  UNL     1     -26.009   0.762 -18.415  1.00  0.00    -0.153 OA
ATOM     18  H2  UNL     1     -26.827  -0.949 -17.603  1.00  0.00     0.198 HD
HETATM   19  N3  UNL     1     -25.384   1.788 -17.940  1.00  0.00    -0.219 N 
ATOM     20  H3  UNL     1     -25.031   2.573 -18.488  1.00  0.00     0.198 HD
BRANCH  15  21
HETATM   21  N1  UNL     1     -26.016  -0.082 -15.138  1.00  0.00    -0.381 N 
ATOM     22  H12 UNL     1     -25.994   0.429 -14.255  1.00  0.00     0.157 HD
ATOM     23  H11 UNL     1     -26.158  -1.070 -14.930  1.00  0.00     0.157 HD
ENDBRANCH  15  21
ENDBRANCH  11  14
ENDBRANCH   6   7
BRANCH   6  24
HETATM   24  O2  UNL     1     -22.151   5.508 -13.400  1.00  0.00    -0.364 OA
ATOM     25  H2  UNL     1     -22.398   4.813 -12.801  1.00  0.00     0.212 HD
ENDBRANCH   6  24
ENDBRANCH   3   6
ENDBRANCH   2   3
BRANCH   2  26
HETATM   26  O3  UNL     1     -20.888   6.723 -15.641  1.00  0.00    -0.367 OA
ATOM     27  H3  UNL     1     -20.251   7.418 -15.523  1.00  0.00     0.212 HD
ENDBRANCH   2  26
ENDBRANCH   1   2
BRANCH   1  28
HETATM   28  C7  UNL     1     -19.447   6.513 -17.877  1.00  0.00    -0.071 C 
BRANCH  28  29
HETATM   29  C8  UNL     1     -19.154   7.530 -18.431  1.00  0.00    -0.043 C 
BRANCH  29  30
HETATM   30  C9  UNL     1     -18.868   8.773 -19.110  1.00  0.00     0.456 C 
BRANCH  30  31
HETATM   31  N8  UNL     1     -19.158   9.891 -18.270  1.00  0.00    -0.040 N 
ATOM     32  H83 UNL     1     -19.946   9.703 -17.650  1.00  0.00     0.277 HD
ATOM     33  H82 UNL     1     -18.435  10.029 -17.564  1.00  0.00     0.277 HD
ATOM     34  H81 UNL     1     -19.309  10.734 -18.825  1.00  0.00     0.277 HD
ENDBRANCH  30  31
BRANCH  30  35
HETATM   35  N9  UNL     1     -17.437   8.866 -19.448  1.00  0.00    -0.040 N 
ATOM     36  H93 UNL     1     -16.855   8.924 -18.613  1.00  0.00     0.277 HD
ATOM     37  H92 UNL     1     -17.080   7.987 -19.823  1.00  0.00     0.277 HD
ATOM     38  H91 UNL     1     -17.265   9.646 -20.083  1.00  0.00     0.277 HD
ENDBRANCH  30  35
ENDBRANCH  29  30
ENDBRANCH  28  29
ENDBRANCH   1  28
BRANCH   1  39
HETATM   39  N10 UNL     1     -20.777   4.637 -18.105  1.00  0.00    -0.313 N 
ATOM     40  H10 UNL     1     -21.651   5.126 -17.915  1.00  0.00     0.182 HD
BRANCH  39  41
HETATM   41  N11 UNL     1     -21.042   3.829 -19.072  1.00  0.00    -0.267 N 
HETATM   42  C10 UNL     1     -21.772   2.648 -19.291  1.00  0.00     0.296 C 
HETATM   43  O4  UNL     1     -22.393   2.128 -18.325  1.00  0.00    -0.264 OA
ATOM     44  H11 UNL     1     -20.589   4.136 -19.933  1.00  0.00     0.190 HD
BRANCH  42  45
HETATM   45  C11 UNL     1     -21.903   1.939 -20.566  1.00  0.00     0.183 A 
HETATM   46  O5  UNL     1     -20.826   1.583 -21.253  1.00  0.00    -0.278 OA
HETATM   47  C12 UNL     1     -21.151   0.962 -22.348  1.00  0.00     0.252 A 
HETATM   48  C13 UNL     1     -22.498   0.889 -22.418  1.00  0.00     0.160 A 
HETATM   49  C14 UNL     1     -23.018   1.531 -21.245  1.00  0.00     0.143 A 
BRANCH  47  50
HETATM   50  N12 UNL     1     -20.209   0.445 -23.310  1.00  0.00    -0.087 N 
HETATM   51  O6  UNL     1     -19.056   0.897 -23.382  1.00  0.00    -0.530 OA
HETATM   52  O7  UNL     1     -20.638  -0.574 -24.126  1.00  0.00    -0.530 OA
ENDBRANCH  47  50
BRANCH  48  53
HETATM   53  O8  UNL     1     -23.305   0.341 -23.371  1.00  0.00    -0.354 OA
ATOM     54  H8  UNL     1     -24.148   0.628 -23.702  1.00  0.00     0.218 HD
ENDBRANCH  48  53
BRANCH  49  55
HETATM   55  O9  UNL     1     -24.300   1.652 -20.962  1.00  0.00    -0.355 OA
ATOM     56  H9  UNL     1     -24.850   2.421 -20.866  1.00  0.00     0.218 HD
ENDBRANCH  49  55
ENDBRANCH  42  45
ENDBRANCH  39  41
ENDBRANCH   1  39
TORSDOF 19
ENDMDL
MODEL 3
REMARK VINA RESULT: -8.711008682      2.338      6.498
REMARK  19 active torsions:
REMARK  status: ('A' for Active; 'I' for Inactive)
REMARK    1  A    between atoms: N1_1  and  C1_4 
REMARK    2  A    between atoms: C2_10  and  N4_11 
REMARK    3  A    between atoms: C3_15  and  C4_16 
REMARK    4  A    between atoms: C4_16  and  O2_17 
REMARK    5  A    between atoms: C4_16  and  N7_19 
REMARK    6  A    between atoms: N7_19  and  C5_22 
REMARK    7  A    between atoms: C5_22  and  O3_23 
REMARK    8  A    between atoms: C5_22  and  C6_25 
REMARK    9  A    between atoms: C6_25  and  C7_26 
REMARK   10  A    between atoms: C6_25  and  N10_37 
REMARK   11  A    between atoms: C7_26  and  C8_27 
REMARK   12  A    between atoms: C8_27  and  C9_28 
REMARK   13  A    between atoms: C9_28  and  N8_29 
REMARK   14  A    between atoms: C9_28  and  N9_33 
REMARK   15  A    between atoms: N10_37  and  N11_39 
REMARK       I    between atoms: N11_39  and  C10_41 
REMARK   16  A    between atoms: C10_41  and  C11_43 
REMARK   17  A    between atoms: C12_45  and  N12_46 
REMARK   18  A    between atoms: C13_49  and  O8_50 
REMARK   19  A    between atoms: C14_52  and  O9_53 
ROOT
HETATM    1  C6  UNL     1     -22.836   2.322 -16.740  1.00  0.00     0.234 C 
ENDROOT
BRANCH   1   2
HETATM    2  C5  UNL     1     -24.279   1.962 -16.782  1.00  0.00     0.358 C 
BRANCH   2   3
HETATM    3  N7  UNL     1     -24.425   0.822 -17.739  1.00  0.00    -0.013 N 
ATOM      4  H72 UNL     1     -24.856   0.004 -17.308  1.00  0.00     0.283 HD
ATOM      5  H71 UNL     1     -23.530   0.397 -17.981  1.00  0.00     0.283 HD
BRANCH   3   6
HETATM    6  C4  UNL     1     -25.145   1.276 -18.892  1.00  0.00     0.393 C 
BRANCH   6   7
HETATM    7  C3  UNL     1     -24.481   0.916 -20.143  1.00  0.00     0.168 A 
HETATM    8  N6  UNL     1     -25.001   0.525 -21.308  1.00  0.00    -0.266 N 
HETATM    9  N5  UNL     1     -23.992   0.328 -22.161  1.00  0.00     0.004 NA
ATOM     10  H6  UNL     1     -25.993   0.399 -21.511  1.00  0.00     0.185 HD
HETATM   11  N4  UNL     1     -22.835   0.578 -21.576  1.00  0.00    -0.156 N 
HETATM   12  N13 UNL     1     -23.141   0.944 -20.328  1.00  0.00    -0.263 N 
ATOM     13  H13 UNL     1     -22.460   1.206 -19.615  1.00  0.00     0.190 HD
BRANCH  11  14
HETATM   14  C2  UNL     1     -21.532   0.484 -22.128  1.00  0.00     0.210 A 
HETATM   15  C1  UNL     1     -21.188   0.454 -23.464  1.00  0.00     0.170 A 
HETATM   16  N2  UNL     1     -19.846   0.366 -23.550  1.00  0.00    -0.222 N 
HETATM   17  O1  UNL     1     -19.388   0.343 -22.347  1.00  0.00    -0.153 OA
ATOM     18  H2  UNL     1     -19.296   0.326 -24.408  1.00  0.00     0.198 HD
HETATM   19  N3  UNL     1     -20.341   0.409 -21.477  1.00  0.00    -0.219 N 
ATOM     20  H3  UNL     1     -20.220   0.405 -20.464  1.00  0.00     0.198 HD
BRANCH  15  21
HETATM   21  N1  UNL     1     -22.026   0.506 -24.460  1.00  0.00    -0.381 N 
ATOM     22  H12 UNL     1     -22.460   1.355 -24.823  1.00  0.00     0.157 HD
ATOM     23  H11 UNL     1     -22.360  -0.284 -25.012  1.00  0.00     0.157 HD
ENDBRANCH  15  21
ENDBRANCH  11  14
ENDBRANCH   6   7
BRANCH   6  24
HETATM   24  O2  UNL     1     -26.473   0.826 -18.948  1.00  0.00    -0.364 OA
ATOM     25  H2  UNL     1     -26.635   0.271 -18.195  1.00  0.00     0.212 HD
ENDBRANCH   6  24
ENDBRANCH   3   6
ENDBRANCH   2   3
BRANCH   2  26
HETATM   26  O3  UNL     1     -25.183   2.905 -17.147  1.00  0.00    -0.367 OA
ATOM     27  H3  UNL     1     -24.699   3.610 -17.561  1.00  0.00     0.212 HD
ENDBRANCH   2  26
ENDBRANCH   1   2
BRANCH   1  28
HETATM   28  C7  UNL     1     -22.799   3.255 -15.465  1.00  0.00    -0.071 C 
BRANCH  28  29
HETATM   29  C8  UNL     1     -22.707   3.992 -14.529  1.00  0.00    -0.043 C 
BRANCH  29  30
HETATM   30  C9  UNL     1     -22.552   4.922 -13.434  1.00  0.00     0.456 C 
BRANCH  30  31
HETATM   31  N8  UNL     1     -22.024   6.167 -13.894  1.00  0.00    -0.040 N 
ATOM     32  H83 UNL     1     -21.028   6.252 -13.694  1.00  0.00     0.277 HD
ATOM     33  H82 UNL     1     -21.981   6.205 -14.912  1.00  0.00     0.277 HD
ATOM     34  H81 UNL     1     -22.553   6.951 -13.510  1.00  0.00     0.277 HD
ENDBRANCH  30  31
BRANCH  30  35
HETATM   35  N9  UNL     1     -23.855   5.224 -12.817  1.00  0.00    -0.040 N 
ATOM     36  H93 UNL     1     -24.332   4.377 -12.507  1.00  0.00     0.277 HD
ATOM     37  H92 UNL     1     -23.748   5.680 -11.911  1.00  0.00     0.277 HD
ATOM     38  H91 UNL     1     -24.436   5.774 -13.451  1.00  0.00     0.277 HD
ENDBRANCH  30  35
ENDBRANCH  29  30
ENDBRANCH  28  29
ENDBRANCH   1  28
BRANCH   1  39
HETATM   39  N10 UNL     1     -22.175   3.031 -17.679  1.00  0.00    -0.313 N 
ATOM     40  H10 UNL     1     -22.301   2.513 -18.548  1.00  0.00     0.182 HD
BRANCH  39  41
HETATM   41  N11 UNL     1     -21.460   4.055 -17.993  1.00  0.00    -0.267 N 
HETATM   42  C10 UNL     1     -20.264   4.672 -17.587  1.00  0.00     0.296 C 
HETATM   43  O4  UNL     1     -19.608   4.165 -16.638  1.00  0.00    -0.264 OA
ATOM     44  H11 UNL     1     -21.886   4.570 -18.763  1.00  0.00     0.190 HD
BRANCH  42  45
HETATM   45  C11 UNL     1     -19.671   5.876 -18.175  1.00  0.00     0.183 A 
HETATM   46  O5  UNL     1     -19.298   5.891 -19.447  1.00  0.00    -0.278 OA
HETATM   47  C12 UNL     1     -18.803   7.047 -19.779  1.00  0.00     0.252 A 
HETATM   48  C13 UNL     1     -18.834   7.854 -18.696  1.00  0.00     0.160 A 
HETATM   49  C14 UNL     1     -19.407   7.098 -17.620  1.00  0.00     0.143 A 
BRANCH  47  50
HETATM   50  N12 UNL     1     -18.311   7.384 -21.092  1.00  0.00    -0.087 N 
HETATM   51  O6  UNL     1     -17.753   6.535 -21.803  1.00  0.00    -0.530 OA
HETATM   52  O7  UNL     1     -18.502   8.675 -21.522  1.00  0.00    -0.530 OA
ENDBRANCH  47  50
BRANCH  48  53
HETATM   53  O8  UNL     1     -18.424   9.146 -18.545  1.00  0.00    -0.354 OA
ATOM     54  H8  UNL     1     -17.583   9.498 -18.277  1.00  0.00     0.218 HD
ENDBRANCH  48  53
BRANCH  49  55
HETATM   55  O9  UNL     1     -19.603   7.558 -16.400  1.00  0.00    -0.355 OA
ATOM     56  H9  UNL     1     -20.246   7.328 -15.739  1.00  0.00     0.218 HD
ENDBRANCH  49  55
ENDBRANCH  42  45
ENDBRANCH  39  41
ENDBRANCH   1  39
TORSDOF 19
ENDMDL
MODEL 4
REMARK VINA RESULT: -8.580091712      1.788      2.324
REMARK  19 active torsions:
REMARK  status: ('A' for Active; 'I' for Inactive)
REMARK    1  A    between atoms: N1_1  and  C1_4 
REMARK    2  A    between atoms: C2_10  and  N4_11 
REMARK    3  A    between atoms: C3_15  and  C4_16 
REMARK    4  A    between atoms: C4_16  and  O2_17 
REMARK    5  A    between atoms: C4_16  and  N7_19 
REMARK    6  A    between atoms: N7_19  and  C5_22 
REMARK    7  A    between atoms: C5_22  and  O3_23 
REMARK    8  A    between atoms: C5_22  and  C6_25 
REMARK    9  A    between atoms: C6_25  and  C7_26 
REMARK   10  A    between atoms: C6_25  and  N10_37 
REMARK   11  A    between atoms: C7_26  and  C8_27 
REMARK   12  A    between atoms: C8_27  and  C9_28 
REMARK   13  A    between atoms: C9_28  and  N8_29 
REMARK   14  A    between atoms: C9_28  and  N9_33 
REMARK   15  A    between atoms: N10_37  and  N11_39 
REMARK       I    between atoms: N11_39  and  C10_41 
REMARK   16  A    between atoms: C10_41  and  C11_43 
REMARK   17  A    between atoms: C12_45  and  N12_46 
REMARK   18  A    between atoms: C13_49  and  O8_50 
REMARK   19  A    between atoms: C14_52  and  O9_53 
ROOT
HETATM    1  C6  UNL     1     -19.998   4.997 -17.521  1.00  0.00     0.234 C 
ENDROOT
BRANCH   1   2
HETATM    2  C5  UNL     1     -20.461   5.226 -16.126  1.00  0.00     0.358 C 
BRANCH   2   3
HETATM    3  N7  UNL     1     -21.399   4.113 -15.781  1.00  0.00    -0.013 N 
ATOM      4  H72 UNL     1     -20.931   3.339 -15.309  1.00  0.00     0.283 HD
ATOM      5  H71 UNL     1     -21.719   3.603 -16.603  1.00  0.00     0.283 HD
BRANCH   3   6
HETATM    6  C4  UNL     1     -22.484   4.647 -15.011  1.00  0.00     0.393 C 
BRANCH   6   7
HETATM    7  C3  UNL     1     -23.615   3.725 -14.925  1.00  0.00     0.168 A 
HETATM    8  N6  UNL     1     -24.456   3.493 -13.916  1.00  0.00    -0.266 N 
HETATM    9  N5  UNL     1     -25.338   2.574 -14.321  1.00  0.00     0.004 NA
ATOM     10  H6  UNL     1     -24.431   3.937 -12.998  1.00  0.00     0.185 HD
HETATM   11  N4  UNL     1     -25.085   2.206 -15.563  1.00  0.00    -0.156 N 
HETATM   12  N13 UNL     1     -24.019   2.921 -15.935  1.00  0.00    -0.263 N 
ATOM     13  H13 UNL     1     -23.573   2.868 -16.851  1.00  0.00     0.190 HD
BRANCH  11  14
HETATM   14  C2  UNL     1     -25.776   1.256 -16.357  1.00  0.00     0.210 A 
HETATM   15  C1  UNL     1     -26.354   0.075 -15.937  1.00  0.00     0.170 A 
HETATM   16  N2  UNL     1     -26.912  -0.524 -17.007  1.00  0.00    -0.222 N 
HETATM   17  O1  UNL     1     -26.694   0.235 -18.025  1.00  0.00    -0.153 OA
ATOM     18  H2  UNL     1     -27.413  -1.412 -17.012  1.00  0.00     0.198 HD
HETATM   19  N3  UNL     1     -26.030   1.292 -17.692  1.00  0.00    -0.219 N 
ATOM     20  H3  UNL     1     -25.742   2.035 -18.328  1.00  0.00     0.198 HD
BRANCH  15  21
HETATM   21  N1  UNL     1     -26.356  -0.370 -14.713  1.00  0.00    -0.381 N 
ATOM     22  H12 UNL     1     -27.119  -0.260 -14.045  1.00  0.00     0.157 HD
ATOM     23  H11 UNL     1     -25.604  -0.887 -14.255  1.00  0.00     0.157 HD
ENDBRANCH  15  21
ENDBRANCH  11  14
ENDBRANCH   6   7
BRANCH   6  24
HETATM   24  O2  UNL     1     -22.124   5.031 -13.711  1.00  0.00    -0.364 OA
ATOM     25  H2  UNL     1     -21.306   4.603 -13.486  1.00  0.00     0.212 HD
ENDBRANCH   6  24
ENDBRANCH   3   6
ENDBRANCH   2   3
BRANCH   2  26
HETATM   26  O3  UNL     1     -21.093   6.386 -15.822  1.00  0.00    -0.367 OA
ATOM     27  H3  UNL     1     -21.380   6.770 -16.643  1.00  0.00     0.212 HD
ENDBRANCH   2  26
ENDBRANCH   1   2
BRANCH   1  28
HETATM   28  C7  UNL     1     -19.493   6.444 -17.908  1.00  0.00    -0.071 C 
BRANCH  28  29
HETATM   29  C8  UNL     1     -19.105   7.514 -18.273  1.00  0.00    -0.043 C 
BRANCH  29  30
HETATM   30  C9  UNL     1     -18.690   8.836 -18.681  1.00  0.00     0.456 C 
BRANCH  30  31
HETATM   31  N8  UNL     1     -19.017   9.073 -20.051  1.00  0.00    -0.040 N 
ATOM     32  H83 UNL     1     -18.182   9.219 -20.618  1.00  0.00     0.277 HD
ATOM     33  H82 UNL     1     -19.366   8.229 -20.506  1.00  0.00     0.277 HD
ATOM     34  H81 UNL     1     -19.673   9.848 -20.141  1.00  0.00     0.277 HD
ENDBRANCH  30  31
BRANCH  30  35
HETATM   35  N9  UNL     1     -19.396   9.868 -17.901  1.00  0.00    -0.040 N 
ATOM     36  H93 UNL     1     -19.977  10.460 -18.495  1.00  0.00     0.277 HD
ATOM     37  H92 UNL     1     -20.132   9.465 -17.320  1.00  0.00     0.277 HD
ATOM     38  H91 UNL     1     -18.737  10.418 -17.350  1.00  0.00     0.277 HD
ENDBRANCH  30  35
ENDBRANCH  29  30
ENDBRANCH  28  29
ENDBRANCH   1  28
BRANCH   1  39
HETATM   39  N10 UNL     1     -20.782   4.641 -18.561  1.00  0.00    -0.313 N 
ATOM     40  H10 UNL     1     -20.660   5.376 -19.256  1.00  0.00     0.182 HD
BRANCH  39  41
HETATM   41  N11 UNL     1     -21.611   3.808 -19.087  1.00  0.00    -0.267 N 
HETATM   42  C10 UNL     1     -21.586   2.565 -19.743  1.00  0.00     0.296 C 
HETATM   43  O4  UNL     1     -20.476   1.999 -19.934  1.00  0.00    -0.264 OA
ATOM     44  H11 UNL     1     -22.568   4.151 -19.004  1.00  0.00     0.190 HD
BRANCH  42  45
HETATM   45  C11 UNL     1     -22.751   1.826 -20.236  1.00  0.00     0.183 A 
HETATM   46  O5  UNL     1     -23.355   2.191 -21.358  1.00  0.00    -0.278 OA
HETATM   47  C12 UNL     1     -24.359   1.410 -21.628  1.00  0.00     0.252 A 
HETATM   48  C13 UNL     1     -24.450   0.476 -20.656  1.00  0.00     0.160 A 
HETATM   49  C14 UNL     1     -23.391   0.733 -19.721  1.00  0.00     0.143 A 
BRANCH  47  50
HETATM   50  N12 UNL     1     -25.215   1.540 -22.781  1.00  0.00    -0.087 N 
HETATM   51  O6  UNL     1     -25.332   0.614 -23.598  1.00  0.00    -0.530 OA
HETATM   52  O7  UNL     1     -25.901   2.722 -22.924  1.00  0.00    -0.530 OA
ENDBRANCH  47  50
BRANCH  48  53
HETATM   53  O8  UNL     1     -25.335  -0.549 -20.495  1.00  0.00    -0.354 OA
ATOM     54  H8  UNL     1     -25.751  -0.885 -19.710  1.00  0.00     0.218 HD
ENDBRANCH  48  53
BRANCH  49  55
HETATM   55  O9  UNL     1     -23.159   0.020 -18.636  1.00  0.00    -0.355 OA
ATOM     56  H9  UNL     1     -23.065   0.278 -17.727  1.00  0.00     0.218 HD
ENDBRANCH  49  55
ENDBRANCH  42  45
ENDBRANCH  39  41
ENDBRANCH   1  39
TORSDOF 19
ENDMDL
MODEL 5
REMARK VINA RESULT: -8.573731573      3.432      7.108
REMARK  19 active torsions:
REMARK  status: ('A' for Active; 'I' for Inactive)
REMARK    1  A    between atoms: N1_1  and  C1_4 
REMARK    2  A    between atoms: C2_10  and  N4_11 
REMARK    3  A    between atoms: C3_15  and  C4_16 
REMARK    4  A    between atoms: C4_16  and  O2_17 
REMARK    5  A    between atoms: C4_16  and  N7_19 
REMARK    6  A    between atoms: N7_19  and  C5_22 
REMARK    7  A    between atoms: C5_22  and  O3_23 
REMARK    8  A    between atoms: C5_22  and  C6_25 
REMARK    9  A    between atoms: C6_25  and  C7_26 
REMARK   10  A    between atoms: C6_25  and  N10_37 
REMARK   11  A    between atoms: C7_26  and  C8_27 
REMARK   12  A    between atoms: C8_27  and  C9_28 
REMARK   13  A    between atoms: C9_28  and  N8_29 
REMARK   14  A    between atoms: C9_28  and  N9_33 
REMARK   15  A    between atoms: N10_37  and  N11_39 
REMARK       I    between atoms: N11_39  and  C10_41 
REMARK   16  A    between atoms: C10_41  and  C11_43 
REMARK   17  A    between atoms: C12_45  and  N12_46 
REMARK   18  A    between atoms: C13_49  and  O8_50 
REMARK   19  A    between atoms: C14_52  and  O9_53 
ROOT
HETATM    1  C6  UNL     1     -21.701   1.398 -21.595  1.00  0.00     0.234 C 
ENDROOT
BRANCH   1   2
HETATM    2  C5  UNL     1     -21.661   1.025 -20.155  1.00  0.00     0.358 C 
BRANCH   2   3
HETATM    3  N7  UNL     1     -20.655   1.913 -19.494  1.00  0.00    -0.013 N 
ATOM      4  H72 UNL     1     -19.784   1.975 -20.020  1.00  0.00     0.283 HD
ATOM      5  H71 UNL     1     -20.275   1.504 -18.640  1.00  0.00     0.283 HD
BRANCH   3   6
HETATM    6  C4  UNL     1     -21.251   3.197 -19.267  1.00  0.00     0.393 C 
BRANCH   6   7
HETATM    7  C3  UNL     1     -21.108   3.643 -17.883  1.00  0.00     0.168 A 
HETATM    8  N6  UNL     1     -20.038   4.114 -17.241  1.00  0.00    -0.266 N 
HETATM    9  N5  UNL     1     -20.406   4.408 -15.990  1.00  0.00     0.004 NA
ATOM     10  H6  UNL     1     -19.103   4.229 -17.634  1.00  0.00     0.185 HD
HETATM   11  N4  UNL     1     -21.685   4.136 -15.809  1.00  0.00    -0.156 N 
HETATM   12  N13 UNL     1     -22.118   3.664 -16.983  1.00  0.00    -0.263 N 
ATOM     13  H13 UNL     1     -23.074   3.363 -17.173  1.00  0.00     0.190 HD
BRANCH  11  14
HETATM   14  C2  UNL     1     -22.460   4.295 -14.633  1.00  0.00     0.210 A 
HETATM   15  C1  UNL     1     -22.446   5.362 -13.758  1.00  0.00     0.170 A 
HETATM   16  N2  UNL     1     -23.337   5.115 -12.779  1.00  0.00    -0.222 N 
HETATM   17  O1  UNL     1     -23.871   3.970 -13.029  1.00  0.00    -0.153 OA
ATOM     18  H2  UNL     1     -23.550   5.721 -11.987  1.00  0.00     0.198 HD
HETATM   19  N3  UNL     1     -23.386   3.450 -14.108  1.00  0.00    -0.219 N 
ATOM     20  H3  UNL     1     -23.656   2.549 -14.504  1.00  0.00     0.198 HD
BRANCH  15  21
HETATM   21  N1  UNL     1     -21.695   6.421 -13.873  1.00  0.00    -0.381 N 
ATOM     22  H12 UNL     1     -21.177   6.690 -14.710  1.00  0.00     0.157 HD
ATOM     23  H11 UNL     1     -21.523   7.123 -13.153  1.00  0.00     0.157 HD
ENDBRANCH  15  21
ENDBRANCH  11  14
ENDBRANCH   6   7
BRANCH   6  24
HETATM   24  O2  UNL     1     -20.765   4.206 -20.112  1.00  0.00    -0.364 OA
ATOM     25  H2  UNL     1     -20.672   5.004 -19.606  1.00  0.00     0.212 HD
ENDBRANCH   6  24
ENDBRANCH   3   6
ENDBRANCH   2   3
BRANCH   2  26
HETATM   26  O3  UNL     1     -21.352  -0.249 -19.812  1.00  0.00    -0.367 OA
ATOM     27  H3  UNL     1     -21.523  -0.792 -20.573  1.00  0.00     0.212 HD
ENDBRANCH   2  26
ENDBRANCH   1   2
BRANCH   1  28
HETATM   28  C7  UNL     1     -23.261   1.453 -21.845  1.00  0.00    -0.071 C 
BRANCH  28  29
HETATM   29  C8  UNL     1     -24.450   1.471 -21.963  1.00  0.00    -0.043 C 
BRANCH  29  30
HETATM   30  C9  UNL     1     -25.892   1.456 -22.046  1.00  0.00     0.456 C 
BRANCH  30  31
HETATM   31  N8  UNL     1     -26.468   0.986 -20.827  1.00  0.00    -0.040 N 
ATOM     32  H83 UNL     1     -27.485   1.064 -20.835  1.00  0.00     0.277 HD
ATOM     33  H82 UNL     1     -26.393  -0.028 -20.741  1.00  0.00     0.277 HD
ATOM     34  H81 UNL     1     -26.060   1.464 -20.023  1.00  0.00     0.277 HD
ENDBRANCH  30  31
BRANCH  30  35
HETATM   35  N9  UNL     1     -26.417   2.817 -22.257  1.00  0.00    -0.040 N 
ATOM     36  H93 UNL     1     -25.674   3.477 -22.489  1.00  0.00     0.277 HD
ATOM     37  H92 UNL     1     -26.957   2.884 -23.120  1.00  0.00     0.277 HD
ATOM     38  H91 UNL     1     -26.956   3.125 -21.448  1.00  0.00     0.277 HD
ENDBRANCH  30  35
ENDBRANCH  29  30
ENDBRANCH  28  29
ENDBRANCH   1  28
BRANCH   1  39
HETATM   39  N10 UNL     1     -21.237   0.646 -22.615  1.00  0.00    -0.313 N 
ATOM     40  H10 UNL     1     -21.148  -0.297 -22.236  1.00  0.00     0.182 HD
BRANCH  39  41
HETATM   41  N11 UNL     1     -20.854   0.559 -23.841  1.00  0.00    -0.267 N 
HETATM   42  C10 UNL     1     -21.368   0.142 -25.081  1.00  0.00     0.296 C 
HETATM   43  O4  UNL     1     -22.547  -0.301 -25.133  1.00  0.00    -0.264 OA
ATOM     44  H11 UNL     1     -19.894   0.889 -23.943  1.00  0.00     0.190 HD
BRANCH  42  45
HETATM   45  C11 UNL     1     -20.663   0.179 -26.364  1.00  0.00     0.183 A 
HETATM   46  O5  UNL     1     -20.099  -0.916 -26.855  1.00  0.00    -0.278 OA
HETATM   47  C12 UNL     1     -19.530  -0.679 -28.000  1.00  0.00     0.252 A 
HETATM   48  C13 UNL     1     -19.708   0.624 -28.307  1.00  0.00     0.160 A 
HETATM   49  C14 UNL     1     -20.458   1.214 -27.235  1.00  0.00     0.143 A 
BRANCH  47  50
HETATM   50  N12 UNL     1     -18.834  -1.664 -28.791  1.00  0.00    -0.087 N 
HETATM   51  O6  UNL     1     -18.930  -2.874 -28.534  1.00  0.00    -0.530 OA
HETATM   52  O7  UNL     1     -18.078  -1.206 -29.843  1.00  0.00    -0.530 OA
ENDBRANCH  47  50
BRANCH  48  53
HETATM   53  O8  UNL     1     -19.295   1.341 -29.392  1.00  0.00    -0.354 OA
ATOM     54  H8  UNL     1     -19.688   1.438 -30.251  1.00  0.00     0.218 HD
ENDBRANCH  48  53
BRANCH  49  55
HETATM   55  O9  UNL     1     -20.828   2.478 -27.185  1.00  0.00    -0.355 OA
ATOM     56  H9  UNL     1     -20.953   3.065 -26.448  1.00  0.00     0.218 HD
ENDBRANCH  49  55
ENDBRANCH  42  45
ENDBRANCH  39  41
ENDBRANCH   1  39
TORSDOF 19
ENDMDL
