MODEL 1
REMARK VINA RESULT: -9.686200940      0.000      0.000
REMARK  13 active torsions:
REMARK  status: ('A' for Active; 'I' for Inactive)
REMARK    1  A    between atoms: C2_3  and  C3_4 
REMARK    2  A    between atoms: C3_4  and  O1_5 
REMARK    3  A    between atoms: C3_4  and  O2_7 
REMARK    4  A    between atoms: C4_11  and  N3_12 
REMARK    5  A    between atoms: C5_17  and  C6_18 
REMARK    6  A    between atoms: C7_21  and  C8_22 
REMARK       I    between atoms: C8_22  and  N7_24 
REMARK    7  A    between atoms: N7_24  and  C9_26 
REMARK    8  A    between atoms: C9_26  and  C10_27 
REMARK    9  A    between atoms: C10_27  and  O4_28 
REMARK   10  A    between atoms: C11_31  and  C12_32 
REMARK   11  A    between atoms: C12_32  and  O5_33 
REMARK   12  A    between atoms: C12_32  and  O6_35 
REMARK   13  A    between atoms: C13_37  and  O7_38 
REMARK       I    between atoms: N9_43  and  C15_45 
REMARK       I    between atoms: C15_45  and  N10_46 
REMARK       I    between atoms: C15_45  and  N11_50 
ROOT
HETATM    1  N3  UNL     1     -20.823   5.357 -16.905  1.00  0.00    -0.046 N 
HETATM    2  N4  UNL     1     -20.425   6.181 -15.952  1.00  0.00    -0.219 N 
ATOM      3  H4  UNL     1     -20.716   6.146 -14.975  1.00  0.00     0.209 HD
HETATM    4  N5  UNL     1     -19.595   7.049 -16.470  1.00  0.00    -0.279 N 
ATOM      5  H5  UNL     1     -19.136   7.801 -15.955  1.00  0.00     0.189 HD
HETATM    6  C5  UNL     1     -19.441   6.808 -17.757  1.00  0.00     0.131 A 
HETATM    7  C13 UNL     1     -20.228   5.720 -18.049  1.00  0.00     0.212 A 
ENDROOT
BRANCH   1   8
HETATM    8  C4  UNL     1     -21.730   4.263 -16.768  1.00  0.00     0.709 A 
HETATM    9  N2  UNL     1     -22.264   3.937 -15.578  1.00  0.00    -0.186 N 
HETATM   10  C2  UNL     1     -23.116   2.912 -15.433  1.00  0.00     0.108 A 
ATOM     11  H2  UNL     1     -22.011   4.488 -14.758  1.00  0.00     0.184 HD
HETATM   12  C1  UNL     1     -23.491   2.127 -16.530  1.00  0.00     0.118 A 
HETATM   13  N1  UNL     1     -24.399   1.055 -16.311  1.00  0.00    -0.096 NA
HETATM   14  C14 UNL     1     -22.949   2.456 -17.746  1.00  0.00     0.146 A 
HETATM   15  N8  UNL     1     -22.080   3.525 -17.815  1.00  0.00    -0.173 N 
HETATM   16  N9  UNL     1     -23.218   1.815 -18.796  1.00  0.00    -0.325 N 
ATOM     17  H8  UNL     1     -21.682   3.762 -18.724  1.00  0.00     0.186 HD
HETATM   18  C15 UNL     1     -23.997   0.732 -19.165  1.00  0.00     0.481 C 
ATOM     19  H9  UNL     1     -22.724   2.203 -19.600  1.00  0.00     0.165 HD
HETATM   20  N10 UNL     1     -25.426   1.019 -19.277  1.00  0.00    -0.033 N 
HETATM   21  N11 UNL     1     -23.616   0.257 -20.522  1.00  0.00    -0.033 N 
ATOM     22 3H10 UNL     1     -25.775   1.427 -18.410  1.00  0.00     0.278 HD
ATOM     23 2H10 UNL     1     -25.581   1.801 -19.915  1.00  0.00     0.278 HD
ATOM     24 1H10 UNL     1     -25.999   0.221 -19.549  1.00  0.00     0.278 HD
ATOM     25 3H11 UNL     1     -23.658   1.008 -21.212  1.00  0.00     0.278 HD
ATOM     26 2H11 UNL     1     -22.620   0.048 -20.586  1.00  0.00     0.278 HD
ATOM     27 1H11 UNL     1     -24.190  -0.541 -20.794  1.00  0.00     0.278 HD
BRANCH  10  28
HETATM   28  C3  UNL     1     -23.668   2.605 -14.098  1.00  0.00     0.307 C 
BRANCH  28  29
HETATM   29  O1  UNL     1     -22.961   3.193 -13.071  1.00  0.00    -0.366 OA
ATOM     30  H1  UNL     1     -22.390   2.586 -12.614  1.00  0.00     0.213 HD
ENDBRANCH  28  29
BRANCH  28  31
HETATM   31  O2  UNL     1     -25.009   3.019 -14.107  1.00  0.00    -0.366 OA
ATOM     32  H2  UNL     1     -25.018   3.929 -13.832  1.00  0.00     0.213 HD
ENDBRANCH  28  31
ENDBRANCH  10  28
ENDBRANCH   1   8
BRANCH   7  33
HETATM   33  O7  UNL     1     -20.355   5.144 -19.279  1.00  0.00    -0.343 OA
ATOM     34  H7  UNL     1     -19.703   5.090 -19.967  1.00  0.00     0.219 HD
ENDBRANCH   7  33
BRANCH   6  35
HETATM   35  C6  UNL     1     -18.576   7.581 -18.686  1.00  0.00     0.084 A 
HETATM   36  N6  UNL     1     -17.735   6.928 -19.465  1.00  0.00    -0.343 N 
HETATM   37  C7  UNL     1     -16.984   7.575 -20.318  1.00  0.00     0.143 A 
ATOM     38  H6  UNL     1     -17.669   5.912 -19.400  1.00  0.00     0.167 HD
HETATM   39  S1  UNL     1     -17.431   9.189 -20.067  1.00  0.00    -0.064 SA
HETATM   40  C11 UNL     1     -18.621   8.928 -18.811  1.00  0.00     0.068 A 
BRANCH  37  41
HETATM   41  C8  UNL     1     -15.998   6.981 -21.251  1.00  0.00     0.275 C 
HETATM   42  O3  UNL     1     -15.070   6.344 -20.741  1.00  0.00    -0.265 OA
HETATM   43  N7  UNL     1     -16.112   7.136 -22.641  1.00  0.00    -0.353 N 
ATOM     44  H7  UNL     1     -16.888   7.674 -23.026  1.00  0.00     0.162 HD
BRANCH  43  45
HETATM   45  C9  UNL     1     -15.147   6.544 -23.532  1.00  0.00     0.149 C 
BRANCH  45  46
HETATM   46  C10 UNL     1     -15.638   5.205 -24.000  1.00  0.00     0.183 C 
BRANCH  46  47
HETATM   47  O4  UNL     1     -17.037   5.250 -23.938  1.00  0.00    -0.399 OA
ATOM     48  H4  UNL     1     -17.317   4.412 -23.590  1.00  0.00     0.209 HD
ENDBRANCH  46  47
ENDBRANCH  45  46
ENDBRANCH  43  45
ENDBRANCH  37  41
BRANCH  40  49
HETATM   49  C12 UNL     1     -19.372  10.011 -18.098  1.00  0.00     0.297 C 
BRANCH  49  50
HETATM   50  O5  UNL     1     -19.006  10.049 -16.787  1.00  0.00    -0.367 OA
ATOM     51  H5  UNL     1     -18.611  10.888 -16.583  1.00  0.00     0.213 HD
ENDBRANCH  49  50
BRANCH  49  52
HETATM   52  O6  UNL     1     -19.178  11.211 -18.773  1.00  0.00    -0.367 OA
ATOM     53  H6  UNL     1     -19.880  11.809 -18.544  1.00  0.00     0.213 HD
ENDBRANCH  49  52
ENDBRANCH  40  49
ENDBRANCH   6  35
TORSDOF 13
ENDMDL
MODEL 2
REMARK VINA RESULT: -9.607598603      1.249      1.395
REMARK  13 active torsions:
REMARK  status: ('A' for Active; 'I' for Inactive)
REMARK    1  A    between atoms: C2_3  and  C3_4 
REMARK    2  A    between atoms: C3_4  and  O1_5 
REMARK    3  A    between atoms: C3_4  and  O2_7 
REMARK    4  A    between atoms: C4_11  and  N3_12 
REMARK    5  A    between atoms: C5_17  and  C6_18 
REMARK    6  A    between atoms: C7_21  and  C8_22 
REMARK       I    between atoms: C8_22  and  N7_24 
REMARK    7  A    between atoms: N7_24  and  C9_26 
REMARK    8  A    between atoms: C9_26  and  C10_27 
REMARK    9  A    between atoms: C10_27  and  O4_28 
REMARK   10  A    between atoms: C11_31  and  C12_32 
REMARK   11  A    between atoms: C12_32  and  O5_33 
REMARK   12  A    between atoms: C12_32  and  O6_35 
REMARK   13  A    between atoms: C13_37  and  O7_38 
REMARK       I    between atoms: N9_43  and  C15_45 
REMARK       I    between atoms: C15_45  and  N10_46 
REMARK       I    between atoms: C15_45  and  N11_50 
ROOT
HETATM    1  N3  UNL     1     -20.558   5.628 -17.057  1.00  0.00    -0.046 N 
HETATM    2  N4  UNL     1     -20.195   6.532 -16.163  1.00  0.00    -0.219 N 
ATOM      3  H4  UNL     1     -20.522   6.579 -15.198  1.00  0.00     0.209 HD
HETATM    4  N5  UNL     1     -19.346   7.355 -16.722  1.00  0.00    -0.279 N 
ATOM      5  H5  UNL     1     -18.905   8.149 -16.257  1.00  0.00     0.189 HD
HETATM    6  C5  UNL     1     -19.145   7.006 -17.978  1.00  0.00     0.131 A 
HETATM    7  C13 UNL     1     -19.921   5.895 -18.204  1.00  0.00     0.212 A 
ENDROOT
BRANCH   1   8
HETATM    8  C4  UNL     1     -21.469   4.548 -16.860  1.00  0.00     0.709 A 
HETATM    9  N2  UNL     1     -22.002   4.287 -15.654  1.00  0.00    -0.186 N 
HETATM   10  C2  UNL     1     -22.859   3.276 -15.452  1.00  0.00     0.108 A 
ATOM     11  H2  UNL     1     -21.745   4.880 -14.864  1.00  0.00     0.184 HD
HETATM   12  C1  UNL     1     -23.240   2.436 -16.506  1.00  0.00     0.118 A 
HETATM   13  N1  UNL     1     -24.153   1.381 -16.229  1.00  0.00    -0.096 NA
HETATM   14  C14 UNL     1     -22.700   2.697 -17.739  1.00  0.00     0.146 A 
HETATM   15  N8  UNL     1     -21.825   3.757 -17.866  1.00  0.00    -0.173 N 
HETATM   16  N9  UNL     1     -22.974   2.004 -18.753  1.00  0.00    -0.325 N 
ATOM     17  H8  UNL     1     -21.429   3.944 -18.787  1.00  0.00     0.186 HD
HETATM   18  C15 UNL     1     -23.760   0.906 -19.062  1.00  0.00     0.481 C 
ATOM     19  H9  UNL     1     -22.480   2.346 -19.577  1.00  0.00     0.165 HD
HETATM   20  N10 UNL     1     -25.187   1.194 -19.187  1.00  0.00    -0.033 N 
HETATM   21  N11 UNL     1     -23.384   0.359 -20.394  1.00  0.00    -0.033 N 
ATOM     22 3H10 UNL     1     -25.532   1.649 -18.342  1.00  0.00     0.278 HD
ATOM     23 2H10 UNL     1     -25.339   1.942 -19.864  1.00  0.00     0.278 HD
ATOM     24 1H10 UNL     1     -25.765   0.386 -19.415  1.00  0.00     0.278 HD
ATOM     25 3H11 UNL     1     -23.423   1.072 -21.122  1.00  0.00     0.278 HD
ATOM     26 2H11 UNL     1     -22.389   0.142 -20.448  1.00  0.00     0.278 HD
ATOM     27 1H11 UNL     1     -23.962  -0.449 -20.622  1.00  0.00     0.278 HD
BRANCH  10  28
HETATM   28  C3  UNL     1     -23.408   3.042 -14.102  1.00  0.00     0.307 C 
BRANCH  28  29
HETATM   29  O1  UNL     1     -22.759   3.760 -13.120  1.00  0.00    -0.366 OA
ATOM     30  H1  UNL     1     -23.154   3.661 -12.261  1.00  0.00     0.213 HD
ENDBRANCH  28  29
BRANCH  28  31
HETATM   31  O2  UNL     1     -24.775   3.361 -14.158  1.00  0.00    -0.366 OA
ATOM     32  H2  UNL     1     -25.244   2.631 -13.770  1.00  0.00     0.213 HD
ENDBRANCH  28  31
ENDBRANCH  10  28
ENDBRANCH   1   8
BRANCH   7  33
HETATM   33  O7  UNL     1     -20.003   5.215 -19.384  1.00  0.00    -0.343 OA
ATOM     34  H7  UNL     1     -19.289   4.921 -19.938  1.00  0.00     0.219 HD
ENDBRANCH   7  33
BRANCH   6  35
HETATM   35  C6  UNL     1     -18.246   7.699 -18.937  1.00  0.00     0.084 A 
HETATM   36  N6  UNL     1     -17.287   7.009 -19.524  1.00  0.00    -0.343 N 
HETATM   37  C7  UNL     1     -16.500   7.580 -20.398  1.00  0.00     0.143 A 
ATOM     38  H6  UNL     1     -17.158   6.024 -19.293  1.00  0.00     0.167 HD
HETATM   39  S1  UNL     1     -17.081   9.170 -20.448  1.00  0.00    -0.064 SA
HETATM   40  C11 UNL     1     -18.371   9.003 -19.278  1.00  0.00     0.068 A 
BRANCH  37  41
HETATM   41  C8  UNL     1     -15.386   6.937 -21.134  1.00  0.00     0.275 C 
HETATM   42  O3  UNL     1     -15.627   6.569 -22.288  1.00  0.00    -0.265 OA
HETATM   43  N7  UNL     1     -14.124   6.755 -20.548  1.00  0.00    -0.353 N 
ATOM     44  H7  UNL     1     -13.964   7.067 -19.590  1.00  0.00     0.162 HD
BRANCH  43  45
HETATM   45  C9  UNL     1     -13.051   6.135 -21.282  1.00  0.00     0.149 C 
BRANCH  45  46
HETATM   46  C10 UNL     1     -12.853   4.726 -20.806  1.00  0.00     0.183 C 
BRANCH  46  47
HETATM   47  O4  UNL     1     -13.238   3.891 -21.863  1.00  0.00    -0.399 OA
ATOM     48  H4  UNL     1     -14.188   3.895 -21.877  1.00  0.00     0.209 HD
ENDBRANCH  46  47
ENDBRANCH  45  46
ENDBRANCH  43  45
ENDBRANCH  37  41
BRANCH  40  49
HETATM   49  C12 UNL     1     -19.265  10.114 -18.816  1.00  0.00     0.297 C 
BRANCH  49  50
HETATM   50  O5  UNL     1     -19.244  10.196 -17.457  1.00  0.00    -0.367 OA
ATOM     51  H5  UNL     1     -19.432   9.346 -17.077  1.00  0.00     0.213 HD
ENDBRANCH  49  50
BRANCH  49  52
HETATM   52  O6  UNL     1     -18.888  11.289 -19.458  1.00  0.00    -0.367 OA
ATOM     53  H6  UNL     1     -18.592  11.913 -18.806  1.00  0.00     0.213 HD
ENDBRANCH  49  52
ENDBRANCH  40  49
ENDBRANCH   6  35
TORSDOF 13
ENDMDL
MODEL 3
REMARK VINA RESULT: -9.357791860      1.103      1.247
REMARK  13 active torsions:
REMARK  status: ('A' for Active; 'I' for Inactive)
REMARK    1  A    between atoms: C2_3  and  C3_4 
REMARK    2  A    between atoms: C3_4  and  O1_5 
REMARK    3  A    between atoms: C3_4  and  O2_7 
REMARK    4  A    between atoms: C4_11  and  N3_12 
REMARK    5  A    between atoms: C5_17  and  C6_18 
REMARK    6  A    between atoms: C7_21  and  C8_22 
REMARK       I    between atoms: C8_22  and  N7_24 
REMARK    7  A    between atoms: N7_24  and  C9_26 
REMARK    8  A    between atoms: C9_26  and  C10_27 
REMARK    9  A    between atoms: C10_27  and  O4_28 
REMARK   10  A    between atoms: C11_31  and  C12_32 
REMARK   11  A    between atoms: C12_32  and  O5_33 
REMARK   12  A    between atoms: C12_32  and  O6_35 
REMARK   13  A    between atoms: C13_37  and  O7_38 
REMARK       I    between atoms: N9_43  and  C15_45 
REMARK       I    between atoms: C15_45  and  N10_46 
REMARK       I    between atoms: C15_45  and  N11_50 
ROOT
HETATM    1  N3  UNL     1     -20.988   4.768 -17.507  1.00  0.00    -0.046 N 
HETATM    2  N4  UNL     1     -20.652   5.430 -16.414  1.00  0.00    -0.219 N 
ATOM      3  H4  UNL     1     -21.004   5.246 -15.474  1.00  0.00     0.209 HD
HETATM    4  N5  UNL     1     -19.790   6.360 -16.736  1.00  0.00    -0.279 N 
ATOM      5  H5  UNL     1     -19.365   7.018 -16.083  1.00  0.00     0.189 HD
HETATM    6  C5  UNL     1     -19.554   6.321 -18.033  1.00  0.00     0.131 A 
HETATM    7  C13 UNL     1     -20.321   5.299 -18.540  1.00  0.00     0.212 A 
ENDROOT
BRANCH   1   8
HETATM    8  C4  UNL     1     -21.901   3.675 -17.599  1.00  0.00     0.709 A 
HETATM    9  N2  UNL     1     -22.439   3.113 -16.502  1.00  0.00    -0.186 N 
HETATM   10  C2  UNL     1     -23.298   2.086 -16.572  1.00  0.00     0.108 A 
ATOM     11  H2  UNL     1     -22.184   3.482 -15.585  1.00  0.00     0.184 HD
HETATM   12  C1  UNL     1     -23.676   1.547 -17.808  1.00  0.00     0.118 A 
HETATM   13  N1  UNL     1     -24.590   0.458 -17.815  1.00  0.00    -0.096 NA
HETATM   14  C14 UNL     1     -23.129   2.116 -18.930  1.00  0.00     0.146 A 
HETATM   15  N8  UNL     1     -22.253   3.171 -18.776  1.00  0.00    -0.173 N 
HETATM   16  N9  UNL     1     -23.400   1.708 -20.089  1.00  0.00    -0.325 N 
ATOM     17  H8  UNL     1     -21.853   3.588 -19.616  1.00  0.00     0.186 HD
HETATM   18  C15 UNL     1     -24.185   0.729 -20.674  1.00  0.00     0.481 C 
ATOM     19  H9  UNL     1     -22.903   2.250 -20.795  1.00  0.00     0.165 HD
HETATM   20  N10 UNL     1     -25.611   1.042 -20.726  1.00  0.00    -0.033 N 
HETATM   21  N11 UNL     1     -23.804   0.542 -22.100  1.00  0.00    -0.033 N 
ATOM     22 3H10 UNL     1     -25.960   1.264 -19.793  1.00  0.00     0.278 HD
ATOM     23 2H10 UNL     1     -25.761   1.939 -21.188  1.00  0.00     0.278 HD
ATOM     24 1H10 UNL     1     -26.190   0.321 -21.157  1.00  0.00     0.278 HD
ATOM     25 3H11 UNL     1     -23.840   1.419 -22.620  1.00  0.00     0.278 HD
ATOM     26 2H11 UNL     1     -22.809   0.345 -22.205  1.00  0.00     0.278 HD
ATOM     27 1H11 UNL     1     -24.382  -0.178 -22.531  1.00  0.00     0.278 HD
BRANCH  10  28
HETATM   28  C3  UNL     1     -23.853   1.513 -15.330  1.00  0.00     0.307 C 
BRANCH  28  29
HETATM   29  O1  UNL     1     -25.224   1.628 -15.245  1.00  0.00    -0.366 OA
ATOM     30  H1  UNL     1     -25.662   1.516 -16.081  1.00  0.00     0.213 HD
ENDBRANCH  28  29
BRANCH  28  31
HETATM   31  O2  UNL     1     -23.442   0.172 -15.281  1.00  0.00    -0.366 OA
ATOM     32  H2  UNL     1     -24.104  -0.336 -15.736  1.00  0.00     0.213 HD
ENDBRANCH  28  31
ENDBRANCH  10  28
ENDBRANCH   1   8
BRANCH   7  33
HETATM   33  O7  UNL     1     -20.370   4.922 -19.850  1.00  0.00    -0.343 OA
ATOM     34  H7  UNL     1     -20.342   4.040 -20.204  1.00  0.00     0.219 HD
ENDBRANCH   7  33
BRANCH   6  35
HETATM   35  C6  UNL     1     -18.632   7.220 -18.775  1.00  0.00     0.084 A 
HETATM   36  N6  UNL     1     -17.753   6.689 -19.602  1.00  0.00    -0.343 N 
HETATM   37  C7  UNL     1     -16.950   7.453 -20.295  1.00  0.00     0.143 A 
ATOM     38  H6  UNL     1     -17.698   5.675 -19.701  1.00  0.00     0.167 HD
HETATM   39  S1  UNL     1     -17.398   9.013 -19.809  1.00  0.00    -0.064 SA
HETATM   40  C11 UNL     1     -18.660   8.570 -18.680  1.00  0.00     0.068 A 
BRANCH  37  41
HETATM   41  C8  UNL     1     -15.917   7.003 -21.257  1.00  0.00     0.275 C 
HETATM   42  O3  UNL     1     -14.891   6.512 -20.775  1.00  0.00    -0.265 OA
HETATM   43  N7  UNL     1     -16.094   7.130 -22.643  1.00  0.00    -0.353 N 
ATOM     44  H7  UNL     1     -16.953   7.547 -23.005  1.00  0.00     0.162 HD
BRANCH  43  45
HETATM   45  C9  UNL     1     -15.082   6.679 -23.563  1.00  0.00     0.149 C 
BRANCH  45  46
HETATM   46  C10 UNL     1     -15.346   5.255 -23.957  1.00  0.00     0.183 C 
BRANCH  46  47
HETATM   47  O4  UNL     1     -16.733   5.075 -23.888  1.00  0.00    -0.399 OA
ATOM     48  H4  UNL     1     -16.997   4.701 -24.721  1.00  0.00     0.209 HD
ENDBRANCH  46  47
ENDBRANCH  45  46
ENDBRANCH  43  45
ENDBRANCH  37  41
BRANCH  40  49
HETATM   49  C12 UNL     1     -19.442   9.535 -17.841  1.00  0.00     0.297 C 
BRANCH  49  50
HETATM   50  O5  UNL     1     -19.101   9.398 -16.530  1.00  0.00    -0.367 OA
ATOM     51  H5  UNL     1     -19.879   9.433 -15.986  1.00  0.00     0.213 HD
ENDBRANCH  49  50
BRANCH  49  52
HETATM   52  O6  UNL     1     -19.256  10.818 -18.342  1.00  0.00    -0.367 OA
ATOM     53  H6  UNL     1     -20.059  11.104 -18.760  1.00  0.00     0.213 HD
ENDBRANCH  49  52
ENDBRANCH  40  49
ENDBRANCH   6  35
TORSDOF 13
ENDMDL
MODEL 4
REMARK VINA RESULT: -9.065899487      2.304      3.252
REMARK  13 active torsions:
REMARK  status: ('A' for Active; 'I' for Inactive)
REMARK    1  A    between atoms: C2_3  and  C3_4 
REMARK    2  A    between atoms: C3_4  and  O1_5 
REMARK    3  A    between atoms: C3_4  and  O2_7 
REMARK    4  A    between atoms: C4_11  and  N3_12 
REMARK    5  A    between atoms: C5_17  and  C6_18 
REMARK    6  A    between atoms: C7_21  and  C8_22 
REMARK       I    between atoms: C8_22  and  N7_24 
REMARK    7  A    between atoms: N7_24  and  C9_26 
REMARK    8  A    between atoms: C9_26  and  C10_27 
REMARK    9  A    between atoms: C10_27  and  O4_28 
REMARK   10  A    between atoms: C11_31  and  C12_32 
REMARK   11  A    between atoms: C12_32  and  O5_33 
REMARK   12  A    between atoms: C12_32  and  O6_35 
REMARK   13  A    between atoms: C13_37  and  O7_38 
REMARK       I    between atoms: N9_43  and  C15_45 
REMARK       I    between atoms: C15_45  and  N10_46 
REMARK       I    between atoms: C15_45  and  N11_50 
ROOT
HETATM    1  N3  UNL     1     -20.686   5.073 -17.756  1.00  0.00    -0.046 N 
HETATM    2  N4  UNL     1     -20.379   5.777 -16.681  1.00  0.00    -0.219 N 
ATOM      3  H4  UNL     1     -20.765   5.638 -15.748  1.00  0.00     0.209 HD
HETATM    4  N5  UNL     1     -19.495   6.683 -17.013  1.00  0.00    -0.279 N 
ATOM      5  H5  UNL     1     -19.084   7.363 -16.374  1.00  0.00     0.189 HD
HETATM    6  C5  UNL     1     -19.216   6.585 -18.298  1.00  0.00     0.131 A 
HETATM    7  C13 UNL     1     -19.978   5.552 -18.787  1.00  0.00     0.212 A 
ENDROOT
BRANCH   1   8
HETATM    8  C4  UNL     1     -21.610   3.988 -17.833  1.00  0.00     0.709 A 
HETATM    9  N2  UNL     1     -21.654   3.176 -18.904  1.00  0.00    -0.186 N 
HETATM   10  C2  UNL     1     -22.516   2.152 -18.991  1.00  0.00     0.108 A 
ATOM     11  H2  UNL     1     -21.010   3.345 -19.677  1.00  0.00     0.184 HD
HETATM   12  C1  UNL     1     -23.419   1.882 -17.956  1.00  0.00     0.118 A 
HETATM   13  N1  UNL     1     -24.307   0.782 -18.108  1.00  0.00    -0.096 NA
HETATM   14  C14 UNL     1     -23.378   2.707 -16.861  1.00  0.00     0.146 A 
HETATM   15  N8  UNL     1     -22.462   3.739 -16.845  1.00  0.00    -0.173 N 
HETATM   16  N9  UNL     1     -24.146   2.554 -15.876  1.00  0.00    -0.325 N 
ATOM     17  H8  UNL     1     -22.439   4.347 -16.027  1.00  0.00     0.186 HD
HETATM   18  C15 UNL     1     -25.163   1.696 -15.492  1.00  0.00     0.481 C 
ATOM     19  H9  UNL     1     -23.971   3.259 -15.160  1.00  0.00     0.165 HD
HETATM   20  N10 UNL     1     -24.711   0.389 -15.019  1.00  0.00    -0.033 N 
HETATM   21  N11 UNL     1     -25.909   2.260 -14.335  1.00  0.00    -0.033 N 
ATOM     22 3H10 UNL     1     -24.118  -0.056 -15.720  1.00  0.00     0.278 HD
ATOM     23 2H10 UNL     1     -24.036   0.501 -14.262  1.00  0.00     0.278 HD
ATOM     24 1H10 UNL     1     -25.459  -0.243 -14.736  1.00  0.00     0.278 HD
ATOM     25 3H11 UNL     1     -25.288   2.487 -13.558  1.00  0.00     0.278 HD
ATOM     26 2H11 UNL     1     -26.257   3.199 -14.529  1.00  0.00     0.278 HD
ATOM     27 1H11 UNL     1     -26.657   1.629 -14.052  1.00  0.00     0.278 HD
BRANCH  10  28
HETATM   28  C3  UNL     1     -22.514   1.297 -20.194  1.00  0.00     0.307 C 
BRANCH  28  29
HETATM   29  O1  UNL     1     -21.834   1.855 -21.256  1.00  0.00    -0.366 OA
ATOM     30  H1  UNL     1     -21.070   1.353 -21.517  1.00  0.00     0.213 HD
ENDBRANCH  28  29
BRANCH  28  31
HETATM   31  O2  UNL     1     -21.960   0.063 -19.817  1.00  0.00    -0.366 OA
ATOM     32  H2  UNL     1     -21.627   0.170 -18.933  1.00  0.00     0.213 HD
ENDBRANCH  28  31
ENDBRANCH  10  28
ENDBRANCH   1   8
BRANCH   7  33
HETATM   33  O7  UNL     1     -19.987   5.119 -20.081  1.00  0.00    -0.343 OA
ATOM     34  H7  UNL     1     -20.152   5.630 -20.865  1.00  0.00     0.219 HD
ENDBRANCH   7  33
BRANCH   6  35
HETATM   35  C6  UNL     1     -18.258   7.442 -19.045  1.00  0.00     0.084 A 
HETATM   36  N6  UNL     1     -17.261   6.868 -19.691  1.00  0.00    -0.343 N 
HETATM   37  C7  UNL     1     -16.420   7.589 -20.386  1.00  0.00     0.143 A 
ATOM     38  H6  UNL     1     -17.145   5.855 -19.648  1.00  0.00     0.167 HD
HETATM   39  S1  UNL     1     -16.999   9.165 -20.163  1.00  0.00    -0.064 SA
HETATM   40  C11 UNL     1     -18.363   8.788 -19.134  1.00  0.00     0.068 A 
BRANCH  37  41
HETATM   41  C8  UNL     1     -15.259   7.089 -21.158  1.00  0.00     0.275 C 
HETATM   42  O3  UNL     1     -15.387   7.055 -22.386  1.00  0.00    -0.265 OA
HETATM   43  N7  UNL     1     -14.076   6.674 -20.526  1.00  0.00    -0.353 N 
ATOM     44  H7  UNL     1     -14.009   6.711 -19.509  1.00  0.00     0.162 HD
BRANCH  43  45
HETATM   45  C9  UNL     1     -12.955   6.199 -21.295  1.00  0.00     0.149 C 
BRANCH  45  46
HETATM   46  C10 UNL     1     -12.853   4.706 -21.181  1.00  0.00     0.183 C 
BRANCH  46  47
HETATM   47  O4  UNL     1     -13.597   4.342 -20.051  1.00  0.00    -0.399 OA
ATOM     48  H4  UNL     1     -13.063   3.725 -19.565  1.00  0.00     0.209 HD
ENDBRANCH  46  47
ENDBRANCH  45  46
ENDBRANCH  43  45
ENDBRANCH  37  41
BRANCH  40  49
HETATM   49  C12 UNL     1     -19.287   9.798 -18.523  1.00  0.00     0.297 C 
BRANCH  49  50
HETATM   50  O5  UNL     1     -19.160   9.788 -17.168  1.00  0.00    -0.367 OA
ATOM     51  H5  UNL     1     -20.012   9.890 -16.761  1.00  0.00     0.213 HD
ENDBRANCH  49  50
BRANCH  49  52
HETATM   52  O6  UNL     1     -19.043  11.038 -19.104  1.00  0.00    -0.367 OA
ATOM     53  H6  UNL     1     -19.825  11.572 -19.027  1.00  0.00     0.213 HD
ENDBRANCH  49  52
ENDBRANCH  40  49
ENDBRANCH   6  35
TORSDOF 13
ENDMDL
MODEL 5
REMARK VINA RESULT: -9.054738292      2.212      2.678
REMARK  13 active torsions:
REMARK  status: ('A' for Active; 'I' for Inactive)
REMARK    1  A    between atoms: C2_3  and  C3_4 
REMARK    2  A    between atoms: C3_4  and  O1_5 
REMARK    3  A    between atoms: C3_4  and  O2_7 
REMARK    4  A    between atoms: C4_11  and  N3_12 
REMARK    5  A    between atoms: C5_17  and  C6_18 
REMARK    6  A    between atoms: C7_21  and  C8_22 
REMARK       I    between atoms: C8_22  and  N7_24 
REMARK    7  A    between atoms: N7_24  and  C9_26 
REMARK    8  A    between atoms: C9_26  and  C10_27 
REMARK    9  A    between atoms: C10_27  and  O4_28 
REMARK   10  A    between atoms: C11_31  and  C12_32 
REMARK   11  A    between atoms: C12_32  and  O5_33 
REMARK   12  A    between atoms: C12_32  and  O6_35 
REMARK   13  A    between atoms: C13_37  and  O7_38 
REMARK       I    between atoms: N9_43  and  C15_45 
REMARK       I    between atoms: C15_45  and  N10_46 
REMARK       I    between atoms: C15_45  and  N11_50 
ROOT
HETATM    1  N3  UNL     1     -20.730   5.144 -17.850  1.00  0.00    -0.046 N 
HETATM    2  N4  UNL     1     -20.786   4.805 -19.127  1.00  0.00    -0.219 N 
ATOM      3  H4  UNL     1     -21.436   4.134 -19.536  1.00  0.00     0.209 HD
HETATM    4  N5  UNL     1     -19.870   5.474 -19.778  1.00  0.00    -0.279 N 
ATOM      5  H5  UNL     1     -19.694   5.404 -20.781  1.00  0.00     0.189 HD
HETATM    6  C5  UNL     1     -19.207   6.252 -18.945  1.00  0.00     0.131 A 
HETATM    7  C13 UNL     1     -19.752   6.048 -17.700  1.00  0.00     0.212 A 
ENDROOT
BRANCH   1   8
HETATM    8  C4  UNL     1     -21.554   4.649 -16.796  1.00  0.00     0.709 A 
HETATM    9  N2  UNL     1     -21.585   5.242 -15.590  1.00  0.00    -0.186 N 
HETATM   10  C2  UNL     1     -22.354   4.789 -14.589  1.00  0.00     0.108 A 
ATOM     11  H2  UNL     1     -21.003   6.065 -15.430  1.00  0.00     0.184 HD
HETATM   12  C1  UNL     1     -23.169   3.663 -14.761  1.00  0.00     0.118 A 
HETATM   13  N1  UNL     1     -23.961   3.232 -13.662  1.00  0.00    -0.096 NA
HETATM   14  C14 UNL     1     -23.141   3.054 -15.989  1.00  0.00     0.146 A 
HETATM   15  N8  UNL     1     -22.324   3.581 -16.969  1.00  0.00    -0.173 N 
HETATM   16  N9  UNL     1     -23.832   2.036 -16.250  1.00  0.00    -0.325 N 
ATOM     17  H8  UNL     1     -22.310   3.121 -17.880  1.00  0.00     0.186 HD
HETATM   18  C15 UNL     1     -24.741   1.219 -15.598  1.00  0.00     0.481 C 
ATOM     19  H9  UNL     1     -23.682   1.725 -17.210  1.00  0.00     0.165 HD
HETATM   20  N10 UNL     1     -26.082   1.784 -15.467  1.00  0.00    -0.033 N 
HETATM   21  N11 UNL     1     -24.952  -0.038 -16.366  1.00  0.00    -0.033 N 
ATOM     22 3H10 UNL     1     -26.040   2.698 -15.015  1.00  0.00     0.278 HD
ATOM     23 2H10 UNL     1     -26.443   2.056 -16.382  1.00  0.00     0.278 HD
ATOM     24 1H10 UNL     1     -26.752   1.182 -14.987  1.00  0.00     0.278 HD
ATOM     25 3H11 UNL     1     -25.231   0.148 -17.329  1.00  0.00     0.278 HD
ATOM     26 2H11 UNL     1     -24.073  -0.521 -16.553  1.00  0.00     0.278 HD
ATOM     27 1H11 UNL     1     -25.621  -0.639 -15.886  1.00  0.00     0.278 HD
BRANCH  10  28
HETATM   28  C3  UNL     1     -22.343   5.485 -13.287  1.00  0.00     0.307 C 
BRANCH  28  29
HETATM   29  O1  UNL     1     -21.494   6.571 -13.260  1.00  0.00    -0.366 OA
ATOM     30  H1  UNL     1     -20.834   6.513 -12.578  1.00  0.00     0.213 HD
ENDBRANCH  28  29
BRANCH  28  31
HETATM   31  O2  UNL     1     -23.669   5.858 -13.013  1.00  0.00    -0.366 OA
ATOM     32  H2  UNL     1     -24.048   5.160 -12.490  1.00  0.00     0.213 HD
ENDBRANCH  28  31
ENDBRANCH  10  28
ENDBRANCH   1   8
BRANCH   7  33
HETATM   33  O7  UNL     1     -19.352   6.664 -16.551  1.00  0.00    -0.343 OA
ATOM     34  H7  UNL     1     -19.310   7.597 -16.374  1.00  0.00     0.219 HD
ENDBRANCH   7  33
BRANCH   6  35
HETATM   35  C6  UNL     1     -18.091   7.163 -19.311  1.00  0.00     0.084 A 
HETATM   36  N6  UNL     1     -16.973   6.643 -19.779  1.00  0.00    -0.343 N 
HETATM   37  C7  UNL     1     -15.983   7.417 -20.142  1.00  0.00     0.143 A 
ATOM     38  H6  UNL     1     -16.879   5.630 -19.858  1.00  0.00     0.167 HD
HETATM   39  S1  UNL     1     -16.587   8.970 -19.836  1.00  0.00    -0.064 SA
HETATM   40  C11 UNL     1     -18.161   8.512 -19.224  1.00  0.00     0.068 A 
BRANCH  37  41
HETATM   41  C8  UNL     1     -14.675   6.981 -20.682  1.00  0.00     0.275 C 
HETATM   42  O3  UNL     1     -14.088   7.780 -21.419  1.00  0.00    -0.265 OA
HETATM   43  N7  UNL     1     -14.131   5.725 -20.372  1.00  0.00    -0.353 N 
ATOM     44  H7  UNL     1     -14.647   5.088 -19.764  1.00  0.00     0.162 HD
BRANCH  43  45
HETATM   45  C9  UNL     1     -12.853   5.322 -20.901  1.00  0.00     0.149 C 
BRANCH  45  46
HETATM   46  C10 UNL     1     -12.860   3.849 -21.188  1.00  0.00     0.183 C 
BRANCH  46  47
HETATM   47  O4  UNL     1     -13.502   3.235 -20.105  1.00  0.00    -0.399 OA
ATOM     48  H4  UNL     1     -13.523   3.877 -19.405  1.00  0.00     0.209 HD
ENDBRANCH  46  47
ENDBRANCH  45  46
ENDBRANCH  43  45
ENDBRANCH  37  41
BRANCH  40  49
HETATM   49  C12 UNL     1     -19.196   9.465 -18.709  1.00  0.00     0.297 C 
BRANCH  49  50
HETATM   50  O5  UNL     1     -19.188   9.473 -17.348  1.00  0.00    -0.367 OA
ATOM     51  H5  UNL     1     -18.660  10.196 -17.029  1.00  0.00     0.213 HD
ENDBRANCH  49  50
BRANCH  49  52
HETATM   52  O6  UNL     1     -18.981  10.714 -19.282  1.00  0.00    -0.367 OA
ATOM     53  H6  UNL     1     -18.050  10.902 -19.267  1.00  0.00     0.213 HD
ENDBRANCH  49  52
ENDBRANCH  40  49
ENDBRANCH   6  35
TORSDOF 13
ENDMDL
