MODEL 1
REMARK VINA RESULT: -9.119496009      0.000      0.000
REMARK  13 active torsions:
REMARK  status: ('A' for Active; 'I' for Inactive)
REMARK    1  A    between atoms: C2_2  and  C4_4 
REMARK    2  A    between atoms: C4_4  and  C5_5 
REMARK    3  A    between atoms: C5_5  and  C6_6 
REMARK    4  A    between atoms: C5_5  and  N1_9 
REMARK    5  A    between atoms: C6_6  and  O1_7 
REMARK    6  A    between atoms: N1_9  and  C7_11 
REMARK    7  A    between atoms: C8_12  and  N2_13 
REMARK    8  A    between atoms: C9_16  and  N4_17 
REMARK    9  A    between atoms: N4_17  and  C10_19 
REMARK   10  A    between atoms: C13_28  and  N9_29 
REMARK   11  A    between atoms: C16_38  and  C17_39 
REMARK       I    between atoms: C17_39  and  N12_41 
REMARK   12  A    between atoms: N12_41  and  N13_43 
REMARK   13  A    between atoms: N15_49  and  N16_50 
ROOT
HETATM    1  C7  UNL     1     -24.625   2.631 -16.293  1.00  0.00     0.194 A 
HETATM    2  C8  UNL     1     -24.800   1.832 -17.378  1.00  0.00     0.209 A 
HETATM    3  N10 UNL     1     -25.676   0.844 -16.988  1.00  0.00    -0.061 N 
HETATM    4  N11 UNL     1     -26.310  -0.237 -17.423  1.00  0.00    -0.257 N 
ATOM      5  H11 UNL     1     -26.234  -0.618 -18.366  1.00  0.00     0.190 HD
HETATM    6  C16 UNL     1     -27.066  -0.758 -16.443  1.00  0.00     0.206 A 
HETATM    7  N14 UNL     1     -26.872   0.051 -15.373  1.00  0.00    -0.166 N 
ATOM      8  H14 UNL     1     -27.304  -0.064 -14.456  1.00  0.00     0.186 HD
HETATM    9  C18 UNL     1     -26.006   1.042 -15.722  1.00  0.00     0.730 A 
HETATM   10  N15 UNL     1     -25.384   2.126 -15.260  1.00  0.00    -0.070 N 
ENDROOT
BRANCH   2  11
HETATM   11  N2  UNL     1     -24.234   1.830 -18.708  1.00  0.00    -0.267 N 
HETATM   12  N3  UNL     1     -24.945   2.191 -19.821  1.00  0.00    -0.308 N 
HETATM   13  C9  UNL     1     -24.281   2.869 -20.880  1.00  0.00     0.216 C 
ATOM     14  H3  UNL     1     -25.940   1.977 -19.889  1.00  0.00     0.182 HD
HETATM   15  C12 UNL     1     -22.771   2.786 -20.843  1.00  0.00     0.083 C 
HETATM   16  C13 UNL     1     -22.313   1.492 -20.204  1.00  0.00     0.211 C 
HETATM   17  C14 UNL     1     -22.862   1.362 -18.830  1.00  0.00     0.136 C 
HETATM   18  C15 UNL     1     -22.750  -0.107 -18.424  1.00  0.00     0.036 C 
BRANCH  13  19
HETATM   19  N4  UNL     1     -24.799   2.431 -22.164  1.00  0.00    -0.203 N 
ATOM     20  H4  UNL     1     -24.666   3.045 -22.968  1.00  0.00     0.180 HD
BRANCH  19  21
HETATM   21  C10 UNL     1     -25.470   1.219 -22.371  1.00  0.00     0.689 C 
HETATM   22  N5  UNL     1     -24.844   0.105 -22.531  1.00  0.00    -0.211 N 
HETATM   23  C11 UNL     1     -25.648  -1.082 -22.736  1.00  0.00     0.271 C 
ATOM     24  H5  UNL     1     -23.825   0.060 -22.512  1.00  0.00     0.179 HD
HETATM   25  N6  UNL     1     -26.734  -1.055 -21.794  1.00  0.00    -0.106 NA
HETATM   26  N7  UNL     1     -27.605   0.018 -22.024  1.00  0.00    -0.015 NA
HETATM   27  N8  UNL     1     -26.893   1.171 -22.413  1.00  0.00    -0.120 N 
ATOM     28  H8  UNL     1     -27.409   1.990 -22.732  1.00  0.00     0.202 HD
ENDBRANCH  19  21
ENDBRANCH  13  19
BRANCH  16  29
HETATM   29  N9  UNL     1     -20.849   1.588 -20.096  1.00  0.00    -0.073 N 
ATOM     30  H93 UNL     1     -20.455   2.376 -20.610  1.00  0.00     0.274 HD
ATOM     31  H92 UNL     1     -20.527   1.870 -19.170  1.00  0.00     0.274 HD
ATOM     32  H91 UNL     1     -20.485   0.684 -20.396  1.00  0.00     0.274 HD
ENDBRANCH  16  29
ENDBRANCH   2  11
BRANCH   1  33
HETATM   33  N1  UNL     1     -23.911   3.816 -16.119  1.00  0.00    -0.339 N 
ATOM     34  H1  UNL     1     -24.452   4.671 -16.246  1.00  0.00     0.167 HD
BRANCH  33  35
HETATM   35  C5  UNL     1     -22.524   4.013 -15.784  1.00  0.00     0.031 C 
BRANCH  35  36
HETATM   36  C4  UNL     1     -21.636   4.452 -16.845  1.00  0.00     0.004 C 
BRANCH  36  37
HETATM   37  C2  UNL     1     -20.287   4.972 -16.662  1.00  0.00     0.002 C 
HETATM   38  C1  UNL     1     -19.672   5.742 -17.799  1.00  0.00     0.013 C 
HETATM   39  C3  UNL     1     -19.272   3.982 -16.125  1.00  0.00     0.013 C 
ENDBRANCH  36  37
ENDBRANCH  35  36
BRANCH  35  40
HETATM   40  C6  UNL     1     -22.455   4.607 -14.419  1.00  0.00     0.220 C 
BRANCH  40  41
HETATM   41  O1  UNL     1     -22.712   3.704 -13.397  1.00  0.00    -0.395 OA
ATOM     42  H1  UNL     1     -22.127   3.787 -12.654  1.00  0.00     0.209 HD
ENDBRANCH  40  41
ENDBRANCH  35  40
ENDBRANCH  33  35
ENDBRANCH   1  33
BRANCH  10  43
HETATM   43  N16 UNL     1     -25.506   2.629 -13.955  1.00  0.00    -0.322 N 
ATOM     44 2H16 UNL     1     -25.335   3.598 -13.683  1.00  0.00     0.178 HD
ATOM     45 1H16 UNL     1     -25.774   2.123 -13.112  1.00  0.00     0.178 HD
ENDBRANCH  10  43
BRANCH   6  46
HETATM   46  C17 UNL     1     -27.923  -1.938 -16.485  1.00  0.00     0.305 C 
HETATM   47  O2  UNL     1     -29.155  -1.775 -16.592  1.00  0.00    -0.263 OA
HETATM   48  N12 UNL     1     -27.367  -3.244 -16.406  1.00  0.00    -0.270 N 
ATOM     49  H12 UNL     1     -26.356  -3.350 -16.318  1.00  0.00     0.189 HD
BRANCH  48  50
HETATM   50  N13 UNL     1     -28.171  -4.384 -16.443  1.00  0.00    -0.342 N 
ATOM     51 2H13 UNL     1     -28.009  -5.063 -17.187  1.00  0.00     0.176 HD
ATOM     52 1H13 UNL     1     -28.902  -4.545 -15.751  1.00  0.00     0.176 HD
ENDBRANCH  48  50
ENDBRANCH   6  46
TORSDOF 13
ENDMDL
MODEL 2
REMARK VINA RESULT: -8.868270094      2.787      6.441
REMARK  13 active torsions:
REMARK  status: ('A' for Active; 'I' for Inactive)
REMARK    1  A    between atoms: C2_2  and  C4_4 
REMARK    2  A    between atoms: C4_4  and  C5_5 
REMARK    3  A    between atoms: C5_5  and  C6_6 
REMARK    4  A    between atoms: C5_5  and  N1_9 
REMARK    5  A    between atoms: C6_6  and  O1_7 
REMARK    6  A    between atoms: N1_9  and  C7_11 
REMARK    7  A    between atoms: C8_12  and  N2_13 
REMARK    8  A    between atoms: C9_16  and  N4_17 
REMARK    9  A    between atoms: N4_17  and  C10_19 
REMARK   10  A    between atoms: C13_28  and  N9_29 
REMARK   11  A    between atoms: C16_38  and  C17_39 
REMARK       I    between atoms: C17_39  and  N12_41 
REMARK   12  A    between atoms: N12_41  and  N13_43 
REMARK   13  A    between atoms: N15_49  and  N16_50 
ROOT
HETATM    1  C7  UNL     1     -22.571   2.777 -16.565  1.00  0.00     0.194 A 
HETATM    2  C8  UNL     1     -22.282   2.790 -17.891  1.00  0.00     0.209 A 
HETATM    3  N10 UNL     1     -21.441   3.862 -18.091  1.00  0.00    -0.061 N 
HETATM    4  N11 UNL     1     -20.758   4.510 -19.025  1.00  0.00    -0.257 N 
ATOM      5  H11 UNL     1     -20.737   4.257 -20.012  1.00  0.00     0.190 HD
HETATM    6  C16 UNL     1     -20.099   5.548 -18.485  1.00  0.00     0.206 A 
HETATM    7  N14 UNL     1     -20.405   5.517 -17.164  1.00  0.00    -0.166 N 
ATOM      8  H14 UNL     1     -20.066   6.173 -16.461  1.00  0.00     0.186 HD
HETATM    9  C18 UNL     1     -21.240   4.467 -16.931  1.00  0.00     0.730 A 
HETATM   10  N15 UNL     1     -21.914   3.834 -15.971  1.00  0.00    -0.070 N 
ENDROOT
BRANCH   2  11
HETATM   11  N2  UNL     1     -22.712   1.977 -19.007  1.00  0.00    -0.267 N 
HETATM   12  N3  UNL     1     -23.931   1.356 -19.050  1.00  0.00    -0.308 N 
HETATM   13  C9  UNL     1     -24.602   1.228 -20.298  1.00  0.00     0.216 C 
ATOM     14  H3  UNL     1     -24.353   0.989 -18.198  1.00  0.00     0.182 HD
HETATM   15  C12 UNL     1     -23.732   1.448 -21.515  1.00  0.00     0.083 C 
HETATM   16  C13 UNL     1     -22.299   1.040 -21.241  1.00  0.00     0.211 C 
HETATM   17  C14 UNL     1     -21.752   1.792 -20.084  1.00  0.00     0.136 C 
HETATM   18  C15 UNL     1     -20.516   1.041 -19.588  1.00  0.00     0.036 C 
BRANCH  13  19
HETATM   19  N4  UNL     1     -25.294  -0.047 -20.371  1.00  0.00    -0.203 N 
ATOM     20  H4  UNL     1     -25.184  -0.696 -19.592  1.00  0.00     0.180 HD
BRANCH  19  21
HETATM   21  C10 UNL     1     -26.103  -0.443 -21.443  1.00  0.00     0.689 C 
HETATM   22  N5  UNL     1     -26.080  -1.641 -21.916  1.00  0.00    -0.211 N 
HETATM   23  C11 UNL     1     -26.964  -1.930 -23.027  1.00  0.00     0.271 C 
ATOM     24  H5  UNL     1     -25.467  -2.355 -21.525  1.00  0.00     0.179 HD
HETATM   25  N6  UNL     1     -28.247  -1.349 -22.740  1.00  0.00    -0.106 NA
HETATM   26  N7  UNL     1     -28.191   0.050 -22.675  1.00  0.00    -0.015 NA
HETATM   27  N8  UNL     1     -26.996   0.478 -22.062  1.00  0.00    -0.120 N 
ATOM     28  H8  UNL     1     -26.766   1.471 -22.061  1.00  0.00     0.202 HD
ENDBRANCH  19  21
ENDBRANCH  13  19
BRANCH  16  29
HETATM   29  N9  UNL     1     -21.531   1.429 -22.435  1.00  0.00    -0.073 N 
ATOM     30  H93 UNL     1     -21.986   1.174 -23.312  1.00  0.00     0.274 HD
ATOM     31  H92 UNL     1     -21.510   2.436 -22.595  1.00  0.00     0.274 HD
ATOM     32  H91 UNL     1     -20.606   1.015 -22.320  1.00  0.00     0.274 HD
ENDBRANCH  16  29
ENDBRANCH   2  11
BRANCH   1  33
HETATM   33  N1  UNL     1     -23.307   1.887 -15.783  1.00  0.00    -0.339 N 
ATOM     34  H1  UNL     1     -22.756   1.201 -15.269  1.00  0.00     0.167 HD
BRANCH  33  35
HETATM   35  C5  UNL     1     -24.732   1.794 -15.594  1.00  0.00     0.031 C 
BRANCH  35  36
HETATM   36  C4  UNL     1     -25.284   0.483 -15.303  1.00  0.00     0.004 C 
BRANCH  36  37
HETATM   37  C2  UNL     1     -26.238  -0.240 -16.134  1.00  0.00     0.002 C 
HETATM   38  C1  UNL     1     -26.873   0.502 -17.279  1.00  0.00     0.013 C 
HETATM   39  C3  UNL     1     -27.307  -1.009 -15.384  1.00  0.00     0.013 C 
ENDBRANCH  36  37
ENDBRANCH  35  36
BRANCH  35  40
HETATM   40  C6  UNL     1     -25.182   3.007 -14.853  1.00  0.00     0.220 C 
BRANCH  40  41
HETATM   41  O1  UNL     1     -24.618   3.140 -13.593  1.00  0.00    -0.395 OA
ATOM     42  H1  UNL     1     -24.298   2.325 -13.226  1.00  0.00     0.209 HD
ENDBRANCH  40  41
ENDBRANCH  35  40
ENDBRANCH  33  35
ENDBRANCH   1  33
BRANCH  10  43
HETATM   43  N16 UNL     1     -21.926   4.204 -14.617  1.00  0.00    -0.322 N 
ATOM     44 2H16 UNL     1     -22.227   3.604 -13.849  1.00  0.00     0.178 HD
ATOM     45 1H16 UNL     1     -21.648   5.097 -14.210  1.00  0.00     0.178 HD
ENDBRANCH  10  43
BRANCH   6  46
HETATM   46  C17 UNL     1     -19.233   6.518 -19.144  1.00  0.00     0.305 C 
HETATM   47  O2  UNL     1     -18.726   6.214 -20.242  1.00  0.00    -0.263 OA
HETATM   48  N12 UNL     1     -18.972   7.782 -18.548  1.00  0.00    -0.270 N 
ATOM     49  H12 UNL     1     -19.399   8.007 -17.649  1.00  0.00     0.189 HD
BRANCH  48  50
HETATM   50  N13 UNL     1     -18.145   8.724 -19.163  1.00  0.00    -0.342 N 
ATOM     51 2H13 UNL     1     -18.380   9.711 -19.061  1.00  0.00     0.176 HD
ATOM     52 1H13 UNL     1     -17.327   8.443 -19.703  1.00  0.00     0.176 HD
ENDBRANCH  48  50
ENDBRANCH   6  46
TORSDOF 13
ENDMDL
MODEL 3
REMARK VINA RESULT: -8.841725034      0.643      1.115
REMARK  13 active torsions:
REMARK  status: ('A' for Active; 'I' for Inactive)
REMARK    1  A    between atoms: C2_2  and  C4_4 
REMARK    2  A    between atoms: C4_4  and  C5_5 
REMARK    3  A    between atoms: C5_5  and  C6_6 
REMARK    4  A    between atoms: C5_5  and  N1_9 
REMARK    5  A    between atoms: C6_6  and  O1_7 
REMARK    6  A    between atoms: N1_9  and  C7_11 
REMARK    7  A    between atoms: C8_12  and  N2_13 
REMARK    8  A    between atoms: C9_16  and  N4_17 
REMARK    9  A    between atoms: N4_17  and  C10_19 
REMARK   10  A    between atoms: C13_28  and  N9_29 
REMARK   11  A    between atoms: C16_38  and  C17_39 
REMARK       I    between atoms: C17_39  and  N12_41 
REMARK   12  A    between atoms: N12_41  and  N13_43 
REMARK   13  A    between atoms: N15_49  and  N16_50 
ROOT
HETATM    1  C7  UNL     1     -24.582   2.643 -16.356  1.00  0.00     0.194 A 
HETATM    2  C8  UNL     1     -24.797   1.859 -17.443  1.00  0.00     0.209 A 
HETATM    3  N10 UNL     1     -25.662   0.868 -17.036  1.00  0.00    -0.061 N 
HETATM    4  N11 UNL     1     -26.314  -0.206 -17.462  1.00  0.00    -0.257 N 
ATOM      5  H11 UNL     1     -26.272  -0.574 -18.412  1.00  0.00     0.190 HD
HETATM    6  C16 UNL     1     -27.037  -0.738 -16.464  1.00  0.00     0.206 A 
HETATM    7  N14 UNL     1     -26.804   0.057 -15.390  1.00  0.00    -0.166 N 
ATOM      8  H14 UNL     1     -27.204  -0.068 -14.461  1.00  0.00     0.186 HD
HETATM    9  C18 UNL     1     -25.948   1.051 -15.757  1.00  0.00     0.730 A 
HETATM   10  N15 UNL     1     -25.307   2.127 -15.303  1.00  0.00    -0.070 N 
ENDROOT
BRANCH   2  11
HETATM   11  N2  UNL     1     -24.278   1.872 -18.793  1.00  0.00    -0.267 N 
HETATM   12  N3  UNL     1     -25.017   2.276 -19.871  1.00  0.00    -0.308 N 
HETATM   13  C9  UNL     1     -24.373   2.960 -20.939  1.00  0.00     0.216 C 
ATOM     14  H3  UNL     1     -26.019   2.087 -19.910  1.00  0.00     0.182 HD
HETATM   15  C12 UNL     1     -22.866   2.838 -20.957  1.00  0.00     0.083 C 
HETATM   16  C13 UNL     1     -22.419   1.520 -20.361  1.00  0.00     0.211 C 
HETATM   17  C14 UNL     1     -22.923   1.374 -18.972  1.00  0.00     0.136 C 
HETATM   18  C15 UNL     1     -22.834  -0.107 -18.602  1.00  0.00     0.036 C 
BRANCH  13  19
HETATM   19  N4  UNL     1     -24.947   2.563 -22.213  1.00  0.00    -0.203 N 
ATOM     20  H4  UNL     1     -25.278   3.299 -22.838  1.00  0.00     0.180 HD
BRANCH  19  21
HETATM   21  C10 UNL     1     -25.073   1.235 -22.641  1.00  0.00     0.689 C 
HETATM   22  N5  UNL     1     -25.951   0.434 -22.145  1.00  0.00    -0.211 N 
HETATM   23  C11 UNL     1     -25.984  -0.916 -22.669  1.00  0.00     0.271 C 
ATOM     24  H5  UNL     1     -26.595   0.737 -21.415  1.00  0.00     0.179 HD
HETATM   25  N6  UNL     1     -25.880  -0.842 -24.101  1.00  0.00    -0.106 NA
HETATM   26  N7  UNL     1     -24.646  -0.323 -24.514  1.00  0.00    -0.015 NA
HETATM   27  N8  UNL     1     -24.222   0.712 -23.656  1.00  0.00    -0.120 N 
ATOM     28  H8  UNL     1     -23.283   1.095 -23.765  1.00  0.00     0.202 HD
ENDBRANCH  19  21
ENDBRANCH  13  19
BRANCH  16  29
HETATM   29  N9  UNL     1     -20.950   1.578 -20.303  1.00  0.00    -0.073 N 
ATOM     30  H93 UNL     1     -20.583   2.526 -20.214  1.00  0.00     0.274 HD
ATOM     31  H92 UNL     1     -20.562   1.213 -19.434  1.00  0.00     0.274 HD
ATOM     32  H91 UNL     1     -20.617   1.089 -21.134  1.00  0.00     0.274 HD
ENDBRANCH  16  29
ENDBRANCH   2  11
BRANCH   1  33
HETATM   33  N1  UNL     1     -23.859   3.825 -16.191  1.00  0.00    -0.339 N 
ATOM     34  H1  UNL     1     -24.401   4.683 -16.290  1.00  0.00     0.167 HD
BRANCH  33  35
HETATM   35  C5  UNL     1     -22.461   4.013 -15.901  1.00  0.00     0.031 C 
BRANCH  35  36
HETATM   36  C4  UNL     1     -21.612   4.487 -16.978  1.00  0.00     0.004 C 
BRANCH  36  37
HETATM   37  C2  UNL     1     -20.209   4.861 -16.852  1.00  0.00     0.002 C 
HETATM   38  C1  UNL     1     -19.311   3.956 -16.053  1.00  0.00     0.013 C 
HETATM   39  C3  UNL     1     -19.950   6.300 -16.450  1.00  0.00     0.013 C 
ENDBRANCH  36  37
ENDBRANCH  35  36
BRANCH  35  40
HETATM   40  C6  UNL     1     -22.344   4.564 -14.520  1.00  0.00     0.220 C 
BRANCH  40  41
HETATM   41  O1  UNL     1     -22.565   3.630 -13.519  1.00  0.00    -0.395 OA
ATOM     42  H1  UNL     1     -22.306   3.923 -12.654  1.00  0.00     0.209 HD
ENDBRANCH  40  41
ENDBRANCH  35  40
ENDBRANCH  33  35
ENDBRANCH   1  33
BRANCH  10  43
HETATM   43  N16 UNL     1     -25.382   2.614 -13.989  1.00  0.00    -0.322 N 
ATOM     44 2H16 UNL     1     -25.769   2.101 -13.196  1.00  0.00     0.178 HD
ATOM     45 1H16 UNL     1     -25.074   3.521 -13.639  1.00  0.00     0.178 HD
ENDBRANCH  10  43
BRANCH   6  46
HETATM   46  C17 UNL     1     -27.899  -1.914 -16.491  1.00  0.00     0.305 C 
HETATM   47  O2  UNL     1     -29.132  -1.747 -16.584  1.00  0.00    -0.263 OA
HETATM   48  N12 UNL     1     -27.346  -3.222 -16.413  1.00  0.00    -0.270 N 
ATOM     49  H12 UNL     1     -26.335  -3.331 -16.337  1.00  0.00     0.189 HD
BRANCH  48  50
HETATM   50  N13 UNL     1     -28.154  -4.359 -16.436  1.00  0.00    -0.342 N 
ATOM     51 2H13 UNL     1     -29.103  -4.284 -16.070  1.00  0.00     0.176 HD
ATOM     52 1H13 UNL     1     -27.816  -5.247 -16.808  1.00  0.00     0.176 HD
ENDBRANCH  48  50
ENDBRANCH   6  46
TORSDOF 13
ENDMDL
MODEL 4
REMARK VINA RESULT: -8.664301330      1.317      1.628
REMARK  13 active torsions:
REMARK  status: ('A' for Active; 'I' for Inactive)
REMARK    1  A    between atoms: C2_2  and  C4_4 
REMARK    2  A    between atoms: C4_4  and  C5_5 
REMARK    3  A    between atoms: C5_5  and  C6_6 
REMARK    4  A    between atoms: C5_5  and  N1_9 
REMARK    5  A    between atoms: C6_6  and  O1_7 
REMARK    6  A    between atoms: N1_9  and  C7_11 
REMARK    7  A    between atoms: C8_12  and  N2_13 
REMARK    8  A    between atoms: C9_16  and  N4_17 
REMARK    9  A    between atoms: N4_17  and  C10_19 
REMARK   10  A    between atoms: C13_28  and  N9_29 
REMARK   11  A    between atoms: C16_38  and  C17_39 
REMARK       I    between atoms: C17_39  and  N12_41 
REMARK   12  A    between atoms: N12_41  and  N13_43 
REMARK   13  A    between atoms: N15_49  and  N16_50 
ROOT
HETATM    1  C7  UNL     1     -24.798   1.654 -16.928  1.00  0.00     0.194 A 
HETATM    2  C8  UNL     1     -24.973   0.719 -17.897  1.00  0.00     0.209 A 
HETATM    3  N10 UNL     1     -25.758  -0.267 -17.341  1.00  0.00    -0.061 N 
HETATM    4  N11 UNL     1     -26.338  -1.430 -17.605  1.00  0.00    -0.257 N 
ATOM      5  H11 UNL     1     -26.285  -1.918 -18.499  1.00  0.00     0.190 HD
HETATM    6  C16 UNL     1     -27.004  -1.873 -16.527  1.00  0.00     0.206 A 
HETATM    7  N14 UNL     1     -26.811  -0.928 -15.574  1.00  0.00    -0.166 N 
ATOM      8  H14 UNL     1     -27.186  -0.956 -14.626  1.00  0.00     0.186 HD
HETATM    9  C18 UNL     1     -26.035   0.065 -16.091  1.00  0.00     0.730 A 
HETATM   10  N15 UNL     1     -25.466   1.234 -15.798  1.00  0.00    -0.070 N 
ENDROOT
BRANCH   2  11
HETATM   11  N2  UNL     1     -24.479   0.589 -19.249  1.00  0.00    -0.267 N 
HETATM   12  N3  UNL     1     -25.232   0.082 -20.273  1.00  0.00    -0.308 N 
HETATM   13  C9  UNL     1     -25.070   0.610 -21.584  1.00  0.00     0.216 C 
ATOM     14  H3  UNL     1     -25.903  -0.667 -20.098  1.00  0.00     0.182 HD
HETATM   15  C12 UNL     1     -23.808   1.416 -21.795  1.00  0.00     0.083 C 
HETATM   16  C13 UNL     1     -22.690   0.919 -20.902  1.00  0.00     0.211 C 
HETATM   17  C14 UNL     1     -23.095   0.975 -19.474  1.00  0.00     0.136 C 
HETATM   18  C15 UNL     1     -22.143   0.071 -18.690  1.00  0.00     0.036 C 
BRANCH  13  19
HETATM   19  N4  UNL     1     -25.189  -0.447 -22.573  1.00  0.00    -0.203 N 
ATOM     20  H4  UNL     1     -24.399  -0.606 -23.199  1.00  0.00     0.180 HD
BRANCH  19  21
HETATM   21  C10 UNL     1     -26.318  -1.262 -22.723  1.00  0.00     0.689 C 
HETATM   22  N5  UNL     1     -26.307  -2.514 -22.420  1.00  0.00    -0.211 N 
HETATM   23  C11 UNL     1     -27.538  -3.252 -22.619  1.00  0.00     0.271 C 
ATOM     24  H5  UNL     1     -25.469  -2.965 -22.055  1.00  0.00     0.179 HD
HETATM   25  N6  UNL     1     -28.624  -2.453 -22.122  1.00  0.00    -0.106 NA
HETATM   26  N7  UNL     1     -28.788  -1.270 -22.854  1.00  0.00    -0.015 NA
HETATM   27  N8  UNL     1     -27.541  -0.729 -23.225  1.00  0.00    -0.120 N 
ATOM     28  H8  UNL     1     -27.512   0.062 -23.867  1.00  0.00     0.202 HD
ENDBRANCH  19  21
ENDBRANCH  13  19
BRANCH  16  29
HETATM   29  N9  UNL     1     -21.573   1.858 -21.090  1.00  0.00    -0.073 N 
ATOM     30  H93 UNL     1     -21.851   2.741 -21.520  1.00  0.00     0.274 HD
ATOM     31  H92 UNL     1     -21.220   2.251 -20.218  1.00  0.00     0.274 HD
ATOM     32  H91 UNL     1     -20.866   1.351 -21.623  1.00  0.00     0.274 HD
ENDBRANCH  16  29
ENDBRANCH   2  11
BRANCH   1  33
HETATM   33  N1  UNL     1     -24.160   2.894 -16.939  1.00  0.00    -0.339 N 
ATOM     34  H1  UNL     1     -24.678   3.646 -17.392  1.00  0.00     0.167 HD
BRANCH  33  35
HETATM   35  C5  UNL     1     -22.877   3.271 -16.404  1.00  0.00     0.031 C 
BRANCH  35  36
HETATM   36  C4  UNL     1     -21.836   3.629 -17.350  1.00  0.00     0.004 C 
BRANCH  36  37
HETATM   37  C2  UNL     1     -20.751   4.570 -17.103  1.00  0.00     0.002 C 
HETATM   38  C1  UNL     1     -20.180   5.308 -18.283  1.00  0.00     0.013 C 
HETATM   39  C3  UNL     1     -19.615   4.047 -16.246  1.00  0.00     0.013 C 
ENDBRANCH  36  37
ENDBRANCH  35  36
BRANCH  35  40
HETATM   40  C6  UNL     1     -23.107   4.069 -15.165  1.00  0.00     0.220 C 
BRANCH  40  41
HETATM   41  O1  UNL     1     -22.975   3.340 -13.992  1.00  0.00    -0.395 OA
ATOM     42  H1  UNL     1     -23.006   2.398 -14.118  1.00  0.00     0.209 HD
ENDBRANCH  40  41
ENDBRANCH  35  40
ENDBRANCH  33  35
ENDBRANCH   1  33
BRANCH  10  43
HETATM   43  N16 UNL     1     -25.555   1.885 -14.558  1.00  0.00    -0.322 N 
ATOM     44 2H16 UNL     1     -24.975   1.676 -13.745  1.00  0.00     0.178 HD
ATOM     45 1H16 UNL     1     -26.189   2.637 -14.290  1.00  0.00     0.178 HD
ENDBRANCH  10  43
BRANCH   6  46
HETATM   46  C17 UNL     1     -27.779  -3.100 -16.377  1.00  0.00     0.305 C 
HETATM   47  O2  UNL     1     -28.446  -3.505 -17.350  1.00  0.00    -0.263 OA
HETATM   48  N12 UNL     1     -27.775  -3.816 -15.149  1.00  0.00    -0.270 N 
ATOM     49  H12 UNL     1     -27.221  -3.463 -14.369  1.00  0.00     0.189 HD
BRANCH  48  50
HETATM   50  N13 UNL     1     -28.510  -4.991 -14.986  1.00  0.00    -0.342 N 
ATOM     51 2H13 UNL     1     -29.505  -4.912 -14.779  1.00  0.00     0.176 HD
ATOM     52 1H13 UNL     1     -28.074  -5.910 -15.071  1.00  0.00     0.176 HD
ENDBRANCH  48  50
ENDBRANCH   6  46
TORSDOF 13
ENDMDL
MODEL 5
REMARK VINA RESULT: -8.614801799      3.024      6.644
REMARK  13 active torsions:
REMARK  status: ('A' for Active; 'I' for Inactive)
REMARK    1  A    between atoms: C2_2  and  C4_4 
REMARK    2  A    between atoms: C4_4  and  C5_5 
REMARK    3  A    between atoms: C5_5  and  C6_6 
REMARK    4  A    between atoms: C5_5  and  N1_9 
REMARK    5  A    between atoms: C6_6  and  O1_7 
REMARK    6  A    between atoms: N1_9  and  C7_11 
REMARK    7  A    between atoms: C8_12  and  N2_13 
REMARK    8  A    between atoms: C9_16  and  N4_17 
REMARK    9  A    between atoms: N4_17  and  C10_19 
REMARK   10  A    between atoms: C13_28  and  N9_29 
REMARK   11  A    between atoms: C16_38  and  C17_39 
REMARK       I    between atoms: C17_39  and  N12_41 
REMARK   12  A    between atoms: N12_41  and  N13_43 
REMARK   13  A    between atoms: N15_49  and  N16_50 
ROOT
HETATM    1  C7  UNL     1     -21.976   3.805 -16.545  1.00  0.00     0.194 A 
HETATM    2  C8  UNL     1     -21.795   3.658 -17.883  1.00  0.00     0.209 A 
HETATM    3  N10 UNL     1     -20.869   4.609 -18.251  1.00  0.00    -0.061 N 
HETATM    4  N11 UNL     1     -20.202   5.086 -19.293  1.00  0.00    -0.257 N 
ATOM      5  H11 UNL     1     -20.284   4.737 -20.247  1.00  0.00     0.190 HD
HETATM    6  C16 UNL     1     -19.401   6.094 -18.912  1.00  0.00     0.206 A 
HETATM    7  N14 UNL     1     -19.602   6.225 -17.577  1.00  0.00    -0.166 N 
ATOM      8  H14 UNL     1     -19.144   6.906 -16.972  1.00  0.00     0.186 HD
HETATM    9  C18 UNL     1     -20.517   5.298 -17.178  1.00  0.00     0.730 A 
HETATM   10  N15 UNL     1     -21.172   4.838 -16.112  1.00  0.00    -0.070 N 
ENDROOT
BRANCH   2  11
HETATM   11  N2  UNL     1     -22.392   2.792 -18.874  1.00  0.00    -0.267 N 
HETATM   12  N3  UNL     1     -23.697   2.384 -18.819  1.00  0.00    -0.308 N 
HETATM   13  C9  UNL     1     -24.423   2.210 -20.029  1.00  0.00     0.216 C 
ATOM     14  H3  UNL     1     -24.143   2.206 -17.919  1.00  0.00     0.182 HD
HETATM   15  C12 UNL     1     -23.572   2.122 -21.276  1.00  0.00     0.083 C 
HETATM   16  C13 UNL     1     -22.217   1.518 -20.969  1.00  0.00     0.211 C 
HETATM   17  C14 UNL     1     -21.513   2.311 -19.929  1.00  0.00     0.136 C 
HETATM   18  C15 UNL     1     -20.401   1.434 -19.354  1.00  0.00     0.036 C 
BRANCH  13  19
HETATM   19  N4  UNL     1     -25.318   1.070 -19.923  1.00  0.00    -0.203 N 
ATOM     20  H4  UNL     1     -25.504   0.694 -18.993  1.00  0.00     0.180 HD
BRANCH  19  21
HETATM   21  C10 UNL     1     -25.941   0.454 -21.015  1.00  0.00     0.689 C 
HETATM   22  N5  UNL     1     -25.638  -0.737 -21.398  1.00  0.00    -0.211 N 
HETATM   23  C11 UNL     1     -26.353  -1.266 -22.542  1.00  0.00     0.271 C 
ATOM     24  H5  UNL     1     -24.925  -1.284 -20.918  1.00  0.00     0.179 HD
HETATM   25  N6  UNL     1     -27.747  -0.949 -22.382  1.00  0.00    -0.106 NA
HETATM   26  N7  UNL     1     -27.982   0.431 -22.414  1.00  0.00    -0.015 NA
HETATM   27  N8  UNL     1     -26.952   1.133 -21.755  1.00  0.00    -0.120 N 
ATOM     28  H8  UNL     1     -26.930   2.151 -21.809  1.00  0.00     0.202 HD
ENDBRANCH  19  21
ENDBRANCH  13  19
BRANCH  16  29
HETATM   29  N9  UNL     1     -21.439   1.615 -22.213  1.00  0.00    -0.073 N 
ATOM     30  H93 UNL     1     -22.012   1.580 -23.056  1.00  0.00     0.274 HD
ATOM     31  H92 UNL     1     -21.039   2.540 -22.373  1.00  0.00     0.274 HD
ATOM     32  H91 UNL     1     -20.740   0.873 -22.166  1.00  0.00     0.274 HD
ENDBRANCH  16  29
ENDBRANCH   2  11
BRANCH   1  33
HETATM   33  N1  UNL     1     -22.734   3.080 -15.625  1.00  0.00    -0.339 N 
ATOM     34  H1  UNL     1     -22.247   2.305 -15.177  1.00  0.00     0.167 HD
BRANCH  33  35
HETATM   35  C5  UNL     1     -24.101   3.265 -15.214  1.00  0.00     0.031 C 
BRANCH  35  36
HETATM   36  C4  UNL     1     -25.065   2.260 -15.624  1.00  0.00     0.004 C 
BRANCH  36  37
HETATM   37  C2  UNL     1     -24.902   0.819 -15.481  1.00  0.00     0.002 C 
HETATM   38  C1  UNL     1     -24.053   0.105 -16.497  1.00  0.00     0.013 C 
HETATM   39  C3  UNL     1     -26.180   0.035 -15.260  1.00  0.00     0.013 C 
ENDBRANCH  36  37
ENDBRANCH  35  36
BRANCH  35  40
HETATM   40  C6  UNL     1     -24.099   3.818 -13.829  1.00  0.00     0.220 C 
BRANCH  40  41
HETATM   41  O1  UNL     1     -22.988   3.458 -13.080  1.00  0.00    -0.395 OA
ATOM     42  H1  UNL     1     -22.305   4.118 -13.062  1.00  0.00     0.209 HD
ENDBRANCH  40  41
ENDBRANCH  35  40
ENDBRANCH  33  35
ENDBRANCH   1  33
BRANCH  10  43
HETATM   43  N16 UNL     1     -21.039   5.337 -14.807  1.00  0.00    -0.322 N 
ATOM     44 2H16 UNL     1     -20.250   5.152 -14.188  1.00  0.00     0.178 HD
ATOM     45 1H16 UNL     1     -21.687   5.937 -14.298  1.00  0.00     0.178 HD
ENDBRANCH  10  43
BRANCH   6  46
HETATM   46  C17 UNL     1     -18.498   6.897 -19.728  1.00  0.00     0.305 C 
HETATM   47  O2  UNL     1     -18.090   6.423 -20.807  1.00  0.00    -0.263 OA
HETATM   48  N12 UNL     1     -18.089   8.190 -19.302  1.00  0.00    -0.270 N 
ATOM     49  H12 UNL     1     -18.436   8.555 -18.414  1.00  0.00     0.189 HD
BRANCH  48  50
HETATM   50  N13 UNL     1     -17.224   8.973 -20.068  1.00  0.00    -0.342 N 
ATOM     51 2H13 UNL     1     -17.568   9.343 -20.954  1.00  0.00     0.176 HD
ATOM     52 1H13 UNL     1     -16.273   9.175 -19.761  1.00  0.00     0.176 HD
ENDBRANCH  48  50
ENDBRANCH   6  46
TORSDOF 13
ENDMDL
