MODEL 1
REMARK VINA RESULT: -9.225552182      0.000      0.000
REMARK  16 active torsions:
REMARK  status: ('A' for Active; 'I' for Inactive)
REMARK    1  A    between atoms: C2_3  and  N2_4 
REMARK    2  A    between atoms: C4_11  and  C5_12 
REMARK    3  A    between atoms: N5_13  and  N6_15 
REMARK    4  A    between atoms: C6_19  and  C7_20 
REMARK    5  A    between atoms: C7_20  and  N9_21 
REMARK    6  A    between atoms: C7_20  and  C12_32 
REMARK    7  A    between atoms: N9_21  and  C8_23 
REMARK    8  A    between atoms: C8_23  and  C9_24 
REMARK    9  A    between atoms: C9_24  and  N10_25 
REMARK       I    between atoms: N10_25  and  C10_27 
REMARK   10  A    between atoms: C10_27  and  C11_29 
REMARK   11  A    between atoms: C11_29  and  O2_30 
REMARK   12  A    between atoms: C14_34  and  O3_35 
REMARK   13  A    between atoms: C15_37  and  O4_38 
REMARK   14  A    between atoms: N11_40  and  N12_41 
REMARK   15  A    between atoms: C16_44  and  N13_45 
REMARK   16  A    between atoms: N13_45  and  O5_47 
ROOT
HETATM    1  C7  UNL     1     -21.667   0.242 -25.691  1.00  0.00     0.185 C 
ENDROOT
BRANCH   1   2
HETATM    2  C6  UNL     1     -21.024   0.376 -24.336  1.00  0.00     0.139 A 
HETATM    3  N8  UNL     1     -19.790  -0.020 -24.004  1.00  0.00    -0.267 N 
HETATM    4  N7  UNL     1     -19.567   0.260 -22.714  1.00  0.00     0.019 NA
ATOM      5  H8  UNL     1     -19.124  -0.466 -24.634  1.00  0.00     0.185 HD
HETATM    6  N6  UNL     1     -20.654   0.832 -22.232  1.00  0.00    -0.114 N 
HETATM    7  N14 UNL     1     -21.553   0.907 -23.221  1.00  0.00    -0.251 N 
ATOM      8  H14 UNL     1     -22.489   1.304 -23.141  1.00  0.00     0.191 HD
BRANCH   6   9
HETATM    9  N5  UNL     1     -20.932   1.312 -20.951  1.00  0.00    -0.276 N 
HETATM   10  C5  UNL     1     -21.458   2.451 -20.720  1.00  0.00     0.131 C 
ATOM     11  H5  UNL     1     -20.702   0.717 -20.154  1.00  0.00     0.189 HD
BRANCH  10  12
HETATM   12  C4  UNL     1     -21.708   2.855 -19.344  1.00  0.00     0.091 A 
HETATM   13  C3  UNL     1     -21.140   4.035 -18.903  1.00  0.00     0.149 A 
HETATM   14  N3  UNL     1     -21.354   4.427 -17.652  1.00  0.00    -0.178 N 
HETATM   15  N4  UNL     1     -20.351   4.799 -19.782  1.00  0.00    -0.081 NA
HETATM   16  C2  UNL     1     -22.112   3.672 -16.848  1.00  0.00     0.681 A 
ATOM     17  H3  UNL     1     -20.944   5.296 -17.309  1.00  0.00     0.185 HD
HETATM   18  N1  UNL     1     -22.670   2.521 -17.265  1.00  0.00    -0.151 N 
HETATM   19  C1  UNL     1     -23.499   1.704 -16.375  1.00  0.00     0.179 C 
HETATM   20  C17 UNL     1     -22.473   2.105 -18.512  1.00  0.00     0.276 A 
HETATM   21  O6  UNL     1     -22.992   1.024 -18.916  1.00  0.00    -0.266 OA
BRANCH  16  22
HETATM   22  N2  UNL     1     -22.312   4.055 -15.647  1.00  0.00    -0.234 N 
ATOM     23  H22 UNL     1     -21.833   3.572 -14.887  1.00  0.00     0.174 HD
ATOM     24  H21 UNL     1     -22.948   4.835 -15.477  1.00  0.00     0.174 HD
ENDBRANCH  16  22
ENDBRANCH  10  12
ENDBRANCH   6   9
ENDBRANCH   1   2
BRANCH   1  25
HETATM   25  N9  UNL     1     -22.715  -0.702 -25.549  1.00  0.00    -0.405 N 
ATOM     26  H9  UNL     1     -22.516  -1.699 -25.469  1.00  0.00     0.154 HD
BRANCH  25  27
HETATM   27  C8  UNL     1     -24.048  -0.220 -25.522  1.00  0.00     0.134 C 
BRANCH  27  28
HETATM   28  C9  UNL     1     -24.750  -0.429 -24.200  1.00  0.00     0.142 C 
BRANCH  28  29
HETATM   29  N10 UNL     1     -25.057   0.850 -23.621  1.00  0.00    -0.358 N 
HETATM   30  C10 UNL     1     -24.659   1.144 -22.294  1.00  0.00     0.241 C 
HETATM   31  O1  UNL     1     -24.038   0.288 -21.631  1.00  0.00    -0.271 OA
ATOM     32  H10 UNL     1     -25.563   1.546 -24.167  1.00  0.00     0.162 HD
BRANCH  30  33
HETATM   33  C11 UNL     1     -24.962   2.445 -21.677  1.00  0.00     0.266 C 
BRANCH  33  34
HETATM   34  O2  UNL     1     -25.274   3.401 -22.643  1.00  0.00    -0.392 OA
ATOM     35  H2  UNL     1     -25.066   4.277 -22.340  1.00  0.00     0.210 HD
ENDBRANCH  33  34
ENDBRANCH  30  33
ENDBRANCH  28  29
ENDBRANCH  27  28
ENDBRANCH  25  27
ENDBRANCH   1  25
BRANCH   1  36
HETATM   36  C12 UNL     1     -20.670  -0.031 -26.729  1.00  0.00     0.022 A 
HETATM   37  C13 UNL     1     -20.438  -1.315 -27.199  1.00  0.00     0.054 A 
HETATM   38  C14 UNL     1     -19.502  -1.596 -28.180  1.00  0.00     0.119 A 
HETATM   39  C15 UNL     1     -18.775  -0.545 -28.703  1.00  0.00     0.197 A 
HETATM   40  N11 UNL     1     -18.987   0.706 -28.259  1.00  0.00    -0.219 N 
HETATM   41  C16 UNL     1     -19.902   0.961 -27.303  1.00  0.00     0.157 A 
BRANCH  38  42
HETATM   42  O3  UNL     1     -19.280  -2.899 -28.644  1.00  0.00    -0.357 OA
ATOM     43  H3  UNL     1     -19.604  -3.195 -29.487  1.00  0.00     0.218 HD
ENDBRANCH  38  42
BRANCH  39  44
HETATM   44  O4  UNL     1     -17.826  -0.823 -29.694  1.00  0.00    -0.343 OA
ATOM     45  H4  UNL     1     -17.069  -0.254 -29.766  1.00  0.00     0.219 HD
ENDBRANCH  39  44
BRANCH  40  46
HETATM   46  N12 UNL     1     -18.218   1.725 -28.830  1.00  0.00    -0.335 N 
ATOM     47 2H12 UNL     1     -18.002   1.740 -29.827  1.00  0.00     0.177 HD
ATOM     48 1H12 UNL     1     -17.880   2.459 -28.206  1.00  0.00     0.177 HD
ENDBRANCH  40  46
BRANCH  41  49
HETATM   49  N13 UNL     1     -20.047   2.172 -26.938  1.00  0.00    -0.251 N 
ATOM     50  H13 UNL     1     -19.465   2.508 -26.171  1.00  0.00     0.196 HD
BRANCH  49  51
HETATM   51  O5  UNL     1     -20.922   3.049 -27.496  1.00  0.00    -0.288 OA
ATOM     52  H5  UNL     1     -21.730   3.339 -27.090  1.00  0.00     0.244 HD
ENDBRANCH  49  51
ENDBRANCH  41  49
ENDBRANCH   1  36
TORSDOF 16
ENDMDL
MODEL 2
REMARK VINA RESULT: -8.922615304      0.957      1.580
REMARK  16 active torsions:
REMARK  status: ('A' for Active; 'I' for Inactive)
REMARK    1  A    between atoms: C2_3  and  N2_4 
REMARK    2  A    between atoms: C4_11  and  C5_12 
REMARK    3  A    between atoms: N5_13  and  N6_15 
REMARK    4  A    between atoms: C6_19  and  C7_20 
REMARK    5  A    between atoms: C7_20  and  N9_21 
REMARK    6  A    between atoms: C7_20  and  C12_32 
REMARK    7  A    between atoms: N9_21  and  C8_23 
REMARK    8  A    between atoms: C8_23  and  C9_24 
REMARK    9  A    between atoms: C9_24  and  N10_25 
REMARK       I    between atoms: N10_25  and  C10_27 
REMARK   10  A    between atoms: C10_27  and  C11_29 
REMARK   11  A    between atoms: C11_29  and  O2_30 
REMARK   12  A    between atoms: C14_34  and  O3_35 
REMARK   13  A    between atoms: C15_37  and  O4_38 
REMARK   14  A    between atoms: N11_40  and  N12_41 
REMARK   15  A    between atoms: C16_44  and  N13_45 
REMARK   16  A    between atoms: N13_45  and  O5_47 
ROOT
HETATM    1  C7  UNL     1     -21.638   0.184 -25.709  1.00  0.00     0.185 C 
ENDROOT
BRANCH   1   2
HETATM    2  C6  UNL     1     -20.975   0.321 -24.364  1.00  0.00     0.139 A 
HETATM    3  N8  UNL     1     -19.763  -0.135 -24.030  1.00  0.00    -0.267 N 
HETATM    4  N7  UNL     1     -19.512   0.170 -22.751  1.00  0.00     0.019 NA
ATOM      5  H8  UNL     1     -19.129  -0.636 -24.652  1.00  0.00     0.185 HD
HETATM    6  N6  UNL     1     -20.560   0.817 -22.277  1.00  0.00    -0.114 N 
HETATM    7  N14 UNL     1     -21.463   0.914 -23.261  1.00  0.00    -0.251 N 
ATOM      8  H14 UNL     1     -22.374   1.366 -23.185  1.00  0.00     0.191 HD
BRANCH   6   9
HETATM    9  N5  UNL     1     -20.798   1.349 -21.009  1.00  0.00    -0.276 N 
HETATM   10  C5  UNL     1     -21.674   2.246 -20.770  1.00  0.00     0.131 C 
ATOM     11  H5  UNL     1     -20.241   1.001 -20.229  1.00  0.00     0.189 HD
BRANCH  10  12
HETATM   12  C4  UNL     1     -21.843   2.732 -19.409  1.00  0.00     0.091 A 
HETATM   13  C3  UNL     1     -22.696   2.036 -18.574  1.00  0.00     0.149 A 
HETATM   14  N3  UNL     1     -22.866   2.457 -17.327  1.00  0.00    -0.178 N 
HETATM   15  N4  UNL     1     -23.365   0.896 -19.057  1.00  0.00    -0.081 NA
HETATM   16  C2  UNL     1     -22.210   3.546 -16.906  1.00  0.00     0.681 A 
ATOM     17  H3  UNL     1     -23.491   1.956 -16.696  1.00  0.00     0.185 HD
HETATM   18  N1  UNL     1     -21.377   4.233 -17.708  1.00  0.00    -0.151 N 
HETATM   19  C1  UNL     1     -20.664   5.423 -17.235  1.00  0.00     0.179 C 
HETATM   20  C17 UNL     1     -21.187   3.833 -18.962  1.00  0.00     0.276 A 
HETATM   21  O6  UNL     1     -20.406   4.471 -19.726  1.00  0.00    -0.266 OA
BRANCH  16  22
HETATM   22  N2  UNL     1     -22.380   3.945 -15.705  1.00  0.00    -0.234 N 
ATOM     23  H22 UNL     1     -21.576   3.985 -15.078  1.00  0.00     0.174 HD
ATOM     24  H21 UNL     1     -23.316   4.215 -15.403  1.00  0.00     0.174 HD
ENDBRANCH  16  22
ENDBRANCH  10  12
ENDBRANCH   6   9
ENDBRANCH   1   2
BRANCH   1  25
HETATM   25  N9  UNL     1     -22.666  -0.780 -25.557  1.00  0.00    -0.405 N 
ATOM     26  H9  UNL     1     -22.444  -1.769 -25.436  1.00  0.00     0.154 HD
BRANCH  25  27
HETATM   27  C8  UNL     1     -24.011  -0.331 -25.577  1.00  0.00     0.134 C 
BRANCH  27  28
HETATM   28  C9  UNL     1     -24.688  -0.362 -24.226  1.00  0.00     0.142 C 
BRANCH  28  29
HETATM   29  N10 UNL     1     -24.708   0.966 -23.678  1.00  0.00    -0.358 N 
HETATM   30  C10 UNL     1     -25.173   1.184 -22.358  1.00  0.00     0.241 C 
HETATM   31  O1  UNL     1     -25.564   0.217 -21.674  1.00  0.00    -0.271 OA
ATOM     32  H10 UNL     1     -24.387   1.753 -24.241  1.00  0.00     0.162 HD
BRANCH  30  33
HETATM   33  C11 UNL     1     -25.206   2.534 -21.774  1.00  0.00     0.266 C 
BRANCH  33  34
HETATM   34  O2  UNL     1     -25.345   3.508 -22.762  1.00  0.00    -0.392 OA
ATOM     35  H2  UNL     1     -24.557   3.577 -23.290  1.00  0.00     0.210 HD
ENDBRANCH  33  34
ENDBRANCH  30  33
ENDBRANCH  28  29
ENDBRANCH  27  28
ENDBRANCH  25  27
ENDBRANCH   1  25
BRANCH   1  36
HETATM   36  C12 UNL     1     -20.653  -0.062 -26.765  1.00  0.00     0.022 A 
HETATM   37  C13 UNL     1     -20.422  -1.336 -27.265  1.00  0.00     0.054 A 
HETATM   38  C14 UNL     1     -19.498  -1.591 -28.263  1.00  0.00     0.119 A 
HETATM   39  C15 UNL     1     -18.782  -0.527 -28.773  1.00  0.00     0.197 A 
HETATM   40  N11 UNL     1     -18.993   0.714 -28.301  1.00  0.00    -0.219 N 
HETATM   41  C16 UNL     1     -19.898   0.945 -27.328  1.00  0.00     0.157 A 
BRANCH  38  42
HETATM   42  O3  UNL     1     -19.277  -2.884 -28.758  1.00  0.00    -0.357 OA
ATOM     43  H3  UNL     1     -18.671  -3.054 -29.469  1.00  0.00     0.218 HD
ENDBRANCH  38  42
BRANCH  39  44
HETATM   44  O4  UNL     1     -17.845  -0.780 -29.783  1.00  0.00    -0.343 OA
ATOM     45  H4  UNL     1     -18.160  -1.096 -30.621  1.00  0.00     0.219 HD
ENDBRANCH  39  44
BRANCH  40  46
HETATM   46  N12 UNL     1     -18.236   1.748 -28.860  1.00  0.00    -0.335 N 
ATOM     47 2H12 UNL     1     -17.509   2.228 -28.328  1.00  0.00     0.177 HD
ATOM     48 1H12 UNL     1     -18.439   2.005 -29.826  1.00  0.00     0.177 HD
ENDBRANCH  40  46
BRANCH  41  49
HETATM   49  N13 UNL     1     -20.042   2.147 -26.936  1.00  0.00    -0.251 N 
ATOM     50  H13 UNL     1     -19.479   2.458 -26.144  1.00  0.00     0.196 HD
BRANCH  49  51
HETATM   51  O5  UNL     1     -20.894   3.046 -27.495  1.00  0.00    -0.288 OA
ATOM     52  H5  UNL     1     -21.836   3.048 -27.372  1.00  0.00     0.244 HD
ENDBRANCH  49  51
ENDBRANCH  41  49
ENDBRANCH   1  36
TORSDOF 16
ENDMDL
MODEL 3
REMARK VINA RESULT: -8.825647439      2.925      9.283
REMARK  16 active torsions:
REMARK  status: ('A' for Active; 'I' for Inactive)
REMARK    1  A    between atoms: C2_3  and  N2_4 
REMARK    2  A    between atoms: C4_11  and  C5_12 
REMARK    3  A    between atoms: N5_13  and  N6_15 
REMARK    4  A    between atoms: C6_19  and  C7_20 
REMARK    5  A    between atoms: C7_20  and  N9_21 
REMARK    6  A    between atoms: C7_20  and  C12_32 
REMARK    7  A    between atoms: N9_21  and  C8_23 
REMARK    8  A    between atoms: C8_23  and  C9_24 
REMARK    9  A    between atoms: C9_24  and  N10_25 
REMARK       I    between atoms: N10_25  and  C10_27 
REMARK   10  A    between atoms: C10_27  and  C11_29 
REMARK   11  A    between atoms: C11_29  and  O2_30 
REMARK   12  A    between atoms: C14_34  and  O3_35 
REMARK   13  A    between atoms: C15_37  and  O4_38 
REMARK   14  A    between atoms: N11_40  and  N12_41 
REMARK   15  A    between atoms: C16_44  and  N13_45 
REMARK   16  A    between atoms: N13_45  and  O5_47 
ROOT
HETATM    1  C7  UNL     1     -23.265   1.516 -18.598  1.00  0.00     0.185 C 
ENDROOT
BRANCH   1   2
HETATM    2  C6  UNL     1     -22.376   0.973 -19.686  1.00  0.00     0.139 A 
HETATM    3  N8  UNL     1     -21.394   0.078 -19.530  1.00  0.00    -0.267 N 
HETATM    4  N7  UNL     1     -20.822  -0.162 -20.715  1.00  0.00     0.019 NA
ATOM      5  H8  UNL     1     -21.123  -0.352 -18.646  1.00  0.00     0.185 HD
HETATM    6  N6  UNL     1     -21.440   0.575 -21.619  1.00  0.00    -0.114 N 
HETATM    7  N14 UNL     1     -22.396   1.275 -20.994  1.00  0.00    -0.251 N 
ATOM      8  H14 UNL     1     -23.036   1.932 -21.441  1.00  0.00     0.191 HD
BRANCH   6   9
HETATM    9  N5  UNL     1     -21.229   0.689 -22.993  1.00  0.00    -0.276 N 
HETATM   10  C5  UNL     1     -20.164   0.306 -23.581  1.00  0.00     0.131 C 
ATOM     11  H5  UNL     1     -21.970   1.102 -23.561  1.00  0.00     0.189 HD
BRANCH  10  12
HETATM   12  C4  UNL     1     -20.046   0.470 -25.022  1.00  0.00     0.091 A 
HETATM   13  C3  UNL     1     -19.006   1.243 -25.503  1.00  0.00     0.149 A 
HETATM   14  N3  UNL     1     -18.875   1.407 -26.814  1.00  0.00    -0.178 N 
HETATM   15  N4  UNL     1     -18.107   1.839 -24.599  1.00  0.00    -0.081 NA
HETATM   16  C2  UNL     1     -19.751   0.822 -27.640  1.00  0.00     0.681 A 
ATOM     17  H3  UNL     1     -18.114   1.974 -27.188  1.00  0.00     0.185 HD
HETATM   18  N1  UNL     1     -20.768   0.067 -27.185  1.00  0.00    -0.151 N 
HETATM   19  C1  UNL     1     -21.720  -0.569 -28.100  1.00  0.00     0.179 C 
HETATM   20  C17 UNL     1     -20.922  -0.115 -25.877  1.00  0.00     0.276 A 
HETATM   21  O6  UNL     1     -21.875  -0.822 -25.438  1.00  0.00    -0.266 OA
BRANCH  16  22
HETATM   22  N2  UNL     1     -19.619   0.985 -28.899  1.00  0.00    -0.234 N 
ATOM     23  H22 UNL     1     -18.939   0.417 -29.404  1.00  0.00     0.174 HD
ATOM     24  H21 UNL     1     -20.198   1.682 -29.369  1.00  0.00     0.174 HD
ENDBRANCH  16  22
ENDBRANCH  10  12
ENDBRANCH   6   9
ENDBRANCH   1   2
BRANCH   1  25
HETATM   25  N9  UNL     1     -24.534   1.743 -19.188  1.00  0.00    -0.405 N 
ATOM     26  H9  UNL     1     -24.699   2.559 -19.778  1.00  0.00     0.154 HD
BRANCH  25  27
HETATM   27  C8  UNL     1     -25.565   0.804 -18.935  1.00  0.00     0.134 C 
BRANCH  27  28
HETATM   28  C9  UNL     1     -25.179  -0.281 -17.956  1.00  0.00     0.142 C 
BRANCH  28  29
HETATM   29  N10 UNL     1     -26.371  -0.868 -17.408  1.00  0.00    -0.358 N 
HETATM   30  C10 UNL     1     -26.731  -0.623 -16.061  1.00  0.00     0.241 C 
HETATM   31  O1  UNL     1     -26.008   0.107 -15.352  1.00  0.00    -0.271 OA
ATOM     32  H10 UNL     1     -26.959  -1.463 -17.992  1.00  0.00     0.162 HD
BRANCH  30  33
HETATM   33  C11 UNL     1     -27.944  -1.212 -15.475  1.00  0.00     0.266 C 
BRANCH  33  34
HETATM   34  O2  UNL     1     -28.944  -1.367 -16.435  1.00  0.00    -0.392 OA
ATOM     35  H2  UNL     1     -29.552  -2.054 -16.191  1.00  0.00     0.210 HD
ENDBRANCH  33  34
ENDBRANCH  30  33
ENDBRANCH  28  29
ENDBRANCH  27  28
ENDBRANCH  25  27
ENDBRANCH   1  25
BRANCH   1  36
HETATM   36  C12 UNL     1     -22.640   2.654 -17.919  1.00  0.00     0.022 A 
HETATM   37  C13 UNL     1     -21.592   3.360 -18.493  1.00  0.00     0.054 A 
HETATM   38  C14 UNL     1     -20.987   4.439 -17.870  1.00  0.00     0.119 A 
HETATM   39  C15 UNL     1     -21.455   4.817 -16.628  1.00  0.00     0.197 A 
HETATM   40  N11 UNL     1     -22.469   4.144 -16.057  1.00  0.00    -0.219 N 
HETATM   41  C16 UNL     1     -23.047   3.096 -16.677  1.00  0.00     0.157 A 
BRANCH  38  42
HETATM   42  O3  UNL     1     -19.930   5.142 -18.464  1.00  0.00    -0.357 OA
ATOM     43  H3  UNL     1     -19.885   6.091 -18.448  1.00  0.00     0.218 HD
ENDBRANCH  38  42
BRANCH  39  44
HETATM   44  O4  UNL     1     -20.846   5.907 -15.993  1.00  0.00    -0.343 OA
ATOM     45  H4  UNL     1     -21.398   6.617 -15.689  1.00  0.00     0.219 HD
ENDBRANCH  39  44
BRANCH  40  46
HETATM   46  N12 UNL     1     -22.895   4.578 -14.797  1.00  0.00    -0.335 N 
ATOM     47 2H12 UNL     1     -22.242   4.701 -14.024  1.00  0.00     0.177 HD
ATOM     48 1H12 UNL     1     -23.891   4.768 -14.682  1.00  0.00     0.177 HD
ENDBRANCH  40  46
BRANCH  41  49
HETATM   49  N13 UNL     1     -24.004   2.512 -16.074  1.00  0.00    -0.251 N 
ATOM     50  H13 UNL     1     -23.777   1.701 -15.500  1.00  0.00     0.196 HD
BRANCH  49  51
HETATM   51  O5  UNL     1     -25.306   2.892 -16.141  1.00  0.00    -0.288 OA
ATOM     52  H5  UNL     1     -25.977   2.440 -16.639  1.00  0.00     0.244 HD
ENDBRANCH  49  51
ENDBRANCH  41  49
ENDBRANCH   1  36
TORSDOF 16
ENDMDL
MODEL 4
REMARK VINA RESULT: -8.796025548      4.706      9.154
REMARK  16 active torsions:
REMARK  status: ('A' for Active; 'I' for Inactive)
REMARK    1  A    between atoms: C2_3  and  N2_4 
REMARK    2  A    between atoms: C4_11  and  C5_12 
REMARK    3  A    between atoms: N5_13  and  N6_15 
REMARK    4  A    between atoms: C6_19  and  C7_20 
REMARK    5  A    between atoms: C7_20  and  N9_21 
REMARK    6  A    between atoms: C7_20  and  C12_32 
REMARK    7  A    between atoms: N9_21  and  C8_23 
REMARK    8  A    between atoms: C8_23  and  C9_24 
REMARK    9  A    between atoms: C9_24  and  N10_25 
REMARK       I    between atoms: N10_25  and  C10_27 
REMARK   10  A    between atoms: C10_27  and  C11_29 
REMARK   11  A    between atoms: C11_29  and  O2_30 
REMARK   12  A    between atoms: C14_34  and  O3_35 
REMARK   13  A    between atoms: C15_37  and  O4_38 
REMARK   14  A    between atoms: N11_40  and  N12_41 
REMARK   15  A    between atoms: C16_44  and  N13_45 
REMARK   16  A    between atoms: N13_45  and  O5_47 
ROOT
HETATM    1  C7  UNL     1     -19.211   6.664 -17.267  1.00  0.00     0.185 C 
ENDROOT
BRANCH   1   2
HETATM    2  C6  UNL     1     -19.853   5.328 -17.532  1.00  0.00     0.139 A 
HETATM    3  N8  UNL     1     -19.473   4.153 -17.018  1.00  0.00    -0.267 N 
HETATM    4  N7  UNL     1     -20.275   3.187 -17.482  1.00  0.00     0.019 NA
ATOM      5  H8  UNL     1     -18.695   4.014 -16.373  1.00  0.00     0.185 HD
HETATM    6  N6  UNL     1     -21.159   3.748 -18.286  1.00  0.00    -0.114 N 
HETATM    7  N14 UNL     1     -20.907   5.062 -18.322  1.00  0.00    -0.251 N 
ATOM      8  H14 UNL     1     -21.430   5.751 -18.862  1.00  0.00     0.191 HD
BRANCH   6   9
HETATM    9  N5  UNL     1     -22.206   3.183 -19.015  1.00  0.00    -0.276 N 
HETATM   10  C5  UNL     1     -22.431   1.929 -19.077  1.00  0.00     0.131 C 
ATOM     11  H5  UNL     1     -22.828   3.809 -19.528  1.00  0.00     0.189 HD
BRANCH  10  12
HETATM   12  C4  UNL     1     -23.553   1.444 -19.867  1.00  0.00     0.091 A 
HETATM   13  C3  UNL     1     -24.778   1.314 -19.240  1.00  0.00     0.149 A 
HETATM   14  N3  UNL     1     -25.818   0.876 -19.939  1.00  0.00    -0.178 N 
HETATM   15  N4  UNL     1     -24.901   1.649 -17.879  1.00  0.00    -0.081 NA
HETATM   16  C2  UNL     1     -25.658   0.568 -21.232  1.00  0.00     0.681 A 
ATOM     17  H3  UNL     1     -26.730   0.774 -19.494  1.00  0.00     0.185 HD
HETATM   18  N1  UNL     1     -24.472   0.690 -21.854  1.00  0.00    -0.151 N 
HETATM   19  C1  UNL     1     -24.310   0.351 -23.271  1.00  0.00     0.179 C 
HETATM   20  C17 UNL     1     -23.413   1.127 -21.179  1.00  0.00     0.276 A 
HETATM   21  O6  UNL     1     -22.292   1.245 -21.753  1.00  0.00    -0.266 OA
BRANCH  16  22
HETATM   22  N2  UNL     1     -26.663   0.147 -21.897  1.00  0.00    -0.234 N 
ATOM     23  H22 UNL     1     -26.512  -0.528 -22.647  1.00  0.00     0.174 HD
ATOM     24  H21 UNL     1     -27.592   0.495 -21.661  1.00  0.00     0.174 HD
ENDBRANCH  16  22
ENDBRANCH  10  12
ENDBRANCH   6   9
ENDBRANCH   1   2
BRANCH   1  25
HETATM   25  N9  UNL     1     -20.086   7.368 -16.402  1.00  0.00    -0.405 N 
ATOM     26  H9  UNL     1     -20.550   8.224 -16.709  1.00  0.00     0.154 HD
BRANCH  25  27
HETATM   27  C8  UNL     1     -20.297   6.850 -15.100  1.00  0.00     0.134 C 
BRANCH  27  28
HETATM   28  C9  UNL     1     -21.754   6.673 -14.739  1.00  0.00     0.142 C 
BRANCH  28  29
HETATM   29  N10 UNL     1     -22.169   5.343 -15.090  1.00  0.00    -0.358 N 
HETATM   30  C10 UNL     1     -22.811   4.522 -14.130  1.00  0.00     0.241 C 
HETATM   31  O1  UNL     1     -23.015   4.960 -12.980  1.00  0.00    -0.271 OA
ATOM     32  H10 UNL     1     -22.002   4.990 -16.031  1.00  0.00     0.162 HD
BRANCH  30  33
HETATM   33  C11 UNL     1     -23.244   3.156 -14.462  1.00  0.00     0.266 C 
BRANCH  33  34
HETATM   34  O2  UNL     1     -22.913   2.828 -15.777  1.00  0.00    -0.392 OA
ATOM     35  H2  UNL     1     -23.454   2.116 -16.100  1.00  0.00     0.210 HD
ENDBRANCH  33  34
ENDBRANCH  30  33
ENDBRANCH  28  29
ENDBRANCH  27  28
ENDBRANCH  25  27
ENDBRANCH   1  25
BRANCH   1  36
HETATM   36  C12 UNL     1     -18.837   7.333 -18.516  1.00  0.00     0.022 A 
HETATM   37  C13 UNL     1     -18.476   6.616 -19.647  1.00  0.00     0.054 A 
HETATM   38  C14 UNL     1     -18.121   7.226 -20.838  1.00  0.00     0.119 A 
HETATM   39  C15 UNL     1     -18.129   8.605 -20.888  1.00  0.00     0.197 A 
HETATM   40  N11 UNL     1     -18.477   9.316 -19.801  1.00  0.00    -0.219 N 
HETATM   41  C16 UNL     1     -18.820   8.705 -18.650  1.00  0.00     0.157 A 
BRANCH  38  42
HETATM   42  O3  UNL     1     -17.758   6.487 -21.973  1.00  0.00    -0.357 OA
ATOM     43  H3  UNL     1     -16.945   5.997 -22.016  1.00  0.00     0.218 HD
ENDBRANCH  38  42
BRANCH  39  44
HETATM   44  O4  UNL     1     -17.770   9.228 -22.090  1.00  0.00    -0.343 OA
ATOM     45  H4  UNL     1     -18.460   9.584 -22.637  1.00  0.00     0.219 HD
ENDBRANCH  39  44
BRANCH  40  46
HETATM   46  N12 UNL     1     -18.466  10.710 -19.919  1.00  0.00    -0.335 N 
ATOM     47 2H12 UNL     1     -17.707  11.274 -19.534  1.00  0.00     0.177 HD
ATOM     48 1H12 UNL     1     -19.249  11.143 -20.408  1.00  0.00     0.177 HD
ENDBRANCH  40  46
BRANCH  41  49
HETATM   49  N13 UNL     1     -19.140   9.447 -17.666  1.00  0.00    -0.251 N 
ATOM     50  H13 UNL     1     -18.619   9.332 -16.797  1.00  0.00     0.196 HD
BRANCH  49  51
HETATM   51  O5  UNL     1     -20.127  10.380 -17.689  1.00  0.00    -0.288 OA
ATOM     52  H5  UNL     1     -19.986  11.318 -17.628  1.00  0.00     0.244 HD
ENDBRANCH  49  51
ENDBRANCH  41  49
ENDBRANCH   1  36
TORSDOF 16
ENDMDL
MODEL 5
REMARK VINA RESULT: -8.771118228      2.252      8.797
REMARK  16 active torsions:
REMARK  status: ('A' for Active; 'I' for Inactive)
REMARK    1  A    between atoms: C2_3  and  N2_4 
REMARK    2  A    between atoms: C4_11  and  C5_12 
REMARK    3  A    between atoms: N5_13  and  N6_15 
REMARK    4  A    between atoms: C6_19  and  C7_20 
REMARK    5  A    between atoms: C7_20  and  N9_21 
REMARK    6  A    between atoms: C7_20  and  C12_32 
REMARK    7  A    between atoms: N9_21  and  C8_23 
REMARK    8  A    between atoms: C8_23  and  C9_24 
REMARK    9  A    between atoms: C9_24  and  N10_25 
REMARK       I    between atoms: N10_25  and  C10_27 
REMARK   10  A    between atoms: C10_27  and  C11_29 
REMARK   11  A    between atoms: C11_29  and  O2_30 
REMARK   12  A    between atoms: C14_34  and  O3_35 
REMARK   13  A    between atoms: C15_37  and  O4_38 
REMARK   14  A    between atoms: N11_40  and  N12_41 
REMARK   15  A    between atoms: C16_44  and  N13_45 
REMARK   16  A    between atoms: N13_45  and  O5_47 
ROOT
HETATM    1  C7  UNL     1     -22.760   1.492 -19.115  1.00  0.00     0.185 C 
ENDROOT
BRANCH   1   2
HETATM    2  C6  UNL     1     -21.995   0.977 -20.306  1.00  0.00     0.139 A 
HETATM    3  N8  UNL     1     -20.957   0.134 -20.273  1.00  0.00    -0.267 N 
HETATM    4  N7  UNL     1     -20.533  -0.095 -21.522  1.00  0.00     0.019 NA
ATOM      5  H8  UNL     1     -20.551  -0.271 -19.429  1.00  0.00     0.185 HD
HETATM    6  N6  UNL     1     -21.300   0.599 -22.342  1.00  0.00    -0.114 N 
HETATM    7  N14 UNL     1     -22.200   1.260 -21.603  1.00  0.00    -0.251 N 
ATOM      8  H14 UNL     1     -22.924   1.879 -21.966  1.00  0.00     0.191 HD
BRANCH   6   9
HETATM    9  N5  UNL     1     -21.276   0.704 -23.733  1.00  0.00    -0.276 N 
HETATM   10  C5  UNL     1     -20.457   0.069 -24.477  1.00  0.00     0.131 C 
ATOM     11  H5  UNL     1     -21.952   1.324 -24.180  1.00  0.00     0.189 HD
BRANCH  10  12
HETATM   12  C4  UNL     1     -20.518   0.251 -25.920  1.00  0.00     0.091 A 
HETATM   13  C3  UNL     1     -19.574   1.069 -26.510  1.00  0.00     0.149 A 
HETATM   14  N3  UNL     1     -19.605   1.250 -27.825  1.00  0.00    -0.178 N 
HETATM   15  N4  UNL     1     -18.597   1.693 -25.711  1.00  0.00    -0.081 NA
HETATM   16  C2  UNL     1     -20.550   0.637 -28.549  1.00  0.00     0.681 A 
ATOM     17  H3  UNL     1     -18.917   1.850 -28.279  1.00  0.00     0.185 HD
HETATM   18  N1  UNL     1     -21.475  -0.162 -27.988  1.00  0.00    -0.151 N 
HETATM   19  C1  UNL     1     -22.504  -0.828 -28.791  1.00  0.00     0.179 C 
HETATM   20  C17 UNL     1     -21.466  -0.361 -26.673  1.00  0.00     0.276 A 
HETATM   21  O6  UNL     1     -22.331  -1.110 -26.133  1.00  0.00    -0.266 OA
BRANCH  16  22
HETATM   22  N2  UNL     1     -20.575   0.816 -29.813  1.00  0.00    -0.234 N 
ATOM     23  H22 UNL     1     -21.356   1.326 -30.225  1.00  0.00     0.174 HD
ATOM     24  H21 UNL     1     -19.813   0.444 -30.379  1.00  0.00     0.174 HD
ENDBRANCH  16  22
ENDBRANCH  10  12
ENDBRANCH   6   9
ENDBRANCH   1   2
BRANCH   1  25
HETATM   25  N9  UNL     1     -24.109   1.628 -19.529  1.00  0.00    -0.405 N 
ATOM     26  H9  UNL     1     -24.425   2.463 -20.022  1.00  0.00     0.154 HD
BRANCH  25  27
HETATM   27  C8  UNL     1     -25.005   0.568 -19.239  1.00  0.00     0.134 C 
BRANCH  27  28
HETATM   28  C9  UNL     1     -26.033   0.322 -20.320  1.00  0.00     0.142 C 
BRANCH  28  29
HETATM   29  N10 UNL     1     -25.392  -0.293 -21.450  1.00  0.00    -0.358 N 
HETATM   30  C10 UNL     1     -25.427   0.338 -22.717  1.00  0.00     0.241 C 
HETATM   31  O1  UNL     1     -26.015   1.431 -22.847  1.00  0.00    -0.271 OA
ATOM     32  H10 UNL     1     -24.911  -1.185 -21.338  1.00  0.00     0.162 HD
BRANCH  30  33
HETATM   33  C11 UNL     1     -24.780  -0.270 -23.890  1.00  0.00     0.266 C 
BRANCH  33  34
HETATM   34  O2  UNL     1     -24.187   0.701 -24.698  1.00  0.00    -0.392 OA
ATOM     35  H2  UNL     1     -23.241   0.681 -24.620  1.00  0.00     0.210 HD
ENDBRANCH  33  34
ENDBRANCH  30  33
ENDBRANCH  28  29
ENDBRANCH  27  28
ENDBRANCH  25  27
ENDBRANCH   1  25
BRANCH   1  36
HETATM   36  C12 UNL     1     -22.122   2.682 -18.546  1.00  0.00     0.022 A 
HETATM   37  C13 UNL     1     -21.308   3.508 -19.308  1.00  0.00     0.054 A 
HETATM   38  C14 UNL     1     -20.696   4.638 -18.791  1.00  0.00     0.119 A 
HETATM   39  C15 UNL     1     -20.911   4.943 -17.463  1.00  0.00     0.197 A 
HETATM   40  N11 UNL     1     -21.697   4.153 -16.710  1.00  0.00    -0.219 N 
HETATM   41  C16 UNL     1     -22.285   3.057 -17.229  1.00  0.00     0.157 A 
BRANCH  38  42
HETATM   42  O3  UNL     1     -19.877   5.463 -19.575  1.00  0.00    -0.357 OA
ATOM     43  H3  UNL     1     -19.385   6.184 -19.201  1.00  0.00     0.218 HD
ENDBRANCH  38  42
BRANCH  39  44
HETATM   44  O4  UNL     1     -20.294   6.083 -16.935  1.00  0.00    -0.343 OA
ATOM     45  H4  UNL     1     -20.078   6.092 -16.010  1.00  0.00     0.219 HD
ENDBRANCH  39  44
BRANCH  40  46
HETATM   46  N12 UNL     1     -21.874   4.517 -15.371  1.00  0.00    -0.335 N 
ATOM     47 2H12 UNL     1     -21.310   5.247 -14.935  1.00  0.00     0.177 HD
ATOM     48 1H12 UNL     1     -22.595   4.023 -14.845  1.00  0.00     0.177 HD
ENDBRANCH  40  46
BRANCH  41  49
HETATM   49  N13 UNL     1     -23.017   2.361 -16.453  1.00  0.00    -0.251 N 
ATOM     50  H13 UNL     1     -22.572   1.604 -15.936  1.00  0.00     0.196 HD
BRANCH  49  51
HETATM   51  O5  UNL     1     -24.348   2.556 -16.266  1.00  0.00    -0.288 OA
ATOM     52  H5  UNL     1     -25.032   2.182 -16.810  1.00  0.00     0.244 HD
ENDBRANCH  49  51
ENDBRANCH  41  49
ENDBRANCH   1  36
TORSDOF 16
ENDMDL
