MODEL 1
REMARK VINA RESULT: -7.981381841      0.000      0.000
REMARK  9 active torsions:
REMARK  status: ('A' for Active; 'I' for Inactive)
REMARK    1  A    between atoms: N1_1  and  C1_4 
REMARK    2  A    between atoms: C2_7  and  N3_8 
REMARK    3  A    between atoms: N3_8  and  C3_10 
REMARK    4  A    between atoms: C3_10  and  C4_11 
REMARK    5  A    between atoms: C4_11  and  C5_12 
REMARK    6  A    between atoms: C5_12  and  O1_13 
REMARK    7  A    between atoms: C5_12  and  O2_15 
REMARK       I    between atoms: N7_25  and  C8_26 
REMARK       I    between atoms: C8_26  and  N8_28 
REMARK    8  A    between atoms: C11_34  and  N10_35 
REMARK    9  A    between atoms: N10_35  and  C12_37 
ROOT
HETATM    1  C1  UNL     1     -28.682 -14.556  -6.680  1.00  0.00     0.147 A 
HETATM    2  N2  UNL     1     -28.513 -13.298  -6.272  1.00  0.00    -0.175 N 
ATOM      3  H2  UNL     1     -28.310 -13.140  -5.285  1.00  0.00     0.186 HD
HETATM    4  C2  UNL     1     -28.592 -12.238  -7.068  1.00  0.00     0.681 A 
HETATM    5  N4  UNL     1     -28.858 -12.416  -8.388  1.00  0.00    -0.172 N 
ATOM      6  H4  UNL     1     -28.921 -11.612  -9.012  1.00  0.00     0.186 HD
HETATM    7  C6  UNL     1     -29.041 -13.667  -8.871  1.00  0.00     0.180 A 
HETATM    8  C7  UNL     1     -28.955 -14.761  -8.024  1.00  0.00     0.140 A 
HETATM    9  N5  UNL     1     -29.178 -15.843  -8.775  1.00  0.00    -0.279 N 
ATOM     10  H5  UNL     1     -29.182 -16.806  -8.438  1.00  0.00     0.189 HD
HETATM   11  N6  UNL     1     -29.389 -15.473 -10.012  1.00  0.00    -0.230 N 
ATOM     12  H6  UNL     1     -29.582 -16.107 -10.787  1.00  0.00     0.209 HD
HETATM   13  N7  UNL     1     -29.313 -14.140 -10.110  1.00  0.00    -0.171 N 
HETATM   14  C8  UNL     1     -29.471 -13.362 -11.278  1.00  0.00     0.348 C 
HETATM   15  O3  UNL     1     -29.339 -12.107 -11.206  1.00  0.00    -0.245 OA
HETATM   16  N8  UNL     1     -29.767 -13.882 -12.539  1.00  0.00    -0.306 N 
HETATM   17  C9  UNL     1     -29.890 -12.957 -13.712  1.00  0.00     0.360 C 
HETATM   18  N9  UNL     1     -29.289 -13.631 -14.844  1.00  0.00    -0.057 N 
ATOM     19  H91 UNL     1     -28.955 -12.957 -15.534  1.00  0.00     0.279 HD
ATOM     20  H92 UNL     1     -29.997 -14.106 -15.403  1.00  0.00     0.279 HD
HETATM   21  C10 UNL     1     -28.235 -14.543 -14.462  1.00  0.00     0.261 C 
HETATM   22  C11 UNL     1     -28.698 -15.690 -13.596  1.00  0.00     0.127 C 
HETATM   23  C13 UNL     1     -29.988 -15.252 -12.925  1.00  0.00     0.156 C 
ENDROOT
BRANCH   4  24
HETATM   24  N3  UNL     1     -28.429 -11.020  -6.673  1.00  0.00    -0.226 N 
ATOM     25  H3  UNL     1     -27.505 -10.714  -6.371  1.00  0.00     0.177 HD
BRANCH  24  26
HETATM   26  C3  UNL     1     -29.527 -10.079  -6.649  1.00  0.00     0.143 C 
BRANCH  26  27
HETATM   27  C4  UNL     1     -30.531 -10.426  -5.575  1.00  0.00     0.080 C 
BRANCH  27  28
HETATM   28  C5  UNL     1     -29.917 -10.578  -4.225  1.00  0.00     0.255 C 
BRANCH  28  29
HETATM   29  O1  UNL     1     -28.767  -9.790  -4.184  1.00  0.00    -0.371 OA
ATOM     30  H1  UNL     1     -28.113 -10.251  -3.672  1.00  0.00     0.212 HD
ENDBRANCH  28  29
BRANCH  28  31
HETATM   31  O2  UNL     1     -29.552 -11.866  -3.912  1.00  0.00    -0.371 OA
ATOM     32  H2  UNL     1     -28.976 -11.936  -3.161  1.00  0.00     0.212 HD
ENDBRANCH  28  31
ENDBRANCH  27  28
ENDBRANCH  26  27
ENDBRANCH  24  26
ENDBRANCH   4  24
BRANCH   1  33
HETATM   33  N1  UNL     1     -28.603 -15.578  -5.895  1.00  0.00    -0.383 N 
ATOM     34  H12 UNL     1     -28.073 -16.394  -6.198  1.00  0.00     0.157 HD
ATOM     35  H11 UNL     1     -29.046 -15.620  -4.977  1.00  0.00     0.157 HD
ENDBRANCH   1  33
BRANCH  22  36
HETATM   36  N10 UNL     1     -28.851 -16.920 -14.330  1.00  0.00    -0.360 N 
ATOM     37  H10 UNL     1     -28.079 -17.585 -14.374  1.00  0.00     0.162 HD
BRANCH  36  38
HETATM   38  C12 UNL     1     -30.075 -17.209 -14.994  1.00  0.00     0.348 C 
HETATM   39  O4  UNL     1     -30.377 -16.585 -16.061  1.00  0.00    -0.284 OA
ENDBRANCH  36  38
ENDBRANCH  22  36
TORSDOF 9
ENDMDL
MODEL 2
REMARK VINA RESULT: -7.912144653      1.436      1.794
REMARK  9 active torsions:
REMARK  status: ('A' for Active; 'I' for Inactive)
REMARK    1  A    between atoms: N1_1  and  C1_4 
REMARK    2  A    between atoms: C2_7  and  N3_8 
REMARK    3  A    between atoms: N3_8  and  C3_10 
REMARK    4  A    between atoms: C3_10  and  C4_11 
REMARK    5  A    between atoms: C4_11  and  C5_12 
REMARK    6  A    between atoms: C5_12  and  O1_13 
REMARK    7  A    between atoms: C5_12  and  O2_15 
REMARK       I    between atoms: N7_25  and  C8_26 
REMARK       I    between atoms: C8_26  and  N8_28 
REMARK    8  A    between atoms: C11_34  and  N10_35 
REMARK    9  A    between atoms: N10_35  and  C12_37 
ROOT
HETATM    1  C1  UNL     1     -28.716 -14.394  -6.619  1.00  0.00     0.147 A 
HETATM    2  N2  UNL     1     -28.599 -13.124  -6.232  1.00  0.00    -0.175 N 
ATOM      3  H2  UNL     1     -28.412 -12.942  -5.246  1.00  0.00     0.186 HD
HETATM    4  C2  UNL     1     -28.709 -12.081  -7.047  1.00  0.00     0.681 A 
HETATM    5  N4  UNL     1     -28.955 -12.293  -8.366  1.00  0.00    -0.172 N 
ATOM      6  H4  UNL     1     -29.041 -11.502  -9.005  1.00  0.00     0.186 HD
HETATM    7  C6  UNL     1     -29.086 -13.558  -8.829  1.00  0.00     0.180 A 
HETATM    8  C7  UNL     1     -28.968 -14.632  -7.961  1.00  0.00     0.140 A 
HETATM    9  N5  UNL     1     -29.142 -15.735  -8.696  1.00  0.00    -0.279 N 
ATOM     10  H5  UNL     1     -29.115 -16.691  -8.342  1.00  0.00     0.189 HD
HETATM   11  N6  UNL     1     -29.355 -15.394  -9.941  1.00  0.00    -0.230 N 
ATOM     12  H6  UNL     1     -29.516 -16.049 -10.707  1.00  0.00     0.209 HD
HETATM   13  N7  UNL     1     -29.328 -14.061 -10.062  1.00  0.00    -0.171 N 
HETATM   14  C8  UNL     1     -29.503 -13.310 -11.245  1.00  0.00     0.348 C 
HETATM   15  O3  UNL     1     -29.418 -12.050 -11.193  1.00  0.00    -0.245 OA
HETATM   16  N8  UNL     1     -29.766 -13.863 -12.499  1.00  0.00    -0.306 N 
HETATM   17  C9  UNL     1     -29.912 -12.963 -13.690  1.00  0.00     0.360 C 
HETATM   18  N9  UNL     1     -29.274 -13.633 -14.804  1.00  0.00    -0.057 N 
ATOM     19  H91 UNL     1     -28.959 -12.960 -15.502  1.00  0.00     0.279 HD
ATOM     20  H92 UNL     1     -29.958 -14.144 -15.361  1.00  0.00     0.279 HD
HETATM   21  C10 UNL     1     -28.191 -14.499 -14.396  1.00  0.00     0.261 C 
HETATM   22  C11 UNL     1     -28.620 -15.647 -13.514  1.00  0.00     0.127 C 
HETATM   23  C13 UNL     1     -29.932 -15.246 -12.863  1.00  0.00     0.156 C 
ENDROOT
BRANCH   4  24
HETATM   24  N3  UNL     1     -28.596 -10.852  -6.672  1.00  0.00    -0.226 N 
ATOM     25  H3  UNL     1     -27.671 -10.421  -6.651  1.00  0.00     0.177 HD
BRANCH  24  26
HETATM   26  C3  UNL     1     -29.747 -10.070  -6.282  1.00  0.00     0.143 C 
BRANCH  26  27
HETATM   27  C4  UNL     1     -29.939  -8.874  -7.185  1.00  0.00     0.080 C 
BRANCH  27  28
HETATM   28  C5  UNL     1     -30.536  -9.226  -8.504  1.00  0.00     0.255 C 
BRANCH  28  29
HETATM   29  O1  UNL     1     -31.379 -10.321  -8.317  1.00  0.00    -0.371 OA
ATOM     30  H1  UNL     1     -30.861 -11.034  -7.964  1.00  0.00     0.212 HD
ENDBRANCH  28  29
BRANCH  28  31
HETATM   31  O2  UNL     1     -29.617  -9.567  -9.468  1.00  0.00    -0.371 OA
ATOM     32  H2  UNL     1     -28.794  -9.097  -9.405  1.00  0.00     0.212 HD
ENDBRANCH  28  31
ENDBRANCH  27  28
ENDBRANCH  26  27
ENDBRANCH  24  26
ENDBRANCH   4  24
BRANCH   1  33
HETATM   33  N1  UNL     1     -28.608 -15.399  -5.815  1.00  0.00    -0.383 N 
ATOM     34  H12 UNL     1     -27.835 -15.419  -5.151  1.00  0.00     0.157 HD
ATOM     35  H11 UNL     1     -29.257 -16.186  -5.805  1.00  0.00     0.157 HD
ENDBRANCH   1  33
BRANCH  22  36
HETATM   36  N10 UNL     1     -28.719 -16.895 -14.227  1.00  0.00    -0.360 N 
ATOM     37  H10 UNL     1     -27.912 -17.515 -14.282  1.00  0.00     0.162 HD
BRANCH  36  38
HETATM   38  C12 UNL     1     -29.941 -17.264 -14.857  1.00  0.00     0.348 C 
HETATM   39  O4  UNL     1     -30.308 -16.668 -15.920  1.00  0.00    -0.284 OA
ENDBRANCH  36  38
ENDBRANCH  22  36
TORSDOF 9
ENDMDL
MODEL 3
REMARK VINA RESULT: -7.737179052      2.388      2.995
REMARK  9 active torsions:
REMARK  status: ('A' for Active; 'I' for Inactive)
REMARK    1  A    between atoms: N1_1  and  C1_4 
REMARK    2  A    between atoms: C2_7  and  N3_8 
REMARK    3  A    between atoms: N3_8  and  C3_10 
REMARK    4  A    between atoms: C3_10  and  C4_11 
REMARK    5  A    between atoms: C4_11  and  C5_12 
REMARK    6  A    between atoms: C5_12  and  O1_13 
REMARK    7  A    between atoms: C5_12  and  O2_15 
REMARK       I    between atoms: N7_25  and  C8_26 
REMARK       I    between atoms: C8_26  and  N8_28 
REMARK    8  A    between atoms: C11_34  and  N10_35 
REMARK    9  A    between atoms: N10_35  and  C12_37 
ROOT
HETATM    1  C1  UNL     1     -29.187 -12.334  -6.707  1.00  0.00     0.147 A 
HETATM    2  N2  UNL     1     -29.378 -11.020  -6.590  1.00  0.00    -0.175 N 
ATOM      3  H2  UNL     1     -29.331 -10.613  -5.656  1.00  0.00     0.186 HD
HETATM    4  C2  UNL     1     -29.627 -10.208  -7.611  1.00  0.00     0.681 A 
HETATM    5  N4  UNL     1     -29.694 -10.721  -8.867  1.00  0.00    -0.172 N 
ATOM      6  H4  UNL     1     -29.883 -10.110  -9.661  1.00  0.00     0.186 HD
HETATM    7  C6  UNL     1     -29.508 -12.048  -9.059  1.00  0.00     0.180 A 
HETATM    8  C7  UNL     1     -29.251 -12.879  -7.980  1.00  0.00     0.140 A 
HETATM    9  N5  UNL     1     -29.116 -14.113  -8.473  1.00  0.00    -0.279 N 
ATOM     10  H5  UNL     1     -28.922 -14.951  -7.925  1.00  0.00     0.189 HD
HETATM   11  N6  UNL     1     -29.274 -14.077  -9.771  1.00  0.00    -0.230 N 
ATOM     12  H6  UNL     1     -29.218 -14.887 -10.390  1.00  0.00     0.209 HD
HETATM   13  N7  UNL     1     -29.518 -12.823 -10.169  1.00  0.00    -0.171 N 
HETATM   14  C8  UNL     1     -29.732 -12.375 -11.491  1.00  0.00     0.348 C 
HETATM   15  O3  UNL     1     -29.921 -11.143 -11.702  1.00  0.00    -0.245 OA
HETATM   16  N8  UNL     1     -29.749 -13.205 -12.612  1.00  0.00    -0.306 N 
HETATM   17  C9  UNL     1     -29.966 -12.611 -13.972  1.00  0.00     0.360 C 
HETATM   18  N9  UNL     1     -29.096 -13.322 -14.885  1.00  0.00    -0.057 N 
ATOM     19  H91 UNL     1     -28.864 -12.743 -15.692  1.00  0.00     0.279 HD
ATOM     20  H92 UNL     1     -29.599 -14.073 -15.357  1.00  0.00     0.279 HD
HETATM   21  C10 UNL     1     -27.899 -13.823 -14.249  1.00  0.00     0.261 C 
HETATM   22  C11 UNL     1     -28.159 -14.845 -13.168  1.00  0.00     0.127 C 
HETATM   23  C13 UNL     1     -29.583 -14.634 -12.685  1.00  0.00     0.156 C 
ENDROOT
BRANCH   4  24
HETATM   24  N3  UNL     1     -29.813  -8.936  -7.498  1.00  0.00    -0.226 N 
ATOM     25  H3  UNL     1     -29.115  -8.372  -7.014  1.00  0.00     0.177 HD
BRANCH  24  26
HETATM   26  C3  UNL     1     -30.988  -8.292  -8.042  1.00  0.00     0.143 C 
BRANCH  26  27
HETATM   27  C4  UNL     1     -30.622  -7.240  -9.063  1.00  0.00     0.080 C 
BRANCH  27  28
HETATM   28  C5  UNL     1     -30.388  -7.802 -10.424  1.00  0.00     0.255 C 
BRANCH  28  29
HETATM   29  O1  UNL     1     -31.382  -8.746 -10.677  1.00  0.00    -0.371 OA
ATOM     30  H1  UNL     1     -31.938  -8.409 -11.369  1.00  0.00     0.212 HD
ENDBRANCH  28  29
BRANCH  28  31
HETATM   31  O2  UNL     1     -29.172  -8.425 -10.577  1.00  0.00    -0.371 OA
ATOM     32  H2  UNL     1     -29.211  -9.245 -11.053  1.00  0.00     0.212 HD
ENDBRANCH  28  31
ENDBRANCH  27  28
ENDBRANCH  26  27
ENDBRANCH  24  26
ENDBRANCH   4  24
BRANCH   1  33
HETATM   33  N1  UNL     1     -28.947 -13.113  -5.705  1.00  0.00    -0.383 N 
ATOM     34  H12 UNL     1     -29.391 -12.916  -4.809  1.00  0.00     0.157 HD
ATOM     35  H11 UNL     1     -28.330 -13.924  -5.756  1.00  0.00     0.157 HD
ENDBRANCH   1  33
BRANCH  22  36
HETATM   36  N10 UNL     1     -27.923 -16.197 -13.607  1.00  0.00    -0.360 N 
ATOM     37  H10 UNL     1     -26.970 -16.557 -13.653  1.00  0.00     0.162 HD
BRANCH  36  38
HETATM   38  C12 UNL     1     -29.015 -17.030 -13.977  1.00  0.00     0.348 C 
HETATM   39  O4  UNL     1     -29.199 -17.323 -15.202  1.00  0.00    -0.284 OA
ENDBRANCH  36  38
ENDBRANCH  22  36
TORSDOF 9
ENDMDL
MODEL 4
REMARK VINA RESULT: -7.723167860      1.731      8.525
REMARK  9 active torsions:
REMARK  status: ('A' for Active; 'I' for Inactive)
REMARK    1  A    between atoms: N1_1  and  C1_4 
REMARK    2  A    between atoms: C2_7  and  N3_8 
REMARK    3  A    between atoms: N3_8  and  C3_10 
REMARK    4  A    between atoms: C3_10  and  C4_11 
REMARK    5  A    between atoms: C4_11  and  C5_12 
REMARK    6  A    between atoms: C5_12  and  O1_13 
REMARK    7  A    between atoms: C5_12  and  O2_15 
REMARK       I    between atoms: N7_25  and  C8_26 
REMARK       I    between atoms: C8_26  and  N8_28 
REMARK    8  A    between atoms: C11_34  and  N10_35 
REMARK    9  A    between atoms: N10_35  and  C12_37 
ROOT
HETATM    1  C1  UNL     1     -27.994 -11.915 -13.975  1.00  0.00     0.147 A 
HETATM    2  N2  UNL     1     -27.897 -13.170 -14.414  1.00  0.00    -0.175 N 
ATOM      3  H2  UNL     1     -27.636 -13.315 -15.389  1.00  0.00     0.186 HD
HETATM    4  C2  UNL     1     -28.118 -14.244 -13.664  1.00  0.00     0.681 A 
HETATM    5  N4  UNL     1     -28.465 -14.082 -12.360  1.00  0.00    -0.172 N 
ATOM      6  H4  UNL     1     -28.638 -14.897 -11.771  1.00  0.00     0.186 HD
HETATM    7  C6  UNL     1     -28.582 -12.835 -11.847  1.00  0.00     0.180 A 
HETATM    8  C7  UNL     1     -28.348 -11.728 -12.648  1.00  0.00     0.140 A 
HETATM    9  N5  UNL     1     -28.538 -10.654 -11.876  1.00  0.00    -0.279 N 
ATOM     10  H5  UNL     1     -28.442  -9.684 -12.178  1.00  0.00     0.189 HD
HETATM   11  N6  UNL     1     -28.868 -11.042 -10.671  1.00  0.00    -0.230 N 
ATOM     12  H6  UNL     1     -29.066 -10.417  -9.889  1.00  0.00     0.209 HD
HETATM   13  N7  UNL     1     -28.907 -12.379 -10.615  1.00  0.00    -0.171 N 
HETATM   14  C8  UNL     1     -29.211 -13.175  -9.489  1.00  0.00     0.348 C 
HETATM   15  O3  UNL     1     -29.174 -14.434  -9.596  1.00  0.00    -0.245 OA
HETATM   16  N8  UNL     1     -29.555 -12.670  -8.235  1.00  0.00    -0.306 N 
HETATM   17  C9  UNL     1     -29.838 -13.615  -7.106  1.00  0.00     0.360 C 
HETATM   18  N9  UNL     1     -29.269 -13.027  -5.912  1.00  0.00    -0.057 N 
ATOM     19  H91 UNL     1     -29.042 -13.746  -5.225  1.00  0.00     0.279 HD
ATOM     20  H92 UNL     1     -29.976 -12.512  -5.388  1.00  0.00     0.279 HD
HETATM   21  C10 UNL     1     -28.121 -12.194  -6.186  1.00  0.00     0.261 C 
HETATM   22  C11 UNL     1     -28.427 -10.988  -7.042  1.00  0.00     0.127 C 
HETATM   23  C13 UNL     1     -29.695 -11.298  -7.817  1.00  0.00     0.156 C 
ENDROOT
BRANCH   4  24
HETATM   24  N3  UNL     1     -28.025 -15.458 -14.089  1.00  0.00    -0.226 N 
ATOM     25  H3  UNL     1     -27.424 -15.661 -14.887  1.00  0.00     0.177 HD
BRANCH  24  26
HETATM   26  C3  UNL     1     -28.752 -16.538 -13.460  1.00  0.00     0.143 C 
BRANCH  26  27
HETATM   27  C4  UNL     1     -29.269 -17.526 -14.480  1.00  0.00     0.080 C 
BRANCH  27  28
HETATM   28  C5  UNL     1     -30.548 -17.097 -15.114  1.00  0.00     0.255 C 
BRANCH  28  29
HETATM   29  O1  UNL     1     -30.380 -15.795 -15.584  1.00  0.00    -0.371 OA
ATOM     30  H1  UNL     1     -31.198 -15.517 -15.978  1.00  0.00     0.212 HD
ENDBRANCH  28  29
BRANCH  28  31
HETATM   31  O2  UNL     1     -31.629 -17.099 -14.266  1.00  0.00    -0.371 OA
ATOM     32  H2  UNL     1     -32.454 -17.311 -14.685  1.00  0.00     0.212 HD
ENDBRANCH  28  31
ENDBRANCH  27  28
ENDBRANCH  26  27
ENDBRANCH  24  26
ENDBRANCH   4  24
BRANCH   1  33
HETATM   33  N1  UNL     1     -27.777 -10.880 -14.716  1.00  0.00    -0.383 N 
ATOM     34  H12 UNL     1     -26.884 -10.799 -15.201  1.00  0.00     0.157 HD
ATOM     35  H11 UNL     1     -28.454 -10.129 -14.848  1.00  0.00     0.157 HD
ENDBRANCH   1  33
BRANCH  22  36
HETATM   36  N10 UNL     1     -28.534  -9.771  -6.278  1.00  0.00    -0.360 N 
ATOM     37  H10 UNL     1     -28.052  -8.929  -6.592  1.00  0.00     0.162 HD
BRANCH  36  38
HETATM   38  C12 UNL     1     -29.310  -9.742  -5.085  1.00  0.00     0.348 C 
HETATM   39  O4  UNL     1     -28.730  -9.799  -3.954  1.00  0.00    -0.284 OA
ENDBRANCH  36  38
ENDBRANCH  22  36
TORSDOF 9
ENDMDL
MODEL 5
REMARK VINA RESULT: -7.655020378      1.993      8.577
REMARK  9 active torsions:
REMARK  status: ('A' for Active; 'I' for Inactive)
REMARK    1  A    between atoms: N1_1  and  C1_4 
REMARK    2  A    between atoms: C2_7  and  N3_8 
REMARK    3  A    between atoms: N3_8  and  C3_10 
REMARK    4  A    between atoms: C3_10  and  C4_11 
REMARK    5  A    between atoms: C4_11  and  C5_12 
REMARK    6  A    between atoms: C5_12  and  O1_13 
REMARK    7  A    between atoms: C5_12  and  O2_15 
REMARK       I    between atoms: N7_25  and  C8_26 
REMARK       I    between atoms: C8_26  and  N8_28 
REMARK    8  A    between atoms: C11_34  and  N10_35 
REMARK    9  A    between atoms: N10_35  and  C12_37 
ROOT
HETATM    1  C1  UNL     1     -28.453 -11.744 -14.335  1.00  0.00     0.147 A 
HETATM    2  N2  UNL     1     -28.870 -12.884 -14.886  1.00  0.00    -0.175 N 
ATOM      3  H2  UNL     1     -28.638 -13.054 -15.864  1.00  0.00     0.186 HD
HETATM    4  C2  UNL     1     -29.567 -13.814 -14.242  1.00  0.00     0.681 A 
HETATM    5  N4  UNL     1     -29.889 -13.618 -12.937  1.00  0.00    -0.172 N 
ATOM      6  H4  UNL     1     -30.424 -14.323 -12.429  1.00  0.00     0.186 HD
HETATM    7  C6  UNL     1     -29.498 -12.481 -12.314  1.00  0.00     0.180 A 
HETATM    8  C7  UNL     1     -28.771 -11.524 -13.004  1.00  0.00     0.140 A 
HETATM    9  N5  UNL     1     -28.535 -10.531 -12.141  1.00  0.00    -0.279 N 
ATOM     10  H5  UNL     1     -28.020  -9.675 -12.351  1.00  0.00     0.189 HD
HETATM   11  N6  UNL     1     -29.067 -10.830 -10.985  1.00  0.00    -0.230 N 
ATOM     12  H6  UNL     1     -29.028 -10.240 -10.153  1.00  0.00     0.209 HD
HETATM   13  N7  UNL     1     -29.670 -12.023 -11.052  1.00  0.00    -0.171 N 
HETATM   14  C8  UNL     1     -30.348 -12.695 -10.011  1.00  0.00     0.348 C 
HETATM   15  O3  UNL     1     -30.840 -13.838 -10.233  1.00  0.00    -0.245 OA
HETATM   16  N8  UNL     1     -30.519 -12.186  -8.723  1.00  0.00    -0.306 N 
HETATM   17  C9  UNL     1     -31.240 -13.002  -7.693  1.00  0.00     0.360 C 
HETATM   18  N9  UNL     1     -30.546 -12.802  -6.438  1.00  0.00    -0.057 N 
ATOM     19  H91 UNL     1     -30.684 -13.598  -5.815  1.00  0.00     0.279 HD
ATOM     20  H92 UNL     1     -30.999 -12.076  -5.883  1.00  0.00     0.279 HD
HETATM   21  C10 UNL     1     -29.140 -12.520  -6.609  1.00  0.00     0.261 C 
HETATM   22  C11 UNL     1     -28.857 -11.238  -7.357  1.00  0.00     0.127 C 
HETATM   23  C13 UNL     1     -30.090 -10.921  -8.184  1.00  0.00     0.156 C 
ENDROOT
BRANCH   4  24
HETATM   24  N3  UNL     1     -29.971 -14.918 -14.775  1.00  0.00    -0.226 N 
ATOM     25  H3  UNL     1     -29.667 -15.154 -15.720  1.00  0.00     0.177 HD
BRANCH  24  26
HETATM   26  C3  UNL     1     -30.843 -15.826 -14.065  1.00  0.00     0.143 C 
BRANCH  26  27
HETATM   27  C4  UNL     1     -30.896 -17.180 -14.734  1.00  0.00     0.080 C 
BRANCH  27  28
HETATM   28  C5  UNL     1     -29.560 -17.830 -14.847  1.00  0.00     0.255 C 
BRANCH  28  29
HETATM   29  O1  UNL     1     -28.720 -17.259 -13.891  1.00  0.00    -0.371 OA
ATOM     30  H1  UNL     1     -28.677 -17.848 -13.148  1.00  0.00     0.212 HD
ENDBRANCH  28  29
BRANCH  28  31
HETATM   31  O2  UNL     1     -28.960 -17.679 -16.074  1.00  0.00    -0.371 OA
ATOM     32  H2  UNL     1     -28.885 -18.483 -16.574  1.00  0.00     0.212 HD
ENDBRANCH  28  31
ENDBRANCH  27  28
ENDBRANCH  26  27
ENDBRANCH  24  26
ENDBRANCH   4  24
BRANCH   1  33
HETATM   33  N1  UNL     1     -27.776 -10.848 -14.973  1.00  0.00    -0.383 N 
ATOM     34  H12 UNL     1     -28.114 -10.528 -15.881  1.00  0.00     0.157 HD
ATOM     35  H11 UNL     1     -26.913 -10.436 -14.620  1.00  0.00     0.157 HD
ENDBRANCH   1  33
BRANCH  22  36
HETATM   36  N10 UNL     1     -28.485 -10.153  -6.487  1.00  0.00    -0.360 N 
ATOM     37  H10 UNL     1     -27.667  -9.583  -6.705  1.00  0.00     0.162 HD
BRANCH  36  38
HETATM   38  C12 UNL     1     -29.255  -9.872  -5.323  1.00  0.00     0.348 C 
HETATM   39  O4  UNL     1     -28.814 -10.211  -4.178  1.00  0.00    -0.284 OA
ENDBRANCH  36  38
ENDBRANCH  22  36
TORSDOF 9
ENDMDL
