MODEL 1
REMARK VINA RESULT: -8.922057720      0.000      0.000
REMARK  10 active torsions:
REMARK  status: ('A' for Active; 'I' for Inactive)
REMARK    1  A    between atoms: O1_2  and  C2_3 
REMARK    2  A    between atoms: C2_3  and  O2_4 
REMARK    3  A    between atoms: C2_3  and  C3_6 
REMARK    4  A    between atoms: N1_7  and  N2_9 
REMARK    5  A    between atoms: N2_9  and  C4_11 
REMARK    6  A    between atoms: C6_20  and  N6_21 
REMARK    7  A    between atoms: N6_21  and  N7_23 
REMARK    8  A    between atoms: N7_23  and  C7_24 
REMARK    9  A    between atoms: C7_24  and  C8_25 
REMARK   10  A    between atoms: N9_32  and  N10_33 
ROOT
HETATM    1  C4  UNL     1     -28.731 -13.922 -14.162  1.00  0.00     0.726 A 
HETATM    2  N3  UNL     1     -29.753 -14.559 -14.781  1.00  0.00    -0.020 N 
ATOM      3  H3  UNL     1     -29.994 -14.287 -15.734  1.00  0.00     0.203 HD
HETATM    4  C5  UNL     1     -30.462 -15.534 -14.187  1.00  0.00     0.705 A 
HETATM    5  N4  UNL     1     -31.438 -16.166 -14.743  1.00  0.00    -0.234 N 
ATOM      6  H41 UNL     1     -31.976 -16.906 -14.293  1.00  0.00     0.174 HD
ATOM      7  H42 UNL     1     -31.693 -15.912 -15.697  1.00  0.00     0.174 HD
HETATM    8  N5  UNL     1     -30.120 -15.874 -12.908  1.00  0.00    -0.019 N 
ATOM      9  H5  UNL     1     -30.643 -16.611 -12.436  1.00  0.00     0.203 HD
HETATM   10  C6  UNL     1     -29.118 -15.267 -12.257  1.00  0.00     0.736 A 
HETATM   11  N11 UNL     1     -28.421 -14.285 -12.895  1.00  0.00    -0.018 N 
ATOM     12  H11 UNL     1     -27.655 -13.817 -12.411  1.00  0.00     0.203 HD
ENDROOT
BRANCH  10  13
HETATM   13  N6  UNL     1     -28.800 -15.584 -11.062  1.00  0.00    -0.064 N 
ATOM     14  H6  UNL     1     -27.902 -16.061 -10.974  1.00  0.00     0.221 HD
BRANCH  13  15
HETATM   15  N7  UNL     1     -29.413 -15.407  -9.959  1.00  0.00    -0.323 NA
BRANCH  15  16
HETATM   16  C7  UNL     1     -29.981 -14.929  -9.020  1.00  0.00     0.228 C 
BRANCH  16  17
HETATM   17  C8  UNL     1     -29.543 -13.806  -8.154  1.00  0.00     0.087 A 
HETATM   18  C9  UNL     1     -28.783 -14.056  -7.054  1.00  0.00     0.028 A 
HETATM   19  C10 UNL     1     -28.374 -15.419  -6.659  1.00  0.00     0.069 C 
HETATM   20  N8  UNL     1     -28.403 -12.976  -6.311  1.00  0.00    -0.310 N 
HETATM   21  C11 UNL     1     -28.770 -11.720  -6.655  1.00  0.00     0.348 A 
ATOM     22  H8  UNL     1     -27.831 -13.119  -5.479  1.00  0.00     0.170 HD
HETATM   23  O3  UNL     1     -28.397 -10.756  -5.940  1.00  0.00    -0.245 OA
HETATM   24  N9  UNL     1     -29.527 -11.459  -7.748  1.00  0.00    -0.174 N 
HETATM   25  C12 UNL     1     -29.917 -12.494  -8.502  1.00  0.00     0.284 A 
HETATM   26  O4  UNL     1     -30.620 -12.293  -9.523  1.00  0.00    -0.265 OA
BRANCH  24  27
HETATM   27  N10 UNL     1     -29.889 -10.146  -8.077  1.00  0.00    -0.332 N 
ATOM     28 2H10 UNL     1     -29.262  -9.543  -8.607  1.00  0.00     0.177 HD
ATOM     29 1H10 UNL     1     -30.791  -9.765  -7.792  1.00  0.00     0.177 HD
ENDBRANCH  24  27
ENDBRANCH  16  17
ENDBRANCH  15  16
ENDBRANCH  13  15
ENDBRANCH  10  13
BRANCH   1  30
HETATM   30  N2  UNL     1     -28.067 -12.989 -14.766  1.00  0.00    -0.132 N 
ATOM     31  H2  UNL     1     -27.119 -13.217 -15.066  1.00  0.00     0.205 HD
BRANCH  30  32
HETATM   32  N1  UNL     1     -28.521 -11.718 -15.043  1.00  0.00    -0.297 N 
HETATM   33  C3  UNL     1     -28.258 -10.723 -14.248  1.00  0.00     0.140 C 
ATOM     34  H1  UNL     1     -29.072 -11.555 -15.885  1.00  0.00     0.186 HD
BRANCH  33  35
HETATM   35  C2  UNL     1     -27.462 -10.961 -13.025  1.00  0.00     0.297 C 
BRANCH  35  36
HETATM   36  O1  UNL     1     -28.209 -11.201 -11.896  1.00  0.00    -0.361 OA
HETATM   37  C1  UNL     1     -29.002 -10.056 -11.655  1.00  0.00     0.205 C 
ENDBRANCH  35  36
BRANCH  35  38
HETATM   38  O2  UNL     1     -26.621  -9.839 -12.844  1.00  0.00    -0.366 OA
ATOM     39  H2  UNL     1     -25.964  -9.795 -13.529  1.00  0.00     0.213 HD
ENDBRANCH  35  38
ENDBRANCH  33  35
ENDBRANCH  30  32
ENDBRANCH   1  30
TORSDOF 10
ENDMDL
MODEL 2
REMARK VINA RESULT: -8.807817097      0.864      1.146
REMARK  10 active torsions:
REMARK  status: ('A' for Active; 'I' for Inactive)
REMARK    1  A    between atoms: O1_2  and  C2_3 
REMARK    2  A    between atoms: C2_3  and  O2_4 
REMARK    3  A    between atoms: C2_3  and  C3_6 
REMARK    4  A    between atoms: N1_7  and  N2_9 
REMARK    5  A    between atoms: N2_9  and  C4_11 
REMARK    6  A    between atoms: C6_20  and  N6_21 
REMARK    7  A    between atoms: N6_21  and  N7_23 
REMARK    8  A    between atoms: N7_23  and  C7_24 
REMARK    9  A    between atoms: C7_24  and  C8_25 
REMARK   10  A    between atoms: N9_32  and  N10_33 
ROOT
HETATM    1  C4  UNL     1     -29.170 -14.034 -14.518  1.00  0.00     0.726 A 
HETATM    2  N3  UNL     1     -30.089 -14.895 -15.015  1.00  0.00    -0.020 N 
ATOM      3  H3  UNL     1     -30.483 -14.712 -15.938  1.00  0.00     0.203 HD
HETATM    4  C5  UNL     1     -30.501 -15.982 -14.340  1.00  0.00     0.705 A 
HETATM    5  N4  UNL     1     -31.369 -16.827 -14.780  1.00  0.00    -0.234 N 
ATOM      6  H41 UNL     1     -31.682 -17.651 -14.268  1.00  0.00     0.174 HD
ATOM      7  H42 UNL     1     -31.774 -16.663 -15.701  1.00  0.00     0.174 HD
HETATM    8  N5  UNL     1     -29.958 -16.201 -13.105  1.00  0.00    -0.019 N 
ATOM      9  H5  UNL     1     -30.254 -17.018 -12.572  1.00  0.00     0.203 HD
HETATM   10  C6  UNL     1     -29.049 -15.372 -12.573  1.00  0.00     0.736 A 
HETATM   11  N11 UNL     1     -28.655 -14.282 -13.291  1.00  0.00    -0.018 N 
ATOM     12  H11 UNL     1     -27.962 -13.646 -12.898  1.00  0.00     0.203 HD
ENDROOT
BRANCH  10  13
HETATM   13  N6  UNL     1     -28.544 -15.576 -11.418  1.00  0.00    -0.064 N 
ATOM     14  H6  UNL     1     -27.637 -16.043 -11.429  1.00  0.00     0.221 HD
BRANCH  13  15
HETATM   15  N7  UNL     1     -28.980 -15.296 -10.254  1.00  0.00    -0.323 NA
BRANCH  15  16
HETATM   16  C7  UNL     1     -29.647 -14.926  -9.332  1.00  0.00     0.228 C 
BRANCH  16  17
HETATM   17  C8  UNL     1     -29.359 -13.835  -8.367  1.00  0.00     0.087 A 
HETATM   18  C9  UNL     1     -28.772 -14.124  -7.175  1.00  0.00     0.028 A 
HETATM   19  C10 UNL     1     -28.411 -15.499  -6.774  1.00  0.00     0.069 C 
HETATM   20  N8  UNL     1     -28.522 -13.072  -6.341  1.00  0.00    -0.310 N 
HETATM   21  C11 UNL     1     -28.848 -11.805  -6.690  1.00  0.00     0.348 A 
ATOM     22  H8  UNL     1     -28.081 -13.243  -5.438  1.00  0.00     0.170 HD
HETATM   23  O3  UNL     1     -28.600 -10.868  -5.890  1.00  0.00    -0.245 OA
HETATM   24  N9  UNL     1     -29.433 -11.506  -7.875  1.00  0.00    -0.174 N 
HETATM   25  C12 UNL     1     -29.692 -12.513  -8.717  1.00  0.00     0.284 A 
HETATM   26  O4  UNL     1     -30.233 -12.276  -9.825  1.00  0.00    -0.265 OA
BRANCH  24  27
HETATM   27  N10 UNL     1     -29.757 -10.184  -8.204  1.00  0.00    -0.332 N 
ATOM     28 2H10 UNL     1     -29.082  -9.574  -8.663  1.00  0.00     0.177 HD
ATOM     29 1H10 UNL     1     -30.678  -9.802  -7.991  1.00  0.00     0.177 HD
ENDBRANCH  24  27
ENDBRANCH  16  17
ENDBRANCH  15  16
ENDBRANCH  13  15
ENDBRANCH  10  13
BRANCH   1  30
HETATM   30  N2  UNL     1     -28.793 -12.999 -15.199  1.00  0.00    -0.132 N 
ATOM     31  H2  UNL     1     -27.790 -12.870 -15.326  1.00  0.00     0.205 HD
BRANCH  30  32
HETATM   32  N1  UNL     1     -29.621 -12.057 -15.769  1.00  0.00    -0.297 N 
HETATM   33  C3  UNL     1     -29.973 -10.989 -15.116  1.00  0.00     0.140 C 
ATOM     34  H1  UNL     1     -29.965 -12.200 -16.718  1.00  0.00     0.186 HD
BRANCH  33  35
HETATM   35  C2  UNL     1     -29.478 -10.784 -13.737  1.00  0.00     0.297 C 
BRANCH  35  36
HETATM   36  O1  UNL     1     -28.136 -11.032 -13.570  1.00  0.00    -0.361 OA
HETATM   37  C1  UNL     1     -27.834 -10.857 -12.200  1.00  0.00     0.205 C 
ENDBRANCH  35  36
BRANCH  35  38
HETATM   38  O2  UNL     1     -30.252 -11.606 -12.885  1.00  0.00    -0.366 OA
ATOM     39  H2  UNL     1     -30.395 -12.460 -13.277  1.00  0.00     0.213 HD
ENDBRANCH  35  38
ENDBRANCH  33  35
ENDBRANCH  30  32
ENDBRANCH   1  30
TORSDOF 10
ENDMDL
MODEL 3
REMARK VINA RESULT: -8.663022005      1.049      1.105
REMARK  10 active torsions:
REMARK  status: ('A' for Active; 'I' for Inactive)
REMARK    1  A    between atoms: O1_2  and  C2_3 
REMARK    2  A    between atoms: C2_3  and  O2_4 
REMARK    3  A    between atoms: C2_3  and  C3_6 
REMARK    4  A    between atoms: N1_7  and  N2_9 
REMARK    5  A    between atoms: N2_9  and  C4_11 
REMARK    6  A    between atoms: C6_20  and  N6_21 
REMARK    7  A    between atoms: N6_21  and  N7_23 
REMARK    8  A    between atoms: N7_23  and  C7_24 
REMARK    9  A    between atoms: C7_24  and  C8_25 
REMARK   10  A    between atoms: N9_32  and  N10_33 
ROOT
HETATM    1  C4  UNL     1     -28.134 -14.002 -13.548  1.00  0.00     0.726 A 
HETATM    2  N3  UNL     1     -27.962 -15.233 -14.084  1.00  0.00    -0.020 N 
ATOM      3  H3  UNL     1     -27.290 -15.347 -14.843  1.00  0.00     0.203 HD
HETATM    4  C5  UNL     1     -28.642 -16.310 -13.655  1.00  0.00     0.705 A 
HETATM    5  N4  UNL     1     -28.503 -17.497 -14.135  1.00  0.00    -0.234 N 
ATOM      6  H41 UNL     1     -29.019 -18.315 -13.810  1.00  0.00     0.174 HD
ATOM      7  H42 UNL     1     -27.835 -17.634 -14.893  1.00  0.00     0.174 HD
HETATM    8  N5  UNL     1     -29.538 -16.127 -12.639  1.00  0.00    -0.019 N 
ATOM      9  H5  UNL     1     -30.066 -16.929 -12.295  1.00  0.00     0.203 HD
HETATM   10  C6  UNL     1     -29.743 -14.926 -12.083  1.00  0.00     0.736 A 
HETATM   11  N11 UNL     1     -29.031 -13.858 -12.544  1.00  0.00    -0.018 N 
ATOM     12  H11 UNL     1     -29.176 -12.939 -12.127  1.00  0.00     0.203 HD
ENDROOT
BRANCH  10  13
HETATM   13  N6  UNL     1     -30.582 -14.755 -11.135  1.00  0.00    -0.064 N 
ATOM     14  H6  UNL     1     -31.480 -14.369 -11.428  1.00  0.00     0.221 HD
BRANCH  13  15
HETATM   15  N7  UNL     1     -30.488 -14.984  -9.885  1.00  0.00    -0.323 NA
BRANCH  15  16
HETATM   16  C7  UNL     1     -30.380 -14.874  -8.698  1.00  0.00     0.228 C 
BRANCH  16  17
HETATM   17  C8  UNL     1     -29.772 -13.760  -7.929  1.00  0.00     0.087 A 
HETATM   18  C9  UNL     1     -28.835 -14.025  -6.979  1.00  0.00     0.028 A 
HETATM   19  C10 UNL     1     -28.391 -15.396  -6.657  1.00  0.00     0.069 C 
HETATM   20  N8  UNL     1     -28.307 -12.953  -6.320  1.00  0.00    -0.310 N 
HETATM   21  C11 UNL     1     -28.703 -11.690  -6.600  1.00  0.00     0.348 A 
ATOM     22  H8  UNL     1     -27.600 -13.107  -5.602  1.00  0.00     0.170 HD
HETATM   23  O3  UNL     1     -28.190 -10.733  -5.966  1.00  0.00    -0.245 OA
HETATM   24  N9  UNL     1     -29.637 -11.414  -7.543  1.00  0.00    -0.174 N 
HETATM   25  C12 UNL     1     -30.175 -12.441  -8.211  1.00  0.00     0.284 A 
HETATM   26  O4  UNL     1     -31.043 -12.226  -9.093  1.00  0.00    -0.265 OA
BRANCH  24  27
HETATM   27  N10 UNL     1     -30.023 -10.094  -7.808  1.00  0.00    -0.332 N 
ATOM     28 2H10 UNL     1     -29.780  -9.334  -7.173  1.00  0.00     0.177 HD
ATOM     29 1H10 UNL     1     -30.558  -9.863  -8.645  1.00  0.00     0.177 HD
ENDBRANCH  24  27
ENDBRANCH  16  17
ENDBRANCH  15  16
ENDBRANCH  13  15
ENDBRANCH  10  13
BRANCH   1  30
HETATM   30  N2  UNL     1     -27.458 -12.987 -13.984  1.00  0.00    -0.132 N 
ATOM     31  H2  UNL     1     -26.474 -12.941 -13.723  1.00  0.00     0.205 HD
BRANCH  30  32
HETATM   32  N1  UNL     1     -27.944 -11.965 -14.769  1.00  0.00    -0.297 N 
HETATM   33  C3  UNL     1     -28.082 -10.761 -14.295  1.00  0.00     0.140 C 
ATOM     34  H1  UNL     1     -28.201 -12.154 -15.737  1.00  0.00     0.186 HD
BRANCH  33  35
HETATM   35  C2  UNL     1     -27.713 -10.488 -12.890  1.00  0.00     0.297 C 
BRANCH  35  36
HETATM   36  O1  UNL     1     -28.540  -9.598 -12.246  1.00  0.00    -0.361 OA
HETATM   37  C1  UNL     1     -29.580 -10.340 -11.640  1.00  0.00     0.205 C 
ENDBRANCH  35  36
BRANCH  35  38
HETATM   38  O2  UNL     1     -26.376 -10.026 -12.887  1.00  0.00    -0.366 OA
ATOM     39  H2  UNL     1     -26.313  -9.170 -13.293  1.00  0.00     0.213 HD
ENDBRANCH  35  38
ENDBRANCH  33  35
ENDBRANCH  30  32
ENDBRANCH   1  30
TORSDOF 10
ENDMDL
MODEL 4
REMARK VINA RESULT: -8.603370508      0.852      1.089
REMARK  10 active torsions:
REMARK  status: ('A' for Active; 'I' for Inactive)
REMARK    1  A    between atoms: O1_2  and  C2_3 
REMARK    2  A    between atoms: C2_3  and  O2_4 
REMARK    3  A    between atoms: C2_3  and  C3_6 
REMARK    4  A    between atoms: N1_7  and  N2_9 
REMARK    5  A    between atoms: N2_9  and  C4_11 
REMARK    6  A    between atoms: C6_20  and  N6_21 
REMARK    7  A    between atoms: N6_21  and  N7_23 
REMARK    8  A    between atoms: N7_23  and  C7_24 
REMARK    9  A    between atoms: C7_24  and  C8_25 
REMARK   10  A    between atoms: N9_32  and  N10_33 
ROOT
HETATM    1  C4  UNL     1     -29.411 -13.324 -13.656  1.00  0.00     0.726 A 
HETATM    2  N3  UNL     1     -29.963 -14.144 -14.582  1.00  0.00    -0.020 N 
ATOM      3  H3  UNL     1     -30.197 -13.762 -15.499  1.00  0.00     0.203 HD
HETATM    4  C5  UNL     1     -30.215 -15.442 -14.340  1.00  0.00     0.705 A 
HETATM    5  N4  UNL     1     -30.734 -16.255 -15.194  1.00  0.00    -0.234 N 
ATOM      6  H41 UNL     1     -30.925 -17.240 -15.011  1.00  0.00     0.174 HD
ATOM      7  H42 UNL     1     -30.973 -15.893 -16.117  1.00  0.00     0.174 HD
HETATM    8  N5  UNL     1     -29.895 -15.926 -13.102  1.00  0.00    -0.019 N 
ATOM      9  H5  UNL     1     -30.076 -16.908 -12.894  1.00  0.00     0.203 HD
HETATM   10  C6  UNL     1     -29.351 -15.150 -12.156  1.00  0.00     0.736 A 
HETATM   11  N11 UNL     1     -29.108 -13.839 -12.441  1.00  0.00    -0.018 N 
ATOM     12  H11 UNL     1     -28.692 -13.238 -11.730  1.00  0.00     0.203 HD
ENDROOT
BRANCH  10  13
HETATM   13  N6  UNL     1     -29.054 -15.603 -10.999  1.00  0.00    -0.064 N 
ATOM     14  H6  UNL     1     -28.232 -16.207 -10.979  1.00  0.00     0.221 HD
BRANCH  13  15
HETATM   15  N7  UNL     1     -29.609 -15.429  -9.866  1.00  0.00    -0.323 NA
BRANCH  15  16
HETATM   16  C7  UNL     1     -30.119 -14.952  -8.894  1.00  0.00     0.228 C 
BRANCH  16  17
HETATM   17  C8  UNL     1     -29.619 -13.845  -8.041  1.00  0.00     0.087 A 
HETATM   18  C9  UNL     1     -28.800 -14.119  -6.989  1.00  0.00     0.028 A 
HETATM   19  C10 UNL     1     -28.385 -15.492  -6.636  1.00  0.00     0.069 C 
HETATM   20  N8  UNL     1     -28.364 -13.053  -6.256  1.00  0.00    -0.310 N 
HETATM   21  C11 UNL     1     -28.736 -11.789  -6.563  1.00  0.00     0.348 A 
ATOM     22  H8  UNL     1     -27.747 -13.213  -5.460  1.00  0.00     0.170 HD
HETATM   23  O3  UNL     1     -28.311 -10.838  -5.857  1.00  0.00    -0.245 OA
HETATM   24  N9  UNL     1     -29.551 -11.505  -7.607  1.00  0.00    -0.174 N 
HETATM   25  C12 UNL     1     -29.996 -12.525  -8.349  1.00  0.00     0.284 A 
HETATM   26  O4  UNL     1     -30.754 -12.302  -9.326  1.00  0.00    -0.265 OA
BRANCH  24  27
HETATM   27  N10 UNL     1     -29.915 -10.184  -7.897  1.00  0.00    -0.332 N 
ATOM     28 2H10 UNL     1     -30.893  -9.894  -7.904  1.00  0.00     0.177 HD
ATOM     29 1H10 UNL     1     -29.208  -9.480  -8.108  1.00  0.00     0.177 HD
ENDBRANCH  24  27
ENDBRANCH  16  17
ENDBRANCH  15  16
ENDBRANCH  13  15
ENDBRANCH  10  13
BRANCH   1  30
HETATM   30  N2  UNL     1     -29.179 -12.080 -13.927  1.00  0.00    -0.132 N 
ATOM     31  H2  UNL     1     -29.972 -11.518 -14.235  1.00  0.00     0.205 HD
BRANCH  30  32
HETATM   32  N1  UNL     1     -27.960 -11.443 -13.837  1.00  0.00    -0.297 N 
HETATM   33  C3  UNL     1     -27.701 -10.625 -12.860  1.00  0.00     0.140 C 
ATOM     34  H1  UNL     1     -27.250 -11.616 -14.548  1.00  0.00     0.186 HD
BRANCH  33  35
HETATM   35  C2  UNL     1     -28.732 -10.371 -11.831  1.00  0.00     0.297 C 
BRANCH  35  36
HETATM   36  O1  UNL     1     -28.795  -9.069 -11.396  1.00  0.00    -0.361 OA
HETATM   37  C1  UNL     1     -30.139  -8.796 -11.051  1.00  0.00     0.205 C 
ENDBRANCH  35  36
BRANCH  35  38
HETATM   38  O2  UNL     1     -28.477 -11.251 -10.753  1.00  0.00    -0.366 OA
ATOM     39  H2  UNL     1     -27.949 -10.826 -10.088  1.00  0.00     0.213 HD
ENDBRANCH  35  38
ENDBRANCH  33  35
ENDBRANCH  30  32
ENDBRANCH   1  30
TORSDOF 10
ENDMDL
MODEL 5
REMARK VINA RESULT: -8.459269685      1.710      2.107
REMARK  10 active torsions:
REMARK  status: ('A' for Active; 'I' for Inactive)
REMARK    1  A    between atoms: O1_2  and  C2_3 
REMARK    2  A    between atoms: C2_3  and  O2_4 
REMARK    3  A    between atoms: C2_3  and  C3_6 
REMARK    4  A    between atoms: N1_7  and  N2_9 
REMARK    5  A    between atoms: N2_9  and  C4_11 
REMARK    6  A    between atoms: C6_20  and  N6_21 
REMARK    7  A    between atoms: N6_21  and  N7_23 
REMARK    8  A    between atoms: N7_23  and  C7_24 
REMARK    9  A    between atoms: C7_24  and  C8_25 
REMARK   10  A    between atoms: N9_32  and  N10_33 
ROOT
HETATM    1  C4  UNL     1     -28.315 -13.224 -11.574  1.00  0.00     0.726 A 
HETATM    2  N3  UNL     1     -27.830 -13.983 -12.585  1.00  0.00    -0.020 N 
ATOM      3  H3  UNL     1     -27.158 -13.568 -13.231  1.00  0.00     0.203 HD
HETATM    4  C5  UNL     1     -28.200 -15.262 -12.770  1.00  0.00     0.705 A 
HETATM    5  N4  UNL     1     -27.759 -16.018 -13.715  1.00  0.00    -0.234 N 
ATOM      6  H41 UNL     1     -28.039 -16.989 -13.855  1.00  0.00     0.174 HD
ATOM      7  H42 UNL     1     -27.085 -15.624 -14.370  1.00  0.00     0.174 HD
HETATM    8  N5  UNL     1     -29.104 -15.791 -11.891  1.00  0.00    -0.019 N 
ATOM      9  H5  UNL     1     -29.400 -16.759 -12.009  1.00  0.00     0.203 HD
HETATM   10  C6  UNL     1     -29.612 -15.074 -10.880  1.00  0.00     0.736 A 
HETATM   11  N11 UNL     1     -29.209 -13.780 -10.724  1.00  0.00    -0.018 N 
ATOM     12  H11 UNL     1     -29.587 -13.225  -9.957  1.00  0.00     0.203 HD
ENDROOT
BRANCH  10  13
HETATM   13  N6  UNL     1     -30.458 -15.568 -10.060  1.00  0.00    -0.064 N 
ATOM     14  H6  UNL     1     -30.832 -16.477 -10.334  1.00  0.00     0.221 HD
BRANCH  13  15
HETATM   15  N7  UNL     1     -30.914 -15.119  -8.959  1.00  0.00    -0.323 NA
BRANCH  15  16
HETATM   16  C7  UNL     1     -31.037 -14.587  -7.893  1.00  0.00     0.228 C 
BRANCH  16  17
HETATM   17  C8  UNL     1     -30.264 -13.447  -7.339  1.00  0.00     0.087 A 
HETATM   18  C9  UNL     1     -29.008 -13.651  -6.858  1.00  0.00     0.028 A 
HETATM   19  C10 UNL     1     -28.364 -14.980  -6.844  1.00  0.00     0.069 C 
HETATM   20  N8  UNL     1     -28.349 -12.557  -6.377  1.00  0.00    -0.310 N 
HETATM   21  C11 UNL     1     -28.923 -11.332  -6.379  1.00  0.00     0.348 A 
ATOM     22  H8  UNL     1     -27.404 -12.665  -6.008  1.00  0.00     0.170 HD
HETATM   23  O3  UNL     1     -28.278 -10.353  -5.924  1.00  0.00    -0.245 OA
HETATM   24  N9  UNL     1     -30.174 -11.117  -6.855  1.00  0.00    -0.174 N 
HETATM   25  C12 UNL     1     -30.850 -12.167  -7.336  1.00  0.00     0.284 A 
HETATM   26  O4  UNL     1     -32.011 -12.008  -7.787  1.00  0.00    -0.265 OA
BRANCH  24  27
HETATM   27  N10 UNL     1     -30.738  -9.835  -6.843  1.00  0.00    -0.332 N 
ATOM     28 2H10 UNL     1     -30.512  -9.166  -6.108  1.00  0.00     0.177 HD
ATOM     29 1H10 UNL     1     -31.389  -9.543  -7.571  1.00  0.00     0.177 HD
ENDBRANCH  24  27
ENDBRANCH  16  17
ENDBRANCH  15  16
ENDBRANCH  13  15
ENDBRANCH  10  13
BRANCH   1  30
HETATM   30  N2  UNL     1     -27.933 -11.996 -11.425  1.00  0.00    -0.132 N 
ATOM     31  H2  UNL     1     -26.928 -11.827 -11.380  1.00  0.00     0.205 HD
BRANCH  30  32
HETATM   32  N1  UNL     1     -28.756 -10.896 -11.321  1.00  0.00    -0.297 N 
HETATM   33  C3  UNL     1     -28.775  -9.982 -12.246  1.00  0.00     0.140 C 
ATOM     34  H1  UNL     1     -29.360 -10.797 -10.506  1.00  0.00     0.186 HD
BRANCH  33  35
HETATM   35  C2  UNL     1     -27.897 -10.124 -13.427  1.00  0.00     0.297 C 
BRANCH  35  36
HETATM   36  O1  UNL     1     -28.082 -11.285 -14.139  1.00  0.00    -0.361 OA
HETATM   37  C1  UNL     1     -29.334 -11.194 -14.790  1.00  0.00     0.205 C 
ENDBRANCH  35  36
BRANCH  35  38
HETATM   38  O2  UNL     1     -26.561 -10.019 -12.974  1.00  0.00    -0.366 OA
ATOM     39  H2  UNL     1     -26.111  -9.305 -13.411  1.00  0.00     0.213 HD
ENDBRANCH  35  38
ENDBRANCH  33  35
ENDBRANCH  30  32
ENDBRANCH   1  30
TORSDOF 10
ENDMDL
