MODEL 1
REMARK VINA RESULT: -8.929811344      0.000      0.000
REMARK  8 active torsions:
REMARK  status: ('A' for Active; 'I' for Inactive)
REMARK    1  A    between atoms: C3_4  and  C4_5 
REMARK       I    between atoms: C4_5  and  N2_7 
REMARK    2  A    between atoms: N2_7  and  N3_9 
REMARK    3  A    between atoms: C5_11  and  C6_12 
REMARK    4  A    between atoms: C6_12  and  O2_13 
REMARK    5  A    between atoms: C6_12  and  C7_15 
REMARK    6  A    between atoms: C7_15  and  N4_16 
REMARK    7  A    between atoms: C8_17  and  N5_18 
REMARK    8  A    between atoms: C11_32  and  N10_33 
ROOT
HETATM    1  C4  UNL     1     -30.415 -11.461 -10.561  1.00  0.00     0.289 C 
HETATM    2  O1  UNL     1     -31.574 -11.183 -10.932  1.00  0.00    -0.264 OA
HETATM    3  N2  UNL     1     -29.460 -11.549 -11.639  1.00  0.00    -0.265 N 
ATOM      4  H2  UNL     1     -28.491 -11.773 -11.412  1.00  0.00     0.190 HD
ENDROOT
BRANCH   3   5
HETATM    5  N3  UNL     1     -29.798 -11.340 -12.973  1.00  0.00    -0.310 N 
HETATM    6  C5  UNL     1     -29.647 -12.157 -13.937  1.00  0.00     0.113 C 
ATOM      7  H3  UNL     1     -30.212 -10.437 -13.202  1.00  0.00     0.185 HD
BRANCH   6   8
HETATM    8  C6  UNL     1     -29.059 -13.490 -13.715  1.00  0.00     0.177 C 
BRANCH   8   9
HETATM    9  O2  UNL     1     -28.357 -13.818 -14.879  1.00  0.00    -0.389 OA
ATOM     10  H2  UNL     1     -27.749 -13.106 -15.041  1.00  0.00     0.210 HD
ENDBRANCH   8   9
BRANCH   8  11
HETATM   11  C7  UNL     1     -30.056 -14.573 -13.481  1.00  0.00     0.189 C 
BRANCH  11  12
HETATM   12  N4  UNL     1     -29.695 -15.887 -13.892  1.00  0.00    -0.128 N 
HETATM   13  C8  UNL     1     -30.293 -16.750 -14.728  1.00  0.00     0.697 A 
HETATM   14  N6  UNL     1     -29.581 -17.908 -14.817  1.00  0.00    -0.128 N 
HETATM   15  N7  UNL     1     -28.544 -17.739 -14.024  1.00  0.00    -0.236 N 
ATOM     16  H6  UNL     1     -29.804 -18.731 -15.377  1.00  0.00     0.205 HD
HETATM   17  C9  UNL     1     -28.591 -16.515 -13.449  1.00  0.00     0.355 A 
ATOM     18  H7  UNL     1     -27.811 -18.430 -13.867  1.00  0.00     0.192 HD
HETATM   19  O3  UNL     1     -27.695 -16.127 -12.643  1.00  0.00    -0.244 OA
BRANCH  13  20
HETATM   20  N5  UNL     1     -31.367 -16.530 -15.353  1.00  0.00    -0.233 N 
ATOM     21  H52 UNL     1     -32.031 -15.795 -15.108  1.00  0.00     0.174 HD
ATOM     22  H51 UNL     1     -31.692 -17.055 -16.164  1.00  0.00     0.174 HD
ENDBRANCH  13  20
ENDBRANCH  11  12
ENDBRANCH   8  11
ENDBRANCH   6   8
ENDBRANCH   3   5
BRANCH   1  23
HETATM   23  C3  UNL     1     -29.986 -11.691  -9.206  1.00  0.00     0.147 A 
HETATM   24  C2  UNL     1     -29.960 -10.688  -8.246  1.00  0.00     0.145 A 
HETATM   25  N1  UNL     1     -29.514 -11.246  -7.113  1.00  0.00    -0.194 N 
HETATM   26  C1  UNL     1     -29.327 -10.562  -5.845  1.00  0.00     0.175 C 
HETATM   27  C12 UNL     1     -29.259 -12.547  -7.311  1.00  0.00     0.709 A 
HETATM   28  N8  UNL     1     -29.549 -12.833  -8.604  1.00  0.00    -0.088 N 
HETATM   29  N11 UNL     1     -28.801 -13.518  -6.490  1.00  0.00    -0.021 N 
HETATM   30  C10 UNL     1     -29.367 -14.089  -9.029  1.00  0.00     0.360 A 
HETATM   31  O4  UNL     1     -29.624 -14.388 -10.217  1.00  0.00    -0.245 OA
HETATM   32  N9  UNL     1     -28.904 -15.076  -8.205  1.00  0.00    -0.140 N 
HETATM   33  C11 UNL     1     -28.625 -14.773  -6.933  1.00  0.00     0.694 A 
ATOM     34  H9  UNL     1     -28.774 -16.025  -8.553  1.00  0.00     0.189 HD
ATOM     35  H11 UNL     1     -28.586 -13.293  -5.519  1.00  0.00     0.203 HD
BRANCH  33  36
HETATM   36  N10 UNL     1     -28.189 -15.715  -6.163  1.00  0.00    -0.234 N 
ATOM     37 2H10 UNL     1     -28.807 -16.234  -5.541  1.00  0.00     0.174 HD
ATOM     38 1H10 UNL     1     -27.194 -15.935  -6.189  1.00  0.00     0.174 HD
ENDBRANCH  33  36
ENDBRANCH   1  23
TORSDOF 8
ENDMDL
MODEL 2
REMARK VINA RESULT: -8.885949922      0.862      1.414
REMARK  8 active torsions:
REMARK  status: ('A' for Active; 'I' for Inactive)
REMARK    1  A    between atoms: C3_4  and  C4_5 
REMARK       I    between atoms: C4_5  and  N2_7 
REMARK    2  A    between atoms: N2_7  and  N3_9 
REMARK    3  A    between atoms: C5_11  and  C6_12 
REMARK    4  A    between atoms: C6_12  and  O2_13 
REMARK    5  A    between atoms: C6_12  and  C7_15 
REMARK    6  A    between atoms: C7_15  and  N4_16 
REMARK    7  A    between atoms: C8_17  and  N5_18 
REMARK    8  A    between atoms: C11_32  and  N10_33 
ROOT
HETATM    1  C4  UNL     1     -30.461 -11.349 -10.564  1.00  0.00     0.289 C 
HETATM    2  O1  UNL     1     -31.612 -11.026 -10.921  1.00  0.00    -0.264 OA
HETATM    3  N2  UNL     1     -29.523 -11.477 -11.654  1.00  0.00    -0.265 N 
ATOM      4  H2  UNL     1     -28.561 -11.739 -11.439  1.00  0.00     0.190 HD
ENDROOT
BRANCH   3   5
HETATM    5  N3  UNL     1     -29.871 -11.259 -12.984  1.00  0.00    -0.310 N 
HETATM    6  C5  UNL     1     -29.693 -12.055 -13.961  1.00  0.00     0.113 C 
ATOM      7  H3  UNL     1     -30.315 -10.367 -13.198  1.00  0.00     0.185 HD
BRANCH   6   8
HETATM    8  C6  UNL     1     -29.060 -13.371 -13.760  1.00  0.00     0.177 C 
BRANCH   8   9
HETATM    9  O2  UNL     1     -28.239 -13.595 -14.870  1.00  0.00    -0.389 OA
ATOM     10  H2  UNL     1     -28.647 -14.288 -15.375  1.00  0.00     0.210 HD
ENDBRANCH   8   9
BRANCH   8  11
HETATM   11  C7  UNL     1     -30.017 -14.511 -13.683  1.00  0.00     0.189 C 
BRANCH  11  12
HETATM   12  N4  UNL     1     -29.483 -15.820 -13.847  1.00  0.00    -0.128 N 
HETATM   13  C8  UNL     1     -28.604 -16.518 -13.111  1.00  0.00     0.697 A 
HETATM   14  N6  UNL     1     -28.382 -17.745 -13.660  1.00  0.00    -0.128 N 
HETATM   15  N7  UNL     1     -29.137 -17.785 -14.738  1.00  0.00    -0.236 N 
ATOM     16  H6  UNL     1     -27.764 -18.478 -13.311  1.00  0.00     0.205 HD
HETATM   17  C9  UNL     1     -29.817 -16.623 -14.873  1.00  0.00     0.355 A 
ATOM     18  H7  UNL     1     -29.199 -18.576 -15.377  1.00  0.00     0.192 HD
HETATM   19  O3  UNL     1     -30.609 -16.429 -15.842  1.00  0.00    -0.244 OA
BRANCH  13  20
HETATM   20  N5  UNL     1     -28.053 -16.105 -12.054  1.00  0.00    -0.233 N 
ATOM     21  H52 UNL     1     -27.061 -15.881 -11.976  1.00  0.00     0.174 HD
ATOM     22  H51 UNL     1     -28.530 -15.950 -11.166  1.00  0.00     0.174 HD
ENDBRANCH  13  20
ENDBRANCH  11  12
ENDBRANCH   8  11
ENDBRANCH   6   8
ENDBRANCH   3   5
BRANCH   1  23
HETATM   23  C3  UNL     1     -30.024 -11.591  -9.214  1.00  0.00     0.147 A 
HETATM   24  C2  UNL     1     -29.991 -10.597  -8.244  1.00  0.00     0.145 A 
HETATM   25  N1  UNL     1     -29.539 -11.166  -7.119  1.00  0.00    -0.194 N 
HETATM   26  C1  UNL     1     -29.343 -10.494  -5.846  1.00  0.00     0.175 C 
HETATM   27  C12 UNL     1     -29.286 -12.466  -7.332  1.00  0.00     0.709 A 
HETATM   28  N8  UNL     1     -29.584 -12.739  -8.625  1.00  0.00    -0.088 N 
HETATM   29  N11 UNL     1     -28.824 -13.444  -6.522  1.00  0.00    -0.021 N 
HETATM   30  C10 UNL     1     -29.406 -13.992  -9.063  1.00  0.00     0.360 A 
HETATM   31  O4  UNL     1     -29.670 -14.280 -10.251  1.00  0.00    -0.245 OA
HETATM   32  N9  UNL     1     -28.939 -14.986  -8.250  1.00  0.00    -0.140 N 
HETATM   33  C11 UNL     1     -28.652 -14.696  -6.977  1.00  0.00     0.694 A 
ATOM     34  H9  UNL     1     -28.812 -15.932  -8.608  1.00  0.00     0.189 HD
ATOM     35  H11 UNL     1     -28.603 -13.229  -5.550  1.00  0.00     0.203 HD
BRANCH  33  36
HETATM   36  N10 UNL     1     -28.212 -15.644  -6.219  1.00  0.00    -0.234 N 
ATOM     37 2H10 UNL     1     -28.483 -16.618  -6.358  1.00  0.00     0.174 HD
ATOM     38 1H10 UNL     1     -27.574 -15.400  -5.462  1.00  0.00     0.174 HD
ENDBRANCH  33  36
ENDBRANCH   1  23
TORSDOF 8
ENDMDL
MODEL 3
REMARK VINA RESULT: -8.621337103      1.164      1.298
REMARK  8 active torsions:
REMARK  status: ('A' for Active; 'I' for Inactive)
REMARK    1  A    between atoms: C3_4  and  C4_5 
REMARK       I    between atoms: C4_5  and  N2_7 
REMARK    2  A    between atoms: N2_7  and  N3_9 
REMARK    3  A    between atoms: C5_11  and  C6_12 
REMARK    4  A    between atoms: C6_12  and  O2_13 
REMARK    5  A    between atoms: C6_12  and  C7_15 
REMARK    6  A    between atoms: C7_15  and  N4_16 
REMARK    7  A    between atoms: C8_17  and  N5_18 
REMARK    8  A    between atoms: C11_32  and  N10_33 
ROOT
HETATM    1  C4  UNL     1     -30.714 -11.492 -10.537  1.00  0.00     0.289 C 
HETATM    2  O1  UNL     1     -31.875 -11.108 -10.788  1.00  0.00    -0.264 OA
HETATM    3  N2  UNL     1     -29.907 -11.726 -11.710  1.00  0.00    -0.265 N 
ATOM      4  H2  UNL     1     -28.946 -12.042 -11.584  1.00  0.00     0.190 HD
ENDROOT
BRANCH   3   5
HETATM    5  N3  UNL     1     -30.380 -11.539 -13.006  1.00  0.00    -0.310 N 
HETATM    6  C5  UNL     1     -29.734 -11.717 -14.088  1.00  0.00     0.113 C 
ATOM      7  H3  UNL     1     -31.345 -11.226 -13.098  1.00  0.00     0.185 HD
BRANCH   6   8
HETATM    8  C6  UNL     1     -28.332 -12.169 -14.068  1.00  0.00     0.177 C 
BRANCH   8   9
HETATM    9  O2  UNL     1     -27.611 -11.278 -14.870  1.00  0.00    -0.389 OA
ATOM     10  H2  UNL     1     -27.740 -10.413 -14.501  1.00  0.00     0.210 HD
ENDBRANCH   8   9
BRANCH   8  11
HETATM   11  C7  UNL     1     -28.115 -13.536 -14.623  1.00  0.00     0.189 C 
BRANCH  11  12
HETATM   12  N4  UNL     1     -28.471 -14.637 -13.795  1.00  0.00    -0.128 N 
HETATM   13  C8  UNL     1     -29.614 -15.331 -13.685  1.00  0.00     0.697 A 
HETATM   14  N6  UNL     1     -29.496 -16.312 -12.746  1.00  0.00    -0.128 N 
HETATM   15  N7  UNL     1     -28.267 -16.204 -12.286  1.00  0.00    -0.236 N 
ATOM     16  H6  UNL     1     -30.207 -16.985 -12.460  1.00  0.00     0.205 HD
HETATM   17  C9  UNL     1     -27.622 -15.191 -12.910  1.00  0.00     0.355 A 
ATOM     18  H7  UNL     1     -27.860 -16.799 -11.565  1.00  0.00     0.192 HD
HETATM   19  O3  UNL     1     -26.423 -14.898 -12.630  1.00  0.00    -0.244 OA
BRANCH  13  20
HETATM   20  N5  UNL     1     -30.662 -15.116 -14.355  1.00  0.00    -0.233 N 
ATOM     21  H52 UNL     1     -30.818 -15.466 -15.300  1.00  0.00     0.174 HD
ATOM     22  H51 UNL     1     -31.463 -14.572 -14.034  1.00  0.00     0.174 HD
ENDBRANCH  13  20
ENDBRANCH  11  12
ENDBRANCH   8  11
ENDBRANCH   6   8
ENDBRANCH   3   5
BRANCH   1  23
HETATM   23  C3  UNL     1     -30.153 -11.708  -9.230  1.00  0.00     0.147 A 
HETATM   24  C2  UNL     1     -30.014 -10.691  -8.293  1.00  0.00     0.145 A 
HETATM   25  N1  UNL     1     -29.463 -11.240  -7.202  1.00  0.00    -0.194 N 
HETATM   26  C1  UNL     1     -29.136 -10.541  -5.972  1.00  0.00     0.175 C 
HETATM   27  C12 UNL     1     -29.248 -12.548  -7.405  1.00  0.00     0.709 A 
HETATM   28  N8  UNL     1     -29.673 -12.848  -8.656  1.00  0.00    -0.088 N 
HETATM   29  N11 UNL     1     -28.724 -13.513  -6.619  1.00  0.00    -0.021 N 
HETATM   30  C10 UNL     1     -29.554 -14.113  -9.077  1.00  0.00     0.360 A 
HETATM   31  O4  UNL     1     -29.935 -14.426 -10.227  1.00  0.00    -0.245 OA
HETATM   32  N9  UNL     1     -29.024 -15.095  -8.288  1.00  0.00    -0.140 N 
HETATM   33  C11 UNL     1     -28.612 -14.778  -7.056  1.00  0.00     0.694 A 
ATOM     34  H9  UNL     1     -28.944 -16.051  -8.632  1.00  0.00     0.189 HD
ATOM     35  H11 UNL     1     -28.407 -13.278  -5.678  1.00  0.00     0.203 HD
BRANCH  33  36
HETATM   36  N10 UNL     1     -28.113 -15.715  -6.319  1.00  0.00    -0.234 N 
ATOM     37 2H10 UNL     1     -27.409 -15.525  -5.606  1.00  0.00     0.174 HD
ATOM     38 1H10 UNL     1     -28.442 -16.669  -6.466  1.00  0.00     0.174 HD
ENDBRANCH  33  36
ENDBRANCH   1  23
TORSDOF 8
ENDMDL
MODEL 4
REMARK VINA RESULT: -8.393586327      2.433      4.052
REMARK  8 active torsions:
REMARK  status: ('A' for Active; 'I' for Inactive)
REMARK    1  A    between atoms: C3_4  and  C4_5 
REMARK       I    between atoms: C4_5  and  N2_7 
REMARK    2  A    between atoms: N2_7  and  N3_9 
REMARK    3  A    between atoms: C5_11  and  C6_12 
REMARK    4  A    between atoms: C6_12  and  O2_13 
REMARK    5  A    between atoms: C6_12  and  C7_15 
REMARK    6  A    between atoms: C7_15  and  N4_16 
REMARK    7  A    between atoms: C8_17  and  N5_18 
REMARK    8  A    between atoms: C11_32  and  N10_33 
ROOT
HETATM    1  C4  UNL     1     -29.844 -15.043  -9.248  1.00  0.00     0.289 C 
HETATM    2  O1  UNL     1     -29.904 -16.218  -8.831  1.00  0.00    -0.264 OA
HETATM    3  N2  UNL     1     -29.094 -14.893 -10.472  1.00  0.00    -0.265 N 
ATOM      4  H2  UNL     1     -29.002 -13.960 -10.873  1.00  0.00     0.190 HD
ENDROOT
BRANCH   3   5
HETATM    5  N3  UNL     1     -28.493 -15.962 -11.129  1.00  0.00    -0.310 N 
HETATM    6  C5  UNL     1     -28.364 -16.111 -12.387  1.00  0.00     0.113 C 
ATOM      7  H3  UNL     1     -28.115 -16.704 -10.542  1.00  0.00     0.185 HD
BRANCH   6   8
HETATM    8  C6  UNL     1     -28.875 -15.097 -13.326  1.00  0.00     0.177 C 
BRANCH   8   9
HETATM    9  O2  UNL     1     -29.396 -15.792 -14.423  1.00  0.00    -0.389 OA
ATOM     10  H2  UNL     1     -28.681 -15.905 -15.038  1.00  0.00     0.210 HD
ENDBRANCH   8   9
BRANCH   8  11
HETATM   11  C7  UNL     1     -27.838 -14.162 -13.849  1.00  0.00     0.189 C 
BRANCH  11  12
HETATM   12  N4  UNL     1     -28.272 -12.864 -14.240  1.00  0.00    -0.128 N 
HETATM   13  C8  UNL     1     -28.916 -12.438 -15.338  1.00  0.00     0.697 A 
HETATM   14  N6  UNL     1     -29.123 -11.093 -15.285  1.00  0.00    -0.128 N 
HETATM   15  N7  UNL     1     -28.598 -10.706 -14.141  1.00  0.00    -0.236 N 
ATOM     16  H6  UNL     1     -29.586 -10.509 -15.981  1.00  0.00     0.205 HD
HETATM   17  C9  UNL     1     -28.072 -11.768 -13.486  1.00  0.00     0.355 A 
ATOM     18  H7  UNL     1     -28.587  -9.746 -13.798  1.00  0.00     0.192 HD
HETATM   19  O3  UNL     1     -27.510 -11.639 -12.360  1.00  0.00    -0.244 OA
BRANCH  13  20
HETATM   20  N5  UNL     1     -29.284 -13.174 -16.295  1.00  0.00    -0.233 N 
ATOM     21  H52 UNL     1     -28.644 -13.676 -16.910  1.00  0.00     0.174 HD
ATOM     22  H51 UNL     1     -30.253 -13.348 -16.562  1.00  0.00     0.174 HD
ENDBRANCH  13  20
ENDBRANCH  11  12
ENDBRANCH   8  11
ENDBRANCH   6   8
ENDBRANCH   3   5
BRANCH   1  23
HETATM   23  C3  UNL     1     -30.437 -13.888  -8.627  1.00  0.00     0.147 A 
HETATM   24  C2  UNL     1     -31.598 -13.290  -9.104  1.00  0.00     0.145 A 
HETATM   25  N1  UNL     1     -31.861 -12.254  -8.297  1.00  0.00    -0.194 N 
HETATM   26  C1  UNL     1     -32.986 -11.344  -8.422  1.00  0.00     0.175 C 
HETATM   27  C12 UNL     1     -30.927 -12.169  -7.339  1.00  0.00     0.709 A 
HETATM   28  N8  UNL     1     -30.041 -13.176  -7.534  1.00  0.00    -0.088 N 
HETATM   29  N11 UNL     1     -30.759 -11.311  -6.309  1.00  0.00    -0.021 N 
HETATM   30  C10 UNL     1     -29.013 -13.286  -6.684  1.00  0.00     0.360 A 
HETATM   31  O4  UNL     1     -28.175 -14.204  -6.835  1.00  0.00    -0.245 OA
HETATM   32  N9  UNL     1     -28.836 -12.421  -5.641  1.00  0.00    -0.140 N 
HETATM   33  C11 UNL     1     -29.721 -11.435  -5.465  1.00  0.00     0.694 A 
ATOM     34  H9  UNL     1     -28.043 -12.526  -5.009  1.00  0.00     0.189 HD
ATOM     35  H11 UNL     1     -31.431 -10.556  -6.169  1.00  0.00     0.203 HD
BRANCH  33  36
HETATM   36  N10 UNL     1     -29.543 -10.625  -4.475  1.00  0.00    -0.234 N 
ATOM     37 2H10 UNL     1     -29.616 -10.932  -3.506  1.00  0.00     0.174 HD
ATOM     38 1H10 UNL     1     -29.325  -9.651  -4.683  1.00  0.00     0.174 HD
ENDBRANCH  33  36
ENDBRANCH   1  23
TORSDOF 8
ENDMDL
MODEL 5
REMARK VINA RESULT: -8.279144300      2.103      4.220
REMARK  8 active torsions:
REMARK  status: ('A' for Active; 'I' for Inactive)
REMARK    1  A    between atoms: C3_4  and  C4_5 
REMARK       I    between atoms: C4_5  and  N2_7 
REMARK    2  A    between atoms: N2_7  and  N3_9 
REMARK    3  A    between atoms: C5_11  and  C6_12 
REMARK    4  A    between atoms: C6_12  and  O2_13 
REMARK    5  A    between atoms: C6_12  and  C7_15 
REMARK    6  A    between atoms: C7_15  and  N4_16 
REMARK    7  A    between atoms: C8_17  and  N5_18 
REMARK    8  A    between atoms: C11_32  and  N10_33 
ROOT
HETATM    1  C4  UNL     1     -29.677 -14.712  -9.734  1.00  0.00     0.289 C 
HETATM    2  O1  UNL     1     -30.306 -15.762  -9.491  1.00  0.00    -0.264 OA
HETATM    3  N2  UNL     1     -28.914 -14.755 -10.959  1.00  0.00    -0.265 N 
ATOM      4  H2  UNL     1     -28.374 -13.932 -11.224  1.00  0.00     0.190 HD
ENDROOT
BRANCH   3   5
HETATM    5  N3  UNL     1     -28.883 -15.868 -11.795  1.00  0.00    -0.310 N 
HETATM    6  C5  UNL     1     -29.315 -15.938 -12.990  1.00  0.00     0.113 C 
ATOM      7  H3  UNL     1     -28.471 -16.716 -11.409  1.00  0.00     0.185 HD
BRANCH   6   8
HETATM    8  C6  UNL     1     -29.928 -14.768 -13.644  1.00  0.00     0.177 C 
BRANCH   8   9
HETATM    9  O2  UNL     1     -31.080 -15.228 -14.290  1.00  0.00    -0.389 OA
ATOM     10  H2  UNL     1     -31.820 -14.839 -13.838  1.00  0.00     0.210 HD
ENDBRANCH   8   9
BRANCH   8  11
HETATM   11  C7  UNL     1     -29.072 -14.119 -14.678  1.00  0.00     0.189 C 
BRANCH  11  12
HETATM   12  N4  UNL     1     -28.607 -12.803 -14.403  1.00  0.00    -0.128 N 
HETATM   13  C8  UNL     1     -28.906 -11.621 -14.965  1.00  0.00     0.697 A 
HETATM   14  N6  UNL     1     -28.206 -10.614 -14.373  1.00  0.00    -0.128 N 
HETATM   15  N7  UNL     1     -27.478 -11.197 -13.444  1.00  0.00    -0.236 N 
ATOM     16  H6  UNL     1     -28.238  -9.620 -14.600  1.00  0.00     0.205 HD
HETATM   17  C9  UNL     1     -27.705 -12.532 -13.443  1.00  0.00     0.355 A 
ATOM     18  H7  UNL     1     -26.836 -10.714 -12.817  1.00  0.00     0.192 HD
HETATM   19  O3  UNL     1     -27.113 -13.303 -12.632  1.00  0.00    -0.244 OA
BRANCH  13  20
HETATM   20  N5  UNL     1     -29.723 -11.454 -15.912  1.00  0.00    -0.233 N 
ATOM     21  H52 UNL     1     -30.440 -10.729 -15.928  1.00  0.00     0.174 HD
ATOM     22  H51 UNL     1     -29.760 -12.018 -16.761  1.00  0.00     0.174 HD
ENDBRANCH  13  20
ENDBRANCH  11  12
ENDBRANCH   8  11
ENDBRANCH   6   8
ENDBRANCH   3   5
BRANCH   1  23
HETATM   23  C3  UNL     1     -29.658 -13.523  -8.923  1.00  0.00     0.147 A 
HETATM   24  C2  UNL     1     -29.341 -13.541  -7.570  1.00  0.00     0.145 A 
HETATM   25  N1  UNL     1     -29.420 -12.276  -7.136  1.00  0.00    -0.194 N 
HETATM   26  C1  UNL     1     -29.169 -11.827  -5.778  1.00  0.00     0.175 C 
HETATM   27  C12 UNL     1     -29.770 -11.465  -8.145  1.00  0.00     0.709 A 
HETATM   28  N8  UNL     1     -29.919 -12.227  -9.256  1.00  0.00    -0.088 N 
HETATM   29  N11 UNL     1     -29.974 -10.131  -8.208  1.00  0.00    -0.021 N 
HETATM   30  C10 UNL     1     -30.269 -11.620 -10.396  1.00  0.00     0.360 A 
HETATM   31  O4  UNL     1     -30.416 -12.293 -11.441  1.00  0.00    -0.245 OA
HETATM   32  N9  UNL     1     -30.478 -10.271 -10.467  1.00  0.00    -0.140 N 
HETATM   33  C11 UNL     1     -30.325  -9.537  -9.360  1.00  0.00     0.694 A 
ATOM     34  H9  UNL     1     -30.745  -9.833 -11.348  1.00  0.00     0.189 HD
ATOM     35  H11 UNL     1     -29.859  -9.566  -7.367  1.00  0.00     0.203 HD
BRANCH  33  36
HETATM   36  N10 UNL     1     -30.524  -8.263  -9.440  1.00  0.00    -0.234 N 
ATOM     37 2H10 UNL     1     -30.176  -7.616  -8.733  1.00  0.00     0.174 HD
ATOM     38 1H10 UNL     1     -31.047  -7.907 -10.239  1.00  0.00     0.174 HD
ENDBRANCH  33  36
ENDBRANCH   1  23
TORSDOF 8
ENDMDL
