MODEL 1
REMARK VINA RESULT: -5.778187058      0.000      0.000
REMARK  2 active torsions:
REMARK  status: ('A' for Active; 'I' for Inactive)
REMARK       I    between atoms: C2_5  and  N4_7 
REMARK    1  A    between atoms: N4_7  and  N5_9 
REMARK    2  A    between atoms: N5_9  and  C3_11 
ROOT
HETATM    1  N1  UNL     1       8.998 -31.282 -22.696  1.00  0.00    -0.172 NA
HETATM    2  C1  UNL     1       7.916 -30.839 -22.818  1.00  0.00     0.184 C 
HETATM    3  N2  UNL     1       6.636 -30.306 -22.941  1.00  0.00    -0.266 N 
ATOM      4  H2  UNL     1       6.496 -29.409 -23.404  1.00  0.00     0.180 HD
HETATM    5  C2  UNL     1       5.631 -30.954 -22.465  1.00  0.00     0.216 C 
HETATM    6  N3  UNL     1       5.855 -32.197 -21.826  1.00  0.00    -0.061 NA
HETATM    7  N4  UNL     1       4.290 -30.419 -22.580  1.00  0.00    -0.259 N 
ATOM      8  H4  UNL     1       4.159 -29.452 -22.873  1.00  0.00     0.190 HD
ENDROOT
BRANCH   7   9
HETATM    9  N5  UNL     1       3.186 -31.201 -22.298  1.00  0.00    -0.129 N 
ATOM     10  H5  UNL     1       2.877 -31.892 -22.982  1.00  0.00     0.205 HD
BRANCH   9  11
HETATM   11  C3  UNL     1       2.517 -31.074 -21.160  1.00  0.00     0.706 A 
HETATM   12  N6  UNL     1       2.864 -30.166 -20.258  1.00  0.00    -0.154 N 
HETATM   13  S1  UNL     1       1.737 -30.404 -19.033  1.00  0.00     0.064 SA
ATOM     14  H6  UNL     1       3.626 -29.489 -20.298  1.00  0.00     0.193 HD
HETATM   15  C4  UNL     1       0.858 -31.677 -19.743  1.00  0.00     0.319 A 
HETATM   16  O1  UNL     1      -0.159 -32.327 -19.304  1.00  0.00    -0.258 OA
HETATM   17  N7  UNL     1       1.488 -31.857 -20.908  1.00  0.00    -0.147 N 
ATOM     18  H7  UNL     1       1.185 -32.569 -21.573  1.00  0.00     0.188 HD
ENDBRANCH   9  11
ENDBRANCH   7   9
TORSDOF 2
ENDMDL
MODEL 2
REMARK VINA RESULT: -5.724307105      3.386      4.717
REMARK  2 active torsions:
REMARK  status: ('A' for Active; 'I' for Inactive)
REMARK       I    between atoms: C2_5  and  N4_7 
REMARK    1  A    between atoms: N4_7  and  N5_9 
REMARK    2  A    between atoms: N5_9  and  C3_11 
ROOT
HETATM    1  N1  UNL     1       1.735 -33.983 -26.689  1.00  0.00    -0.172 NA
HETATM    2  C1  UNL     1       1.507 -33.458 -25.662  1.00  0.00     0.184 C 
HETATM    3  N2  UNL     1       1.251 -32.819 -24.452  1.00  0.00    -0.266 N 
ATOM      4  H2  UNL     1       0.434 -32.217 -24.353  1.00  0.00     0.180 HD
HETATM    5  C2  UNL     1       2.052 -32.993 -23.461  1.00  0.00     0.216 C 
HETATM    6  N3  UNL     1       3.179 -33.834 -23.629  1.00  0.00    -0.061 NA
HETATM    7  N4  UNL     1       1.808 -32.339 -22.193  1.00  0.00    -0.259 N 
ATOM      8  H4  UNL     1       1.107 -31.600 -22.137  1.00  0.00     0.190 HD
ENDROOT
BRANCH   7   9
HETATM    9  N5  UNL     1       2.509 -32.700 -21.059  1.00  0.00    -0.129 N 
ATOM     10  H5  UNL     1       2.461 -33.664 -20.729  1.00  0.00     0.205 HD
BRANCH   9  11
HETATM   11  C3  UNL     1       3.244 -31.823 -20.387  1.00  0.00     0.706 A 
HETATM   12  N6  UNL     1       3.727 -32.110 -19.186  1.00  0.00    -0.154 N 
HETATM   13  S1  UNL     1       4.564 -30.712 -18.773  1.00  0.00     0.064 SA
ATOM     14  H6  UNL     1       3.617 -32.968 -18.644  1.00  0.00     0.193 HD
HETATM   15  C4  UNL     1       4.253 -29.807 -20.182  1.00  0.00     0.319 A 
HETATM   16  O1  UNL     1       4.624 -28.620 -20.502  1.00  0.00    -0.258 OA
HETATM   17  N7  UNL     1       3.507 -30.644 -20.911  1.00  0.00    -0.147 N 
ATOM     18  H7  UNL     1       3.158 -30.380 -21.832  1.00  0.00     0.188 HD
ENDBRANCH   9  11
ENDBRANCH   7   9
TORSDOF 2
ENDMDL
MODEL 3
REMARK VINA RESULT: -5.646861448      3.513      4.771
REMARK  2 active torsions:
REMARK  status: ('A' for Active; 'I' for Inactive)
REMARK       I    between atoms: C2_5  and  N4_7 
REMARK    1  A    between atoms: N4_7  and  N5_9 
REMARK    2  A    between atoms: N5_9  and  C3_11 
ROOT
HETATM    1  N1  UNL     1       1.717 -33.965 -26.730  1.00  0.00    -0.172 NA
HETATM    2  C1  UNL     1       1.500 -33.475 -25.683  1.00  0.00     0.184 C 
HETATM    3  N2  UNL     1       1.258 -32.876 -24.450  1.00  0.00    -0.266 N 
ATOM      4  H2  UNL     1       0.437 -32.285 -24.319  1.00  0.00     0.180 HD
HETATM    5  C2  UNL     1       2.076 -33.074 -23.477  1.00  0.00     0.216 C 
HETATM    6  N3  UNL     1       3.208 -33.898 -23.689  1.00  0.00    -0.061 NA
HETATM    7  N4  UNL     1       1.845 -32.462 -22.186  1.00  0.00    -0.259 N 
ATOM      8  H4  UNL     1       1.139 -31.733 -22.095  1.00  0.00     0.190 HD
ENDROOT
BRANCH   7   9
HETATM    9  N5  UNL     1       2.568 -32.852 -21.074  1.00  0.00    -0.129 N 
ATOM     10  H5  UNL     1       2.473 -33.806 -20.727  1.00  0.00     0.205 HD
BRANCH   9  11
HETATM   11  C3  UNL     1       3.382 -32.014 -20.446  1.00  0.00     0.706 A 
HETATM   12  N6  UNL     1       3.309 -30.705 -20.648  1.00  0.00    -0.154 N 
HETATM   13  S1  UNL     1       4.519 -30.103 -19.647  1.00  0.00     0.064 SA
ATOM     14  H6  UNL     1       2.675 -30.190 -21.259  1.00  0.00     0.193 HD
HETATM   15  C4  UNL     1       5.073 -31.579 -19.005  1.00  0.00     0.319 A 
HETATM   16  O1  UNL     1       6.009 -31.814 -18.157  1.00  0.00    -0.258 OA
HETATM   17  N7  UNL     1       4.284 -32.477 -19.604  1.00  0.00    -0.147 N 
ATOM     18  H7  UNL     1       4.376 -33.475 -19.418  1.00  0.00     0.188 HD
ENDBRANCH   9  11
ENDBRANCH   7   9
TORSDOF 2
ENDMDL
MODEL 4
REMARK VINA RESULT: -5.610058826      1.649      1.817
REMARK  2 active torsions:
REMARK  status: ('A' for Active; 'I' for Inactive)
REMARK       I    between atoms: C2_5  and  N4_7 
REMARK    1  A    between atoms: N4_7  and  N5_9 
REMARK    2  A    between atoms: N5_9  and  C3_11 
ROOT
HETATM    1  N1  UNL     1       7.370 -32.758 -23.345  1.00  0.00    -0.172 NA
HETATM    2  C1  UNL     1       6.592 -31.889 -23.194  1.00  0.00     0.184 C 
HETATM    3  N2  UNL     1       5.690 -30.845 -23.015  1.00  0.00    -0.266 N 
ATOM      4  H2  UNL     1       5.220 -30.429 -23.820  1.00  0.00     0.180 HD
HETATM    5  C2  UNL     1       5.451 -30.408 -21.829  1.00  0.00     0.216 C 
HETATM    6  N3  UNL     1       6.118 -31.004 -20.731  1.00  0.00    -0.061 NA
HETATM    7  N4  UNL     1       4.517 -29.323 -21.618  1.00  0.00    -0.259 N 
ATOM      8  H4  UNL     1       4.185 -28.784 -22.417  1.00  0.00     0.190 HD
ENDROOT
BRANCH   7   9
HETATM    9  N5  UNL     1       4.068 -29.006 -20.350  1.00  0.00    -0.129 N 
ATOM     10  H5  UNL     1       4.227 -28.066 -19.986  1.00  0.00     0.205 HD
BRANCH   9  11
HETATM   11  C3  UNL     1       3.437 -29.893 -19.594  1.00  0.00     0.706 A 
HETATM   12  N6  UNL     1       3.987 -30.361 -18.481  1.00  0.00    -0.154 N 
HETATM   13  S1  UNL     1       2.820 -31.426 -17.905  1.00  0.00     0.064 SA
ATOM     14  H6  UNL     1       4.893 -30.131 -18.074  1.00  0.00     0.193 HD
HETATM   15  C4  UNL     1       1.662 -31.221 -19.136  1.00  0.00     0.319 A 
HETATM   16  O1  UNL     1       0.510 -31.768 -19.288  1.00  0.00    -0.258 OA
HETATM   17  N7  UNL     1       2.243 -30.327 -19.942  1.00  0.00    -0.147 N 
ATOM     18  H7  UNL     1       1.782 -29.995 -20.789  1.00  0.00     0.188 HD
ENDBRANCH   9  11
ENDBRANCH   7   9
TORSDOF 2
ENDMDL
MODEL 5
REMARK VINA RESULT: -5.545939446      1.912      2.323
REMARK  2 active torsions:
REMARK  status: ('A' for Active; 'I' for Inactive)
REMARK       I    between atoms: C2_5  and  N4_7 
REMARK    1  A    between atoms: N4_7  and  N5_9 
REMARK    2  A    between atoms: N5_9  and  C3_11 
ROOT
HETATM    1  N1  UNL     1       7.489 -31.314 -22.621  1.00  0.00    -0.172 NA
HETATM    2  C1  UNL     1       6.742 -30.616 -22.040  1.00  0.00     0.184 C 
HETATM    3  N2  UNL     1       5.875 -29.783 -21.338  1.00  0.00    -0.266 N 
ATOM      4  H2  UNL     1       5.682 -28.840 -21.677  1.00  0.00     0.180 HD
HETATM    5  C2  UNL     1       5.320 -30.209 -20.259  1.00  0.00     0.216 C 
HETATM    6  N3  UNL     1       5.608 -31.521 -19.811  1.00  0.00    -0.061 NA
HETATM    7  N4  UNL     1       4.416 -29.361 -19.511  1.00  0.00    -0.259 N 
ATOM      8  H4  UNL     1       4.358 -28.368 -19.736  1.00  0.00     0.190 HD
ENDROOT
BRANCH   7   9
HETATM    9  N5  UNL     1       3.630 -29.876 -18.498  1.00  0.00    -0.129 N 
ATOM     10  H5  UNL     1       3.716 -29.491 -17.557  1.00  0.00     0.205 HD
BRANCH   9  11
HETATM   11  C3  UNL     1       2.768 -30.859 -18.718  1.00  0.00     0.706 A 
HETATM   12  N6  UNL     1       2.996 -32.086 -18.268  1.00  0.00    -0.154 N 
HETATM   13  S1  UNL     1       1.645 -32.936 -18.795  1.00  0.00     0.064 SA
ATOM     14  H6  UNL     1       3.794 -32.429 -17.733  1.00  0.00     0.193 HD
HETATM   15  C4  UNL     1       0.835 -31.662 -19.581  1.00  0.00     0.319 A 
HETATM   16  O1  UNL     1      -0.286 -31.654 -20.207  1.00  0.00    -0.258 OA
HETATM   17  N7  UNL     1       1.662 -30.627 -19.395  1.00  0.00    -0.147 N 
ATOM     18  H7  UNL     1       1.445 -29.700 -19.759  1.00  0.00     0.188 HD
ENDBRANCH   9  11
ENDBRANCH   7   9
TORSDOF 2
ENDMDL
