MODEL 1
REMARK VINA RESULT: -6.027067678      0.000      0.000
REMARK  1 active torsions:
REMARK  status: ('A' for Active; 'I' for Inactive)
REMARK       I    between atoms: C2_2  and  N1_4 
REMARK    1  A    between atoms: N1_4  and  C3_6 
ROOT
HETATM    1  C3  UNL     1       2.432 -31.829 -21.556  1.00  0.00     0.278 C 
HETATM    2  N2  UNL     1       3.603 -32.525 -21.202  1.00  0.00    -0.365 N 
ATOM      3  H2  UNL     1       3.620 -33.545 -21.188  1.00  0.00     0.162 HD
HETATM    4  C4  UNL     1       4.754 -31.779 -20.865  1.00  0.00     0.139 C 
HETATM    5  S1  UNL     1       4.651 -30.822 -19.337  1.00  0.00    -0.049 SA
HETATM    6  C5  UNL     1       3.184 -31.366 -18.468  1.00  0.00     0.145 C 
HETATM    7  N3  UNL     1       3.302 -31.705 -17.220  1.00  0.00    -0.380 N 
ATOM      8  H31 UNL     1       2.466 -32.016 -16.726  1.00  0.00     0.158 HD
ATOM      9  H32 UNL     1       4.230 -31.644 -16.800  1.00  0.00     0.158 HD
HETATM   10  N4  UNL     1       1.885 -31.452 -19.057  1.00  0.00    -0.304 N 
ATOM     11  H4  UNL     1       1.110 -31.440 -18.394  1.00  0.00     0.171 HD
HETATM   12  C6  UNL     1       1.505 -31.551 -20.428  1.00  0.00     0.266 C 
HETATM   13  O2  UNL     1       0.283 -31.387 -20.668  1.00  0.00    -0.269 OA
ENDROOT
BRANCH   1  14
HETATM   14  N1  UNL     1       1.702 -32.458 -22.634  1.00  0.00    -0.332 N 
HETATM   15  C2  UNL     1       2.175 -32.628 -23.935  1.00  0.00     0.215 C 
HETATM   16  C1  UNL     1       1.348 -33.287 -24.969  1.00  0.00     0.117 C 
HETATM   17  O1  UNL     1       3.323 -32.221 -24.254  1.00  0.00    -0.274 OA
ATOM     18  H1  UNL     1       0.766 -32.805 -22.426  1.00  0.00     0.165 HD
ENDBRANCH   1  14
TORSDOF 1
ENDMDL
MODEL 2
REMARK VINA RESULT: -5.616335041      2.376      2.849
REMARK  1 active torsions:
REMARK  status: ('A' for Active; 'I' for Inactive)
REMARK       I    between atoms: C2_2  and  N1_4 
REMARK    1  A    between atoms: N1_4  and  C3_6 
ROOT
HETATM    1  C3  UNL     1       3.922 -31.044 -21.831  1.00  0.00     0.278 C 
HETATM    2  N2  UNL     1       2.556 -31.336 -21.659  1.00  0.00    -0.365 N 
ATOM      3  H2  UNL     1       1.843 -30.812 -22.163  1.00  0.00     0.162 HD
HETATM    4  C4  UNL     1       2.198 -32.374 -20.769  1.00  0.00     0.139 C 
HETATM    5  S1  UNL     1       2.531 -32.061 -19.022  1.00  0.00    -0.049 SA
HETATM    6  C5  UNL     1       2.934 -30.325 -18.862  1.00  0.00     0.145 C 
HETATM    7  N3  UNL     1       2.300 -29.630 -17.966  1.00  0.00    -0.380 N 
ATOM      8  H31 UNL     1       2.530 -28.641 -17.875  1.00  0.00     0.158 HD
ATOM      9  H32 UNL     1       1.602 -30.113 -17.400  1.00  0.00     0.158 HD
HETATM   10  N4  UNL     1       3.911 -29.648 -19.654  1.00  0.00    -0.304 N 
ATOM     11  H4  UNL     1       4.277 -28.788 -19.246  1.00  0.00     0.171 HD
HETATM   12  C6  UNL     1       4.455 -29.990 -20.928  1.00  0.00     0.266 C 
HETATM   13  O2  UNL     1       5.462 -29.330 -21.286  1.00  0.00    -0.269 OA
ENDROOT
BRANCH   1  14
HETATM   14  N1  UNL     1       4.265 -30.723 -23.198  1.00  0.00    -0.332 N 
HETATM   15  C2  UNL     1       3.980 -31.517 -24.308  1.00  0.00     0.215 C 
HETATM   16  C1  UNL     1       4.374 -31.097 -25.671  1.00  0.00     0.117 C 
HETATM   17  O1  UNL     1       3.376 -32.613 -24.169  1.00  0.00    -0.274 OA
ATOM     18  H1  UNL     1       4.756 -29.845 -23.364  1.00  0.00     0.165 HD
ENDBRANCH   1  14
TORSDOF 1
ENDMDL
MODEL 3
REMARK VINA RESULT: -5.405513717      2.255      3.534
REMARK  1 active torsions:
REMARK  status: ('A' for Active; 'I' for Inactive)
REMARK       I    between atoms: C2_2  and  N1_4 
REMARK    1  A    between atoms: N1_4  and  C3_6 
ROOT
HETATM    1  C3  UNL     1       3.721 -31.147 -21.544  1.00  0.00     0.278 C 
HETATM    2  N2  UNL     1       3.896 -31.346 -20.162  1.00  0.00    -0.365 N 
ATOM      3  H2  UNL     1       4.379 -32.172 -19.810  1.00  0.00     0.162 HD
HETATM    4  C4  UNL     1       3.386 -30.373 -19.273  1.00  0.00     0.139 C 
HETATM    5  S1  UNL     1       1.587 -30.238 -19.204  1.00  0.00    -0.049 SA
HETATM    6  C5  UNL     1       0.915 -31.655 -20.068  1.00  0.00     0.145 C 
HETATM    7  N3  UNL     1       0.013 -32.368 -19.465  1.00  0.00    -0.380 N 
ATOM      8  H31 UNL     1      -0.369 -33.175 -19.957  1.00  0.00     0.158 HD
ATOM      9  H32 UNL     1      -0.266 -32.082 -18.526  1.00  0.00     0.158 HD
HETATM   10  N4  UNL     1       1.306 -32.056 -21.382  1.00  0.00    -0.304 N 
ATOM     11  H4  UNL     1       0.630 -32.641 -21.873  1.00  0.00     0.171 HD
HETATM   12  C6  UNL     1       2.495 -31.764 -22.114  1.00  0.00     0.266 C 
HETATM   13  O2  UNL     1       2.472 -32.065 -23.334  1.00  0.00    -0.269 OA
ENDROOT
BRANCH   1  14
HETATM   14  N1  UNL     1       4.869 -31.551 -22.325  1.00  0.00    -0.332 N 
HETATM   15  C2  UNL     1       6.123 -30.942 -22.289  1.00  0.00     0.215 C 
HETATM   16  C1  UNL     1       7.237 -31.433 -23.129  1.00  0.00     0.117 C 
HETATM   17  O1  UNL     1       6.330 -29.955 -21.535  1.00  0.00    -0.274 OA
ATOM     18  H1  UNL     1       4.752 -32.346 -22.952  1.00  0.00     0.165 HD
ENDBRANCH   1  14
TORSDOF 1
ENDMDL
MODEL 4
REMARK VINA RESULT: -5.389557893      2.054      2.603
REMARK  1 active torsions:
REMARK  status: ('A' for Active; 'I' for Inactive)
REMARK       I    between atoms: C2_2  and  N1_4 
REMARK    1  A    between atoms: N1_4  and  C3_6 
ROOT
HETATM    1  C3  UNL     1       3.262 -32.386 -21.334  1.00  0.00     0.278 C 
HETATM    2  N2  UNL     1       2.687 -31.112 -21.499  1.00  0.00    -0.365 N 
ATOM      3  H2  UNL     1       3.034 -30.472 -22.213  1.00  0.00     0.162 HD
HETATM    4  C4  UNL     1       1.619 -30.742 -20.653  1.00  0.00     0.139 C 
HETATM    5  S1  UNL     1       2.038 -30.519 -18.910  1.00  0.00    -0.049 SA
HETATM    6  C5  UNL     1       3.824 -30.506 -18.792  1.00  0.00     0.145 C 
HETATM    7  N3  UNL     1       4.388 -29.527 -18.152  1.00  0.00    -0.380 N 
ATOM      8  H31 UNL     1       5.405 -29.519 -18.085  1.00  0.00     0.158 HD
ATOM      9  H32 UNL     1       3.779 -28.813 -17.750  1.00  0.00     0.158 HD
HETATM   10  N4  UNL     1       4.676 -31.505 -19.356  1.00  0.00    -0.304 N 
ATOM     11  H4  UNL     1       5.604 -31.566 -18.938  1.00  0.00     0.171 HD
HETATM   12  C6  UNL     1       4.428 -32.431 -20.412  1.00  0.00     0.266 C 
HETATM   13  O2  UNL     1       5.281 -33.343 -20.549  1.00  0.00    -0.269 OA
ENDROOT
BRANCH   1  14
HETATM   14  N1  UNL     1       3.617 -33.016 -22.587  1.00  0.00    -0.332 N 
HETATM   15  C2  UNL     1       2.779 -33.131 -23.695  1.00  0.00     0.215 C 
HETATM   16  C1  UNL     1       3.238 -33.795 -24.935  1.00  0.00     0.117 C 
HETATM   17  O1  UNL     1       1.608 -32.669 -23.660  1.00  0.00    -0.274 OA
ATOM     18  H1  UNL     1       4.555 -33.406 -22.665  1.00  0.00     0.165 HD
ENDBRANCH   1  14
TORSDOF 1
ENDMDL
MODEL 5
REMARK VINA RESULT: -5.360558910      2.198      2.676
REMARK  1 active torsions:
REMARK  status: ('A' for Active; 'I' for Inactive)
REMARK       I    between atoms: C2_2  and  N1_4 
REMARK    1  A    between atoms: N1_4  and  C3_6 
ROOT
HETATM    1  C3  UNL     1       2.629 -32.226 -22.234  1.00  0.00     0.278 C 
HETATM    2  N2  UNL     1       1.890 -31.875 -21.089  1.00  0.00    -0.365 N 
ATOM      3  H2  UNL     1       0.992 -31.399 -21.172  1.00  0.00     0.162 HD
HETATM    4  C4  UNL     1       2.422 -32.198 -19.821  1.00  0.00     0.139 C 
HETATM    5  S1  UNL     1       3.917 -31.303 -19.345  1.00  0.00    -0.049 SA
HETATM    6  C5  UNL     1       4.130 -29.966 -20.516  1.00  0.00     0.145 C 
HETATM    7  N3  UNL     1       4.315 -28.768 -20.050  1.00  0.00    -0.380 N 
ATOM      8  H31 UNL     1       4.436 -28.007 -20.717  1.00  0.00     0.158 HD
ATOM      9  H32 UNL     1       4.328 -28.652 -19.036  1.00  0.00     0.158 HD
HETATM   10  N4  UNL     1       4.112 -30.129 -21.935  1.00  0.00    -0.304 N 
ATOM     11  H4  UNL     1       4.572 -29.385 -22.460  1.00  0.00     0.171 HD
HETATM   12  C6  UNL     1       3.550 -31.170 -22.731  1.00  0.00     0.266 C 
HETATM   13  O2  UNL     1       3.877 -31.167 -23.944  1.00  0.00    -0.269 OA
ENDROOT
BRANCH   1  14
HETATM   14  N1  UNL     1       1.800 -32.691 -23.324  1.00  0.00    -0.332 N 
HETATM   15  C2  UNL     1       2.049 -33.823 -24.099  1.00  0.00     0.215 C 
HETATM   16  C1  UNL     1       1.136 -34.217 -25.194  1.00  0.00     0.117 C 
HETATM   17  O1  UNL     1       3.064 -34.536 -23.878  1.00  0.00    -0.274 OA
ATOM     18  H1  UNL     1       0.965 -32.148 -23.542  1.00  0.00     0.165 HD
ENDBRANCH   1  14
TORSDOF 1
ENDMDL
