MODEL 1
REMARK VINA RESULT: -7.060557691      0.000      0.000
REMARK  4 active torsions:
REMARK  status: ('A' for Active; 'I' for Inactive)
REMARK    1  A    between atoms: N1_1  and  N2_4 
REMARK    2  A    between atoms: N2_4  and  C1_5 
REMARK    3  A    between atoms: C1_5  and  O1_6 
REMARK    4  A    between atoms: C1_5  and  C2_8 
ROOT
HETATM    1  C2  UNL     1       2.447 -31.227 -19.545  1.00  0.00     0.140 A 
HETATM    2  C3  UNL     1       3.586 -31.211 -20.289  1.00  0.00     0.139 A 
HETATM    3  N3  UNL     1       4.820 -30.776 -19.744  1.00  0.00    -0.081 NA
HETATM    4  N4  UNL     1       3.549 -31.624 -21.564  1.00  0.00    -0.320 N 
ATOM      5  H4  UNL     1       4.405 -31.613 -22.120  1.00  0.00     0.169 HD
HETATM    6  C4  UNL     1       2.387 -32.059 -22.132  1.00  0.00     0.179 A 
HETATM    7  S1  UNL     1       2.359 -32.562 -23.698  1.00  0.00    -0.040 SA
HETATM    8  N5  UNL     1       1.267 -32.071 -21.393  1.00  0.00    -0.299 N 
ATOM      9  H5  UNL     1       0.394 -32.395 -21.812  1.00  0.00     0.171 HD
HETATM   10  C5  UNL     1       1.273 -31.665 -20.113  1.00  0.00     0.266 A 
HETATM   11  O2  UNL     1       0.249 -31.666 -19.404  1.00  0.00    -0.267 OA
ENDROOT
BRANCH   1  12
HETATM   12  C1  UNL     1       2.482 -30.750 -18.139  1.00  0.00     0.257 C 
BRANCH  12  13
HETATM   13  N2  UNL     1       2.737 -31.551 -17.101  1.00  0.00    -0.306 NA
BRANCH  13  14
HETATM   14  N1  UNL     1       2.987 -32.334 -16.087  1.00  0.00    -0.278 N 
ATOM     15  H12 UNL     1       2.820 -31.705 -16.872  1.00  0.00     0.191 HD
ATOM     16  H11 UNL     1       3.182 -32.946 -15.295  1.00  0.00     0.191 HD
ENDBRANCH  13  14
ENDBRANCH  12  13
BRANCH  12  17
HETATM   17  O1  UNL     1       2.233 -29.470 -18.048  1.00  0.00    -0.333 OA
ATOM     18  H1  UNL     1       1.368 -29.080 -18.115  1.00  0.00     0.220 HD
ENDBRANCH  12  17
ENDBRANCH   1  12
TORSDOF 4
ENDMDL
MODEL 2
REMARK VINA RESULT: -7.012989520      1.140      2.260
REMARK  4 active torsions:
REMARK  status: ('A' for Active; 'I' for Inactive)
REMARK    1  A    between atoms: N1_1  and  N2_4 
REMARK    2  A    between atoms: N2_4  and  C1_5 
REMARK    3  A    between atoms: C1_5  and  O1_6 
REMARK    4  A    between atoms: C1_5  and  C2_8 
ROOT
HETATM    1  C2  UNL     1       2.393 -31.082 -19.777  1.00  0.00     0.140 A 
HETATM    2  C3  UNL     1       1.288 -31.687 -20.291  1.00  0.00     0.139 A 
HETATM    3  N3  UNL     1       0.108 -31.849 -19.522  1.00  0.00    -0.081 NA
HETATM    4  N4  UNL     1       1.305 -32.132 -21.556  1.00  0.00    -0.320 N 
ATOM      5  H4  UNL     1       0.474 -32.583 -21.940  1.00  0.00     0.169 HD
HETATM    6  C4  UNL     1       2.414 -31.992 -22.338  1.00  0.00     0.179 A 
HETATM    7  S1  UNL     1       2.418 -32.545 -23.887  1.00  0.00    -0.040 SA
HETATM    8  N5  UNL     1       3.501 -31.395 -21.825  1.00  0.00    -0.299 N 
ATOM      9  H5  UNL     1       4.334 -31.288 -22.405  1.00  0.00     0.171 HD
HETATM   10  C5  UNL     1       3.513 -30.938 -20.563  1.00  0.00     0.266 A 
HETATM   11  O2  UNL     1       4.507 -30.381 -20.061  1.00  0.00    -0.267 OA
ENDROOT
BRANCH   1  12
HETATM   12  C1  UNL     1       2.383 -30.607 -18.370  1.00  0.00     0.257 C 
BRANCH  12  13
HETATM   13  N2  UNL     1       2.755 -31.368 -17.339  1.00  0.00    -0.306 NA
BRANCH  13  14
HETATM   14  N1  UNL     1       3.119 -32.112 -16.330  1.00  0.00    -0.278 N 
ATOM     15  H12 UNL     1       2.804 -31.528 -17.104  1.00  0.00     0.191 HD
ATOM     16  H11 UNL     1       3.405 -32.693 -15.541  1.00  0.00     0.191 HD
ENDBRANCH  13  14
ENDBRANCH  12  13
BRANCH  12  17
HETATM   17  O1  UNL     1       1.968 -29.370 -18.272  1.00  0.00    -0.333 OA
ATOM     18  H1  UNL     1       1.823 -28.788 -19.009  1.00  0.00     0.220 HD
ENDBRANCH  12  17
ENDBRANCH   1  12
TORSDOF 4
ENDMDL
MODEL 3
REMARK VINA RESULT: -6.242474920      1.535      2.399
REMARK  4 active torsions:
REMARK  status: ('A' for Active; 'I' for Inactive)
REMARK    1  A    between atoms: N1_1  and  N2_4 
REMARK    2  A    between atoms: N2_4  and  C1_5 
REMARK    3  A    between atoms: C1_5  and  O1_6 
REMARK    4  A    between atoms: C1_5  and  C2_8 
ROOT
HETATM    1  C2  UNL     1       3.179 -31.494 -19.146  1.00  0.00     0.140 A 
HETATM    2  C3  UNL     1       2.538 -32.594 -19.624  1.00  0.00     0.139 A 
HETATM    3  N3  UNL     1       1.537 -33.254 -18.868  1.00  0.00    -0.081 NA
HETATM    4  N4  UNL     1       2.847 -33.064 -20.842  1.00  0.00    -0.320 N 
ATOM      5  H4  UNL     1       2.364 -33.888 -21.200  1.00  0.00     0.169 HD
HETATM    6  C4  UNL     1       3.799 -32.458 -21.610  1.00  0.00     0.179 A 
HETATM    7  S1  UNL     1       4.167 -33.048 -23.102  1.00  0.00    -0.040 SA
HETATM    8  N5  UNL     1       4.429 -31.375 -21.133  1.00  0.00    -0.299 N 
ATOM      9  H5  UNL     1       5.141 -30.918 -21.702  1.00  0.00     0.171 HD
HETATM   10  C5  UNL     1       4.139 -30.880 -19.918  1.00  0.00     0.266 A 
HETATM   11  O2  UNL     1       4.707 -29.876 -19.450  1.00  0.00    -0.267 OA
ENDROOT
BRANCH   1  12
HETATM   12  C1  UNL     1       2.853 -30.985 -17.790  1.00  0.00     0.257 C 
BRANCH  12  13
HETATM   13  N2  UNL     1       2.816 -31.763 -16.706  1.00  0.00    -0.306 NA
BRANCH  13  14
HETATM   14  N1  UNL     1       2.781 -32.524 -15.645  1.00  0.00    -0.278 N 
ATOM     15  H12 UNL     1       2.824 -31.906 -16.455  1.00  0.00     0.191 HD
ATOM     16  H11 UNL     1       2.753 -33.119 -14.817  1.00  0.00     0.191 HD
ENDBRANCH  13  14
ENDBRANCH  12  13
BRANCH  12  17
HETATM   17  O1  UNL     1       2.608 -29.700 -17.793  1.00  0.00    -0.333 OA
ATOM     18  H1  UNL     1       3.243 -29.027 -17.576  1.00  0.00     0.220 HD
ENDBRANCH  12  17
ENDBRANCH   1  12
TORSDOF 4
ENDMDL
MODEL 4
REMARK VINA RESULT: -6.230165125      1.984      2.775
REMARK  4 active torsions:
REMARK  status: ('A' for Active; 'I' for Inactive)
REMARK    1  A    between atoms: N1_1  and  N2_4 
REMARK    2  A    between atoms: N2_4  and  C1_5 
REMARK    3  A    between atoms: C1_5  and  O1_6 
REMARK    4  A    between atoms: C1_5  and  C2_8 
ROOT
HETATM    1  C2  UNL     1       2.374 -32.214 -20.330  1.00  0.00     0.140 A 
HETATM    2  C3  UNL     1       1.329 -31.868 -21.130  1.00  0.00     0.139 A 
HETATM    3  N3  UNL     1       0.155 -31.277 -20.600  1.00  0.00    -0.081 NA
HETATM    4  N4  UNL     1       1.410 -32.079 -22.452  1.00  0.00    -0.320 N 
ATOM      5  H4  UNL     1       0.627 -31.817 -23.051  1.00  0.00     0.169 HD
HETATM    6  C4  UNL     1       2.523 -32.638 -23.010  1.00  0.00     0.179 A 
HETATM    7  S1  UNL     1       2.605 -32.891 -24.634  1.00  0.00    -0.040 SA
HETATM    8  N5  UNL     1       3.549 -32.978 -22.216  1.00  0.00    -0.299 N 
ATOM      9  H5  UNL     1       4.383 -33.397 -22.627  1.00  0.00     0.171 HD
HETATM   10  C5  UNL     1       3.497 -32.777 -20.889  1.00  0.00     0.266 A 
HETATM   11  O2  UNL     1       4.434 -33.083 -20.127  1.00  0.00    -0.267 OA
ENDROOT
BRANCH   1  12
HETATM   12  C1  UNL     1       2.277 -32.000 -18.863  1.00  0.00     0.257 C 
BRANCH  12  13
HETATM   13  N2  UNL     1       2.316 -30.791 -18.297  1.00  0.00    -0.306 NA
BRANCH  13  14
HETATM   14  N1  UNL     1       2.353 -29.610 -17.742  1.00  0.00    -0.278 N 
ATOM     15  H12 UNL     1       2.316 -30.546 -18.145  1.00  0.00     0.191 HD
ATOM     16  H11 UNL     1       2.382 -28.687 -17.309  1.00  0.00     0.191 HD
ENDBRANCH  13  14
ENDBRANCH  12  13
BRANCH  12  17
HETATM   17  O1  UNL     1       2.155 -33.126 -18.210  1.00  0.00    -0.333 OA
ATOM     18  H1  UNL     1       1.329 -33.561 -18.031  1.00  0.00     0.220 HD
ENDBRANCH  12  17
ENDBRANCH   1  12
TORSDOF 4
ENDMDL
MODEL 5
REMARK VINA RESULT: -6.186155139      1.203      1.203
REMARK  4 active torsions:
REMARK  status: ('A' for Active; 'I' for Inactive)
REMARK    1  A    between atoms: N1_1  and  N2_4 
REMARK    2  A    between atoms: N2_4  and  C1_5 
REMARK    3  A    between atoms: C1_5  and  O1_6 
REMARK    4  A    between atoms: C1_5  and  C2_8 
ROOT
HETATM    1  C2  UNL     1       3.109 -31.551 -19.168  1.00  0.00     0.140 A 
HETATM    2  C3  UNL     1       4.084 -30.958 -19.909  1.00  0.00     0.139 A 
HETATM    3  N3  UNL     1       4.831 -29.863 -19.408  1.00  0.00    -0.081 NA
HETATM    4  N4  UNL     1       4.356 -31.422 -21.137  1.00  0.00    -0.320 N 
ATOM      5  H4  UNL     1       5.089 -30.978 -21.690  1.00  0.00     0.169 HD
HETATM    6  C4  UNL     1       3.669 -32.479 -21.660  1.00  0.00     0.179 A 
HETATM    7  S1  UNL     1       4.015 -33.035 -23.170  1.00  0.00    -0.040 SA
HETATM    8  N5  UNL     1       2.708 -33.058 -20.925  1.00  0.00    -0.299 N 
ATOM      9  H5  UNL     1       2.191 -33.849 -21.311  1.00  0.00     0.171 HD
HETATM   10  C5  UNL     1       2.414 -32.617 -19.692  1.00  0.00     0.266 A 
HETATM   11  O2  UNL     1       1.528 -33.135 -18.987  1.00  0.00    -0.267 OA
ENDROOT
BRANCH   1  12
HETATM   12  C1  UNL     1       2.792 -31.025 -17.816  1.00  0.00     0.257 C 
BRANCH  12  13
HETATM   13  N2  UNL     1       2.794 -31.784 -16.717  1.00  0.00    -0.306 NA
BRANCH  13  14
HETATM   14  N1  UNL     1       2.796 -32.527 -15.644  1.00  0.00    -0.278 N 
ATOM     15  H12 UNL     1       2.811 -31.972 -16.499  1.00  0.00     0.191 HD
ATOM     16  H11 UNL     1       2.797 -33.107 -14.805  1.00  0.00     0.191 HD
ENDBRANCH  13  14
ENDBRANCH  12  13
BRANCH  12  17
HETATM   17  O1  UNL     1       2.513 -29.748 -17.838  1.00  0.00    -0.333 OA
ATOM     18  H1  UNL     1       1.671 -29.381 -18.083  1.00  0.00     0.220 HD
ENDBRANCH  12  17
ENDBRANCH   1  12
TORSDOF 4
ENDMDL
