MODEL 1
REMARK VINA RESULT: -6.264244218      0.000      0.000
REMARK  4 active torsions:
REMARK  status: ('A' for Active; 'I' for Inactive)
REMARK    1  A    between atoms: N1_1  and  C1_4 
REMARK    2  A    between atoms: C2_5  and  N2_6 
REMARK    3  A    between atoms: C4_12  and  N4_13 
REMARK    4  A    between atoms: N4_13  and  N5_15 
ROOT
HETATM    1  C1  UNL     1       2.459 -30.633 -19.542  1.00  0.00     0.130 C 
HETATM    2  C2  UNL     1       3.648 -30.379 -20.179  1.00  0.00     0.150 C 
HETATM    3  C3  UNL     1       3.977 -30.659 -21.487  1.00  0.00     0.144 C 
HETATM    4  N3  UNL     1       3.197 -31.316 -22.395  1.00  0.00    -0.198 N 
ATOM      5  H3  UNL     1       3.527 -31.278 -23.360  1.00  0.00     0.183 HD
HETATM    6  C4  UNL     1       2.062 -32.003 -22.205  1.00  0.00     0.699 C 
HETATM    7  N6  UNL     1       1.158 -31.838 -21.225  1.00  0.00    -0.153 N 
ATOM      8  H6  UNL     1       0.213 -32.155 -21.444  1.00  0.00     0.187 HD
HETATM    9  C5  UNL     1       1.325 -31.306 -19.980  1.00  0.00     0.288 C 
HETATM   10  O3  UNL     1       0.390 -31.425 -19.153  1.00  0.00    -0.265 OA
ENDROOT
BRANCH   6  11
HETATM   11  N4  UNL     1       1.784 -32.933 -23.039  1.00  0.00    -0.138 N 
ATOM     12  H4  UNL     1       0.922 -32.883 -23.582  1.00  0.00     0.205 HD
BRANCH  11  13
HETATM   13  N5  UNL     1       2.646 -34.016 -23.213  1.00  0.00    -0.331 N 
ATOM     14  H52 UNL     1       2.325 -34.945 -22.944  1.00  0.00     0.177 HD
ATOM     15  H51 UNL     1       3.579 -33.880 -23.602  1.00  0.00     0.177 HD
ENDBRANCH  11  13
ENDBRANCH   6  11
BRANCH   2  16
HETATM   16  N2  UNL     1       4.620 -29.756 -19.347  1.00  0.00    -0.112 N 
HETATM   17  O1  UNL     1       4.990 -28.583 -19.504  1.00  0.00    -0.532 OA
HETATM   18  O2  UNL     1       5.142 -30.550 -18.331  1.00  0.00    -0.532 OA
ENDBRANCH   2  16
BRANCH   1  19
HETATM   19  N1  UNL     1       2.368 -30.176 -18.344  1.00  0.00    -0.393 N 
ATOM     20  H12 UNL     1       1.492 -29.690 -18.148  1.00  0.00     0.156 HD
ATOM     21  H11 UNL     1       3.176 -30.354 -17.747  1.00  0.00     0.156 HD
ENDBRANCH   1  19
TORSDOF 4
ENDMDL
MODEL 2
REMARK VINA RESULT: -6.178464653      2.169      4.649
REMARK  4 active torsions:
REMARK  status: ('A' for Active; 'I' for Inactive)
REMARK    1  A    between atoms: N1_1  and  C1_4 
REMARK    2  A    between atoms: C2_5  and  N2_6 
REMARK    3  A    between atoms: C4_12  and  N4_13 
REMARK    4  A    between atoms: N4_13  and  N5_15 
ROOT
HETATM    1  C1  UNL     1       2.414 -31.817 -20.695  1.00  0.00     0.130 C 
HETATM    2  C2  UNL     1       1.585 -31.131 -19.843  1.00  0.00     0.150 C 
HETATM    3  C3  UNL     1       1.939 -30.431 -18.711  1.00  0.00     0.144 C 
HETATM    4  N3  UNL     1       3.191 -30.343 -18.170  1.00  0.00    -0.198 N 
ATOM      5  H3  UNL     1       3.300 -29.642 -17.437  1.00  0.00     0.183 HD
HETATM    6  C4  UNL     1       4.295 -31.043 -18.463  1.00  0.00     0.699 C 
HETATM    7  N6  UNL     1       4.605 -31.638 -19.626  1.00  0.00    -0.153 N 
ATOM      8  H6  UNL     1       5.602 -31.778 -19.795  1.00  0.00     0.187 HD
HETATM    9  C5  UNL     1       3.776 -32.081 -20.615  1.00  0.00     0.288 C 
HETATM   10  O3  UNL     1       4.265 -32.784 -21.531  1.00  0.00    -0.265 OA
ENDROOT
BRANCH   6  11
HETATM   11  N4  UNL     1       5.175 -31.177 -17.542  1.00  0.00    -0.138 N 
ATOM     12  H4  UNL     1       5.149 -30.566 -16.726  1.00  0.00     0.205 HD
BRANCH  11  13
HETATM   13  N5  UNL     1       6.170 -32.149 -17.644  1.00  0.00    -0.331 N 
ATOM     14  H52 UNL     1       6.637 -32.278 -18.542  1.00  0.00     0.177 HD
ATOM     15  H51 UNL     1       6.425 -32.718 -16.838  1.00  0.00     0.177 HD
ENDBRANCH  11  13
ENDBRANCH   6  11
BRANCH   2  16
HETATM   16  N2  UNL     1       0.214 -31.179 -20.217  1.00  0.00    -0.112 N 
HETATM   17  O1  UNL     1      -0.308 -30.352 -20.979  1.00  0.00    -0.532 OA
HETATM   18  O2  UNL     1      -0.523 -32.224 -19.669  1.00  0.00    -0.532 OA
ENDBRANCH   2  16
BRANCH   1  19
HETATM   19  N1  UNL     1       1.847 -32.299 -21.744  1.00  0.00    -0.393 N 
ATOM     20  H12 UNL     1       1.200 -31.655 -22.201  1.00  0.00     0.156 HD
ATOM     21  H11 UNL     1       2.113 -33.254 -21.984  1.00  0.00     0.156 HD
ENDBRANCH   1  19
TORSDOF 4
ENDMDL
MODEL 3
REMARK VINA RESULT: -6.153101637      2.383      3.168
REMARK  4 active torsions:
REMARK  status: ('A' for Active; 'I' for Inactive)
REMARK    1  A    between atoms: N1_1  and  C1_4 
REMARK    2  A    between atoms: C2_5  and  N2_6 
REMARK    3  A    between atoms: C4_12  and  N4_13 
REMARK    4  A    between atoms: N4_13  and  N5_15 
ROOT
HETATM    1  C1  UNL     1       3.748 -31.169 -21.657  1.00  0.00     0.130 C 
HETATM    2  C2  UNL     1       4.469 -30.781 -20.555  1.00  0.00     0.150 C 
HETATM    3  C3  UNL     1       4.527 -31.404 -19.328  1.00  0.00     0.144 C 
HETATM    4  N3  UNL     1       3.814 -32.503 -18.943  1.00  0.00    -0.198 N 
ATOM      5  H3  UNL     1       4.113 -32.931 -18.066  1.00  0.00     0.183 HD
HETATM    6  C4  UNL     1       2.779 -33.102 -19.548  1.00  0.00     0.699 C 
HETATM    7  N6  UNL     1       2.485 -33.103 -20.858  1.00  0.00    -0.153 N 
ATOM      8  H6  UNL     1       1.923 -33.892 -21.179  1.00  0.00     0.187 HD
HETATM    9  C5  UNL     1       2.830 -32.199 -21.820  1.00  0.00     0.288 C 
HETATM   10  O3  UNL     1       2.284 -32.290 -22.945  1.00  0.00    -0.265 OA
ENDROOT
BRANCH   6  11
HETATM   11  N4  UNL     1       1.959 -33.756 -18.814  1.00  0.00    -0.138 N 
ATOM     12  H4  UNL     1       1.297 -33.252 -18.224  1.00  0.00     0.205 HD
BRANCH  11  13
HETATM   13  N5  UNL     1       1.962 -35.151 -18.811  1.00  0.00    -0.331 N 
ATOM     14  H52 UNL     1       2.141 -35.641 -19.688  1.00  0.00     0.177 HD
ATOM     15  H51 UNL     1       1.787 -35.670 -17.951  1.00  0.00     0.177 HD
ENDBRANCH  11  13
ENDBRANCH   6  11
BRANCH   2  16
HETATM   16  N2  UNL     1       5.224 -29.593 -20.756  1.00  0.00    -0.112 N 
HETATM   17  O1  UNL     1       4.846 -28.478 -20.364  1.00  0.00    -0.532 OA
HETATM   18  O2  UNL     1       6.432 -29.752 -21.428  1.00  0.00    -0.532 OA
ENDBRANCH   2  16
BRANCH   1  19
HETATM   19  N1  UNL     1       3.949 -30.473 -22.719  1.00  0.00    -0.393 N 
ATOM     20  H12 UNL     1       4.869 -30.034 -22.761  1.00  0.00     0.156 HD
ATOM     21  H11 UNL     1       3.171 -30.447 -23.377  1.00  0.00     0.156 HD
ENDBRANCH   1  19
TORSDOF 4
ENDMDL
MODEL 4
REMARK VINA RESULT: -6.101315651      2.494      4.579
REMARK  4 active torsions:
REMARK  status: ('A' for Active; 'I' for Inactive)
REMARK    1  A    between atoms: N1_1  and  C1_4 
REMARK    2  A    between atoms: C2_5  and  N2_6 
REMARK    3  A    between atoms: C4_12  and  N4_13 
REMARK    4  A    between atoms: N4_13  and  N5_15 
ROOT
HETATM    1  C1  UNL     1       3.922 -30.460 -21.140  1.00  0.00     0.130 C 
HETATM    2  C2  UNL     1       3.418 -31.727 -21.302  1.00  0.00     0.150 C 
HETATM    3  C3  UNL     1       2.964 -32.582 -20.321  1.00  0.00     0.144 C 
HETATM    4  N3  UNL     1       2.993 -32.358 -18.974  1.00  0.00    -0.198 N 
ATOM      5  H3  UNL     1       2.455 -33.018 -18.412  1.00  0.00     0.183 HD
HETATM    6  C4  UNL     1       3.623 -31.398 -18.284  1.00  0.00     0.699 C 
HETATM    7  N6  UNL     1       3.971 -30.174 -18.713  1.00  0.00    -0.153 N 
ATOM      8  H6  UNL     1       4.078 -29.469 -17.983  1.00  0.00     0.187 HD
HETATM    9  C5  UNL     1       4.202 -29.740 -19.985  1.00  0.00     0.288 C 
HETATM   10  O3  UNL     1       4.707 -28.603 -20.144  1.00  0.00    -0.265 OA
ENDROOT
BRANCH   6  11
HETATM   11  N4  UNL     1       3.944 -31.652 -17.071  1.00  0.00    -0.138 N 
ATOM     12  H4  UNL     1       4.877 -31.414 -16.735  1.00  0.00     0.205 HD
BRANCH  11  13
HETATM   13  N5  UNL     1       3.031 -32.251 -16.203  1.00  0.00    -0.331 N 
ATOM     14  H52 UNL     1       2.145 -32.588 -16.581  1.00  0.00     0.177 HD
ATOM     15  H51 UNL     1       3.244 -32.350 -15.211  1.00  0.00     0.177 HD
ENDBRANCH  11  13
ENDBRANCH   6  11
BRANCH   2  16
HETATM   16  N2  UNL     1       3.385 -32.160 -22.656  1.00  0.00    -0.112 N 
HETATM   17  O1  UNL     1       2.361 -32.115 -23.355  1.00  0.00    -0.532 OA
HETATM   18  O2  UNL     1       4.585 -32.647 -23.163  1.00  0.00    -0.532 OA
ENDBRANCH   2  16
BRANCH   1  19
HETATM   19  N1  UNL     1       4.178 -29.828 -22.229  1.00  0.00    -0.393 N 
ATOM     20  H12 UNL     1       3.627 -30.136 -23.030  1.00  0.00     0.156 HD
ATOM     21  H11 UNL     1       4.894 -29.105 -22.155  1.00  0.00     0.156 HD
ENDBRANCH   1  19
TORSDOF 4
ENDMDL
MODEL 5
REMARK VINA RESULT: -5.993559645      2.305      4.649
REMARK  4 active torsions:
REMARK  status: ('A' for Active; 'I' for Inactive)
REMARK    1  A    between atoms: N1_1  and  C1_4 
REMARK    2  A    between atoms: C2_5  and  N2_6 
REMARK    3  A    between atoms: C4_12  and  N4_13 
REMARK    4  A    between atoms: N4_13  and  N5_15 
ROOT
HETATM    1  C1  UNL     1       3.618 -30.728 -21.832  1.00  0.00     0.130 C 
HETATM    2  C2  UNL     1       2.664 -31.715 -21.799  1.00  0.00     0.150 C 
HETATM    3  C3  UNL     1       1.806 -32.019 -20.765  1.00  0.00     0.144 C 
HETATM    4  N3  UNL     1       1.787 -31.435 -19.530  1.00  0.00    -0.198 N 
ATOM      5  H3  UNL     1       0.974 -31.660 -18.955  1.00  0.00     0.183 HD
HETATM    6  C4  UNL     1       2.678 -30.612 -18.963  1.00  0.00     0.699 C 
HETATM    7  N6  UNL     1       3.534 -29.780 -19.580  1.00  0.00    -0.153 N 
ATOM      8  H6  UNL     1       3.844 -28.981 -19.026  1.00  0.00     0.187 HD
HETATM    9  C5  UNL     1       4.048 -29.853 -20.842  1.00  0.00     0.288 C 
HETATM   10  O3  UNL     1       4.983 -29.076 -21.149  1.00  0.00    -0.265 OA
ENDROOT
BRANCH   6  11
HETATM   11  N4  UNL     1       2.745 -30.596 -17.685  1.00  0.00    -0.138 N 
ATOM     12  H4  UNL     1       2.429 -29.773 -17.173  1.00  0.00     0.205 HD
BRANCH  11  13
HETATM   13  N5  UNL     1       3.245 -31.694 -16.984  1.00  0.00    -0.331 N 
ATOM     14  H52 UNL     1       3.079 -31.749 -15.979  1.00  0.00     0.177 HD
ATOM     15  H51 UNL     1       3.765 -32.426 -17.467  1.00  0.00     0.177 HD
ENDBRANCH  11  13
ENDBRANCH   6  11
BRANCH   2  16
HETATM   16  N2  UNL     1       2.595 -32.483 -22.994  1.00  0.00    -0.112 N 
HETATM   17  O1  UNL     1       1.702 -32.333 -23.842  1.00  0.00    -0.532 OA
HETATM   18  O2  UNL     1       3.600 -33.430 -23.161  1.00  0.00    -0.532 OA
ENDBRANCH   2  16
BRANCH   1  19
HETATM   19  N1  UNL     1       4.217 -30.581 -22.959  1.00  0.00    -0.393 N 
ATOM     20  H12 UNL     1       4.697 -31.419 -23.289  1.00  0.00     0.156 HD
ATOM     21  H11 UNL     1       4.139 -29.654 -23.377  1.00  0.00     0.156 HD
ENDBRANCH   1  19
TORSDOF 4
ENDMDL
