MODEL 1
REMARK VINA RESULT: -5.477435450      0.000      0.000
REMARK  3 active torsions:
REMARK  status: ('A' for Active; 'I' for Inactive)
REMARK    1  A    between atoms: O1_2  and  C2_3 
REMARK    2  A    between atoms: C2_3  and  C3_5 
REMARK    3  A    between atoms: C5_10  and  N3_11 
ROOT
HETATM    1  C3  UNL     1       3.955 -30.864 -20.168  1.00  0.00     0.149 A 
HETATM    2  C4  UNL     1       4.045 -31.299 -18.853  1.00  0.00     0.153 A 
HETATM    3  N1  UNL     1       5.000 -30.644 -18.022  1.00  0.00    -0.081 NA
HETATM    4  N2  UNL     1       3.276 -32.292 -18.360  1.00  0.00    -0.178 N 
ATOM      5  H2  UNL     1       3.365 -32.590 -17.388  1.00  0.00     0.185 HD
HETATM    6  C5  UNL     1       2.389 -32.879 -19.183  1.00  0.00     0.680 A 
HETATM    7  N4  UNL     1       2.281 -32.478 -20.463  1.00  0.00    -0.155 N 
ATOM      8  H4  UNL     1       1.601 -32.942 -21.066  1.00  0.00     0.187 HD
HETATM    9  C6  UNL     1       3.035 -31.491 -20.978  1.00  0.00     0.279 A 
HETATM   10  O3  UNL     1       2.945 -31.107 -22.168  1.00  0.00    -0.266 OA
ENDROOT
BRANCH   1  11
HETATM   11  C2  UNL     1       4.816 -29.786 -20.635  1.00  0.00     0.301 C 
HETATM   12  O2  UNL     1       4.437 -28.590 -20.629  1.00  0.00    -0.259 OA
BRANCH  11  13
HETATM   13  O1  UNL     1       6.091 -30.041 -21.104  1.00  0.00    -0.322 OA
HETATM   14  C1  UNL     1       6.368 -30.624 -22.360  1.00  0.00     0.213 C 
ENDBRANCH  11  13
ENDBRANCH   1  11
BRANCH   6  15
HETATM   15  N3  UNL     1       1.642 -33.843 -18.705  1.00  0.00    -0.234 N 
ATOM     16  H32 UNL     1       1.740 -34.163 -17.741  1.00  0.00     0.174 HD
ATOM     17  H31 UNL     1       0.952 -34.272 -19.322  1.00  0.00     0.174 HD
ENDBRANCH   6  15
TORSDOF 3
ENDMDL
MODEL 2
REMARK VINA RESULT: -5.461955681      1.139      2.245
REMARK  3 active torsions:
REMARK  status: ('A' for Active; 'I' for Inactive)
REMARK    1  A    between atoms: O1_2  and  C2_3 
REMARK    2  A    between atoms: C2_3  and  C3_5 
REMARK    3  A    between atoms: C5_10  and  N3_11 
ROOT
HETATM    1  C3  UNL     1       4.087 -30.907 -20.112  1.00  0.00     0.149 A 
HETATM    2  C4  UNL     1       3.183 -31.592 -20.914  1.00  0.00     0.153 A 
HETATM    3  N1  UNL     1       3.128 -31.217 -22.288  1.00  0.00    -0.081 NA
HETATM    4  N2  UNL     1       2.384 -32.571 -20.439  1.00  0.00    -0.178 N 
ATOM      5  H2  UNL     1       1.730 -33.056 -21.053  1.00  0.00     0.185 HD
HETATM    6  C5  UNL     1       2.474 -32.890 -19.136  1.00  0.00     0.680 A 
HETATM    7  N4  UNL     1       3.340 -32.242 -18.335  1.00  0.00    -0.155 N 
ATOM      8  H4  UNL     1       3.387 -32.504 -17.350  1.00  0.00     0.187 HD
HETATM    9  C6  UNL     1       4.147 -31.264 -18.783  1.00  0.00     0.279 A 
HETATM   10  O3  UNL     1       4.959 -30.653 -18.050  1.00  0.00    -0.266 OA
ENDROOT
BRANCH   1  11
HETATM   11  C2  UNL     1       4.919 -29.862 -20.689  1.00  0.00     0.301 C 
HETATM   12  O2  UNL     1       4.508 -28.682 -20.810  1.00  0.00    -0.259 OA
BRANCH  11  13
HETATM   13  O1  UNL     1       6.202 -30.129 -21.128  1.00  0.00    -0.322 OA
HETATM   14  C1  UNL     1       6.519 -30.538 -22.442  1.00  0.00     0.213 C 
ENDBRANCH  11  13
ENDBRANCH   1  11
BRANCH   6  15
HETATM   15  N3  UNL     1       1.699 -33.840 -18.674  1.00  0.00    -0.234 N 
ATOM     16  H32 UNL     1       0.945 -33.638 -18.018  1.00  0.00     0.174 HD
ATOM     17  H31 UNL     1       1.867 -34.796 -18.989  1.00  0.00     0.174 HD
ENDBRANCH   6  15
TORSDOF 3
ENDMDL
MODEL 3
REMARK VINA RESULT: -5.419272077      1.700      2.573
REMARK  3 active torsions:
REMARK  status: ('A' for Active; 'I' for Inactive)
REMARK    1  A    between atoms: O1_2  and  C2_3 
REMARK    2  A    between atoms: C2_3  and  C3_5 
REMARK    3  A    between atoms: C5_10  and  N3_11 
ROOT
HETATM    1  C3  UNL     1       4.998 -30.720 -20.577  1.00  0.00     0.149 A 
HETATM    2  C4  UNL     1       4.791 -32.031 -20.167  1.00  0.00     0.153 A 
HETATM    3  N1  UNL     1       5.231 -33.058 -21.051  1.00  0.00    -0.081 NA
HETATM    4  N2  UNL     1       4.205 -32.343 -18.992  1.00  0.00    -0.178 N 
ATOM      5  H2  UNL     1       4.067 -33.316 -18.719  1.00  0.00     0.185 HD
HETATM    6  C5  UNL     1       3.808 -31.338 -18.192  1.00  0.00     0.680 A 
HETATM    7  N4  UNL     1       3.994 -30.058 -18.564  1.00  0.00    -0.155 N 
ATOM      8  H4  UNL     1       3.682 -29.315 -17.938  1.00  0.00     0.187 HD
HETATM    9  C6  UNL     1       4.576 -29.720 -19.728  1.00  0.00     0.279 A 
HETATM   10  O3  UNL     1       4.757 -28.533 -20.088  1.00  0.00    -0.266 OA
ENDROOT
BRANCH   1  11
HETATM   11  C2  UNL     1       5.637 -30.454 -21.857  1.00  0.00     0.301 C 
HETATM   12  O2  UNL     1       5.025 -30.601 -22.943  1.00  0.00    -0.259 OA
BRANCH  11  13
HETATM   13  O1  UNL     1       6.948 -30.024 -21.927  1.00  0.00    -0.322 OA
HETATM   14  C1  UNL     1       7.959 -30.687 -22.656  1.00  0.00     0.213 C 
ENDBRANCH  11  13
ENDBRANCH   1  11
BRANCH   6  15
HETATM   15  N3  UNL     1       3.239 -31.640 -17.051  1.00  0.00    -0.234 N 
ATOM     16  H32 UNL     1       3.022 -32.606 -16.806  1.00  0.00     0.174 HD
ATOM     17  H31 UNL     1       3.015 -30.882 -16.406  1.00  0.00     0.174 HD
ENDBRANCH   6  15
TORSDOF 3
ENDMDL
MODEL 4
REMARK VINA RESULT: -5.406461729      2.087      2.546
REMARK  3 active torsions:
REMARK  status: ('A' for Active; 'I' for Inactive)
REMARK    1  A    between atoms: O1_2  and  C2_3 
REMARK    2  A    between atoms: C2_3  and  C3_5 
REMARK    3  A    between atoms: C5_10  and  N3_11 
ROOT
HETATM    1  C3  UNL     1       2.957 -31.891 -20.055  1.00  0.00     0.149 A 
HETATM    2  C4  UNL     1       1.749 -32.034 -19.386  1.00  0.00     0.153 A 
HETATM    3  N1  UNL     1       0.964 -30.857 -19.216  1.00  0.00    -0.081 NA
HETATM    4  N2  UNL     1       1.316 -33.220 -18.910  1.00  0.00    -0.178 N 
ATOM      5  H2  UNL     1       0.423 -33.294 -18.422  1.00  0.00     0.185 HD
HETATM    6  C5  UNL     1       2.092 -34.303 -19.095  1.00  0.00     0.680 A 
HETATM    7  N4  UNL     1       3.269 -34.193 -19.739  1.00  0.00    -0.155 N 
ATOM      8  H4  UNL     1       3.838 -35.030 -19.865  1.00  0.00     0.187 HD
HETATM    9  C6  UNL     1       3.723 -33.023 -20.224  1.00  0.00     0.279 A 
HETATM   10  O3  UNL     1       4.816 -32.907 -20.826  1.00  0.00    -0.266 OA
ENDROOT
BRANCH   1  11
HETATM   11  C2  UNL     1       3.364 -30.582 -20.544  1.00  0.00     0.301 C 
HETATM   12  O2  UNL     1       3.126 -30.213 -21.720  1.00  0.00    -0.259 OA
BRANCH  11  13
HETATM   13  O1  UNL     1       4.030 -29.688 -19.726  1.00  0.00    -0.322 OA
HETATM   14  C1  UNL     1       4.707 -30.053 -18.542  1.00  0.00     0.213 C 
ENDBRANCH  11  13
ENDBRANCH   1  11
BRANCH   6  15
HETATM   15  N3  UNL     1       1.673 -35.455 -18.633  1.00  0.00    -0.234 N 
ATOM     16  H32 UNL     1       0.734 -35.562 -18.249  1.00  0.00     0.174 HD
ATOM     17  H31 UNL     1       2.311 -36.250 -18.666  1.00  0.00     0.174 HD
ENDBRANCH   6  15
TORSDOF 3
ENDMDL
MODEL 5
REMARK VINA RESULT: -5.336353204      1.717      2.649
REMARK  3 active torsions:
REMARK  status: ('A' for Active; 'I' for Inactive)
REMARK    1  A    between atoms: O1_2  and  C2_3 
REMARK    2  A    between atoms: C2_3  and  C3_5 
REMARK    3  A    between atoms: C5_10  and  N3_11 
ROOT
HETATM    1  C3  UNL     1       4.926 -30.850 -20.640  1.00  0.00     0.149 A 
HETATM    2  C4  UNL     1       4.601 -32.017 -19.960  1.00  0.00     0.153 A 
HETATM    3  N1  UNL     1       5.158 -33.229 -20.461  1.00  0.00    -0.081 NA
HETATM    4  N2  UNL     1       3.800 -32.029 -18.874  1.00  0.00    -0.178 N 
ATOM      5  H2  UNL     1       3.580 -32.903 -18.396  1.00  0.00     0.185 HD
HETATM    6  C5  UNL     1       3.299 -30.859 -18.439  1.00  0.00     0.680 A 
HETATM    7  N4  UNL     1       3.596 -29.713 -19.079  1.00  0.00    -0.155 N 
ATOM      8  H4  UNL     1       3.201 -28.840 -18.728  1.00  0.00     0.187 HD
HETATM    9  C6  UNL     1       4.392 -29.674 -20.162  1.00  0.00     0.279 A 
HETATM   10  O3  UNL     1       4.677 -28.614 -20.768  1.00  0.00    -0.266 OA
ENDROOT
BRANCH   1  11
HETATM   11  C2  UNL     1       5.796 -30.908 -21.804  1.00  0.00     0.301 C 
HETATM   12  O2  UNL     1       7.046 -30.852 -21.697  1.00  0.00    -0.259 OA
BRANCH  11  13
HETATM   13  O1  UNL     1       5.279 -31.030 -23.080  1.00  0.00    -0.322 OA
HETATM   14  C1  UNL     1       3.943 -31.391 -23.359  1.00  0.00     0.213 C 
ENDBRANCH  11  13
ENDBRANCH   1  11
BRANCH   6  15
HETATM   15  N3  UNL     1       2.521 -30.870 -17.385  1.00  0.00    -0.234 N 
ATOM     16  H32 UNL     1       1.866 -31.634 -17.218  1.00  0.00     0.174 HD
ATOM     17  H31 UNL     1       2.586 -30.092 -16.728  1.00  0.00     0.174 HD
ENDBRANCH   6  15
TORSDOF 3
ENDMDL
