MODEL 1
REMARK VINA RESULT: -4.195478961      0.000      0.000
REMARK  1 active torsions:
REMARK  status: ('A' for Active; 'I' for Inactive)
REMARK    1  A    between atoms: C5_6  and  C6_7 
ROOT
HETATM    1  C1  UNL     1     -96.259   9.839 -20.053  1.00  0.00     0.177 C 
HETATM    2  N1  UNL     1     -95.488   8.600 -19.942  1.00  0.00    -0.307 N 
HETATM    3  C2  UNL     1     -96.160   7.418 -20.039  1.00  0.00     0.110 A 
HETATM    4  C3  UNL     1     -95.460   6.261 -19.938  1.00  0.00     0.021 A 
HETATM    5  C4  UNL     1     -94.107   6.316 -19.745  1.00  0.00     0.035 A 
HETATM    6  C5  UNL     1     -93.452   7.524 -19.651  1.00  0.00     0.076 A 
HETATM    7  N4  UNL     1     -94.186   8.641 -19.756  1.00  0.00    -0.297 N 
ATOM      8  H4  UNL     1     -93.722   9.546 -19.689  1.00  0.00     0.187 HD
ENDROOT
BRANCH   6   9
HETATM    9  C6  UNL     1     -91.998   7.564 -19.442  1.00  0.00     0.077 A 
HETATM   10  C7  UNL     1     -91.046   8.185 -20.208  1.00  0.00     0.120 A 
HETATM   11  N2  UNL     1     -89.845   7.945 -19.623  1.00  0.00    -0.360 N 
HETATM   12  C8  UNL     1     -90.025   7.192 -18.517  1.00  0.00     0.180 A 
ATOM     13  H2  UNL     1     -88.946   8.282 -19.966  1.00  0.00     0.166 HD
HETATM   14  N3  UNL     1     -91.351   6.981 -18.440  1.00  0.00    -0.349 N 
ATOM     15  H3  UNL     1     -91.803   6.440 -17.703  1.00  0.00     0.166 HD
ENDBRANCH   6   9
TORSDOF 1
ENDMDL
MODEL 2
REMARK VINA RESULT: -4.120248543      0.782      1.123
REMARK  1 active torsions:
REMARK  status: ('A' for Active; 'I' for Inactive)
REMARK    1  A    between atoms: C5_6  and  C6_7 
ROOT
HETATM    1  C1  UNL     1     -95.917   9.971 -19.696  1.00  0.00     0.177 C 
HETATM    2  N1  UNL     1     -95.184   8.705 -19.702  1.00  0.00    -0.307 N 
HETATM    3  C2  UNL     1     -95.906   7.548 -19.747  1.00  0.00     0.110 A 
HETATM    4  C3  UNL     1     -95.241   6.366 -19.753  1.00  0.00     0.021 A 
HETATM    5  C4  UNL     1     -93.873   6.371 -19.716  1.00  0.00     0.035 A 
HETATM    6  C5  UNL     1     -93.169   7.554 -19.672  1.00  0.00     0.076 A 
HETATM    7  N4  UNL     1     -93.868   8.697 -19.666  1.00  0.00    -0.297 N 
ATOM      8  H4  UNL     1     -93.367   9.584 -19.634  1.00  0.00     0.187 HD
ENDROOT
BRANCH   6   9
HETATM    9  C6  UNL     1     -91.700   7.539 -19.631  1.00  0.00     0.077 A 
HETATM   10  C7  UNL     1     -90.881   7.096 -18.625  1.00  0.00     0.120 A 
HETATM   11  N2  UNL     1     -89.603   7.283 -19.039  1.00  0.00    -0.360 N 
HETATM   12  C8  UNL     1     -89.605   7.832 -20.272  1.00  0.00     0.180 A 
ATOM     13  H2  UNL     1     -88.770   7.046 -18.501  1.00  0.00     0.166 HD
HETATM   14  N3  UNL     1     -90.902   7.972 -20.599  1.00  0.00    -0.349 N 
ATOM     15  H3  UNL     1     -91.231   8.363 -21.482  1.00  0.00     0.166 HD
ENDBRANCH   6   9
TORSDOF 1
ENDMDL
MODEL 3
REMARK VINA RESULT: -4.070668884      1.695      5.205
REMARK  1 active torsions:
REMARK  status: ('A' for Active; 'I' for Inactive)
REMARK    1  A    between atoms: C5_6  and  C6_7 
ROOT
HETATM    1  C1  UNL     1     -92.271   7.940 -19.486  1.00  0.00     0.177 C 
HETATM    2  N1  UNL     1     -93.705   7.733 -19.688  1.00  0.00    -0.307 N 
HETATM    3  C2  UNL     1     -94.172   6.452 -19.699  1.00  0.00     0.110 A 
HETATM    4  C3  UNL     1     -95.498   6.244 -19.885  1.00  0.00     0.021 A 
HETATM    5  C4  UNL     1     -96.324   7.321 -20.054  1.00  0.00     0.035 A 
HETATM    6  C5  UNL     1     -95.828   8.606 -20.038  1.00  0.00     0.076 A 
HETATM    7  N4  UNL     1     -94.510   8.762 -19.852  1.00  0.00    -0.297 N 
ATOM      8  H4  UNL     1     -94.120   9.704 -19.837  1.00  0.00     0.187 HD
ENDROOT
BRANCH   6   9
HETATM    9  C6  UNL     1     -96.730   9.751 -20.223  1.00  0.00     0.077 A 
HETATM   10  C7  UNL     1     -96.671  10.734 -21.177  1.00  0.00     0.120 A 
HETATM   11  N2  UNL     1     -97.712  11.573 -20.948  1.00  0.00    -0.360 N 
HETATM   12  C8  UNL     1     -98.413  11.141 -19.880  1.00  0.00     0.180 A 
ATOM     13  H2  UNL     1     -97.930  12.403 -21.499  1.00  0.00     0.166 HD
HETATM   14  N3  UNL     1     -97.784  10.027 -19.465  1.00  0.00    -0.349 N 
ATOM     15  H3  UNL     1     -98.080   9.464 -18.668  1.00  0.00     0.166 HD
ENDBRANCH   6   9
TORSDOF 1
ENDMDL
MODEL 4
REMARK VINA RESULT: -4.014264438      1.534      1.785
REMARK  1 active torsions:
REMARK  status: ('A' for Active; 'I' for Inactive)
REMARK    1  A    between atoms: C5_6  and  C6_7 
ROOT
HETATM    1  C1  UNL     1     -95.178   9.314 -17.075  1.00  0.00     0.177 C 
HETATM    2  N1  UNL     1     -94.613   8.356 -18.025  1.00  0.00    -0.307 N 
HETATM    3  C2  UNL     1     -95.459   7.459 -18.608  1.00  0.00     0.110 A 
HETATM    4  C3  UNL     1     -94.951   6.564 -19.491  1.00  0.00     0.021 A 
HETATM    5  C4  UNL     1     -93.612   6.589 -19.769  1.00  0.00     0.035 A 
HETATM    6  C5  UNL     1     -92.779   7.505 -19.167  1.00  0.00     0.076 A 
HETATM    7  N4  UNL     1     -93.326   8.370 -18.301  1.00  0.00    -0.297 N 
ATOM      8  H4  UNL     1     -92.728   9.058 -17.843  1.00  0.00     0.187 HD
ENDROOT
BRANCH   6   9
HETATM    9  C6  UNL     1     -91.343   7.516 -19.476  1.00  0.00     0.077 A 
HETATM   10  C7  UNL     1     -90.300   7.102 -18.688  1.00  0.00     0.120 A 
HETATM   11  N2  UNL     1     -89.161   7.305 -19.397  1.00  0.00    -0.360 N 
HETATM   12  C8  UNL     1     -89.466   7.835 -20.600  1.00  0.00     0.180 A 
ATOM     13  H2  UNL     1     -88.219   7.090 -19.070  1.00  0.00     0.166 HD
HETATM   14  N3  UNL     1     -90.806   7.948 -20.611  1.00  0.00    -0.349 N 
ATOM     15  H3  UNL     1     -91.344   8.320 -21.394  1.00  0.00     0.166 HD
ENDBRANCH   6   9
TORSDOF 1
ENDMDL
MODEL 5
REMARK VINA RESULT: -3.911065650      1.540      5.085
REMARK  1 active torsions:
REMARK  status: ('A' for Active; 'I' for Inactive)
REMARK    1  A    between atoms: C5_6  and  C6_7 
ROOT
HETATM    1  C1  UNL     1     -91.912   7.773 -19.446  1.00  0.00     0.177 C 
HETATM    2  N1  UNL     1     -93.348   7.563 -19.634  1.00  0.00    -0.307 N 
HETATM    3  C2  UNL     1     -93.816   6.282 -19.608  1.00  0.00     0.110 A 
HETATM    4  C3  UNL     1     -95.144   6.071 -19.780  1.00  0.00     0.021 A 
HETATM    5  C4  UNL     1     -95.970   7.145 -19.974  1.00  0.00     0.035 A 
HETATM    6  C5  UNL     1     -95.471   8.428 -19.996  1.00  0.00     0.076 A 
HETATM    7  N4  UNL     1     -94.152   8.588 -19.821  1.00  0.00    -0.297 N 
ATOM      8  H4  UNL     1     -93.761   9.530 -19.834  1.00  0.00     0.187 HD
ENDROOT
BRANCH   6   9
HETATM    9  C6  UNL     1     -96.373   9.569 -20.206  1.00  0.00     0.077 A 
HETATM   10  C7  UNL     1     -97.541   9.862 -19.550  1.00  0.00     0.120 A 
HETATM   11  N2  UNL     1     -98.022  11.012 -20.087  1.00  0.00    -0.360 N 
HETATM   12  C8  UNL     1     -97.187  11.439 -21.058  1.00  0.00     0.180 A 
ATOM     13  H2  UNL     1     -98.881  11.480 -19.801  1.00  0.00     0.166 HD
HETATM   14  N3  UNL     1     -96.194  10.534 -21.100  1.00  0.00    -0.349 N 
ATOM     15  H3  UNL     1     -95.401  10.582 -21.740  1.00  0.00     0.166 HD
ENDBRANCH   6   9
TORSDOF 1
ENDMDL
