MODEL 1
REMARK VINA RESULT: -4.256989589      0.000      0.000
REMARK  4 active torsions:
REMARK  status: ('A' for Active; 'I' for Inactive)
REMARK    1  A    between atoms: C2_2  and  C3_3 
REMARK    2  A    between atoms: C4_4  and  C5_5 
REMARK    3  A    between atoms: C8_9  and  C9_10 
REMARK    4  A    between atoms: N1_11  and  O2_13 
ROOT
HETATM    1  C5  UNL     1     -95.180   7.687 -18.823  1.00  0.00     0.054 A 
HETATM    2  C6  UNL     1     -94.664   6.473 -19.259  1.00  0.00     0.048 A 
HETATM    3  C7  UNL     1     -95.163   6.253 -20.523  1.00  0.00     0.144 A 
HETATM    4  O1  UNL     1     -95.920   7.242 -20.841  1.00  0.00    -0.320 OA
HETATM    5  C8  UNL     1     -95.968   8.147 -19.845  1.00  0.00     0.111 A 
ENDROOT
BRANCH   5   6
HETATM    6  C9  UNL     1     -96.763   9.338 -19.999  1.00  0.00     0.152 C 
HETATM    7  N1  UNL     1     -97.977   9.485 -19.713  1.00  0.00    -0.278 N 
ATOM      8  H1  UNL     1     -98.501   8.700 -19.327  1.00  0.00     0.193 HD
BRANCH   7   9
HETATM    9  O2  UNL     1     -98.624  10.712 -19.917  1.00  0.00    -0.290 OA
ATOM     10  H2  UNL     1     -98.327  11.500 -19.478  1.00  0.00     0.244 HD
ENDBRANCH   7   9
ENDBRANCH   5   6
BRANCH   1  11
HETATM   11  C4  UNL     1     -94.925   8.304 -17.570  1.00  0.00    -0.064 C 
HETATM   12  C3  UNL     1     -94.684   8.809 -16.513  1.00  0.00    -0.101 C 
BRANCH  12  13
HETATM   13  C2  UNL     1     -94.411   9.421 -15.205  1.00  0.00     0.090 C 
HETATM   14  C1  UNL     1     -93.417   8.602 -14.409  1.00  0.00     0.018 C 
ENDBRANCH  12  13
ENDBRANCH   1  11
TORSDOF 4
ENDMDL
MODEL 2
REMARK VINA RESULT: -3.982595440      3.687      5.658
REMARK  4 active torsions:
REMARK  status: ('A' for Active; 'I' for Inactive)
REMARK    1  A    between atoms: C2_2  and  C3_3 
REMARK    2  A    between atoms: C4_4  and  C5_5 
REMARK    3  A    between atoms: C8_9  and  C9_10 
REMARK    4  A    between atoms: N1_11  and  O2_13 
ROOT
HETATM    1  C5  UNL     1     -96.777  11.612 -21.437  1.00  0.00     0.054 A 
HETATM    2  C6  UNL     1     -96.154  12.428 -22.374  1.00  0.00     0.048 A 
HETATM    3  C7  UNL     1     -95.096  11.715 -22.889  1.00  0.00     0.144 A 
HETATM    4  O1  UNL     1     -95.065  10.561 -22.324  1.00  0.00    -0.320 OA
HETATM    5  C8  UNL     1     -96.066  10.440 -21.431  1.00  0.00     0.111 A 
ENDROOT
BRANCH   5   6
HETATM    6  C9  UNL     1     -96.213   9.218 -20.683  1.00  0.00     0.152 C 
HETATM    7  N1  UNL     1     -97.218   8.465 -20.646  1.00  0.00    -0.278 N 
ATOM      8  H1  UNL     1     -98.046   8.706 -21.190  1.00  0.00     0.193 HD
BRANCH   7   9
HETATM    9  O2  UNL     1     -97.217   7.298 -19.868  1.00  0.00    -0.290 OA
ATOM     10  H2  UNL     1     -96.403   6.894 -19.593  1.00  0.00     0.244 HD
ENDBRANCH   7   9
ENDBRANCH   5   6
BRANCH   1  11
HETATM   11  C4  UNL     1     -97.917  11.946 -20.661  1.00  0.00    -0.064 C 
HETATM   12  C3  UNL     1     -98.884  12.250 -20.026  1.00  0.00    -0.101 C 
BRANCH  12  13
HETATM   13  C2  UNL     1    -100.058  12.625 -19.226  1.00  0.00     0.090 C 
HETATM   14  C1  UNL     1    -101.345  12.201 -19.901  1.00  0.00     0.018 C 
ENDBRANCH  12  13
ENDBRANCH   1  11
TORSDOF 4
ENDMDL
MODEL 3
REMARK VINA RESULT: -3.965290191      1.907      2.259
REMARK  4 active torsions:
REMARK  status: ('A' for Active; 'I' for Inactive)
REMARK    1  A    between atoms: C2_2  and  C3_3 
REMARK    2  A    between atoms: C4_4  and  C5_5 
REMARK    3  A    between atoms: C8_9  and  C9_10 
REMARK    4  A    between atoms: N1_11  and  O2_13 
ROOT
HETATM    1  C5  UNL     1     -93.649   8.489 -18.269  1.00  0.00     0.054 A 
HETATM    2  C6  UNL     1     -92.299   8.507 -18.599  1.00  0.00     0.048 A 
HETATM    3  C7  UNL     1     -92.197   8.070 -19.900  1.00  0.00     0.144 A 
HETATM    4  O1  UNL     1     -93.376   7.804 -20.337  1.00  0.00    -0.320 OA
HETATM    5  C8  UNL     1     -94.301   8.041 -19.388  1.00  0.00     0.111 A 
ENDROOT
BRANCH   5   6
HETATM    6  C9  UNL     1     -95.694   7.807 -19.672  1.00  0.00     0.152 C 
HETATM    7  N1  UNL     1     -96.602   8.667 -19.789  1.00  0.00    -0.278 N 
ATOM      8  H1  UNL     1     -96.375   9.655 -19.678  1.00  0.00     0.193 HD
BRANCH   7   9
HETATM    9  O2  UNL     1     -97.922   8.290 -20.071  1.00  0.00    -0.290 OA
ATOM     10  H2  UNL     1     -98.656   8.791 -19.736  1.00  0.00     0.244 HD
ENDBRANCH   7   9
ENDBRANCH   5   6
BRANCH   1  11
HETATM   11  C4  UNL     1     -94.211   8.865 -17.021  1.00  0.00    -0.064 C 
HETATM   12  C3  UNL     1     -94.712   9.174 -15.980  1.00  0.00    -0.101 C 
BRANCH  12  13
HETATM   13  C2  UNL     1     -95.316   9.577 -14.702  1.00  0.00     0.090 C 
HETATM   14  C1  UNL     1     -96.580   8.794 -14.418  1.00  0.00     0.018 C 
ENDBRANCH  12  13
ENDBRANCH   1  11
TORSDOF 4
ENDMDL
MODEL 4
REMARK VINA RESULT: -3.890845579      3.537      4.933
REMARK  4 active torsions:
REMARK  status: ('A' for Active; 'I' for Inactive)
REMARK    1  A    between atoms: C2_2  and  C3_3 
REMARK    2  A    between atoms: C4_4  and  C5_5 
REMARK    3  A    between atoms: C8_9  and  C9_10 
REMARK    4  A    between atoms: N1_11  and  O2_13 
ROOT
HETATM    1  C5  UNL     1     -96.969  10.205 -20.530  1.00  0.00     0.054 A 
HETATM    2  C6  UNL     1     -97.892  10.914 -19.772  1.00  0.00     0.048 A 
HETATM    3  C7  UNL     1     -98.004  12.164 -20.338  1.00  0.00     0.144 A 
HETATM    4  O1  UNL     1     -97.220  12.225 -21.355  1.00  0.00    -0.320 OA
HETATM    5  C8  UNL     1     -96.564  11.061 -21.522  1.00  0.00     0.111 A 
ENDROOT
BRANCH   5   6
HETATM    6  C9  UNL     1     -95.632  10.915 -22.610  1.00  0.00     0.152 C 
HETATM    7  N1  UNL     1     -94.391  11.106 -22.580  1.00  0.00    -0.278 N 
ATOM      8  H1  UNL     1     -93.949  11.399 -21.709  1.00  0.00     0.193 HD
BRANCH   7   9
HETATM    9  O2  UNL     1     -93.603  10.923 -23.726  1.00  0.00    -0.290 OA
ATOM     10  H2  UNL     1     -94.002  10.750 -24.570  1.00  0.00     0.244 HD
ENDBRANCH   7   9
ENDBRANCH   5   6
BRANCH   1  11
HETATM   11  C4  UNL     1     -96.549   8.868 -20.304  1.00  0.00    -0.064 C 
HETATM   12  C3  UNL     1     -96.185   7.750 -20.086  1.00  0.00    -0.101 C 
BRANCH  12  13
HETATM   13  C2  UNL     1     -95.725   6.376 -19.840  1.00  0.00     0.090 C 
HETATM   14  C1  UNL     1     -94.214   6.305 -19.767  1.00  0.00     0.018 C 
ENDBRANCH  12  13
ENDBRANCH   1  11
TORSDOF 4
ENDMDL
MODEL 5
REMARK VINA RESULT: -3.876888382      3.326      4.412
REMARK  4 active torsions:
REMARK  status: ('A' for Active; 'I' for Inactive)
REMARK    1  A    between atoms: C2_2  and  C3_3 
REMARK    2  A    between atoms: C4_4  and  C5_5 
REMARK    3  A    between atoms: C8_9  and  C9_10 
REMARK    4  A    between atoms: N1_11  and  O2_13 
ROOT
HETATM    1  C5  UNL     1     -96.346  10.338 -21.178  1.00  0.00     0.054 A 
HETATM    2  C6  UNL     1     -95.658  10.838 -22.277  1.00  0.00     0.048 A 
HETATM    3  C7  UNL     1     -96.123  12.114 -22.497  1.00  0.00     0.144 A 
HETATM    4  O1  UNL     1     -97.018  12.381 -21.614  1.00  0.00    -0.320 OA
HETATM    5  C8  UNL     1     -97.196  11.337 -20.783  1.00  0.00     0.111 A 
ENDROOT
BRANCH   5   6
HETATM    6  C9  UNL     1     -98.159  11.429 -19.716  1.00  0.00     0.152 C 
HETATM    7  N1  UNL     1     -99.409  11.494 -19.821  1.00  0.00    -0.278 N 
ATOM      8  H1  UNL     1     -99.836  11.486 -20.747  1.00  0.00     0.193 HD
BRANCH   7   9
HETATM    9  O2  UNL     1    -100.226  11.579 -18.685  1.00  0.00    -0.290 OA
ATOM     10  H2  UNL     1    -100.415  10.810 -18.160  1.00  0.00     0.244 HD
ENDBRANCH   7   9
ENDBRANCH   5   6
BRANCH   1  11
HETATM   11  C4  UNL     1     -96.181   9.051 -20.601  1.00  0.00    -0.064 C 
HETATM   12  C3  UNL     1     -96.050   7.955 -20.141  1.00  0.00    -0.101 C 
BRANCH  12  13
HETATM   13  C2  UNL     1     -95.905   6.614 -19.557  1.00  0.00     0.090 C 
HETATM   14  C1  UNL     1     -94.528   6.043 -19.822  1.00  0.00     0.018 C 
ENDBRANCH  12  13
ENDBRANCH   1  11
TORSDOF 4
ENDMDL
