MODEL 1
REMARK VINA RESULT: -3.359382933      0.000      0.000
REMARK  1 active torsions:
REMARK  status: ('A' for Active; 'I' for Inactive)
REMARK    1  A    between atoms: N1_2  and  C3_4 
ROOT
HETATM    1  C3  UNL     1     -96.709   9.585 -19.103  1.00  0.00     0.034 A 
HETATM    2  C4  UNL     1     -97.033   8.628 -20.039  1.00  0.00     0.046 A 
HETATM    3  C5  UNL     1     -96.196   7.544 -20.235  1.00  0.00     0.094 A 
HETATM    4  N2  UNL     1     -95.061   7.445 -19.494  1.00  0.00    -0.350 N 
HETATM    5  C6  UNL     1     -94.183   6.324 -19.689  1.00  0.00     0.156 C 
HETATM    6  C7  UNL     1     -94.728   8.366 -18.578  1.00  0.00     0.120 A 
HETATM    7  N3  UNL     1     -93.541   8.215 -17.838  1.00  0.00    -0.083 NA
HETATM    8  C8  UNL     1     -95.536   9.471 -18.347  1.00  0.00     0.074 A 
ENDROOT
BRANCH   1   9
HETATM    9  N1  UNL     1     -97.580  10.689 -18.916  1.00  0.00    -0.389 N 
HETATM   10  C1  UNL     1     -98.060  11.473 -20.010  1.00  0.00     0.149 C 
HETATM   11  C2  UNL     1     -97.991  11.027 -17.568  1.00  0.00     0.149 C 
ENDBRANCH   1   9
TORSDOF 1
ENDMDL
MODEL 2
REMARK VINA RESULT: -3.355735003      0.045      1.059
REMARK  1 active torsions:
REMARK  status: ('A' for Active; 'I' for Inactive)
REMARK    1  A    between atoms: N1_2  and  C3_4 
ROOT
HETATM    1  C3  UNL     1     -96.705   9.588 -19.099  1.00  0.00     0.034 A 
HETATM    2  C4  UNL     1     -97.027   8.631 -20.037  1.00  0.00     0.046 A 
HETATM    3  C5  UNL     1     -96.188   7.549 -20.234  1.00  0.00     0.094 A 
HETATM    4  N2  UNL     1     -95.054   7.450 -19.491  1.00  0.00    -0.350 N 
HETATM    5  C6  UNL     1     -94.175   6.330 -19.686  1.00  0.00     0.156 C 
HETATM    6  C7  UNL     1     -94.723   8.370 -18.573  1.00  0.00     0.120 A 
HETATM    7  N3  UNL     1     -93.537   8.219 -17.832  1.00  0.00    -0.083 NA
HETATM    8  C8  UNL     1     -95.533   9.474 -18.342  1.00  0.00     0.074 A 
ENDROOT
BRANCH   1   9
HETATM    9  N1  UNL     1     -97.577  10.691 -18.912  1.00  0.00    -0.389 N 
HETATM   10  C1  UNL     1     -98.076  11.055 -17.622  1.00  0.00     0.149 C 
HETATM   11  C2  UNL     1     -97.972  11.467 -20.069  1.00  0.00     0.149 C 
ENDBRANCH   1   9
TORSDOF 1
ENDMDL
MODEL 3
REMARK VINA RESULT: -3.232645572      2.413      4.990
REMARK  1 active torsions:
REMARK  status: ('A' for Active; 'I' for Inactive)
REMARK    1  A    between atoms: N1_2  and  C3_4 
ROOT
HETATM    1  C3  UNL     1     -92.737   8.244 -19.774  1.00  0.00     0.034 A 
HETATM    2  C4  UNL     1     -93.161   9.520 -20.077  1.00  0.00     0.046 A 
HETATM    3  C5  UNL     1     -94.514   9.807 -20.112  1.00  0.00     0.094 A 
HETATM    4  N2  UNL     1     -95.406   8.815 -19.845  1.00  0.00    -0.350 N 
HETATM    5  C6  UNL     1     -96.813   9.101 -19.879  1.00  0.00     0.156 C 
HETATM    6  C7  UNL     1     -95.013   7.568 -19.549  1.00  0.00     0.120 A 
HETATM    7  N3  UNL     1     -95.977   6.580 -19.280  1.00  0.00    -0.083 NA
HETATM    8  C8  UNL     1     -93.666   7.233 -19.502  1.00  0.00     0.074 A 
ENDROOT
BRANCH   1   9
HETATM    9  N1  UNL     1     -91.346   7.970 -19.743  1.00  0.00    -0.389 N 
HETATM   10  C1  UNL     1     -90.753   7.167 -18.719  1.00  0.00     0.149 C 
HETATM   11  C2  UNL     1     -90.506   8.525 -20.784  1.00  0.00     0.149 C 
ENDBRANCH   1   9
TORSDOF 1
ENDMDL
MODEL 4
REMARK VINA RESULT: -3.212427289      2.420      4.882
REMARK  1 active torsions:
REMARK  status: ('A' for Active; 'I' for Inactive)
REMARK    1  A    between atoms: N1_2  and  C3_4 
ROOT
HETATM    1  C3  UNL     1     -92.734   8.269 -19.799  1.00  0.00     0.034 A 
HETATM    2  C4  UNL     1     -93.171   9.540 -20.103  1.00  0.00     0.046 A 
HETATM    3  C5  UNL     1     -94.526   9.817 -20.120  1.00  0.00     0.094 A 
HETATM    4  N2  UNL     1     -95.407   8.822 -19.834  1.00  0.00    -0.350 N 
HETATM    5  C6  UNL     1     -96.816   9.097 -19.849  1.00  0.00     0.156 C 
HETATM    6  C7  UNL     1     -95.001   7.579 -19.536  1.00  0.00     0.120 A 
HETATM    7  N3  UNL     1     -95.955   6.586 -19.247  1.00  0.00    -0.083 NA
HETATM    8  C8  UNL     1     -93.652   7.253 -19.506  1.00  0.00     0.074 A 
ENDROOT
BRANCH   1   9
HETATM    9  N1  UNL     1     -91.340   8.004 -19.785  1.00  0.00    -0.389 N 
HETATM   10  C1  UNL     1     -90.459   8.517 -20.787  1.00  0.00     0.149 C 
HETATM   11  C2  UNL     1     -90.800   7.186 -18.719  1.00  0.00     0.149 C 
ENDBRANCH   1   9
TORSDOF 1
ENDMDL
MODEL 5
REMARK VINA RESULT: -3.138357186      1.257      4.156
REMARK  1 active torsions:
REMARK  status: ('A' for Active; 'I' for Inactive)
REMARK    1  A    between atoms: N1_2  and  C3_4 
ROOT
HETATM    1  C3  UNL     1     -95.053   8.190 -19.263  1.00  0.00     0.034 A 
HETATM    2  C4  UNL     1     -96.113   8.351 -20.128  1.00  0.00     0.046 A 
HETATM    3  C5  UNL     1     -97.091   9.290 -19.853  1.00  0.00     0.094 A 
HETATM    4  N2  UNL     1     -96.986  10.040 -18.723  1.00  0.00    -0.350 N 
HETATM    5  C6  UNL     1     -97.997  11.016 -18.426  1.00  0.00     0.156 C 
HETATM    6  C7  UNL     1     -95.963   9.897 -17.868  1.00  0.00     0.120 A 
HETATM    7  N3  UNL     1     -95.904  10.699 -16.714  1.00  0.00    -0.083 NA
HETATM    8  C8  UNL     1     -94.958   8.968 -18.103  1.00  0.00     0.074 A 
ENDROOT
BRANCH   1   9
HETATM    9  N1  UNL     1     -94.059   7.223 -19.563  1.00  0.00    -0.389 N 
HETATM   10  C1  UNL     1     -92.679   7.569 -19.700  1.00  0.00     0.149 C 
HETATM   11  C2  UNL     1     -94.464   5.843 -19.735  1.00  0.00     0.149 C 
ENDBRANCH   1   9
TORSDOF 1
ENDMDL
