MODEL 1
REMARK VINA RESULT: -7.093093780      0.000      0.000
REMARK  1 active torsions:
REMARK  status: ('A' for Active; 'I' for Inactive)
REMARK    1  A    between atoms: N2_5  and  C4_7 
ROOT
HETATM    1  C1  UNL     1      16.696  29.105  22.412  1.00  0.00     0.020 C 
HETATM    2  C2  UNL     1      15.608  29.095  22.936  1.00  0.00    -0.044 C 
HETATM    3  C3  UNL     1      14.309  29.105  23.551  1.00  0.00     0.171 C 
HETATM    4  N1  UNL     1      13.156  28.971  22.729  1.00  0.00    -0.072 NA
HETATM    5  N2  UNL     1      14.124  29.230  24.821  1.00  0.00    -0.322 N 
ATOM      6  H2  UNL     1      13.171  29.227  25.186  1.00  0.00     0.169 HD
ENDROOT
BRANCH   5   7
HETATM    7  C4  UNL     1      15.218  29.371  25.735  1.00  0.00     0.142 A 
HETATM    8  N3  UNL     1      15.867  30.533  25.890  1.00  0.00    -0.292 N 
HETATM    9  C5  UNL     1      16.886  30.625  26.756  1.00  0.00     0.327 A 
ATOM     10  H3  UNL     1      15.585  31.349  25.346  1.00  0.00     0.172 HD
HETATM   11  O1  UNL     1      17.500  31.730  26.900  1.00  0.00    -0.247 OA
HETATM   12  N4  UNL     1      17.305  29.592  27.497  1.00  0.00    -0.292 N 
HETATM   13  C6  UNL     1      16.681  28.402  27.374  1.00  0.00     0.144 A 
ATOM     14  H4  UNL     1      18.085  29.702  28.144  1.00  0.00     0.172 HD
HETATM   15  N5  UNL     1      16.869  27.213  27.968  1.00  0.00    -0.292 N 
HETATM   16  C8  UNL     1      15.634  28.296  26.487  1.00  0.00     0.125 A 
HETATM   17  C7  UNL     1      15.953  26.384  27.457  1.00  0.00     0.326 A 
ATOM     18  H5  UNL     1      17.573  26.986  28.671  1.00  0.00     0.172 HD
HETATM   19  O2  UNL     1      15.821  25.177  27.775  1.00  0.00    -0.247 OA
HETATM   20  N6  UNL     1      15.187  27.025  26.551  1.00  0.00    -0.302 N 
ATOM     21  H6  UNL     1      14.417  26.625  26.015  1.00  0.00     0.171 HD
ENDBRANCH   5   7
TORSDOF 1
ENDMDL
MODEL 2
REMARK VINA RESULT: -6.941098616      2.302      4.149
REMARK  1 active torsions:
REMARK  status: ('A' for Active; 'I' for Inactive)
REMARK    1  A    between atoms: N2_5  and  C4_7 
ROOT
HETATM    1  C1  UNL     1      17.283  26.800  28.444  1.00  0.00     0.020 C 
HETATM    2  C2  UNL     1      16.238  26.810  27.837  1.00  0.00    -0.044 C 
HETATM    3  C3  UNL     1      15.002  26.803  27.105  1.00  0.00     0.171 C 
HETATM    4  N1  UNL     1      14.038  25.796  27.388  1.00  0.00    -0.072 NA
HETATM    5  N2  UNL     1      14.711  27.668  26.193  1.00  0.00    -0.322 N 
ATOM      6  H2  UNL     1      13.812  27.600  25.715  1.00  0.00     0.169 HD
ENDROOT
BRANCH   5   7
HETATM    7  C4  UNL     1      15.612  28.720  25.833  1.00  0.00     0.142 A 
HETATM    8  N3  UNL     1      15.972  29.675  26.701  1.00  0.00    -0.292 N 
HETATM    9  C5  UNL     1      16.819  30.643  26.325  1.00  0.00     0.327 A 
ATOM     10  H3  UNL     1      15.601  29.664  27.651  1.00  0.00     0.172 HD
HETATM   11  O1  UNL     1      17.159  31.547  27.153  1.00  0.00    -0.247 OA
HETATM   12  N4  UNL     1      17.340  30.715  25.094  1.00  0.00    -0.292 N 
HETATM   13  C6  UNL     1      17.006  29.776  24.185  1.00  0.00     0.144 A 
ATOM     14  H4  UNL     1      17.981  31.468  24.847  1.00  0.00     0.172 HD
HETATM   15  N5  UNL     1      17.358  29.586  22.903  1.00  0.00    -0.292 N 
HETATM   16  C8  UNL     1      16.137  28.776  24.561  1.00  0.00     0.125 A 
HETATM   17  C7  UNL     1      16.717  28.487  22.492  1.00  0.00     0.326 A 
ATOM     18  H5  UNL     1      17.990  30.167  22.352  1.00  0.00     0.172 HD
HETATM   19  O2  UNL     1      16.801  27.997  21.341  1.00  0.00    -0.247 OA
HETATM   20  N6  UNL     1      15.966  27.976  23.489  1.00  0.00    -0.302 N 
ATOM     21  H6  UNL     1      15.380  27.143  23.441  1.00  0.00     0.171 HD
ENDBRANCH   5   7
TORSDOF 1
ENDMDL
MODEL 3
REMARK VINA RESULT: -6.633529802      3.063      5.151
REMARK  1 active torsions:
REMARK  status: ('A' for Active; 'I' for Inactive)
REMARK    1  A    between atoms: N2_5  and  C4_7 
ROOT
HETATM    1  C1  UNL     1      17.197  30.855  25.694  1.00  0.00     0.020 C 
HETATM    2  C2  UNL     1      17.282  29.656  25.578  1.00  0.00    -0.044 C 
HETATM    3  C3  UNL     1      17.407  28.231  25.439  1.00  0.00     0.171 C 
HETATM    4  N1  UNL     1      17.900  27.471  26.536  1.00  0.00    -0.072 NA
HETATM    5  N2  UNL     1      17.095  27.591  24.363  1.00  0.00    -0.322 N 
ATOM      6  H2  UNL     1      17.210  26.578  24.339  1.00  0.00     0.169 HD
ENDROOT
BRANCH   5   7
HETATM    7  C4  UNL     1      16.591  28.262  23.203  1.00  0.00     0.142 A 
HETATM    8  N3  UNL     1      17.397  28.675  22.216  1.00  0.00    -0.292 N 
HETATM    9  C5  UNL     1      16.887  29.299  21.146  1.00  0.00     0.327 A 
ATOM     10  H3  UNL     1      18.403  28.515  22.280  1.00  0.00     0.172 HD
HETATM   11  O1  UNL     1      17.656  29.690  20.211  1.00  0.00    -0.247 OA
HETATM   12  N4  UNL     1      15.578  29.541  21.002  1.00  0.00    -0.292 N 
HETATM   13  C6  UNL     1      14.728  29.144  21.970  1.00  0.00     0.144 A 
ATOM     14  H4  UNL     1      15.229  30.020  20.172  1.00  0.00     0.172 HD
HETATM   15  N5  UNL     1      13.395  29.242  22.105  1.00  0.00    -0.292 N 
HETATM   16  C8  UNL     1      15.241  28.502  23.074  1.00  0.00     0.125 A 
HETATM   17  C7  UNL     1      13.089  28.671  23.275  1.00  0.00     0.326 A 
ATOM     18  H5  UNL     1      12.745  29.669  21.446  1.00  0.00     0.172 HD
HETATM   19  O2  UNL     1      11.930  28.572  23.743  1.00  0.00    -0.247 OA
HETATM   20  N6  UNL     1      14.202  28.211  23.883  1.00  0.00    -0.302 N 
ATOM     21  H6  UNL     1      14.249  27.734  24.784  1.00  0.00     0.171 HD
ENDBRANCH   5   7
TORSDOF 1
ENDMDL
MODEL 4
REMARK VINA RESULT: -6.537331486      2.472      3.316
REMARK  1 active torsions:
REMARK  status: ('A' for Active; 'I' for Inactive)
REMARK    1  A    between atoms: N2_5  and  C4_7 
ROOT
HETATM    1  C1  UNL     1      17.019  31.089  26.596  1.00  0.00     0.020 C 
HETATM    2  C2  UNL     1      16.292  30.212  26.195  1.00  0.00    -0.044 C 
HETATM    3  C3  UNL     1      15.410  29.175  25.734  1.00  0.00     0.171 C 
HETATM    4  N1  UNL     1      14.246  29.534  25.000  1.00  0.00    -0.072 NA
HETATM    5  N2  UNL     1      15.615  27.920  25.950  1.00  0.00    -0.322 N 
ATOM      6  H2  UNL     1      14.944  27.240  25.591  1.00  0.00     0.169 HD
ENDROOT
BRANCH   5   7
HETATM    7  C4  UNL     1      16.755  27.453  26.679  1.00  0.00     0.142 A 
HETATM    8  N3  UNL     1      17.965  27.347  26.112  1.00  0.00    -0.292 N 
HETATM    9  C5  UNL     1      19.008  26.906  26.828  1.00  0.00     0.327 A 
ATOM     10  H3  UNL     1      18.091  27.603  25.133  1.00  0.00     0.172 HD
HETATM   11  O1  UNL     1      20.155  26.808  26.286  1.00  0.00    -0.247 OA
HETATM   12  N4  UNL     1      18.908  26.553  28.116  1.00  0.00    -0.292 N 
HETATM   13  C6  UNL     1      17.710  26.643  28.729  1.00  0.00     0.144 A 
ATOM     14  H4  UNL     1      19.726  26.222  28.626  1.00  0.00     0.172 HD
HETATM   15  N5  UNL     1      17.307  26.369  29.980  1.00  0.00    -0.292 N 
HETATM   16  C8  UNL     1      16.631  27.094  28.002  1.00  0.00     0.125 A 
HETATM   17  C7  UNL     1      16.000  26.646  30.027  1.00  0.00     0.326 A 
ATOM     18  H5  UNL     1      17.885  26.018  30.744  1.00  0.00     0.172 HD
HETATM   19  O2  UNL     1      15.275  26.513  31.043  1.00  0.00    -0.247 OA
HETATM   20  N6  UNL     1      15.566  27.091  28.830  1.00  0.00    -0.302 N 
ATOM     21  H6  UNL     1      14.615  27.372  28.596  1.00  0.00     0.171 HD
ENDBRANCH   5   7
TORSDOF 1
ENDMDL
MODEL 5
REMARK VINA RESULT: -6.522766933      2.806      4.047
REMARK  1 active torsions:
REMARK  status: ('A' for Active; 'I' for Inactive)
REMARK    1  A    between atoms: N2_5  and  C4_7 
ROOT
HETATM    1  C1  UNL     1      17.101  30.984  26.392  1.00  0.00     0.020 C 
HETATM    2  C2  UNL     1      17.236  30.146  25.533  1.00  0.00    -0.044 C 
HETATM    3  C3  UNL     1      17.374  29.154  24.502  1.00  0.00     0.171 C 
HETATM    4  N1  UNL     1      17.505  29.577  23.150  1.00  0.00    -0.072 NA
HETATM    5  N2  UNL     1      17.388  27.885  24.734  1.00  0.00    -0.322 N 
ATOM      6  H2  UNL     1      17.491  27.240  23.950  1.00  0.00     0.169 HD
ENDROOT
BRANCH   5   7
HETATM    7  C4  UNL     1      17.263  27.356  26.058  1.00  0.00     0.142 A 
HETATM    8  N3  UNL     1      16.071  27.080  26.602  1.00  0.00    -0.292 N 
HETATM    9  C5  UNL     1      15.996  26.585  27.845  1.00  0.00     0.327 A 
ATOM     10  H3  UNL     1      15.217  27.247  26.069  1.00  0.00     0.172 HD
HETATM   11  O1  UNL     1      14.861  26.323  28.358  1.00  0.00    -0.247 OA
HETATM   12  N4  UNL     1      17.076  26.344  28.598  1.00  0.00    -0.292 N 
HETATM   13  C6  UNL     1      18.299  26.607  28.092  1.00  0.00     0.144 A 
ATOM     14  H4  UNL     1      16.977  25.968  29.540  1.00  0.00     0.172 HD
HETATM   15  N5  UNL     1      19.537  26.474  28.593  1.00  0.00    -0.292 N 
HETATM   16  C8  UNL     1      18.387  27.116  26.816  1.00  0.00     0.125 A 
HETATM   17  C7  UNL     1      20.379  26.893  27.643  1.00  0.00     0.326 A 
ATOM     18  H5  UNL     1      19.786  26.122  29.518  1.00  0.00     0.172 HD
HETATM   19  O2  UNL     1      21.628  26.915  27.751  1.00  0.00    -0.247 OA
HETATM   20  N6  UNL     1      19.698  27.290  26.548  1.00  0.00    -0.302 N 
ATOM     21  H6  UNL     1      20.098  27.652  25.683  1.00  0.00     0.171 HD
ENDBRANCH   5   7
TORSDOF 1
ENDMDL
