MODEL 1
REMARK VINA RESULT: -7.265848154      0.000      0.000
REMARK  2 active torsions:
REMARK  status: ('A' for Active; 'I' for Inactive)
REMARK    1  A    between atoms: C5_9  and  N3_10 
REMARK    2  A    between atoms: N3_10  and  N4_12 
ROOT
HETATM    1  N1  UNL     1      17.079  29.081  21.621  1.00  0.00    -0.190 NA
HETATM    2  C1  UNL     1      17.021  29.031  22.793  1.00  0.00     0.118 C 
HETATM    3  C2  UNL     1      16.932  28.987  24.227  1.00  0.00     0.135 A 
HETATM    4  C3  UNL     1      16.975  30.172  24.931  1.00  0.00     0.116 A 
HETATM    5  C4  UNL     1      16.887  30.108  26.308  1.00  0.00     0.262 A 
HETATM    6  O1  UNL     1      16.927  31.186  26.948  1.00  0.00    -0.268 OA
HETATM    7  N2  UNL     1      16.764  28.905  26.920  1.00  0.00    -0.155 N 
ATOM      8  H2  UNL     1      16.701  28.874  27.937  1.00  0.00     0.187 HD
HETATM    9  C5  UNL     1      16.722  27.751  26.231  1.00  0.00     0.702 A 
HETATM   10  N7  UNL     1      16.806  27.814  24.897  1.00  0.00    -0.180 N 
ATOM     11  H7  UNL     1      16.775  26.946  24.363  1.00  0.00     0.185 HD
ENDROOT
BRANCH   9  12
HETATM   12  N3  UNL     1      16.603  26.660  26.878  1.00  0.00    -0.113 N 
ATOM     13  H3  UNL     1      17.382  26.003  26.813  1.00  0.00     0.207 HD
BRANCH  12  14
HETATM   14  N4  UNL     1      15.531  26.273  27.656  1.00  0.00    -0.198 N 
HETATM   15  C6  UNL     1      15.251  26.551  29.053  1.00  0.00     0.296 C 
HETATM   16  N5  UNL     1      13.810  26.701  29.048  1.00  0.00    -0.322 N 
HETATM   17  C7  UNL     1      13.326  25.748  28.111  1.00  0.00     0.337 C 
ATOM     18  H5  UNL     1      13.257  27.355  29.603  1.00  0.00     0.166 HD
HETATM   19  O2  UNL     1      12.169  25.241  28.064  1.00  0.00    -0.245 OA
HETATM   20  N6  UNL     1      14.435  25.495  27.241  1.00  0.00    -0.233 N 
ATOM     21  H6  UNL     1      14.431  24.853  26.448  1.00  0.00     0.193 HD
ENDBRANCH  12  14
ENDBRANCH   9  12
TORSDOF 2
ENDMDL
MODEL 2
REMARK VINA RESULT: -7.218865821      2.333      2.802
REMARK  2 active torsions:
REMARK  status: ('A' for Active; 'I' for Inactive)
REMARK    1  A    between atoms: C5_9  and  N3_10 
REMARK    2  A    between atoms: N3_10  and  N4_12 
ROOT
HETATM    1  N1  UNL     1      12.408  28.772  23.524  1.00  0.00    -0.190 NA
HETATM    2  C1  UNL     1      13.577  28.732  23.638  1.00  0.00     0.118 C 
HETATM    3  C2  UNL     1      15.007  28.707  23.775  1.00  0.00     0.135 A 
HETATM    4  C3  UNL     1      15.775  29.351  22.827  1.00  0.00     0.116 A 
HETATM    5  C4  UNL     1      17.148  29.315  22.977  1.00  0.00     0.262 A 
HETATM    6  O1  UNL     1      17.846  29.900  22.115  1.00  0.00    -0.268 OA
HETATM    7  N2  UNL     1      17.694  28.660  24.031  1.00  0.00    -0.155 N 
ATOM      8  H2  UNL     1      18.709  28.642  24.127  1.00  0.00     0.187 HD
HETATM    9  C5  UNL     1      16.943  28.033  24.953  1.00  0.00     0.702 A 
HETATM   10  N7  UNL     1      15.613  28.069  24.808  1.00  0.00    -0.180 N 
ATOM     11  H7  UNL     1      15.032  27.598  25.501  1.00  0.00     0.185 HD
ENDROOT
BRANCH   9  12
HETATM   12  N3  UNL     1      17.529  27.440  25.916  1.00  0.00    -0.113 N 
ATOM     13  H3  UNL     1      18.531  27.278  25.811  1.00  0.00     0.207 HD
BRANCH  12  14
HETATM   14  N4  UNL     1      16.950  26.995  27.087  1.00  0.00    -0.198 N 
HETATM   15  C6  UNL     1      17.030  27.542  28.428  1.00  0.00     0.296 C 
HETATM   16  N5  UNL     1      15.699  27.287  28.940  1.00  0.00    -0.322 N 
HETATM   17  C7  UNL     1      15.316  26.027  28.405  1.00  0.00     0.337 C 
ATOM     18  H5  UNL     1      15.151  27.887  29.556  1.00  0.00     0.166 HD
HETATM   19  O2  UNL     1      14.452  25.230  28.869  1.00  0.00    -0.245 OA
HETATM   20  N6  UNL     1      16.122  25.866  27.233  1.00  0.00    -0.233 N 
ATOM     21  H6  UNL     1      16.100  25.063  26.604  1.00  0.00     0.193 HD
ENDBRANCH  12  14
ENDBRANCH   9  12
TORSDOF 2
ENDMDL
MODEL 3
REMARK VINA RESULT: -7.005490153      1.843      1.871
REMARK  2 active torsions:
REMARK  status: ('A' for Active; 'I' for Inactive)
REMARK    1  A    between atoms: C5_9  and  N3_10 
REMARK    2  A    between atoms: N3_10  and  N4_12 
ROOT
HETATM    1  N1  UNL     1      12.911  29.022  23.044  1.00  0.00    -0.190 NA
HETATM    2  C1  UNL     1      13.744  28.977  23.870  1.00  0.00     0.118 C 
HETATM    3  C2  UNL     1      14.752  28.939  24.894  1.00  0.00     0.135 A 
HETATM    4  C3  UNL     1      15.327  30.125  25.303  1.00  0.00     0.116 A 
HETATM    5  C4  UNL     1      16.293  30.066  26.289  1.00  0.00     0.262 A 
HETATM    6  O1  UNL     1      16.815  31.144  26.660  1.00  0.00    -0.268 OA
HETATM    7  N2  UNL     1      16.645  28.869  26.818  1.00  0.00    -0.155 N 
ATOM      8  H2  UNL     1      17.360  28.843  27.544  1.00  0.00     0.187 HD
HETATM    9  C5  UNL     1      16.083  27.715  26.417  1.00  0.00     0.702 A 
HETATM   10  N7  UNL     1      15.146  27.772  25.463  1.00  0.00    -0.180 N 
ATOM     11  H7  UNL     1      14.712  26.904  25.151  1.00  0.00     0.185 HD
ENDROOT
BRANCH   9  12
HETATM   12  N3  UNL     1      16.466  26.630  26.963  1.00  0.00    -0.113 N 
ATOM     13  H3  UNL     1      17.274  26.168  26.544  1.00  0.00     0.207 HD
BRANCH  12  14
HETATM   14  N4  UNL     1      15.902  26.013  28.061  1.00  0.00    -0.198 N 
HETATM   15  C6  UNL     1      16.125  26.251  29.475  1.00  0.00     0.296 C 
HETATM   16  N5  UNL     1      14.803  26.044  30.030  1.00  0.00    -0.322 N 
HETATM   17  C7  UNL     1      14.234  24.976  29.282  1.00  0.00     0.337 C 
ATOM     18  H5  UNL     1      14.370  26.557  30.797  1.00  0.00     0.166 HD
HETATM   19  O2  UNL     1      13.304  24.201  29.642  1.00  0.00    -0.245 OA
HETATM   20  N6  UNL     1      14.947  24.980  28.040  1.00  0.00    -0.233 N 
ATOM     21  H6  UNL     1      14.789  24.336  27.265  1.00  0.00     0.193 HD
ENDBRANCH  12  14
ENDBRANCH   9  12
TORSDOF 2
ENDMDL
MODEL 4
REMARK VINA RESULT: -7.001049300      3.076      3.796
REMARK  2 active torsions:
REMARK  status: ('A' for Active; 'I' for Inactive)
REMARK    1  A    between atoms: C5_9  and  N3_10 
REMARK    2  A    between atoms: N3_10  and  N4_12 
ROOT
HETATM    1  N1  UNL     1      12.414  28.780  23.537  1.00  0.00    -0.190 NA
HETATM    2  C1  UNL     1      13.575  28.732  23.710  1.00  0.00     0.118 C 
HETATM    3  C2  UNL     1      14.996  28.697  23.921  1.00  0.00     0.135 A 
HETATM    4  C3  UNL     1      15.815  29.363  23.033  1.00  0.00     0.116 A 
HETATM    5  C4  UNL     1      17.178  29.318  23.254  1.00  0.00     0.262 A 
HETATM    6  O1  UNL     1      17.922  29.923  22.446  1.00  0.00    -0.268 OA
HETATM    7  N2  UNL     1      17.666  28.634  24.317  1.00  0.00    -0.155 N 
ATOM      8  H2  UNL     1      18.674  28.609  24.466  1.00  0.00     0.187 HD
HETATM    9  C5  UNL     1      16.866  27.985  25.181  1.00  0.00     0.702 A 
HETATM   10  N7  UNL     1      15.545  28.030  24.967  1.00  0.00    -0.180 N 
ATOM     11  H7  UNL     1      14.927  27.543  25.616  1.00  0.00     0.185 HD
ENDROOT
BRANCH   9  12
HETATM   12  N3  UNL     1      17.399  27.364  26.157  1.00  0.00    -0.113 N 
ATOM     13  H3  UNL     1      17.968  26.550  25.925  1.00  0.00     0.207 HD
BRANCH  12  14
HETATM   14  N4  UNL     1      17.287  27.679  27.496  1.00  0.00    -0.198 N 
HETATM   15  C6  UNL     1      16.786  26.879  28.599  1.00  0.00     0.296 C 
HETATM   16  N5  UNL     1      17.657  27.280  29.685  1.00  0.00    -0.322 N 
HETATM   17  C7  UNL     1      17.894  28.669  29.496  1.00  0.00     0.337 C 
ATOM     18  H5  UNL     1      18.023  26.689  30.430  1.00  0.00     0.166 HD
HETATM   19  O2  UNL     1      18.241  29.512  30.371  1.00  0.00    -0.245 OA
HETATM   20  N6  UNL     1      17.654  28.895  28.102  1.00  0.00    -0.233 N 
ATOM     21  H6  UNL     1      17.736  29.793  27.625  1.00  0.00     0.193 HD
ENDBRANCH  12  14
ENDBRANCH   9  12
TORSDOF 2
ENDMDL
MODEL 5
REMARK VINA RESULT: -6.982486184      3.532      4.335
REMARK  2 active torsions:
REMARK  status: ('A' for Active; 'I' for Inactive)
REMARK    1  A    between atoms: C5_9  and  N3_10 
REMARK    2  A    between atoms: N3_10  and  N4_12 
ROOT
HETATM    1  N1  UNL     1      12.455  28.707  23.472  1.00  0.00    -0.190 NA
HETATM    2  C1  UNL     1      13.614  28.852  23.601  1.00  0.00     0.118 C 
HETATM    3  C2  UNL     1      15.030  29.051  23.747  1.00  0.00     0.135 A 
HETATM    4  C3  UNL     1      15.780  29.331  22.623  1.00  0.00     0.116 A 
HETATM    5  C4  UNL     1      17.139  29.519  22.785  1.00  0.00     0.262 A 
HETATM    6  O1  UNL     1      17.820  29.772  21.763  1.00  0.00    -0.268 OA
HETATM    7  N2  UNL     1      17.690  29.424  24.019  1.00  0.00    -0.155 N 
ATOM      8  H2  UNL     1      18.695  29.565  24.122  1.00  0.00     0.187 HD
HETATM    9  C5  UNL     1      16.957  29.151  25.113  1.00  0.00     0.702 A 
HETATM   10  N7  UNL     1      15.640  28.970  24.956  1.00  0.00    -0.180 N 
ATOM     11  H7  UNL     1      15.073  28.763  25.777  1.00  0.00     0.185 HD
ENDROOT
BRANCH   9  12
HETATM   12  N3  UNL     1      17.547  29.080  26.240  1.00  0.00    -0.113 N 
ATOM     13  H3  UNL     1      17.564  29.931  26.802  1.00  0.00     0.207 HD
BRANCH  12  14
HETATM   14  N4  UNL     1      18.165  27.970  26.779  1.00  0.00    -0.198 N 
HETATM   15  C6  UNL     1      17.647  26.975  27.699  1.00  0.00     0.296 C 
HETATM   16  N5  UNL     1      18.285  25.763  27.225  1.00  0.00    -0.322 N 
HETATM   17  C7  UNL     1      19.591  26.150  26.816  1.00  0.00     0.337 C 
ATOM     18  H5  UNL     1      17.881  24.827  27.192  1.00  0.00     0.166 HD
HETATM   19  O2  UNL     1      20.612  25.412  26.720  1.00  0.00    -0.245 OA
HETATM   20  N6  UNL     1      19.487  27.551  26.539  1.00  0.00    -0.233 N 
ATOM     21  H6  UNL     1      20.249  28.149  26.218  1.00  0.00     0.193 HD
ENDBRANCH  12  14
ENDBRANCH   9  12
TORSDOF 2
ENDMDL
