MODEL 1
REMARK VINA RESULT: -6.562011921      0.000      0.000
REMARK  5 active torsions:
REMARK  status: ('A' for Active; 'I' for Inactive)
REMARK    1  A    between atoms: C1_2  and  C2_4 
REMARK       I    between atoms: C2_4  and  N2_6 
REMARK    2  A    between atoms: N2_6  and  N3_8 
REMARK    3  A    between atoms: N3_8  and  C3_9 
REMARK    4  A    between atoms: C3_9  and  O3_10 
REMARK    5  A    between atoms: C3_9  and  C4_12 
ROOT
HETATM    1  C3  UNL     1      15.191  29.306  25.436  1.00  0.00     0.283 C 
ENDROOT
BRANCH   1   2
HETATM    2  N3  UNL     1      15.394  29.208  24.087  1.00  0.00    -0.293 NA
BRANCH   2   3
HETATM    3  N2  UNL     1      15.588  29.124  22.824  1.00  0.00    -0.192 N 
HETATM    4  C2  UNL     1      16.810  29.418  22.173  1.00  0.00     0.335 C 
HETATM    5  O2  UNL     1      17.857  29.832  22.799  1.00  0.00    -0.260 OA
ATOM      6  H2  UNL     1      14.803  28.823  22.245  1.00  0.00     0.205 HD
BRANCH   4   7
HETATM    7  C1  UNL     1      16.985  29.239  20.702  1.00  0.00     0.325 C 
HETATM    8  N1  UNL     1      17.570  30.386  20.015  1.00  0.00    -0.053 NA
HETATM    9  O1  UNL     1      16.699  28.224  20.200  1.00  0.00    -0.266 OA
ENDBRANCH   4   7
ENDBRANCH   2   3
ENDBRANCH   1   2
BRANCH   1  10
HETATM   10  O3  UNL     1      14.423  30.200  26.003  1.00  0.00    -0.331 OA
ATOM     11  H3  UNL     1      13.500  30.073  26.188  1.00  0.00     0.220 HD
ENDBRANCH   1  10
BRANCH   1  12
HETATM   12  C4  UNL     1      15.821  28.431  26.422  1.00  0.00     0.176 A 
HETATM   13  N4  UNL     1      16.845  28.987  27.158  1.00  0.00    -0.348 N 
HETATM   14  C5  UNL     1      17.428  28.235  28.100  1.00  0.00     0.095 A 
ATOM     15  H4  UNL     1      17.151  29.945  26.990  1.00  0.00     0.167 HD
HETATM   16  C6  UNL     1      17.023  26.973  28.328  1.00  0.00     0.091 A 
HETATM   17  C7  UNL     1      15.978  26.430  27.573  1.00  0.00     0.248 A 
HETATM   18  O4  UNL     1      15.644  25.269  27.792  1.00  0.00    -0.268 OA
HETATM   19  N5  UNL     1      15.390  27.208  26.612  1.00  0.00    -0.305 N 
ATOM     20  H5  UNL     1      14.623  26.840  26.049  1.00  0.00     0.170 HD
ENDBRANCH   1  12
TORSDOF 5
ENDMDL
MODEL 2
REMARK VINA RESULT: -6.530454695      3.543      7.298
REMARK  5 active torsions:
REMARK  status: ('A' for Active; 'I' for Inactive)
REMARK    1  A    between atoms: C1_2  and  C2_4 
REMARK       I    between atoms: C2_4  and  N2_6 
REMARK    2  A    between atoms: N2_6  and  N3_8 
REMARK    3  A    between atoms: N3_8  and  C3_9 
REMARK    4  A    between atoms: C3_9  and  O3_10 
REMARK    5  A    between atoms: C3_9  and  C4_12 
ROOT
HETATM    1  C3  UNL     1      14.784  27.036  27.387  1.00  0.00     0.283 C 
ENDROOT
BRANCH   1   2
HETATM    2  N3  UNL     1      13.830  27.248  28.344  1.00  0.00    -0.293 NA
BRANCH   2   3
HETATM    3  N2  UNL     1      12.936  27.455  29.237  1.00  0.00    -0.192 N 
HETATM    4  C2  UNL     1      11.639  26.888  29.229  1.00  0.00     0.335 C 
HETATM    5  O2  UNL     1      11.216  26.115  28.289  1.00  0.00    -0.260 OA
ATOM      6  H2  UNL     1      13.177  28.073  30.012  1.00  0.00     0.205 HD
BRANCH   4   7
HETATM    7  C1  UNL     1      10.667  27.122  30.336  1.00  0.00     0.325 C 
HETATM    8  N1  UNL     1       9.643  28.121  30.045  1.00  0.00    -0.053 NA
HETATM    9  O1  UNL     1      10.741  26.496  31.319  1.00  0.00    -0.266 OA
ENDBRANCH   4   7
ENDBRANCH   2   3
ENDBRANCH   1   2
BRANCH   1  10
HETATM   10  O3  UNL     1      15.377  25.890  27.180  1.00  0.00    -0.331 OA
ATOM     11  H3  UNL     1      16.107  25.765  26.585  1.00  0.00     0.220 HD
ENDBRANCH   1  10
BRANCH   1  12
HETATM   12  C4  UNL     1      15.277  28.072  26.482  1.00  0.00     0.176 A 
HETATM   13  N4  UNL     1      14.909  27.944  25.160  1.00  0.00    -0.348 N 
HETATM   14  C5  UNL     1      15.306  28.891  24.299  1.00  0.00     0.095 A 
ATOM     15  H4  UNL     1      14.351  27.151  24.845  1.00  0.00     0.167 HD
HETATM   16  C6  UNL     1      16.038  29.940  24.713  1.00  0.00     0.091 A 
HETATM   17  C7  UNL     1      16.396  30.053  26.060  1.00  0.00     0.248 A 
HETATM   18  O4  UNL     1      17.080  31.012  26.402  1.00  0.00    -0.268 OA
HETATM   19  N5  UNL     1      15.985  29.078  26.931  1.00  0.00    -0.305 N 
ATOM     20  H5  UNL     1      16.227  29.136  27.920  1.00  0.00     0.170 HD
ENDBRANCH   1  12
TORSDOF 5
ENDMDL
MODEL 3
REMARK VINA RESULT: -6.514542697      3.476      7.164
REMARK  5 active torsions:
REMARK  status: ('A' for Active; 'I' for Inactive)
REMARK    1  A    between atoms: C1_2  and  C2_4 
REMARK       I    between atoms: C2_4  and  N2_6 
REMARK    2  A    between atoms: N2_6  and  N3_8 
REMARK    3  A    between atoms: N3_8  and  C3_9 
REMARK    4  A    between atoms: C3_9  and  O3_10 
REMARK    5  A    between atoms: C3_9  and  C4_12 
ROOT
HETATM    1  C3  UNL     1      14.862  26.980  27.364  1.00  0.00     0.283 C 
ENDROOT
BRANCH   1   2
HETATM    2  N3  UNL     1      13.905  27.240  28.305  1.00  0.00    -0.293 NA
BRANCH   2   3
HETATM    3  N2  UNL     1      13.004  27.475  29.185  1.00  0.00    -0.192 N 
HETATM    4  C2  UNL     1      11.715  26.891  29.198  1.00  0.00     0.335 C 
HETATM    5  O2  UNL     1      11.307  26.070  28.293  1.00  0.00    -0.260 OA
ATOM      6  H2  UNL     1      13.234  28.132  29.932  1.00  0.00     0.205 HD
BRANCH   4   7
HETATM    7  C1  UNL     1      10.735  27.162  30.290  1.00  0.00     0.325 C 
HETATM    8  N1  UNL     1       9.730  28.170  29.968  1.00  0.00    -0.053 NA
HETATM    9  O1  UNL     1      10.790  26.555  31.287  1.00  0.00    -0.266 OA
ENDBRANCH   4   7
ENDBRANCH   2   3
ENDBRANCH   1   2
BRANCH   1  10
HETATM   10  O3  UNL     1      15.489  25.838  27.246  1.00  0.00    -0.331 OA
ATOM     11  H3  UNL     1      15.707  25.430  26.417  1.00  0.00     0.220 HD
ENDBRANCH   1  10
BRANCH   1  12
HETATM   12  C4  UNL     1      15.321  27.953  26.376  1.00  0.00     0.176 A 
HETATM   13  N4  UNL     1      15.026  29.273  26.645  1.00  0.00    -0.348 N 
HETATM   14  C5  UNL     1      15.459  30.205  25.786  1.00  0.00     0.095 A 
ATOM     15  H4  UNL     1      14.493  29.532  27.474  1.00  0.00     0.167 HD
HETATM   16  C6  UNL     1      16.167  29.866  24.694  1.00  0.00     0.091 A 
HETATM   17  C7  UNL     1      16.459  28.521  24.443  1.00  0.00     0.248 A 
HETATM   18  O4  UNL     1      17.090  28.242  23.428  1.00  0.00    -0.268 OA
HETATM   19  N5  UNL     1      16.010  27.576  25.328  1.00  0.00    -0.305 N 
ATOM     20  H5  UNL     1      16.212  26.588  25.172  1.00  0.00     0.170 HD
ENDBRANCH   1  12
TORSDOF 5
ENDMDL
MODEL 4
REMARK VINA RESULT: -6.510230764      1.017      1.556
REMARK  5 active torsions:
REMARK  status: ('A' for Active; 'I' for Inactive)
REMARK    1  A    between atoms: C1_2  and  C2_4 
REMARK       I    between atoms: C2_4  and  N2_6 
REMARK    2  A    between atoms: N2_6  and  N3_8 
REMARK    3  A    between atoms: N3_8  and  C3_9 
REMARK    4  A    between atoms: C3_9  and  O3_10 
REMARK    5  A    between atoms: C3_9  and  C4_12 
ROOT
HETATM    1  C3  UNL     1      15.085  29.259  25.511  1.00  0.00     0.283 C 
ENDROOT
BRANCH   1   2
HETATM    2  N3  UNL     1      15.313  29.148  24.167  1.00  0.00    -0.293 NA
BRANCH   2   3
HETATM    3  N2  UNL     1      15.535  29.044  22.910  1.00  0.00    -0.192 N 
HETATM    4  C2  UNL     1      16.761  29.360  22.277  1.00  0.00     0.335 C 
HETATM    5  O2  UNL     1      17.783  29.817  22.915  1.00  0.00    -0.260 OA
ATOM      6  H2  UNL     1      14.772  28.708  22.321  1.00  0.00     0.205 HD
BRANCH   4   7
HETATM    7  C1  UNL     1      16.972  29.156  20.815  1.00  0.00     0.325 C 
HETATM    8  N1  UNL     1      17.570  30.293  20.122  1.00  0.00    -0.053 NA
HETATM    9  O1  UNL     1      16.701  28.131  20.324  1.00  0.00    -0.266 OA
ENDBRANCH   4   7
ENDBRANCH   2   3
ENDBRANCH   1   2
BRANCH   1  10
HETATM   10  O3  UNL     1      14.356  30.195  26.060  1.00  0.00    -0.331 OA
ATOM     11  H3  UNL     1      14.662  30.782  26.742  1.00  0.00     0.220 HD
ENDBRANCH   1  10
BRANCH   1  12
HETATM   12  C4  UNL     1      15.642  28.351  26.511  1.00  0.00     0.176 A 
HETATM   13  N4  UNL     1      15.029  27.121  26.619  1.00  0.00    -0.348 N 
HETATM   14  C5  UNL     1      15.528  26.240  27.496  1.00  0.00     0.095 A 
ATOM     15  H4  UNL     1      14.218  26.888  26.047  1.00  0.00     0.167 HD
HETATM   16  C6  UNL     1      16.601  26.543  28.247  1.00  0.00     0.091 A 
HETATM   17  C7  UNL     1      17.211  27.796  28.118  1.00  0.00     0.248 A 
HETATM   18  O4  UNL     1      18.177  28.049  28.832  1.00  0.00    -0.268 OA
HETATM   19  N5  UNL     1      16.691  28.688  27.218  1.00  0.00    -0.305 N 
ATOM     20  H5  UNL     1      17.117  29.608  27.100  1.00  0.00     0.170 HD
ENDBRANCH   1  12
TORSDOF 5
ENDMDL
MODEL 5
REMARK VINA RESULT: -6.439750223      1.688      1.845
REMARK  5 active torsions:
REMARK  status: ('A' for Active; 'I' for Inactive)
REMARK    1  A    between atoms: C1_2  and  C2_4 
REMARK       I    between atoms: C2_4  and  N2_6 
REMARK    2  A    between atoms: N2_6  and  N3_8 
REMARK    3  A    between atoms: N3_8  and  C3_9 
REMARK    4  A    between atoms: C3_9  and  O3_10 
REMARK    5  A    between atoms: C3_9  and  C4_12 
ROOT
HETATM    1  C3  UNL     1      15.720  28.316  25.516  1.00  0.00     0.283 C 
ENDROOT
BRANCH   1   2
HETATM    2  N3  UNL     1      15.825  28.387  24.155  1.00  0.00    -0.293 NA
BRANCH   2   3
HETATM    3  N2  UNL     1      15.930  28.458  22.880  1.00  0.00    -0.192 N 
HETATM    4  C2  UNL     1      16.910  29.213  22.191  1.00  0.00     0.335 C 
HETATM    5  O2  UNL     1      17.789  29.937  22.793  1.00  0.00    -0.260 OA
ATOM      6  H2  UNL     1      15.259  27.931  22.320  1.00  0.00     0.205 HD
BRANCH   4   7
HETATM    7  C1  UNL     1      17.014  29.202  20.703  1.00  0.00     0.325 C 
HETATM    8  N1  UNL     1      17.570  30.421  20.123  1.00  0.00    -0.053 NA
HETATM    9  O1  UNL     1      16.702  28.249  20.104  1.00  0.00    -0.266 OA
ENDBRANCH   4   7
ENDBRANCH   2   3
ENDBRANCH   1   2
BRANCH   1  10
HETATM   10  O3  UNL     1      14.623  28.557  26.185  1.00  0.00    -0.331 OA
ATOM     11  H3  UNL     1      14.384  29.409  26.532  1.00  0.00     0.220 HD
ENDBRANCH   1  10
BRANCH   1  12
HETATM   12  C4  UNL     1      16.830  27.974  26.403  1.00  0.00     0.176 A 
HETATM   13  N4  UNL     1      16.557  28.009  27.754  1.00  0.00    -0.348 N 
HETATM   14  C5  UNL     1      17.533  27.667  28.605  1.00  0.00     0.095 A 
ATOM     15  H4  UNL     1      15.638  28.288  28.096  1.00  0.00     0.167 HD
HETATM   16  C6  UNL     1      18.744  27.294  28.157  1.00  0.00     0.091 A 
HETATM   17  C7  UNL     1      18.998  27.261  26.782  1.00  0.00     0.248 A 
HETATM   18  O4  UNL     1      20.120  26.934  26.404  1.00  0.00    -0.268 OA
HETATM   19  N5  UNL     1      17.993  27.613  25.921  1.00  0.00    -0.305 N 
ATOM     20  H5  UNL     1      18.147  27.594  24.912  1.00  0.00     0.170 HD
ENDBRANCH   1  12
TORSDOF 5
ENDMDL
