MODEL 1
REMARK VINA RESULT: -7.032501712      0.000      0.000
REMARK  3 active torsions:
REMARK  status: ('A' for Active; 'I' for Inactive)
REMARK    1  A    between atoms: C4_7  and  N2_8 
REMARK    2  A    between atoms: N2_8  and  N3_10 
REMARK    3  A    between atoms: N3_10  and  C5_12 
ROOT
HETATM    1  N3  UNL     1      16.802  27.560  25.605  1.00  0.00    -0.270 N 
ATOM      2  H3  UNL     1      16.318  26.823  26.118  1.00  0.00     0.189 HD
ENDROOT
BRANCH   1   3
HETATM    3  N2  UNL     1      18.022  27.946  26.102  1.00  0.00    -0.130 N 
ATOM      4  H2  UNL     1      18.282  28.931  26.121  1.00  0.00     0.205 HD
BRANCH   3   5
HETATM    5  C4  UNL     1      18.836  27.050  26.542  1.00  0.00     0.699 A 
HETATM    6  N1  UNL     1      18.381  25.939  27.176  1.00  0.00    -0.200 N 
HETATM    7  C3  UNL     1      19.214  25.000  27.639  1.00  0.00     0.111 A 
ATOM      8  H1  UNL     1      17.376  25.817  27.303  1.00  0.00     0.183 HD
HETATM    9  C2  UNL     1      20.572  25.117  27.491  1.00  0.00     0.092 A 
HETATM   10  C1  UNL     1      21.046  26.249  26.843  1.00  0.00     0.260 A 
HETATM   11  O1  UNL     1      22.299  26.360  26.705  1.00  0.00    -0.268 OA
HETATM   12  N7  UNL     1      20.168  27.155  26.402  1.00  0.00    -0.155 N 
ATOM     13  H7  UNL     1      20.534  27.981  25.929  1.00  0.00     0.187 HD
ENDBRANCH   3   5
ENDBRANCH   1   3
BRANCH   1  14
HETATM   14  C5  UNL     1      16.208  28.017  24.579  1.00  0.00     0.141 A 
HETATM   15  C6  UNL     1      16.797  28.222  23.355  1.00  0.00     0.157 A 
HETATM   16  N4  UNL     1      16.042  28.711  22.364  1.00  0.00    -0.304 N 
HETATM   17  N5  UNL     1      14.765  29.012  22.477  1.00  0.00    -0.252 N 
ATOM     18  H4  UNL     1      16.486  28.861  21.458  1.00  0.00     0.186 HD
HETATM   19  C7  UNL     1      14.187  28.814  23.663  1.00  0.00     0.340 A 
ATOM     20  H5  UNL     1      14.237  29.382  21.687  1.00  0.00     0.191 HD
HETATM   21  O2  UNL     1      12.976  29.080  23.840  1.00  0.00    -0.245 OA
HETATM   22  N6  UNL     1      14.904  28.326  24.688  1.00  0.00    -0.291 N 
ATOM     23  H6  UNL     1      14.441  28.185  25.585  1.00  0.00     0.172 HD
ENDBRANCH   1  14
TORSDOF 3
ENDMDL
MODEL 2
REMARK VINA RESULT: -6.884736408      1.755      2.102
REMARK  3 active torsions:
REMARK  status: ('A' for Active; 'I' for Inactive)
REMARK    1  A    between atoms: C4_7  and  N2_8 
REMARK    2  A    between atoms: N2_8  and  N3_10 
REMARK    3  A    between atoms: N3_10  and  C5_12 
ROOT
HETATM    1  N3  UNL     1      16.344  30.406  25.660  1.00  0.00    -0.270 N 
ATOM      2  H3  UNL     1      16.809  31.307  25.545  1.00  0.00     0.189 HD
ENDROOT
BRANCH   1   3
HETATM    3  N2  UNL     1      16.361  29.869  26.923  1.00  0.00    -0.130 N 
ATOM      4  H2  UNL     1      15.909  30.356  27.696  1.00  0.00     0.205 HD
BRANCH   3   5
HETATM    5  C4  UNL     1      16.954  28.744  27.121  1.00  0.00     0.699 A 
HETATM    6  N1  UNL     1      16.339  27.734  27.790  1.00  0.00    -0.200 N 
HETATM    7  C3  UNL     1      16.943  26.559  28.004  1.00  0.00     0.111 A 
ATOM      8  H1  UNL     1      15.391  27.876  28.138  1.00  0.00     0.183 HD
HETATM    9  C2  UNL     1      18.216  26.319  27.553  1.00  0.00     0.092 A 
HETATM   10  C1  UNL     1      18.851  27.345  26.868  1.00  0.00     0.260 A 
HETATM   11  O1  UNL     1      20.026  27.128  26.451  1.00  0.00    -0.268 OA
HETATM   12  N7  UNL     1      18.201  28.498  26.685  1.00  0.00    -0.155 N 
ATOM     13  H7  UNL     1      18.683  29.241  26.180  1.00  0.00     0.187 HD
ENDBRANCH   3   5
ENDBRANCH   1   3
BRANCH   1  14
HETATM   14  C5  UNL     1      15.813  29.909  24.617  1.00  0.00     0.141 A 
HETATM   15  C6  UNL     1      16.494  29.576  23.471  1.00  0.00     0.157 A 
HETATM   16  N4  UNL     1      15.798  29.060  22.451  1.00  0.00    -0.304 N 
HETATM   17  N5  UNL     1      14.499  28.846  22.465  1.00  0.00    -0.252 N 
ATOM     18  H4  UNL     1      16.309  28.815  21.603  1.00  0.00     0.186 HD
HETATM   19  C7  UNL     1      13.833  29.167  23.576  1.00  0.00     0.340 A 
ATOM     20  H5  UNL     1      14.019  28.449  21.657  1.00  0.00     0.191 HD
HETATM   21  O2  UNL     1      12.595  28.991  23.657  1.00  0.00    -0.245 OA
HETATM   22  N6  UNL     1      14.487  29.689  24.625  1.00  0.00    -0.291 N 
ATOM     23  H6  UNL     1      13.957  29.928  25.463  1.00  0.00     0.172 HD
ENDBRANCH   1  14
TORSDOF 3
ENDMDL
MODEL 3
REMARK VINA RESULT: -6.884580421      1.792      2.130
REMARK  3 active torsions:
REMARK  status: ('A' for Active; 'I' for Inactive)
REMARK    1  A    between atoms: C4_7  and  N2_8 
REMARK    2  A    between atoms: N2_8  and  N3_10 
REMARK    3  A    between atoms: N3_10  and  C5_12 
ROOT
HETATM    1  N3  UNL     1      17.390  27.116  26.456  1.00  0.00    -0.270 N 
ATOM      2  H3  UNL     1      16.969  26.401  27.050  1.00  0.00     0.189 HD
ENDROOT
BRANCH   1   3
HETATM    3  N2  UNL     1      18.601  26.801  25.891  1.00  0.00    -0.130 N 
ATOM      4  H2  UNL     1      18.769  26.980  24.901  1.00  0.00     0.205 HD
BRANCH   3   5
HETATM    5  C4  UNL     1      19.522  26.278  26.622  1.00  0.00     0.699 A 
HETATM    6  N1  UNL     1      19.406  25.011  27.097  1.00  0.00    -0.200 N 
HETATM    7  C3  UNL     1      20.355  24.453  27.859  1.00  0.00     0.111 A 
ATOM      8  H1  UNL     1      18.573  24.470  26.867  1.00  0.00     0.183 HD
HETATM    9  C2  UNL     1      21.494  25.139  28.193  1.00  0.00     0.092 A 
HETATM   10  C1  UNL     1      21.621  26.434  27.712  1.00  0.00     0.260 A 
HETATM   11  O1  UNL     1      22.671  27.071  28.020  1.00  0.00    -0.268 OA
HETATM   12  N7  UNL     1      20.641  26.941  26.957  1.00  0.00    -0.155 N 
ATOM     13  H7  UNL     1      20.751  27.894  26.612  1.00  0.00     0.187 HD
ENDBRANCH   3   5
ENDBRANCH   1   3
BRANCH   1  14
HETATM   14  C5  UNL     1      16.735  28.197  26.324  1.00  0.00     0.141 A 
HETATM   15  C6  UNL     1      17.056  29.390  26.926  1.00  0.00     0.157 A 
HETATM   16  N4  UNL     1      16.269  30.447  26.692  1.00  0.00    -0.304 N 
HETATM   17  N5  UNL     1      15.202  30.427  25.921  1.00  0.00    -0.252 N 
ATOM     18  H4  UNL     1      16.513  31.330  27.142  1.00  0.00     0.186 HD
HETATM   19  C7  UNL     1      14.885  29.272  25.334  1.00  0.00     0.340 A 
ATOM     20  H5  UNL     1      14.638  31.265  25.778  1.00  0.00     0.191 HD
HETATM   21  O2  UNL     1      13.882  29.183  24.590  1.00  0.00    -0.245 OA
HETATM   22  N6  UNL     1      15.644  28.184  25.539  1.00  0.00    -0.291 N 
ATOM     23  H6  UNL     1      15.382  27.311  25.081  1.00  0.00     0.172 HD
ENDBRANCH   1  14
TORSDOF 3
ENDMDL
MODEL 4
REMARK VINA RESULT: -6.878661341      2.852      5.821
REMARK  3 active torsions:
REMARK  status: ('A' for Active; 'I' for Inactive)
REMARK    1  A    between atoms: C4_7  and  N2_8 
REMARK    2  A    between atoms: N2_8  and  N3_10 
REMARK    3  A    between atoms: N3_10  and  C5_12 
ROOT
HETATM    1  N3  UNL     1      17.252  29.521  27.620  1.00  0.00    -0.270 N 
ATOM      2  H3  UNL     1      17.901  29.932  28.292  1.00  0.00     0.189 HD
ENDROOT
BRANCH   1   3
HETATM    3  N2  UNL     1      16.529  30.402  26.855  1.00  0.00    -0.130 N 
ATOM      4  H2  UNL     1      16.295  31.326  27.217  1.00  0.00     0.205 HD
BRANCH   3   5
HETATM    5  C4  UNL     1      16.148  30.050  25.678  1.00  0.00     0.699 A 
HETATM    6  N1  UNL     1      17.028  29.982  24.646  1.00  0.00    -0.200 N 
HETATM    7  C3  UNL     1      16.647  29.618  23.416  1.00  0.00     0.111 A 
ATOM      8  H1  UNL     1      18.007  30.216  24.813  1.00  0.00     0.183 HD
HETATM    9  C2  UNL     1      15.344  29.291  23.141  1.00  0.00     0.092 A 
HETATM   10  C1  UNL     1      14.438  29.356  24.190  1.00  0.00     0.260 A 
HETATM   11  O1  UNL     1      13.234  29.056  23.940  1.00  0.00    -0.268 OA
HETATM   12  N7  UNL     1      14.874  29.728  25.397  1.00  0.00    -0.155 N 
ATOM     13  H7  UNL     1      14.194  29.771  26.156  1.00  0.00     0.187 HD
ENDBRANCH   3   5
ENDBRANCH   1   3
BRANCH   1  14
HETATM   14  C5  UNL     1      17.205  28.252  27.586  1.00  0.00     0.141 A 
HETATM   15  C6  UNL     1      18.208  27.440  27.111  1.00  0.00     0.157 A 
HETATM   16  N4  UNL     1      18.015  26.116  27.139  1.00  0.00    -0.304 N 
HETATM   17  N5  UNL     1      16.927  25.529  27.592  1.00  0.00    -0.252 N 
ATOM     18  H4  UNL     1      18.763  25.519  26.785  1.00  0.00     0.186 HD
HETATM   19  C7  UNL     1      15.951  26.312  28.055  1.00  0.00     0.340 A 
ATOM     20  H5  UNL     1      16.834  24.514  27.590  1.00  0.00     0.191 HD
HETATM   21  O2  UNL     1      14.888  25.820  28.500  1.00  0.00    -0.245 OA
HETATM   22  N6  UNL     1      16.098  27.646  28.047  1.00  0.00    -0.291 N 
ATOM     23  H6  UNL     1      15.337  28.224  28.405  1.00  0.00     0.172 HD
ENDBRANCH   1  14
TORSDOF 3
ENDMDL
MODEL 5
REMARK VINA RESULT: -6.874945563      1.851      6.070
REMARK  3 active torsions:
REMARK  status: ('A' for Active; 'I' for Inactive)
REMARK    1  A    between atoms: C4_7  and  N2_8 
REMARK    2  A    between atoms: N2_8  and  N3_10 
REMARK    3  A    between atoms: N3_10  and  C5_12 
ROOT
HETATM    1  N3  UNL     1      17.095  29.524  27.721  1.00  0.00    -0.270 N 
ATOM      2  H3  UNL     1      17.089  29.809  28.701  1.00  0.00     0.189 HD
ENDROOT
BRANCH   1   3
HETATM    3  N2  UNL     1      16.692  30.468  26.810  1.00  0.00    -0.130 N 
ATOM      4  H2  UNL     1      16.729  31.459  27.046  1.00  0.00     0.205 HD
BRANCH   3   5
HETATM    5  C4  UNL     1      16.268  30.089  25.656  1.00  0.00     0.699 A 
HETATM    6  N1  UNL     1      17.108  30.002  24.593  1.00  0.00    -0.200 N 
HETATM    7  C3  UNL     1      16.681  29.611  23.386  1.00  0.00     0.111 A 
ATOM      8  H1  UNL     1      18.091  30.242  24.717  1.00  0.00     0.183 HD
HETATM    9  C2  UNL     1      15.369  29.275  23.169  1.00  0.00     0.092 A 
HETATM   10  C1  UNL     1      14.504  29.360  24.250  1.00  0.00     0.260 A 
HETATM   11  O1  UNL     1      13.292  29.052  24.053  1.00  0.00    -0.268 OA
HETATM   12  N7  UNL     1      14.985  29.759  25.432  1.00  0.00    -0.155 N 
ATOM     13  H7  UNL     1      14.335  29.816  26.215  1.00  0.00     0.187 HD
ENDBRANCH   3   5
ENDBRANCH   1   3
BRANCH   1  14
HETATM   14  C5  UNL     1      17.475  28.335  27.483  1.00  0.00     0.141 A 
HETATM   15  C6  UNL     1      16.681  27.218  27.593  1.00  0.00     0.157 A 
HETATM   16  N4  UNL     1      17.222  26.028  27.308  1.00  0.00    -0.304 N 
HETATM   17  N5  UNL     1      18.469  25.846  26.927  1.00  0.00    -0.252 N 
ATOM     18  H4  UNL     1      16.627  25.203  27.391  1.00  0.00     0.186 HD
HETATM   19  C7  UNL     1      19.245  26.926  26.818  1.00  0.00     0.340 A 
ATOM     20  H5  UNL     1      18.829  24.914  26.722  1.00  0.00     0.191 HD
HETATM   21  O2  UNL     1      20.441  26.825  26.462  1.00  0.00    -0.245 OA
HETATM   22  N6  UNL     1      18.747  28.142  27.094  1.00  0.00    -0.291 N 
ATOM     23  H6  UNL     1      19.359  28.953  27.005  1.00  0.00     0.172 HD
ENDBRANCH   1  14
TORSDOF 3
ENDMDL
