MODEL 1
REMARK VINA RESULT: -7.569219112      0.000      0.000
REMARK  6 active torsions:
REMARK  status: ('A' for Active; 'I' for Inactive)
REMARK    1  A    between atoms: C2_2  and  C3_3 
REMARK    2  A    between atoms: C3_3  and  N2_6 
REMARK    3  A    between atoms: N3_9  and  C7_10 
REMARK    4  A    between atoms: C10_13  and  C11_14 
REMARK    5  A    between atoms: C13_19  and  N6_20 
REMARK    6  A    between atoms: C14_25  and  N8_26 
ROOT
HETATM    1  C3  UNL     1      15.795  29.041  24.433  1.00  0.00     0.351 C 
HETATM    2  C4  UNL     1      14.413  28.651  24.062  1.00  0.00     0.099 C 
HETATM    3  N1  UNL     1      13.337  28.326  23.778  1.00  0.00    -0.195 NA
ENDROOT
BRANCH   1   4
HETATM    4  C2  UNL     1      16.637  29.230  23.241  1.00  0.00     0.013 C 
HETATM    5  C1  UNL     1      16.465  28.528  22.111  1.00  0.00     0.010 C 
ENDBRANCH   1   4
BRANCH   1   6
HETATM    6  N2  UNL     1      16.279  28.040  25.334  1.00  0.00     0.113 N 
HETATM    7  C5  UNL     1      17.715  28.067  25.461  1.00  0.00     0.294 C 
HETATM    8  C6  UNL     1      18.228  27.419  26.724  1.00  0.00     0.154 C 
HETATM    9  N3  UNL     1      17.322  26.507  27.342  1.00  0.00    -0.363 N 
HETATM   10  C15 UNL     1      15.884  26.705  27.270  1.00  0.00     0.154 C 
HETATM   11  C16 UNL     1      15.621  28.037  26.626  1.00  0.00     0.294 C 
BRANCH   9  12
HETATM   12  C7  UNL     1      17.775  25.347  28.069  1.00  0.00     0.117 A 
HETATM   13  C8  UNL     1      18.085  25.372  29.408  1.00  0.00     0.052 A 
HETATM   14  C9  UNL     1      18.528  24.226  30.072  1.00  0.00     0.036 A 
HETATM   15  C10 UNL     1      18.651  23.055  29.357  1.00  0.00     0.065 A 
HETATM   16  N9  UNL     1      18.340  23.083  28.070  1.00  0.00    -0.298 N 
HETATM   17  N10 UNL     1      17.920  24.154  27.427  1.00  0.00    -0.285 N 
ATOM     18  H9  UNL     1      18.431  22.216  27.540  1.00  0.00     0.187 HD
ATOM     19  H10 UNL     1      17.700  24.089  26.433  1.00  0.00     0.188 HD
BRANCH  15  20
HETATM   20  C11 UNL     1      19.111  21.834  30.001  1.00  0.00     0.078 A 
HETATM   21  C12 UNL     1      20.420  21.392  29.913  1.00  0.00     0.148 A 
HETATM   22  N4  UNL     1      21.328  22.193  29.151  1.00  0.00    -0.081 NA
HETATM   23  N5  UNL     1      20.747  20.267  30.533  1.00  0.00    -0.178 N 
HETATM   24  C13 UNL     1      19.865  19.542  31.240  1.00  0.00     0.678 A 
ATOM     25  H5  UNL     1      21.710  19.937  30.470  1.00  0.00     0.185 HD
HETATM   26  N7  UNL     1      18.589  19.950  31.340  1.00  0.00    -0.176 N 
HETATM   27  C14 UNL     1      18.198  21.081  30.735  1.00  0.00     0.130 A 
ATOM     28  H7  UNL     1      17.918  19.400  31.876  1.00  0.00     0.186 HD
BRANCH  24  29
HETATM   29  N6  UNL     1      20.252  18.460  31.815  1.00  0.00    -0.234 N 
ATOM     30  H62 UNL     1      20.109  17.555  31.368  1.00  0.00     0.174 HD
ATOM     31  H61 UNL     1      20.707  18.511  32.726  1.00  0.00     0.174 HD
ENDBRANCH  24  29
BRANCH  27  32
HETATM   32  N8  UNL     1      16.974  21.496  30.818  1.00  0.00    -0.384 N 
ATOM     33  H82 UNL     1      16.672  22.097  31.585  1.00  0.00     0.157 HD
ATOM     34  H81 UNL     1      16.310  21.211  30.098  1.00  0.00     0.157 HD
ENDBRANCH  27  32
ENDBRANCH  15  20
ENDBRANCH   9  12
ENDBRANCH   1   6
TORSDOF 6
ENDMDL
MODEL 2
REMARK VINA RESULT: -7.541104425      0.218      1.616
REMARK  6 active torsions:
REMARK  status: ('A' for Active; 'I' for Inactive)
REMARK    1  A    between atoms: C2_2  and  C3_3 
REMARK    2  A    between atoms: C3_3  and  N2_6 
REMARK    3  A    between atoms: N3_9  and  C7_10 
REMARK    4  A    between atoms: C10_13  and  C11_14 
REMARK    5  A    between atoms: C13_19  and  N6_20 
REMARK    6  A    between atoms: C14_25  and  N8_26 
ROOT
HETATM    1  C3  UNL     1      15.748  29.075  24.300  1.00  0.00     0.351 C 
HETATM    2  C4  UNL     1      14.351  28.717  23.955  1.00  0.00     0.099 C 
HETATM    3  N1  UNL     1      13.262  28.417  23.693  1.00  0.00    -0.195 NA
ENDROOT
BRANCH   1   4
HETATM    4  C2  UNL     1      16.579  29.211  23.094  1.00  0.00     0.013 C 
HETATM    5  C1  UNL     1      16.380  28.482  21.987  1.00  0.00     0.010 C 
ENDBRANCH   1   4
BRANCH   1   6
HETATM    6  N2  UNL     1      16.215  28.081  25.219  1.00  0.00     0.113 N 
HETATM    7  C5  UNL     1      17.651  28.083  25.343  1.00  0.00     0.294 C 
HETATM    8  C6  UNL     1      18.154  27.448  26.616  1.00  0.00     0.154 C 
HETATM    9  N3  UNL     1      17.231  26.565  27.253  1.00  0.00    -0.363 N 
HETATM   10  C15 UNL     1      15.797  26.790  27.180  1.00  0.00     0.154 C 
HETATM   11  C16 UNL     1      15.559  28.115  26.512  1.00  0.00     0.294 C 
BRANCH   9  12
HETATM   12  C7  UNL     1      17.663  25.410  28.000  1.00  0.00     0.117 A 
HETATM   13  C8  UNL     1      18.246  25.492  29.242  1.00  0.00     0.052 A 
HETATM   14  C9  UNL     1      18.657  24.347  29.929  1.00  0.00     0.036 A 
HETATM   15  C10 UNL     1      18.467  23.119  29.335  1.00  0.00     0.065 A 
HETATM   16  N9  UNL     1      17.900  23.093  28.138  1.00  0.00    -0.298 N 
HETATM   17  N10 UNL     1      17.506  24.162  27.476  1.00  0.00    -0.285 N 
ATOM     18  H9  UNL     1      17.759  22.183  27.699  1.00  0.00     0.187 HD
ATOM     19  H10 UNL     1      17.076  24.054  26.558  1.00  0.00     0.188 HD
BRANCH  15  20
HETATM   20  C11 UNL     1      18.880  21.896  30.008  1.00  0.00     0.078 A 
HETATM   21  C12 UNL     1      18.001  21.113  30.735  1.00  0.00     0.148 A 
HETATM   22  N4  UNL     1      16.642  21.552  30.806  1.00  0.00    -0.081 NA
HETATM   23  N5  UNL     1      18.468  20.015  31.315  1.00  0.00    -0.178 N 
HETATM   24  C13 UNL     1      19.752  19.635  31.225  1.00  0.00     0.678 A 
ATOM     25  H5  UNL     1      17.824  19.435  31.852  1.00  0.00     0.185 HD
HETATM   26  N7  UNL     1      20.625  20.379  30.525  1.00  0.00    -0.176 N 
HETATM   27  C14 UNL     1      20.211  21.500  29.915  1.00  0.00     0.130 A 
ATOM     28  H7  UNL     1      21.601  20.091  30.456  1.00  0.00     0.186 HD
BRANCH  24  29
HETATM   29  N6  UNL     1      20.136  18.558  31.813  1.00  0.00    -0.234 N 
ATOM     30  H62 UNL     1      20.265  18.537  32.824  1.00  0.00     0.174 HD
ATOM     31  H61 UNL     1      20.311  17.719  31.260  1.00  0.00     0.174 HD
ENDBRANCH  24  29
BRANCH  27  32
HETATM   32  N8  UNL     1      21.032  22.233  29.233  1.00  0.00    -0.384 N 
ATOM     33  H82 UNL     1      20.908  23.244  29.169  1.00  0.00     0.157 HD
ATOM     34  H81 UNL     1      21.813  21.781  28.757  1.00  0.00     0.157 HD
ENDBRANCH  27  32
ENDBRANCH  15  20
ENDBRANCH   9  12
ENDBRANCH   1   6
TORSDOF 6
ENDMDL
MODEL 3
REMARK VINA RESULT: -7.263015741      4.525      8.240
REMARK  6 active torsions:
REMARK  status: ('A' for Active; 'I' for Inactive)
REMARK    1  A    between atoms: C2_2  and  C3_3 
REMARK    2  A    between atoms: C3_3  and  N2_6 
REMARK    3  A    between atoms: N3_9  and  C7_10 
REMARK    4  A    between atoms: C10_13  and  C11_14 
REMARK    5  A    between atoms: C13_19  and  N6_20 
REMARK    6  A    between atoms: C14_25  and  N8_26 
ROOT
HETATM    1  C3  UNL     1      21.338  24.741  27.539  1.00  0.00     0.351 C 
HETATM    2  C4  UNL     1      21.814  23.729  28.513  1.00  0.00     0.099 C 
HETATM    3  N1  UNL     1      22.170  22.943  29.287  1.00  0.00    -0.195 NA
ENDROOT
BRANCH   1   4
HETATM    4  C2  UNL     1      22.199  25.934  27.542  1.00  0.00     0.013 C 
HETATM    5  C1  UNL     1      23.413  25.957  26.972  1.00  0.00     0.010 C 
ENDBRANCH   1   4
BRANCH   1   6
HETATM    6  N2  UNL     1      19.969  25.011  27.858  1.00  0.00     0.113 N 
HETATM    7  C5  UNL     1      19.564  26.335  27.457  1.00  0.00     0.294 C 
HETATM    8  C6  UNL     1      18.073  26.495  27.299  1.00  0.00     0.154 C 
HETATM    9  N3  UNL     1      17.287  25.521  27.984  1.00  0.00    -0.363 N 
HETATM   10  C15 UNL     1      17.763  24.159  28.166  1.00  0.00     0.154 C 
HETATM   11  C16 UNL     1      19.042  23.997  27.394  1.00  0.00     0.294 C 
BRANCH   9  12
HETATM   12  C7  UNL     1      15.987  25.825  28.528  1.00  0.00     0.117 A 
HETATM   13  C8  UNL     1      15.333  25.005  29.416  1.00  0.00     0.052 A 
HETATM   14  C9  UNL     1      14.070  25.334  29.914  1.00  0.00     0.036 A 
HETATM   15  C10 UNL     1      13.482  26.508  29.496  1.00  0.00     0.065 A 
HETATM   16  N9  UNL     1      14.154  27.264  28.641  1.00  0.00    -0.298 N 
HETATM   17  N10 UNL     1      15.346  26.969  28.161  1.00  0.00    -0.285 N 
ATOM     18  H9  UNL     1      13.719  28.133  28.331  1.00  0.00     0.187 HD
ATOM     19  H10 UNL     1      15.794  27.608  27.505  1.00  0.00     0.188 HD
BRANCH  15  20
HETATM   20  C11 UNL     1      12.166  26.895  29.983  1.00  0.00     0.078 A 
HETATM   21  C12 UNL     1      11.001  26.594  29.300  1.00  0.00     0.148 A 
HETATM   22  N4  UNL     1      11.133  25.872  28.073  1.00  0.00    -0.081 NA
HETATM   23  N5  UNL     1       9.847  26.990  29.821  1.00  0.00    -0.178 N 
HETATM   24  C13 UNL     1       9.764  27.667  30.977  1.00  0.00     0.678 A 
ATOM     25  H5  UNL     1       8.986  26.770  29.321  1.00  0.00     0.185 HD
HETATM   26  N7  UNL     1      10.881  27.971  31.658  1.00  0.00    -0.176 N 
HETATM   27  C14 UNL     1      12.078  27.597  31.182  1.00  0.00     0.130 A 
ATOM     28  H7  UNL     1      10.819  28.486  32.536  1.00  0.00     0.186 HD
BRANCH  24  29
HETATM   29  N6  UNL     1       8.610  28.019  31.422  1.00  0.00    -0.234 N 
ATOM     30  H62 UNL     1       8.487  28.917  31.887  1.00  0.00     0.174 HD
ATOM     31  H61 UNL     1       7.815  27.392  31.306  1.00  0.00     0.174 HD
ENDBRANCH  24  29
BRANCH  27  32
HETATM   32  N8  UNL     1      13.169  27.877  31.821  1.00  0.00    -0.384 N 
ATOM     33  H82 UNL     1      13.433  28.844  32.015  1.00  0.00     0.157 HD
ATOM     34  H81 UNL     1      13.767  27.110  32.130  1.00  0.00     0.157 HD
ENDBRANCH  27  32
ENDBRANCH  15  20
ENDBRANCH   9  12
ENDBRANCH   1   6
TORSDOF 6
ENDMDL
MODEL 4
REMARK VINA RESULT: -7.227526126      4.178      4.959
REMARK  6 active torsions:
REMARK  status: ('A' for Active; 'I' for Inactive)
REMARK    1  A    between atoms: C2_2  and  C3_3 
REMARK    2  A    between atoms: C3_3  and  N2_6 
REMARK    3  A    between atoms: N3_9  and  C7_10 
REMARK    4  A    between atoms: C10_13  and  C11_14 
REMARK    5  A    between atoms: C13_19  and  N6_20 
REMARK    6  A    between atoms: C14_25  and  N8_26 
ROOT
HETATM    1  C3  UNL     1      15.355  28.988  23.330  1.00  0.00     0.351 C 
HETATM    2  C4  UNL     1      13.898  28.735  23.433  1.00  0.00     0.099 C 
HETATM    3  N1  UNL     1      12.762  28.525  23.531  1.00  0.00    -0.195 NA
ENDROOT
BRANCH   1   4
HETATM    4  C2  UNL     1      15.962  28.194  22.250  1.00  0.00     0.013 C 
HETATM    5  C1  UNL     1      16.576  28.751  21.195  1.00  0.00     0.010 C 
ENDBRANCH   1   4
BRANCH   1   6
HETATM    6  N2  UNL     1      15.912  28.733  24.624  1.00  0.00     0.113 N 
HETATM    7  C5  UNL     1      16.442  29.926  25.235  1.00  0.00     0.294 C 
HETATM    8  C6  UNL     1      16.568  29.837  26.736  1.00  0.00     0.154 C 
HETATM    9  N3  UNL     1      16.598  28.510  27.259  1.00  0.00    -0.363 N 
HETATM   10  C15 UNL     1      15.867  27.429  26.619  1.00  0.00     0.154 C 
HETATM   11  C16 UNL     1      15.027  28.012  25.518  1.00  0.00     0.294 C 
BRANCH   9  12
HETATM   12  C7  UNL     1      17.347  28.166  28.442  1.00  0.00     0.117 A 
HETATM   13  C8  UNL     1      17.712  26.878  28.754  1.00  0.00     0.052 A 
HETATM   14  C9  UNL     1      18.431  26.587  29.916  1.00  0.00     0.036 A 
HETATM   15  C10 UNL     1      18.773  27.624  30.755  1.00  0.00     0.065 A 
HETATM   16  N9  UNL     1      18.399  28.847  30.411  1.00  0.00    -0.298 N 
HETATM   17  N10 UNL     1      17.721  29.139  29.319  1.00  0.00    -0.285 N 
ATOM     18  H9  UNL     1      18.652  29.614  31.032  1.00  0.00     0.187 HD
ATOM     19  H10 UNL     1      17.472  30.110  29.128  1.00  0.00     0.188 HD
BRANCH  15  20
HETATM   20  C11 UNL     1      19.520  27.374  31.980  1.00  0.00     0.078 A 
HETATM   21  C12 UNL     1      19.016  27.672  33.233  1.00  0.00     0.148 A 
HETATM   22  N4  UNL     1      17.707  28.245  33.290  1.00  0.00    -0.081 NA
HETATM   23  N5  UNL     1      19.770  27.411  34.293  1.00  0.00    -0.178 N 
HETATM   24  C13 UNL     1      20.995  26.871  34.199  1.00  0.00     0.678 A 
ATOM     25  H5  UNL     1      19.402  27.628  35.219  1.00  0.00     0.185 HD
HETATM   26  N7  UNL     1      21.507  26.574  32.993  1.00  0.00    -0.176 N 
HETATM   27  C14 UNL     1      20.791  26.815  31.884  1.00  0.00     0.130 A 
ATOM     28  H7  UNL     1      22.438  26.164  32.920  1.00  0.00     0.186 HD
BRANCH  24  29
HETATM   29  N6  UNL     1      21.671  26.645  35.269  1.00  0.00    -0.234 N 
ATOM     30  H62 UNL     1      22.532  27.156  35.456  1.00  0.00     0.174 HD
ATOM     31  H61 UNL     1      21.338  25.948  35.934  1.00  0.00     0.174 HD
ENDBRANCH  24  29
BRANCH  27  32
HETATM   32  N8  UNL     1      21.262  26.536  30.710  1.00  0.00    -0.384 N 
ATOM     33  H82 UNL     1      21.897  27.174  30.231  1.00  0.00     0.157 HD
ATOM     34  H81 UNL     1      20.984  25.659  30.267  1.00  0.00     0.157 HD
ENDBRANCH  27  32
ENDBRANCH  15  20
ENDBRANCH   9  12
ENDBRANCH   1   6
TORSDOF 6
ENDMDL
MODEL 5
REMARK VINA RESULT: -7.137545765      2.348      2.959
REMARK  6 active torsions:
REMARK  status: ('A' for Active; 'I' for Inactive)
REMARK    1  A    between atoms: C2_2  and  C3_3 
REMARK    2  A    between atoms: C3_3  and  N2_6 
REMARK    3  A    between atoms: N3_9  and  C7_10 
REMARK    4  A    between atoms: C10_13  and  C11_14 
REMARK    5  A    between atoms: C13_19  and  N6_20 
REMARK    6  A    between atoms: C14_25  and  N8_26 
ROOT
HETATM    1  C3  UNL     1      15.898  28.967  24.044  1.00  0.00     0.351 C 
HETATM    2  C4  UNL     1      14.534  28.895  23.466  1.00  0.00     0.099 C 
HETATM    3  N1  UNL     1      13.465  28.819  23.023  1.00  0.00    -0.195 NA
ENDROOT
BRANCH   1   4
HETATM    4  C2  UNL     1      16.928  28.792  23.008  1.00  0.00     0.013 C 
HETATM    5  C1  UNL     1      16.632  28.577  21.718  1.00  0.00     0.010 C 
ENDBRANCH   1   4
BRANCH   1   6
HETATM    6  N2  UNL     1      15.955  27.993  25.092  1.00  0.00     0.113 N 
HETATM    7  C5  UNL     1      17.309  27.686  25.479  1.00  0.00     0.294 C 
HETATM    8  C6  UNL     1      17.427  27.088  26.859  1.00  0.00     0.154 C 
HETATM    9  N3  UNL     1      16.228  26.503  27.366  1.00  0.00    -0.363 N 
HETATM   10  C15 UNL     1      14.922  27.034  27.015  1.00  0.00     0.154 C 
HETATM   11  C16 UNL     1      15.120  28.304  26.236  1.00  0.00     0.294 C 
BRANCH   9  12
HETATM   12  C7  UNL     1      16.242  25.363  28.248  1.00  0.00     0.117 A 
HETATM   13  C8  UNL     1      17.027  24.255  28.033  1.00  0.00     0.052 A 
HETATM   14  C9  UNL     1      17.005  23.167  28.910  1.00  0.00     0.036 A 
HETATM   15  C10 UNL     1      16.173  23.222  30.007  1.00  0.00     0.065 A 
HETATM   16  N9  UNL     1      15.438  24.311  30.169  1.00  0.00    -0.298 N 
HETATM   17  N10 UNL     1      15.446  25.346  29.353  1.00  0.00    -0.285 N 
ATOM     18  H9  UNL     1      14.822  24.352  30.981  1.00  0.00     0.187 HD
ATOM     19  H10 UNL     1      14.848  26.148  29.553  1.00  0.00     0.188 HD
BRANCH  15  20
HETATM   20  C11 UNL     1      16.111  22.115  30.949  1.00  0.00     0.078 A 
HETATM   21  C12 UNL     1      15.086  21.184  30.938  1.00  0.00     0.148 A 
HETATM   22  N4  UNL     1      14.068  21.348  29.947  1.00  0.00    -0.081 NA
HETATM   23  N5  UNL     1      15.112  20.209  31.836  1.00  0.00    -0.178 N 
HETATM   24  C13 UNL     1      16.087  20.088  32.751  1.00  0.00     0.678 A 
ATOM     25  H5  UNL     1      14.360  19.521  31.832  1.00  0.00     0.185 HD
HETATM   26  N7  UNL     1      17.092  20.979  32.782  1.00  0.00    -0.176 N 
HETATM   27  C14 UNL     1      17.121  21.987  31.898  1.00  0.00     0.130 A 
ATOM     28  H7  UNL     1      17.833  20.889  33.477  1.00  0.00     0.186 HD
BRANCH  24  29
HETATM   29  N6  UNL     1      16.048  19.117  33.593  1.00  0.00    -0.234 N 
ATOM     30  H62 UNL     1      16.801  18.431  33.627  1.00  0.00     0.174 HD
ATOM     31  H61 UNL     1      15.256  19.036  34.230  1.00  0.00     0.174 HD
ENDBRANCH  24  29
BRANCH  27  32
HETATM   32  N8  UNL     1      18.080  22.858  31.907  1.00  0.00    -0.384 N 
ATOM     33  H82 UNL     1      18.807  22.834  32.622  1.00  0.00     0.157 HD
ATOM     34  H81 UNL     1      18.096  23.575  31.182  1.00  0.00     0.157 HD
ENDBRANCH  27  32
ENDBRANCH  15  20
ENDBRANCH   9  12
ENDBRANCH   1   6
TORSDOF 6
ENDMDL
