MODEL 1
REMARK VINA RESULT: -7.744809807      0.000      0.000
REMARK  5 active torsions:
REMARK  status: ('A' for Active; 'I' for Inactive)
REMARK    1  A    between atoms: N2_6  and  C3_7 
REMARK    2  A    between atoms: C4_10  and  N4_11 
REMARK    3  A    between atoms: C5_14  and  N5_15 
REMARK    4  A    between atoms: C6_20  and  C7_21 
REMARK    5  A    between atoms: N10_32  and  C11_33 
ROOT
HETATM    1  C3  UNL     1      17.605  26.940  27.598  1.00  0.00     0.136 A 
HETATM    2  N3  UNL     1      17.640  27.024  26.223  1.00  0.00    -0.324 N 
ATOM      3  H3  UNL     1      18.443  26.624  25.737  1.00  0.00     0.169 HD
HETATM    4  C4  UNL     1      16.682  27.600  25.493  1.00  0.00     0.151 A 
HETATM    5  C5  UNL     1      15.618  28.126  26.196  1.00  0.00     0.218 A 
HETATM    6  N6  UNL     1      15.533  28.073  27.528  1.00  0.00    -0.328 N 
ATOM      7  H6  UNL     1      14.726  28.478  28.003  1.00  0.00     0.168 HD
HETATM    8  C6  UNL     1      16.527  27.476  28.257  1.00  0.00     0.124 A 
ENDROOT
BRANCH   1   9
HETATM    9  N2  UNL     1      18.700  26.295  28.221  1.00  0.00    -0.357 N 
HETATM   10  C2  UNL     1      18.452  24.984  28.786  1.00  0.00     0.200 C 
HETATM   11  C1  UNL     1      19.584  24.037  28.568  1.00  0.00     0.091 C 
HETATM   12  N1  UNL     1      19.454  22.814  28.279  1.00  0.00    -0.388 N 
HETATM   13  N10 UNL     1      20.884  24.580  28.712  1.00  0.00    -0.363 N 
ATOM     14  H12 UNL     1      18.518  22.422  28.176  1.00  0.00     0.157 HD
ATOM     15  H11 UNL     1      20.228  22.166  28.130  1.00  0.00     0.157 HD
HETATM   16  C10 UNL     1      20.858  25.930  29.319  1.00  0.00     0.144 C 
HETATM   17  C9  UNL     1      20.039  26.765  28.328  1.00  0.00     0.145 C 
BRANCH  13  18
HETATM   18  C11 UNL     1      22.085  23.937  28.324  1.00  0.00     0.085 A 
HETATM   19  C12 UNL     1      23.376  24.644  28.172  1.00  0.00     0.027 A 
HETATM   20  C13 UNL     1      23.164  23.473  29.186  1.00  0.00     0.027 A 
ENDBRANCH  13  18
ENDBRANCH   1   9
BRANCH   8  21
HETATM   21  C7  UNL     1      16.425  27.429  29.709  1.00  0.00     0.155 A 
HETATM   22  N7  UNL     1      15.635  26.746  30.534  1.00  0.00    -0.279 N 
HETATM   23  N8  UNL     1      15.910  27.022  31.793  1.00  0.00    -0.250 N 
ATOM     24  H7  UNL     1      14.911  26.095  30.231  1.00  0.00     0.189 HD
HETATM   25  C8  UNL     1      16.913  27.915  31.789  1.00  0.00     0.340 A 
ATOM     26  H8  UNL     1      15.448  26.632  32.614  1.00  0.00     0.192 HD
HETATM   27  O3  UNL     1      17.470  28.436  32.823  1.00  0.00    -0.245 OA
HETATM   28  N9  UNL     1      17.212  28.149  30.508  1.00  0.00    -0.290 N 
ATOM     29  H9  UNL     1      17.938  28.788  30.187  1.00  0.00     0.172 HD
ENDBRANCH   8  21
BRANCH   4  30
HETATM   30  N4  UNL     1      16.715  27.678  24.206  1.00  0.00    -0.382 N 
ATOM     31  H42 UNL     1      17.603  27.803  23.719  1.00  0.00     0.157 HD
ATOM     32  H41 UNL     1      15.885  27.623  23.615  1.00  0.00     0.157 HD
ENDBRANCH   4  30
BRANCH   5  33
HETATM   33  N5  UNL     1      14.586  28.749  25.404  1.00  0.00    -0.094 N 
HETATM   34  O1  UNL     1      14.339  29.932  25.618  1.00  0.00    -0.530 OA
HETATM   35  O2  UNL     1      13.905  28.043  24.446  1.00  0.00    -0.530 OA
ENDBRANCH   5  33
TORSDOF 5
ENDMDL
MODEL 2
REMARK VINA RESULT: -7.724642731      3.499      7.203
REMARK  5 active torsions:
REMARK  status: ('A' for Active; 'I' for Inactive)
REMARK    1  A    between atoms: N2_6  and  C3_7 
REMARK    2  A    between atoms: C4_10  and  N4_11 
REMARK    3  A    between atoms: C5_14  and  N5_15 
REMARK    4  A    between atoms: C6_20  and  C7_21 
REMARK    5  A    between atoms: N10_32  and  C11_33 
ROOT
HETATM    1  C3  UNL     1      20.309  25.940  27.693  1.00  0.00     0.136 A 
HETATM    2  N3  UNL     1      21.413  26.763  27.656  1.00  0.00    -0.324 N 
ATOM      3  H3  UNL     1      21.266  27.760  27.499  1.00  0.00     0.169 HD
HETATM    4  C4  UNL     1      22.666  26.327  27.814  1.00  0.00     0.151 A 
HETATM    5  C5  UNL     1      22.813  24.971  28.024  1.00  0.00     0.218 A 
HETATM    6  N6  UNL     1      21.778  24.128  28.068  1.00  0.00    -0.328 N 
ATOM      7  H6  UNL     1      21.938  23.133  28.225  1.00  0.00     0.168 HD
HETATM    8  C6  UNL     1      20.502  24.598  27.904  1.00  0.00     0.124 A 
ENDROOT
BRANCH   1   9
HETATM    9  N2  UNL     1      19.051  26.562  27.509  1.00  0.00    -0.357 N 
HETATM   10  C2  UNL     1      18.304  26.893  28.705  1.00  0.00     0.200 C 
HETATM   11  C1  UNL     1      17.604  28.208  28.604  1.00  0.00     0.091 C 
HETATM   12  N1  UNL     1      17.511  29.048  29.543  1.00  0.00    -0.388 N 
HETATM   13  N10 UNL     1      17.007  28.498  27.354  1.00  0.00    -0.363 N 
ATOM     14  H12 UNL     1      17.941  28.839  30.444  1.00  0.00     0.157 HD
ATOM     15  H11 UNL     1      17.032  29.946  29.475  1.00  0.00     0.157 HD
HETATM   16  C10 UNL     1      16.964  27.311  26.469  1.00  0.00     0.144 C 
HETATM   17  C9  UNL     1      18.439  26.939  26.280  1.00  0.00     0.145 C 
BRANCH  13  18
HETATM   18  C11 UNL     1      16.506  29.764  26.962  1.00  0.00     0.085 A 
HETATM   19  C12 UNL     1      16.834  30.407  25.670  1.00  0.00     0.027 A 
HETATM   20  C13 UNL     1      15.373  30.042  26.090  1.00  0.00     0.027 A 
ENDBRANCH  13  18
ENDBRANCH   1   9
BRANCH   8  21
HETATM   21  C7  UNL     1      19.382  23.669  27.950  1.00  0.00     0.155 A 
HETATM   22  N7  UNL     1      18.792  23.017  28.949  1.00  0.00    -0.279 N 
HETATM   23  N8  UNL     1      17.795  22.276  28.512  1.00  0.00    -0.250 N 
ATOM     24  H7  UNL     1      19.076  23.084  29.927  1.00  0.00     0.189 HD
HETATM   25  C8  UNL     1      17.730  22.450  27.182  1.00  0.00     0.340 A 
ATOM     26  H8  UNL     1      17.186  21.684  29.076  1.00  0.00     0.192 HD
HETATM   27  O3  UNL     1      16.889  21.898  26.383  1.00  0.00    -0.245 OA
HETATM   28  N9  UNL     1      18.707  23.302  26.860  1.00  0.00    -0.290 N 
ATOM     29  H9  UNL     1      18.909  23.627  25.915  1.00  0.00     0.172 HD
ENDBRANCH   8  21
BRANCH   4  30
HETATM   30  N4  UNL     1      23.699  27.098  27.781  1.00  0.00    -0.382 N 
ATOM     31  H42 UNL     1      23.733  27.888  27.137  1.00  0.00     0.157 HD
ATOM     32  H41 UNL     1      24.519  26.969  28.375  1.00  0.00     0.157 HD
ENDBRANCH   4  30
BRANCH   5  33
HETATM   33  N5  UNL     1      24.167  24.504  28.194  1.00  0.00    -0.094 N 
HETATM   34  O1  UNL     1      24.409  23.802  29.171  1.00  0.00    -0.530 OA
HETATM   35  O2  UNL     1      25.149  24.831  27.294  1.00  0.00    -0.530 OA
ENDBRANCH   5  33
TORSDOF 5
ENDMDL
MODEL 3
REMARK VINA RESULT: -7.712338336      3.589      6.308
REMARK  5 active torsions:
REMARK  status: ('A' for Active; 'I' for Inactive)
REMARK    1  A    between atoms: N2_6  and  C3_7 
REMARK    2  A    between atoms: C4_10  and  N4_11 
REMARK    3  A    between atoms: C5_14  and  N5_15 
REMARK    4  A    between atoms: C6_20  and  C7_21 
REMARK    5  A    between atoms: N10_32  and  C11_33 
ROOT
HETATM    1  C3  UNL     1      16.069  25.556  27.951  1.00  0.00     0.136 A 
HETATM    2  N3  UNL     1      17.036  24.668  27.529  1.00  0.00    -0.324 N 
ATOM      3  H3  UNL     1      17.647  24.950  26.762  1.00  0.00     0.169 HD
HETATM    4  C4  UNL     1      17.215  23.460  28.069  1.00  0.00     0.151 A 
HETATM    5  C5  UNL     1      16.364  23.126  29.102  1.00  0.00     0.218 A 
HETATM    6  N6  UNL     1      15.410  23.947  29.550  1.00  0.00    -0.328 N 
ATOM      7  H6  UNL     1      14.804  23.654  30.317  1.00  0.00     0.168 HD
HETATM    8  C6  UNL     1      15.245  25.182  28.982  1.00  0.00     0.124 A 
ENDROOT
BRANCH   1   9
HETATM    9  N2  UNL     1      16.013  26.797  27.273  1.00  0.00    -0.357 N 
HETATM   10  C2  UNL     1      17.171  27.659  27.390  1.00  0.00     0.200 C 
HETATM   11  C1  UNL     1      17.501  28.360  26.114  1.00  0.00     0.091 C 
HETATM   12  N1  UNL     1      18.672  28.553  25.680  1.00  0.00    -0.388 N 
HETATM   13  N10 UNL     1      16.398  28.838  25.366  1.00  0.00    -0.363 N 
ATOM     14  H12 UNL     1      19.467  28.209  26.219  1.00  0.00     0.157 HD
ATOM     15  H11 UNL     1      18.898  29.032  24.809  1.00  0.00     0.157 HD
HETATM   16  C10 UNL     1      15.136  28.782  26.138  1.00  0.00     0.144 C 
HETATM   17  C9  UNL     1      14.961  27.292  26.451  1.00  0.00     0.145 C 
BRANCH  13  18
HETATM   18  C11 UNL     1      16.461  29.313  24.032  1.00  0.00     0.085 A 
HETATM   19  C12 UNL     1      17.017  28.523  22.911  1.00  0.00     0.027 A 
HETATM   20  C13 UNL     1      15.537  29.028  22.942  1.00  0.00     0.027 A 
ENDBRANCH  13  18
ENDBRANCH   1   9
BRANCH   8  21
HETATM   21  C7  UNL     1      14.199  26.067  29.475  1.00  0.00     0.155 A 
HETATM   22  N7  UNL     1      14.181  26.999  30.425  1.00  0.00    -0.279 N 
HETATM   23  N8  UNL     1      12.993  27.559  30.520  1.00  0.00    -0.250 N 
ATOM     24  H7  UNL     1      14.984  27.246  31.004  1.00  0.00     0.189 HD
HETATM   25  C8  UNL     1      12.207  26.974  29.601  1.00  0.00     0.340 A 
ATOM     26  H8  UNL     1      12.721  28.297  31.169  1.00  0.00     0.192 HD
HETATM   27  O3  UNL     1      10.972  27.242  29.376  1.00  0.00    -0.245 OA
HETATM   28  N9  UNL     1      12.963  26.067  28.976  1.00  0.00    -0.290 N 
ATOM     29  H9  UNL     1      12.640  25.461  28.222  1.00  0.00     0.172 HD
ENDBRANCH   8  21
BRANCH   4  30
HETATM   30  N4  UNL     1      18.120  22.630  27.676  1.00  0.00    -0.382 N 
ATOM     31  H42 UNL     1      18.888  22.372  28.295  1.00  0.00     0.157 HD
ATOM     32  H41 UNL     1      18.124  22.195  26.753  1.00  0.00     0.157 HD
ENDBRANCH   4  30
BRANCH   5  33
HETATM   33  N5  UNL     1      16.560  21.820  29.683  1.00  0.00    -0.094 N 
HETATM   34  O1  UNL     1      15.818  20.915  29.314  1.00  0.00    -0.530 OA
HETATM   35  O2  UNL     1      17.542  21.598  30.613  1.00  0.00    -0.530 OA
ENDBRANCH   5  33
TORSDOF 5
ENDMDL
MODEL 4
REMARK VINA RESULT: -7.624878829      2.518      4.102
REMARK  5 active torsions:
REMARK  status: ('A' for Active; 'I' for Inactive)
REMARK    1  A    between atoms: N2_6  and  C3_7 
REMARK    2  A    between atoms: C4_10  and  N4_11 
REMARK    3  A    between atoms: C5_14  and  N5_15 
REMARK    4  A    between atoms: C6_20  and  C7_21 
REMARK    5  A    between atoms: N10_32  and  C11_33 
ROOT
HETATM    1  C3  UNL     1      17.073  27.959  27.594  1.00  0.00     0.136 A 
HETATM    2  N3  UNL     1      16.055  28.849  27.330  1.00  0.00    -0.324 N 
ATOM      3  H3  UNL     1      15.560  29.264  28.121  1.00  0.00     0.169 HD
HETATM    4  C4  UNL     1      15.679  29.199  26.097  1.00  0.00     0.151 A 
HETATM    5  C5  UNL     1      16.378  28.611  25.062  1.00  0.00     0.218 A 
HETATM    6  N6  UNL     1      17.373  27.743  25.261  1.00  0.00    -0.328 N 
ATOM      7  H6  UNL     1      17.859  27.334  24.463  1.00  0.00     0.168 HD
HETATM    8  C6  UNL     1      17.741  27.400  26.535  1.00  0.00     0.124 A 
ENDROOT
BRANCH   1   9
HETATM    9  N2  UNL     1      17.347  27.698  28.958  1.00  0.00    -0.357 N 
HETATM   10  C2  UNL     1      16.778  26.490  29.520  1.00  0.00     0.200 C 
HETATM   11  C1  UNL     1      17.708  25.795  30.458  1.00  0.00     0.091 C 
HETATM   12  N1  UNL     1      17.854  24.542  30.531  1.00  0.00    -0.388 N 
HETATM   13  N10 UNL     1      18.458  26.631  31.320  1.00  0.00    -0.363 N 
ATOM     14  H12 UNL     1      17.313  23.940  29.911  1.00  0.00     0.157 HD
ATOM     15  H11 UNL     1      18.489  24.067  31.173  1.00  0.00     0.157 HD
HETATM   16  C10 UNL     1      17.969  28.029  31.303  1.00  0.00     0.144 C 
HETATM   17  C9  UNL     1      18.151  28.466  29.846  1.00  0.00     0.145 C 
BRANCH  13  18
HETATM   18  C11 UNL     1      19.556  26.213  32.111  1.00  0.00     0.085 A 
HETATM   19  C12 UNL     1      20.956  26.605  31.837  1.00  0.00     0.027 A 
HETATM   20  C13 UNL     1      20.223  26.956  33.173  1.00  0.00     0.027 A 
ENDBRANCH  13  18
ENDBRANCH   1   9
BRANCH   8  21
HETATM   21  C7  UNL     1      18.824  26.448  26.739  1.00  0.00     0.155 A 
HETATM   22  N7  UNL     1      18.840  25.135  26.958  1.00  0.00    -0.279 N 
HETATM   23  N8  UNL     1      20.073  24.687  27.079  1.00  0.00    -0.250 N 
ATOM     24  H7  UNL     1      18.005  24.552  27.025  1.00  0.00     0.189 HD
HETATM   25  C8  UNL     1      20.890  25.743  26.934  1.00  0.00     0.340 A 
ATOM     26  H8  UNL     1      20.353  23.722  27.251  1.00  0.00     0.192 HD
HETATM   27  O3  UNL     1      22.174  25.723  26.985  1.00  0.00    -0.245 OA
HETATM   28  N9  UNL     1      20.108  26.806  26.727  1.00  0.00    -0.290 N 
ATOM     29  H9  UNL     1      20.445  27.757  26.581  1.00  0.00     0.172 HD
ENDBRANCH   8  21
BRANCH   4  30
HETATM   30  N4  UNL     1      14.727  30.032  25.850  1.00  0.00    -0.382 N 
ATOM     31  H42 UNL     1      13.782  29.852  26.190  1.00  0.00     0.157 HD
ATOM     32  H41 UNL     1      14.854  30.893  25.316  1.00  0.00     0.157 HD
ENDBRANCH   4  30
BRANCH   5  33
HETATM   33  N5  UNL     1      15.970  28.990  23.732  1.00  0.00    -0.094 N 
HETATM   34  O1  UNL     1      16.825  29.457  22.985  1.00  0.00    -0.530 OA
HETATM   35  O2  UNL     1      14.673  28.833  23.315  1.00  0.00    -0.530 OA
ENDBRANCH   5  33
TORSDOF 5
ENDMDL
MODEL 5
REMARK VINA RESULT: -7.595134772      1.124      1.595
REMARK  5 active torsions:
REMARK  status: ('A' for Active; 'I' for Inactive)
REMARK    1  A    between atoms: N2_6  and  C3_7 
REMARK    2  A    between atoms: C4_10  and  N4_11 
REMARK    3  A    between atoms: C5_14  and  N5_15 
REMARK    4  A    between atoms: C6_20  and  C7_21 
REMARK    5  A    between atoms: N10_32  and  C11_33 
ROOT
HETATM    1  C3  UNL     1      17.953  27.034  27.043  1.00  0.00     0.136 A 
HETATM    2  N3  UNL     1      17.809  27.278  25.695  1.00  0.00    -0.324 N 
ATOM      3  H3  UNL     1      18.555  26.976  25.068  1.00  0.00     0.169 HD
HETATM    4  C4  UNL     1      16.746  27.888  25.164  1.00  0.00     0.151 A 
HETATM    5  C5  UNL     1      15.765  28.278  26.052  1.00  0.00     0.218 A 
HETATM    6  N6  UNL     1      15.854  28.066  27.368  1.00  0.00    -0.328 N 
ATOM      7  H6  UNL     1      15.101  28.374  27.985  1.00  0.00     0.168 HD
HETATM    8  C6  UNL     1      16.952  27.438  27.890  1.00  0.00     0.124 A 
ENDROOT
BRANCH   1   9
HETATM    9  N2  UNL     1      19.140  26.374  27.443  1.00  0.00    -0.357 N 
HETATM   10  C2  UNL     1      19.978  27.061  28.405  1.00  0.00     0.200 C 
HETATM   11  C1  UNL     1      20.570  26.139  29.418  1.00  0.00     0.091 C 
HETATM   12  N1  UNL     1      20.698  26.406  30.646  1.00  0.00    -0.388 N 
HETATM   13  N10 UNL     1      21.017  24.887  28.931  1.00  0.00    -0.363 N 
ATOM     14  H12 UNL     1      20.376  27.308  30.997  1.00  0.00     0.157 HD
ATOM     15  H11 UNL     1      21.103  25.776  31.339  1.00  0.00     0.157 HD
HETATM   16  C10 UNL     1      21.054  24.847  27.451  1.00  0.00     0.144 C 
HETATM   17  C9  UNL     1      19.598  25.088  27.040  1.00  0.00     0.145 C 
BRANCH  13  18
HETATM   18  C11 UNL     1      21.387  23.783  29.737  1.00  0.00     0.085 A 
HETATM   19  C12 UNL     1      21.073  22.379  29.390  1.00  0.00     0.027 A 
HETATM   20  C13 UNL     1      22.535  22.902  29.568  1.00  0.00     0.027 A 
ENDBRANCH  13  18
ENDBRANCH   1   9
BRANCH   8  21
HETATM   21  C7  UNL     1      17.040  27.217  29.327  1.00  0.00     0.155 A 
HETATM   22  N7  UNL     1      17.001  26.116  30.073  1.00  0.00    -0.279 N 
HETATM   23  N8  UNL     1      17.126  26.403  31.353  1.00  0.00    -0.250 N 
ATOM     24  H7  UNL     1      16.889  25.173  29.702  1.00  0.00     0.189 HD
HETATM   25  C8  UNL     1      17.251  27.737  31.446  1.00  0.00     0.340 A 
ATOM     26  H8  UNL     1      17.128  25.739  32.126  1.00  0.00     0.192 HD
HETATM   27  O3  UNL     1      17.395  28.414  32.528  1.00  0.00    -0.245 OA
HETATM   28  N9  UNL     1      17.195  28.213  30.199  1.00  0.00    -0.290 N 
ATOM     29  H9  UNL     1      17.262  29.200  29.949  1.00  0.00     0.172 HD
ENDBRANCH   8  21
BRANCH   4  30
HETATM   30  N4  UNL     1      16.611  28.116  23.902  1.00  0.00    -0.382 N 
ATOM     31  H42 UNL     1      16.407  29.058  23.566  1.00  0.00     0.157 HD
ATOM     32  H41 UNL     1      16.696  27.395  23.185  1.00  0.00     0.157 HD
ENDBRANCH   4  30
BRANCH   5  33
HETATM   33  N5  UNL     1      14.619  28.938  25.475  1.00  0.00    -0.094 N 
HETATM   34  O1  UNL     1      14.359  30.072  25.865  1.00  0.00    -0.530 OA
HETATM   35  O2  UNL     1      13.849  28.320  24.524  1.00  0.00    -0.530 OA
ENDBRANCH   5  33
TORSDOF 5
ENDMDL
