MODEL 1
REMARK VINA RESULT: -8.262933741      0.000      0.000
REMARK  7 active torsions:
REMARK  status: ('A' for Active; 'I' for Inactive)
REMARK    1  A    between atoms: C2_3  and  N2_4 
REMARK    2  A    between atoms: C4_9  and  N4_10 
REMARK    3  A    between atoms: C5_13  and  N5_14 
REMARK    4  A    between atoms: N5_14  and  C6_16 
REMARK    5  A    between atoms: C7_19  and  N7_20 
REMARK    6  A    between atoms: C8_25  and  N9_26 
REMARK    7  A    between atoms: N9_26  and  C9_28 
ROOT
HETATM    1  N1  UNL     1      17.715  21.472  25.802  1.00  0.00    -0.195 NA
HETATM    2  C1  UNL     1      17.768  22.274  26.633  1.00  0.00     0.081 C 
HETATM    3  C2  UNL     1      17.811  23.282  27.694  1.00  0.00     0.274 C 
ENDROOT
BRANCH   3   4
HETATM    4  N2  UNL     1      19.178  23.749  27.855  1.00  0.00    -0.258 N 
HETATM    5  N3  UNL     1      20.126  23.157  28.550  1.00  0.00    -0.260 N 
HETATM    6  C3  UNL     1      21.234  23.907  28.443  1.00  0.00     0.297 A 
ATOM      7  H3  UNL     1      20.035  22.287  29.075  1.00  0.00     0.190 HD
HETATM    8  O1  UNL     1      22.364  23.670  28.974  1.00  0.00    -0.264 OA
HETATM    9  C4  UNL     1      20.961  25.011  27.649  1.00  0.00     0.217 A 
HETATM   10  C5  UNL     1      19.637  24.885  27.285  1.00  0.00     0.177 A 
BRANCH   9  11
HETATM   11  N4  UNL     1      21.852  26.057  27.280  1.00  0.00    -0.106 N 
HETATM   12  O2  UNL     1      22.102  26.221  26.078  1.00  0.00    -0.531 OA
HETATM   13  O3  UNL     1      22.438  26.881  28.196  1.00  0.00    -0.531 OA
ENDBRANCH   9  11
BRANCH  10  14
HETATM   14  N5  UNL     1      18.877  25.791  26.455  1.00  0.00    -0.171 N 
ATOM     15  H5  UNL     1      18.788  25.637  25.451  1.00  0.00     0.186 HD
BRANCH  14  16
HETATM   16  C6  UNL     1      18.313  26.800  27.025  1.00  0.00     0.713 A 
HETATM   17  N6  UNL     1      17.998  26.783  28.342  1.00  0.00    -0.021 N 
HETATM   18  C7  UNL     1      17.405  27.828  28.950  1.00  0.00     0.705 A 
ATOM     19  H6  UNL     1      18.215  25.952  28.890  1.00  0.00     0.203 HD
HETATM   20  N8  UNL     1      17.137  28.901  28.190  1.00  0.00    -0.022 N 
HETATM   21  C8  UNL     1      17.420  28.989  26.881  1.00  0.00     0.707 A 
ATOM     22  H8  UNL     1      16.689  29.702  28.635  1.00  0.00     0.203 HD
HETATM   23  N10 UNL     1      18.019  27.904  26.317  1.00  0.00    -0.021 N 
ATOM     24  H10 UNL     1      18.252  27.931  25.324  1.00  0.00     0.203 HD
BRANCH  18  25
HETATM   25  N7  UNL     1      17.109  27.794  30.224  1.00  0.00    -0.234 N 
ATOM     26  H72 UNL     1      17.805  27.989  30.943  1.00  0.00     0.174 HD
ATOM     27  H71 UNL     1      16.166  27.570  30.543  1.00  0.00     0.174 HD
ENDBRANCH  18  25
BRANCH  21  28
HETATM   28  N9  UNL     1      17.152  30.027  26.170  1.00  0.00    -0.220 N 
ATOM     29  H9  UNL     1      17.689  30.879  26.338  1.00  0.00     0.178 HD
BRANCH  28  30
HETATM   30  C9  UNL     1      16.146  30.051  25.162  1.00  0.00     0.099 C 
HETATM   31  C10 UNL     1      14.964  29.192  25.631  1.00  0.00     0.026 C 
HETATM   32  C11 UNL     1      14.169  29.151  24.320  1.00  0.00     0.002 C 
HETATM   33  C12 UNL     1      15.268  28.660  23.374  1.00  0.00     0.002 C 
HETATM   34  C13 UNL     1      16.496  29.391  23.871  1.00  0.00     0.026 C 
ENDBRANCH  28  30
ENDBRANCH  21  28
ENDBRANCH  14  16
ENDBRANCH  10  14
ENDBRANCH   3   4
TORSDOF 7
ENDMDL
MODEL 2
REMARK VINA RESULT: -8.168004206      3.296      7.102
REMARK  7 active torsions:
REMARK  status: ('A' for Active; 'I' for Inactive)
REMARK    1  A    between atoms: C2_3  and  N2_4 
REMARK    2  A    between atoms: C4_9  and  N4_10 
REMARK    3  A    between atoms: C5_13  and  N5_14 
REMARK    4  A    between atoms: N5_14  and  C6_16 
REMARK    5  A    between atoms: C7_19  and  N7_20 
REMARK    6  A    between atoms: C8_25  and  N9_26 
REMARK    7  A    between atoms: N9_26  and  C9_28 
ROOT
HETATM    1  N1  UNL     1      16.669  29.124  20.690  1.00  0.00    -0.195 NA
HETATM    2  C1  UNL     1      16.674  28.481  21.652  1.00  0.00     0.081 C 
HETATM    3  C2  UNL     1      16.696  27.650  22.856  1.00  0.00     0.274 C 
ENDROOT
BRANCH   3   4
HETATM    4  N2  UNL     1      16.278  28.448  23.996  1.00  0.00    -0.258 N 
HETATM    5  N3  UNL     1      15.113  29.044  24.144  1.00  0.00    -0.260 N 
HETATM    6  C3  UNL     1      15.129  29.673  25.330  1.00  0.00     0.297 A 
ATOM      7  H3  UNL     1      14.340  29.029  23.479  1.00  0.00     0.190 HD
HETATM    8  O1  UNL     1      14.188  30.362  25.835  1.00  0.00    -0.264 OA
HETATM    9  C4  UNL     1      16.355  29.459  25.942  1.00  0.00     0.217 A 
HETATM   10  C5  UNL     1      17.072  28.672  25.067  1.00  0.00     0.177 A 
BRANCH   9  11
HETATM   11  N4  UNL     1      16.790  29.945  27.207  1.00  0.00    -0.106 N 
HETATM   12  O2  UNL     1      16.780  31.169  27.402  1.00  0.00    -0.531 OA
HETATM   13  O3  UNL     1      17.215  29.120  28.205  1.00  0.00    -0.531 OA
ENDBRANCH   9  11
BRANCH  10  14
HETATM   14  N5  UNL     1      18.417  28.176  25.250  1.00  0.00    -0.171 N 
ATOM     15  H5  UNL     1      19.186  28.515  24.672  1.00  0.00     0.186 HD
BRANCH  14  16
HETATM   16  C6  UNL     1      18.613  27.292  26.166  1.00  0.00     0.713 A 
HETATM   17  N6  UNL     1      17.634  26.436  26.544  1.00  0.00    -0.021 N 
HETATM   18  C7  UNL     1      17.822  25.510  27.503  1.00  0.00     0.705 A 
ATOM     19  H6  UNL     1      16.724  26.495  26.088  1.00  0.00     0.203 HD
HETATM   20  N8  UNL     1      19.035  25.468  28.077  1.00  0.00    -0.022 N 
HETATM   21  C8  UNL     1      20.051  26.284  27.755  1.00  0.00     0.707 A 
ATOM     22  H8  UNL     1      19.195  24.772  28.806  1.00  0.00     0.203 HD
HETATM   23  N10 UNL     1      19.806  27.200  26.779  1.00  0.00    -0.021 N 
ATOM     24  H10 UNL     1      20.552  27.838  26.504  1.00  0.00     0.203 HD
BRANCH  18  25
HETATM   25  N7  UNL     1      16.865  24.691  27.855  1.00  0.00    -0.234 N 
ATOM     26  H72 UNL     1      15.896  24.845  27.576  1.00  0.00     0.174 HD
ATOM     27  H71 UNL     1      17.055  23.866  28.424  1.00  0.00     0.174 HD
ENDBRANCH  18  25
BRANCH  21  28
HETATM   28  N9  UNL     1      21.206  26.227  28.320  1.00  0.00    -0.220 N 
ATOM     29  H9  UNL     1      21.389  26.850  29.107  1.00  0.00     0.178 HD
BRANCH  28  30
HETATM   30  C9  UNL     1      22.241  25.341  27.906  1.00  0.00     0.099 C 
HETATM   31  C10 UNL     1      23.037  24.909  29.144  1.00  0.00     0.026 C 
HETATM   32  C11 UNL     1      24.210  24.214  28.439  1.00  0.00     0.002 C 
HETATM   33  C12 UNL     1      24.635  25.339  27.491  1.00  0.00     0.002 C 
HETATM   34  C13 UNL     1      23.314  25.937  27.059  1.00  0.00     0.026 C 
ENDBRANCH  28  30
ENDBRANCH  21  28
ENDBRANCH  14  16
ENDBRANCH  10  14
ENDBRANCH   3   4
TORSDOF 7
ENDMDL
MODEL 3
REMARK VINA RESULT: -7.860143485      3.534      6.276
REMARK  7 active torsions:
REMARK  status: ('A' for Active; 'I' for Inactive)
REMARK    1  A    between atoms: C2_3  and  N2_4 
REMARK    2  A    between atoms: C4_9  and  N4_10 
REMARK    3  A    between atoms: C5_13  and  N5_14 
REMARK    4  A    between atoms: N5_14  and  C6_16 
REMARK    5  A    between atoms: C7_19  and  N7_20 
REMARK    6  A    between atoms: C8_25  and  N9_26 
REMARK    7  A    between atoms: N9_26  and  C9_28 
ROOT
HETATM    1  N1  UNL     1      16.641  29.100  20.710  1.00  0.00    -0.195 NA
HETATM    2  C1  UNL     1      16.695  28.490  21.691  1.00  0.00     0.081 C 
HETATM    3  C2  UNL     1      16.779  27.700  22.920  1.00  0.00     0.274 C 
ENDROOT
BRANCH   3   4
HETATM    4  N2  UNL     1      16.334  28.510  24.041  1.00  0.00    -0.258 N 
HETATM    5  N3  UNL     1      15.160  29.093  24.163  1.00  0.00    -0.260 N 
HETATM    6  C3  UNL     1      15.150  29.741  25.338  1.00  0.00     0.297 A 
ATOM      7  H3  UNL     1      14.396  29.058  23.487  1.00  0.00     0.190 HD
HETATM    8  O1  UNL     1      14.193  30.425  25.819  1.00  0.00    -0.264 OA
HETATM    9  C4  UNL     1      16.370  29.554  25.971  1.00  0.00     0.217 A 
HETATM   10  C5  UNL     1      17.110  28.762  25.119  1.00  0.00     0.177 A 
BRANCH   9  11
HETATM   11  N4  UNL     1      16.781  30.066  27.233  1.00  0.00    -0.106 N 
HETATM   12  O2  UNL     1      16.836  31.295  27.380  1.00  0.00    -0.531 OA
HETATM   13  O3  UNL     1      17.113  29.259  28.282  1.00  0.00    -0.531 OA
ENDBRANCH   9  11
BRANCH  10  14
HETATM   14  N5  UNL     1      18.458  28.288  25.328  1.00  0.00    -0.171 N 
ATOM     15  H5  UNL     1      19.246  28.701  24.830  1.00  0.00     0.186 HD
BRANCH  14  16
HETATM   16  C6  UNL     1      18.634  27.324  26.166  1.00  0.00     0.713 A 
HETATM   17  N6  UNL     1      19.869  26.978  26.597  1.00  0.00    -0.021 N 
HETATM   18  C7  UNL     1      20.069  25.972  27.469  1.00  0.00     0.705 A 
ATOM     19  H6  UNL     1      20.676  27.497  26.251  1.00  0.00     0.203 HD
HETATM   20  N8  UNL     1      18.979  25.316  27.899  1.00  0.00    -0.022 N 
HETATM   21  C8  UNL     1      17.726  25.603  27.515  1.00  0.00     0.707 A 
ATOM     22  H8  UNL     1      19.112  24.551  28.560  1.00  0.00     0.203 HD
HETATM   23  N10 UNL     1      17.582  26.629  26.633  1.00  0.00    -0.021 N 
ATOM     24  H10 UNL     1      16.645  26.880  26.317  1.00  0.00     0.203 HD
BRANCH  18  25
HETATM   25  N7  UNL     1      21.270  25.652  27.876  1.00  0.00    -0.234 N 
ATOM     26  H72 UNL     1      21.632  25.963  28.776  1.00  0.00     0.174 HD
ATOM     27  H71 UNL     1      21.889  25.079  27.302  1.00  0.00     0.174 HD
ENDBRANCH  18  25
BRANCH  21  28
HETATM   28  N9  UNL     1      16.695  24.959  27.938  1.00  0.00    -0.220 N 
ATOM     29  H9  UNL     1      16.665  23.949  27.797  1.00  0.00     0.178 HD
BRANCH  28  30
HETATM   30  C9  UNL     1      15.594  25.582  28.594  1.00  0.00     0.099 C 
HETATM   31  C10 UNL     1      14.989  24.581  29.587  1.00  0.00     0.026 C 
HETATM   32  C11 UNL     1      13.711  25.352  29.947  1.00  0.00     0.002 C 
HETATM   33  C12 UNL     1      13.165  25.605  28.539  1.00  0.00     0.002 C 
HETATM   34  C13 UNL     1      14.414  25.897  27.738  1.00  0.00     0.026 C 
ENDBRANCH  28  30
ENDBRANCH  21  28
ENDBRANCH  14  16
ENDBRANCH  10  14
ENDBRANCH   3   4
TORSDOF 7
ENDMDL
MODEL 4
REMARK VINA RESULT: -7.858702570      2.277      3.447
REMARK  7 active torsions:
REMARK  status: ('A' for Active; 'I' for Inactive)
REMARK    1  A    between atoms: C2_3  and  N2_4 
REMARK    2  A    between atoms: C4_9  and  N4_10 
REMARK    3  A    between atoms: C5_13  and  N5_14 
REMARK    4  A    between atoms: N5_14  and  C6_16 
REMARK    5  A    between atoms: C7_19  and  N7_20 
REMARK    6  A    between atoms: C8_25  and  N9_26 
REMARK    7  A    between atoms: N9_26  and  C9_28 
ROOT
HETATM    1  N1  UNL     1      22.968  26.392  29.723  1.00  0.00    -0.195 NA
HETATM    2  C1  UNL     1      22.568  25.881  28.765  1.00  0.00     0.081 C 
HETATM    3  C2  UNL     1      22.084  25.240  27.542  1.00  0.00     0.274 C 
ENDROOT
BRANCH   3   4
HETATM    4  N2  UNL     1      20.935  24.408  27.860  1.00  0.00    -0.258 N 
HETATM    5  N3  UNL     1      20.919  23.389  28.693  1.00  0.00    -0.260 N 
HETATM    6  C3  UNL     1      19.671  22.895  28.702  1.00  0.00     0.297 A 
ATOM      7  H3  UNL     1      21.710  23.039  29.233  1.00  0.00     0.190 HD
HETATM    8  O1  UNL     1      19.252  21.906  29.382  1.00  0.00    -0.264 OA
HETATM    9  C4  UNL     1      18.880  23.638  27.837  1.00  0.00     0.217 A 
HETATM   10  C5  UNL     1      19.715  24.601  27.311  1.00  0.00     0.177 A 
BRANCH   9  11
HETATM   11  N4  UNL     1      17.499  23.454  27.549  1.00  0.00    -0.106 N 
HETATM   12  O2  UNL     1      17.154  22.421  26.959  1.00  0.00    -0.531 OA
HETATM   13  O3  UNL     1      16.548  24.367  27.895  1.00  0.00    -0.531 OA
ENDBRANCH   9  11
BRANCH  10  14
HETATM   14  N5  UNL     1      19.362  25.624  26.354  1.00  0.00    -0.171 N 
ATOM     15  H5  UNL     1      19.752  25.621  25.412  1.00  0.00     0.186 HD
BRANCH  14  16
HETATM   16  C6  UNL     1      18.538  26.541  26.730  1.00  0.00     0.713 A 
HETATM   17  N6  UNL     1      18.484  26.960  28.016  1.00  0.00    -0.021 N 
HETATM   18  C7  UNL     1      17.627  27.913  28.424  1.00  0.00     0.705 A 
ATOM     19  H6  UNL     1      19.115  26.539  28.698  1.00  0.00     0.203 HD
HETATM   20  N8  UNL     1      16.815  28.439  27.493  1.00  0.00    -0.022 N 
HETATM   21  C8  UNL     1      16.812  28.074  26.202  1.00  0.00     0.707 A 
ATOM     22  H8  UNL     1      16.159  29.163  27.785  1.00  0.00     0.203 HD
HETATM   23  N10 UNL     1      17.700  27.107  25.844  1.00  0.00    -0.021 N 
ATOM     24  H10 UNL     1      17.730  26.801  24.871  1.00  0.00     0.203 HD
BRANCH  18  25
HETATM   25  N7  UNL     1      17.590  28.306  29.671  1.00  0.00    -0.234 N 
ATOM     26  H72 UNL     1      18.267  28.970  30.045  1.00  0.00     0.174 HD
ATOM     27  H71 UNL     1      16.879  27.959  30.316  1.00  0.00     0.174 HD
ENDBRANCH  18  25
BRANCH  21  28
HETATM   28  N9  UNL     1      16.024  28.591  25.326  1.00  0.00    -0.220 N 
ATOM     29  H9  UNL     1      15.409  29.351  25.618  1.00  0.00     0.178 HD
BRANCH  28  30
HETATM   30  C9  UNL     1      15.964  28.159  23.970  1.00  0.00     0.099 C 
HETATM   31  C10 UNL     1      17.152  28.767  23.212  1.00  0.00     0.026 C 
HETATM   32  C11 UNL     1      16.731  28.400  21.782  1.00  0.00     0.002 C 
HETATM   33  C12 UNL     1      15.316  28.985  21.779  1.00  0.00     0.002 C 
HETATM   34  C13 UNL     1      14.813  28.666  23.169  1.00  0.00     0.026 C 
ENDBRANCH  28  30
ENDBRANCH  21  28
ENDBRANCH  14  16
ENDBRANCH  10  14
ENDBRANCH   3   4
TORSDOF 7
ENDMDL
MODEL 5
REMARK VINA RESULT: -7.851670764      3.718      7.301
REMARK  7 active torsions:
REMARK  status: ('A' for Active; 'I' for Inactive)
REMARK    1  A    between atoms: C2_3  and  N2_4 
REMARK    2  A    between atoms: C4_9  and  N4_10 
REMARK    3  A    between atoms: C5_13  and  N5_14 
REMARK    4  A    between atoms: N5_14  and  C6_16 
REMARK    5  A    between atoms: C7_19  and  N7_20 
REMARK    6  A    between atoms: C8_25  and  N9_26 
REMARK    7  A    between atoms: N9_26  and  C9_28 
ROOT
HETATM    1  N1  UNL     1      16.989  29.721  20.102  1.00  0.00    -0.195 NA
HETATM    2  C1  UNL     1      16.877  28.905  20.914  1.00  0.00     0.081 C 
HETATM    3  C2  UNL     1      16.757  27.863  21.935  1.00  0.00     0.274 C 
ENDROOT
BRANCH   3   4
HETATM    4  N2  UNL     1      15.731  28.245  22.891  1.00  0.00    -0.258 N 
HETATM    5  N3  UNL     1      14.433  28.258  22.675  1.00  0.00    -0.260 N 
HETATM    6  C3  UNL     1      13.840  28.670  23.807  1.00  0.00     0.297 A 
ATOM      7  H3  UNL     1      13.963  28.003  21.807  1.00  0.00     0.190 HD
HETATM    8  O1  UNL     1      12.592  28.814  24.000  1.00  0.00    -0.264 OA
HETATM    9  C4  UNL     1      14.811  28.923  24.764  1.00  0.00     0.217 A 
HETATM   10  C5  UNL     1      16.014  28.643  24.151  1.00  0.00     0.177 A 
BRANCH   9  11
HETATM   11  N4  UNL     1      14.618  29.375  26.099  1.00  0.00    -0.106 N 
HETATM   12  O2  UNL     1      14.758  30.583  26.337  1.00  0.00    -0.531 OA
HETATM   13  O3  UNL     1      14.285  28.534  27.120  1.00  0.00    -0.531 OA
ENDBRANCH   9  11
BRANCH  10  14
HETATM   14  N5  UNL     1      17.331  28.753  24.736  1.00  0.00    -0.171 N 
ATOM     15  H5  UNL     1      18.073  29.273  24.269  1.00  0.00     0.186 HD
BRANCH  14  16
HETATM   16  C6  UNL     1      17.537  28.172  25.868  1.00  0.00     0.713 A 
HETATM   17  N6  UNL     1      17.314  28.809  27.041  1.00  0.00    -0.021 N 
HETATM   18  C7  UNL     1      17.529  28.217  28.231  1.00  0.00     0.705 A 
ATOM     19  H6  UNL     1      16.973  29.770  27.024  1.00  0.00     0.203 HD
HETATM   20  N8  UNL     1      17.978  26.952  28.207  1.00  0.00    -0.022 N 
HETATM   21  C8  UNL     1      18.221  26.259  27.084  1.00  0.00     0.707 A 
ATOM     22  H8  UNL     1      18.146  26.487  29.099  1.00  0.00     0.203 HD
HETATM   23  N10 UNL     1      17.987  26.906  25.910  1.00  0.00    -0.021 N 
ATOM     24  H10 UNL     1      18.158  26.413  25.033  1.00  0.00     0.203 HD
BRANCH  18  25
HETATM   25  N7  UNL     1      17.307  28.847  29.355  1.00  0.00    -0.234 N 
ATOM     26  H72 UNL     1      17.278  29.866  29.402  1.00  0.00     0.174 HD
ATOM     27  H71 UNL     1      17.156  28.341  30.227  1.00  0.00     0.174 HD
ENDBRANCH  18  25
BRANCH  21  28
HETATM   28  N9  UNL     1      18.654  25.046  27.084  1.00  0.00    -0.220 N 
ATOM     29  H9  UNL     1      18.480  24.472  26.259  1.00  0.00     0.178 HD
BRANCH  28  30
HETATM   30  C9  UNL     1      19.363  24.465  28.174  1.00  0.00     0.099 C 
HETATM   31  C10 UNL     1      20.842  24.343  27.784  1.00  0.00     0.026 C 
HETATM   32  C11 UNL     1      21.323  23.476  28.956  1.00  0.00     0.002 C 
HETATM   33  C12 UNL     1      20.308  22.334  28.856  1.00  0.00     0.002 C 
HETATM   34  C13 UNL     1      19.025  23.049  28.495  1.00  0.00     0.026 C 
ENDBRANCH  28  30
ENDBRANCH  21  28
ENDBRANCH  14  16
ENDBRANCH  10  14
ENDBRANCH   3   4
TORSDOF 7
ENDMDL
