MODEL 1
REMARK VINA RESULT: -8.171519621      0.000      0.000
REMARK  5 active torsions:
REMARK  status: ('A' for Active; 'I' for Inactive)
REMARK    1  A    between atoms: C3_5  and  N2_6 
REMARK    2  A    between atoms: C5_13  and  C6_14 
REMARK    3  A    between atoms: C6_14  and  N4_15 
REMARK    4  A    between atoms: N4_15  and  C7_17 
REMARK    5  A    between atoms: C7_17  and  N5_18 
ROOT
HETATM    1  N4  UNL     1      34.694  13.033 -25.809  1.00  0.00    -0.381 N 
ATOM      2  H4  UNL     1      35.408  13.656 -26.187  1.00  0.00     0.160 HD
ENDROOT
BRANCH   1   3
HETATM    3  C6  UNL     1      34.699  11.668 -26.201  1.00  0.00     0.166 C 
BRANCH   3   4
HETATM    4  C5  UNL     1      35.265  10.678 -25.300  1.00  0.00     0.051 A 
HETATM    5  C2  UNL     1      34.429   9.826 -24.566  1.00  0.00     0.036 A 
HETATM    6  C1  UNL     1      32.949  10.069 -24.593  1.00  0.00     0.069 C 
HETATM    7  N1  UNL     1      35.028   8.953 -23.793  1.00  0.00    -0.195 N 
HETATM    8  C3  UNL     1      36.293   8.765 -23.602  1.00  0.00     0.678 A 
ATOM      9  H1  UNL     1      34.410   8.335 -23.269  1.00  0.00     0.184 HD
HETATM   10  N3  UNL     1      37.180   9.594 -24.309  1.00  0.00    -0.156 N 
HETATM   11  C4  UNL     1      36.651  10.543 -25.142  1.00  0.00     0.269 A 
ATOM     12  H3  UNL     1      38.189   9.492 -24.204  1.00  0.00     0.187 HD
HETATM   13  O1  UNL     1      37.510  11.258 -25.720  1.00  0.00    -0.267 OA
BRANCH   8  14
HETATM   14  N2  UNL     1      36.808   7.878 -22.894  1.00  0.00    -0.234 N 
ATOM     15  H22 UNL     1      36.338   7.671 -22.013  1.00  0.00     0.174 HD
ATOM     16  H21 UNL     1      37.675   7.377 -23.089  1.00  0.00     0.174 HD
ENDBRANCH   8  14
ENDBRANCH   3   4
ENDBRANCH   1   3
BRANCH   1  17
HETATM   17  C7  UNL     1      33.751  13.551 -24.928  1.00  0.00     0.195 C 
BRANCH  17  18
HETATM   18  N5  UNL     1      34.245  14.632 -24.043  1.00  0.00    -0.243 N 
HETATM   19  S1  UNL     1      34.085  16.208 -23.801  1.00  0.00     0.001 SA
HETATM   20  C8  UNL     1      35.290  16.512 -22.637  1.00  0.00     0.083 A 
HETATM   21  C9  UNL     1      35.797  15.238 -22.464  1.00  0.00     0.063 A 
HETATM   22  C14 UNL     1      35.930  17.656 -21.938  1.00  0.00     0.194 C 
HETATM   23  C10 UNL     1      35.261  14.274 -23.196  1.00  0.00     0.268 A 
HETATM   24  C11 UNL     1      36.810  15.148 -21.327  1.00  0.00     0.222 C 
HETATM   25  O2  UNL     1      35.661  13.040 -23.127  1.00  0.00    -0.266 OA
HETATM   26  C12 UNL     1      36.058  15.231 -19.986  1.00  0.00     0.045 C 
HETATM   27  N6  UNL     1      37.764  16.170 -21.473  1.00  0.00    -0.060 N 
HETATM   28  C13 UNL     1      37.250  17.495 -21.241  1.00  0.00     0.317 C 
ATOM     29  H62 UNL     1      38.573  15.992 -20.878  1.00  0.00     0.278 HD
ATOM     30  H61 UNL     1      38.207  16.116 -22.390  1.00  0.00     0.278 HD
HETATM   31  O3  UNL     1      35.303  18.723 -22.000  1.00  0.00    -0.290 OA
ENDBRANCH  17  18
ENDBRANCH   1  17
TORSDOF 5
ENDMDL
MODEL 2
REMARK VINA RESULT: -8.154209868      2.166      7.465
REMARK  5 active torsions:
REMARK  status: ('A' for Active; 'I' for Inactive)
REMARK    1  A    between atoms: C3_5  and  N2_6 
REMARK    2  A    between atoms: C5_13  and  C6_14 
REMARK    3  A    between atoms: C6_14  and  N4_15 
REMARK    4  A    between atoms: N4_15  and  C7_17 
REMARK    5  A    between atoms: C7_17  and  N5_18 
ROOT
HETATM    1  N4  UNL     1      36.132  15.272 -22.910  1.00  0.00    -0.381 N 
ATOM      2  H4  UNL     1      37.110  15.038 -22.738  1.00  0.00     0.160 HD
ENDROOT
BRANCH   1   3
HETATM    3  C6  UNL     1      35.315  15.651 -21.811  1.00  0.00     0.166 C 
BRANCH   3   4
HETATM    4  C5  UNL     1      35.782  16.694 -20.913  1.00  0.00     0.051 A 
HETATM    5  C2  UNL     1      36.113  16.391 -19.586  1.00  0.00     0.036 A 
HETATM    6  C1  UNL     1      35.815  15.017 -19.063  1.00  0.00     0.069 C 
HETATM    7  N1  UNL     1      36.542  17.391 -18.854  1.00  0.00    -0.195 N 
HETATM    8  C3  UNL     1      36.699  18.633 -19.181  1.00  0.00     0.678 A 
ATOM      9  H1  UNL     1      36.786  17.157 -17.892  1.00  0.00     0.184 HD
HETATM   10  N3  UNL     1      36.377  18.996 -20.499  1.00  0.00    -0.156 N 
HETATM   11  C4  UNL     1      35.917  18.021 -21.343  1.00  0.00     0.269 A 
ATOM     12  H3  UNL     1      36.483  19.958 -20.818  1.00  0.00     0.187 HD
HETATM   13  O1  UNL     1      35.630  18.432 -22.497  1.00  0.00    -0.267 OA
BRANCH   8  14
HETATM   14  N2  UNL     1      37.165  19.533 -18.455  1.00  0.00    -0.234 N 
ATOM     15  H22 UNL     1      36.502  20.014 -17.847  1.00  0.00     0.174 HD
ATOM     16  H21 UNL     1      38.130  19.862 -18.447  1.00  0.00     0.174 HD
ENDBRANCH   8  14
ENDBRANCH   3   4
ENDBRANCH   1   3
BRANCH   1  17
HETATM   17  C7  UNL     1      35.645  15.208 -24.210  1.00  0.00     0.195 C 
BRANCH  17  18
HETATM   18  N5  UNL     1      34.834  14.007 -24.520  1.00  0.00    -0.243 N 
HETATM   19  S1  UNL     1      33.332  13.585 -24.887  1.00  0.00     0.001 SA
HETATM   20  C8  UNL     1      33.418  11.885 -24.832  1.00  0.00     0.083 A 
HETATM   21  C9  UNL     1      34.752  11.713 -24.515  1.00  0.00     0.063 A 
HETATM   22  C14 UNL     1      32.526  10.700 -24.911  1.00  0.00     0.194 C 
HETATM   23  C10 UNL     1      35.476  12.809 -24.348  1.00  0.00     0.268 A 
HETATM   24  C11 UNL     1      35.194  10.253 -24.558  1.00  0.00     0.222 C 
HETATM   25  O2  UNL     1      36.738  12.773 -24.038  1.00  0.00    -0.266 OA
HETATM   26  C12 UNL     1      35.294   9.810 -26.029  1.00  0.00     0.045 C 
HETATM   27  N6  UNL     1      34.285   9.472 -23.822  1.00  0.00    -0.060 N 
HETATM   28  C13 UNL     1      32.983   9.355 -24.426  1.00  0.00     0.317 C 
ATOM     29  H62 UNL     1      34.677   8.549 -23.636  1.00  0.00     0.278 HD
ATOM     30  H61 UNL     1      34.205   9.823 -22.868  1.00  0.00     0.278 HD
HETATM   31  O3  UNL     1      31.401  10.924 -25.380  1.00  0.00    -0.290 OA
ENDBRANCH  17  18
ENDBRANCH   1  17
TORSDOF 5
ENDMDL
MODEL 3
REMARK VINA RESULT: -8.059326916      0.919      1.700
REMARK  5 active torsions:
REMARK  status: ('A' for Active; 'I' for Inactive)
REMARK    1  A    between atoms: C3_5  and  N2_6 
REMARK    2  A    between atoms: C5_13  and  C6_14 
REMARK    3  A    between atoms: C6_14  and  N4_15 
REMARK    4  A    between atoms: N4_15  and  C7_17 
REMARK    5  A    between atoms: C7_17  and  N5_18 
ROOT
HETATM    1  N4  UNL     1      34.690  13.021 -25.916  1.00  0.00    -0.381 N 
ATOM      2  H4  UNL     1      35.327  13.700 -26.332  1.00  0.00     0.160 HD
ENDROOT
BRANCH   1   3
HETATM    3  C6  UNL     1      34.756  11.668 -26.346  1.00  0.00     0.166 C 
BRANCH   3   4
HETATM    4  C5  UNL     1      35.272  10.663 -25.433  1.00  0.00     0.051 A 
HETATM    5  C2  UNL     1      36.648  10.406 -25.365  1.00  0.00     0.036 A 
HETATM    6  C1  UNL     1      37.554  11.059 -26.367  1.00  0.00     0.069 C 
HETATM    7  N1  UNL     1      37.025   9.496 -24.500  1.00  0.00    -0.195 N 
HETATM    8  C3  UNL     1      36.302   8.786 -23.696  1.00  0.00     0.678 A 
ATOM      9  H1  UNL     1      38.029   9.323 -24.455  1.00  0.00     0.184 HD
HETATM   10  N3  UNL     1      34.913   8.996 -23.725  1.00  0.00    -0.156 N 
HETATM   11  C4  UNL     1      34.420   9.928 -24.599  1.00  0.00     0.269 A 
ATOM     12  H3  UNL     1      34.291   8.471 -23.112  1.00  0.00     0.187 HD
HETATM   13  O1  UNL     1      33.167  10.039 -24.579  1.00  0.00    -0.267 OA
BRANCH   8  14
HETATM   14  N2  UNL     1      36.723   7.970 -22.853  1.00  0.00    -0.234 N 
ATOM     15  H22 UNL     1      37.137   7.113 -23.218  1.00  0.00     0.174 HD
ATOM     16  H21 UNL     1      36.649   8.058 -21.839  1.00  0.00     0.174 HD
ENDBRANCH   8  14
ENDBRANCH   3   4
ENDBRANCH   1   3
BRANCH   1  17
HETATM   17  C7  UNL     1      33.789  13.451 -24.949  1.00  0.00     0.195 C 
BRANCH  17  18
HETATM   18  N5  UNL     1      34.273  14.552 -24.084  1.00  0.00    -0.243 N 
HETATM   19  S1  UNL     1      34.096  16.130 -23.868  1.00  0.00     0.001 SA
HETATM   20  C8  UNL     1      35.302  16.469 -22.715  1.00  0.00     0.083 A 
HETATM   21  C9  UNL     1      35.825  15.204 -22.523  1.00  0.00     0.063 A 
HETATM   22  C14 UNL     1      35.932  17.632 -22.038  1.00  0.00     0.194 C 
HETATM   23  C10 UNL     1      35.298  14.221 -23.236  1.00  0.00     0.268 A 
HETATM   24  C11 UNL     1      36.845  15.145 -21.390  1.00  0.00     0.222 C 
HETATM   25  O2  UNL     1      35.714  12.993 -23.148  1.00  0.00    -0.266 OA
HETATM   26  C12 UNL     1      36.098  15.242 -20.047  1.00  0.00     0.045 C 
HETATM   27  N6  UNL     1      37.786  16.177 -21.558  1.00  0.00    -0.060 N 
HETATM   28  C13 UNL     1      37.257  17.499 -21.345  1.00  0.00     0.317 C 
ATOM     29  H62 UNL     1      38.599  16.018 -20.964  1.00  0.00     0.278 HD
ATOM     30  H61 UNL     1      38.225  16.112 -22.476  1.00  0.00     0.278 HD
HETATM   31  O3  UNL     1      35.291  18.690 -22.115  1.00  0.00    -0.290 OA
ENDBRANCH  17  18
ENDBRANCH   1  17
TORSDOF 5
ENDMDL
MODEL 4
REMARK VINA RESULT: -8.041811655      2.325      6.805
REMARK  5 active torsions:
REMARK  status: ('A' for Active; 'I' for Inactive)
REMARK    1  A    between atoms: C3_5  and  N2_6 
REMARK    2  A    between atoms: C5_13  and  C6_14 
REMARK    3  A    between atoms: C6_14  and  N4_15 
REMARK    4  A    between atoms: N4_15  and  C7_17 
REMARK    5  A    between atoms: C7_17  and  N5_18 
ROOT
HETATM    1  N4  UNL     1      37.814  16.414 -22.644  1.00  0.00    -0.381 N 
ATOM      2  H4  UNL     1      38.665  16.138 -22.155  1.00  0.00     0.160 HD
ENDROOT
BRANCH   1   3
HETATM    3  C6  UNL     1      36.808  17.115 -21.926  1.00  0.00     0.166 C 
BRANCH   3   4
HETATM    4  C5  UNL     1      36.482  16.692 -20.575  1.00  0.00     0.051 A 
HETATM    5  C2  UNL     1      36.447  17.623 -19.528  1.00  0.00     0.036 A 
HETATM    6  C1  UNL     1      36.918  19.023 -19.792  1.00  0.00     0.069 C 
HETATM    7  N1  UNL     1      36.126  17.154 -18.347  1.00  0.00    -0.195 N 
HETATM    8  C3  UNL     1      35.840  15.941 -18.001  1.00  0.00     0.678 A 
ATOM      9  H1  UNL     1      36.097  17.842 -17.595  1.00  0.00     0.184 HD
HETATM   10  N3  UNL     1      35.865  14.963 -19.008  1.00  0.00    -0.156 N 
HETATM   11  C4  UNL     1      36.192  15.353 -20.279  1.00  0.00     0.269 A 
ATOM     12  H3  UNL     1      35.645  13.989 -18.799  1.00  0.00     0.187 HD
HETATM   13  O1  UNL     1      36.214  14.414 -21.116  1.00  0.00    -0.267 OA
BRANCH   8  14
HETATM   14  N2  UNL     1      35.487  15.562 -16.867  1.00  0.00    -0.234 N 
ATOM     15  H22 UNL     1      35.352  16.291 -16.166  1.00  0.00     0.174 HD
ATOM     16  H21 UNL     1      35.368  14.595 -16.564  1.00  0.00     0.174 HD
ENDBRANCH   8  14
ENDBRANCH   3   4
ENDBRANCH   1   3
BRANCH   1  17
HETATM   17  C7  UNL     1      37.679  16.093 -23.990  1.00  0.00     0.195 C 
BRANCH  17  18
HETATM   18  N5  UNL     1      36.689  15.031 -24.286  1.00  0.00    -0.243 N 
HETATM   19  S1  UNL     1      35.161  14.848 -24.732  1.00  0.00     0.001 SA
HETATM   20  C8  UNL     1      34.943  13.167 -24.574  1.00  0.00     0.083 A 
HETATM   21  C9  UNL     1      36.205  12.791 -24.156  1.00  0.00     0.063 A 
HETATM   22  C14 UNL     1      33.862  12.150 -24.647  1.00  0.00     0.194 C 
HETATM   23  C10 UNL     1      37.100  13.755 -24.002  1.00  0.00     0.268 A 
HETATM   24  C11 UNL     1      36.384  11.277 -24.085  1.00  0.00     0.222 C 
HETATM   25  O2  UNL     1      38.314  13.523 -23.603  1.00  0.00    -0.266 OA
HETATM   26  C12 UNL     1      36.492  10.724 -25.518  1.00  0.00     0.045 C 
HETATM   27  N6  UNL     1      35.311  10.716 -23.371  1.00  0.00    -0.060 N 
HETATM   28  C13 UNL     1      34.046  10.783 -24.056  1.00  0.00     0.317 C 
ATOM     29  H62 UNL     1      35.523   9.754 -23.106  1.00  0.00     0.278 HD
ATOM     30  H61 UNL     1      35.238  11.139 -22.446  1.00  0.00     0.278 HD
HETATM   31  O3  UNL     1      32.824  12.532 -25.206  1.00  0.00    -0.290 OA
ENDBRANCH  17  18
ENDBRANCH   1  17
TORSDOF 5
ENDMDL
MODEL 5
REMARK VINA RESULT: -7.805958401      2.045      6.907
REMARK  5 active torsions:
REMARK  status: ('A' for Active; 'I' for Inactive)
REMARK    1  A    between atoms: C3_5  and  N2_6 
REMARK    2  A    between atoms: C5_13  and  C6_14 
REMARK    3  A    between atoms: C6_14  and  N4_15 
REMARK    4  A    between atoms: N4_15  and  C7_17 
REMARK    5  A    between atoms: C7_17  and  N5_18 
ROOT
HETATM    1  N4  UNL     1      35.534  15.856 -24.155  1.00  0.00    -0.381 N 
ATOM      2  H4  UNL     1      34.585  16.167 -23.949  1.00  0.00     0.160 HD
ENDROOT
BRANCH   1   3
HETATM    3  C6  UNL     1      36.599  16.322 -23.338  1.00  0.00     0.166 C 
BRANCH   3   4
HETATM    4  C5  UNL     1      36.439  16.306 -21.894  1.00  0.00     0.051 A 
HETATM    5  C2  UNL     1      36.707  15.141 -21.163  1.00  0.00     0.036 A 
HETATM    6  C1  UNL     1      36.992  13.871 -21.909  1.00  0.00     0.069 C 
HETATM    7  N1  UNL     1      36.553  15.225 -19.864  1.00  0.00    -0.195 N 
HETATM    8  C3  UNL     1      36.178  16.236 -19.150  1.00  0.00     0.678 A 
ATOM      9  H1  UNL     1      36.757  14.373 -19.342  1.00  0.00     0.184 HD
HETATM   10  N3  UNL     1      35.890  17.431 -19.831  1.00  0.00    -0.156 N 
HETATM   11  C4  UNL     1      36.019  17.444 -21.194  1.00  0.00     0.269 A 
ATOM     12  H3  UNL     1      35.594  18.265 -19.324  1.00  0.00     0.187 HD
HETATM   13  O1  UNL     1      35.721  18.544 -21.728  1.00  0.00    -0.267 OA
BRANCH   8  14
HETATM   14  N2  UNL     1      36.102  16.273 -17.907  1.00  0.00    -0.234 N 
ATOM     15  H22 UNL     1      35.300  16.768 -17.515  1.00  0.00     0.174 HD
ATOM     16  H21 UNL     1      36.785  15.898 -17.249  1.00  0.00     0.174 HD
ENDBRANCH   8  14
ENDBRANCH   3   4
ENDBRANCH   1   3
BRANCH   1  17
HETATM   17  C7  UNL     1      35.741  14.992 -25.224  1.00  0.00     0.195 C 
BRANCH  17  18
HETATM   18  N5  UNL     1      34.843  13.814 -25.263  1.00  0.00    -0.243 N 
HETATM   19  S1  UNL     1      33.285  13.441 -25.292  1.00  0.00     0.001 SA
HETATM   20  C8  UNL     1      33.321  11.749 -25.103  1.00  0.00     0.083 A 
HETATM   21  C9  UNL     1      34.684  11.535 -25.036  1.00  0.00     0.063 A 
HETATM   22  C14 UNL     1      32.390  10.609 -24.901  1.00  0.00     0.194 C 
HETATM   23  C10 UNL     1      35.465  12.602 -25.111  1.00  0.00     0.268 A 
HETATM   24  C11 UNL     1      35.057  10.055 -25.034  1.00  0.00     0.222 C 
HETATM   25  O2  UNL     1      36.760  12.526 -25.050  1.00  0.00    -0.266 OA
HETATM   26  C12 UNL     1      34.850   9.490 -26.450  1.00  0.00     0.045 C 
HETATM   27  N6  UNL     1      34.285   9.385 -24.068  1.00  0.00    -0.060 N 
HETATM   28  C13 UNL     1      32.886   9.286 -24.395  1.00  0.00     0.317 C 
ATOM     29  H62 UNL     1      34.673   8.461 -23.880  1.00  0.00     0.278 HD
ATOM     30  H61 UNL     1      34.408   9.815 -23.152  1.00  0.00     0.278 HD
HETATM   31  O3  UNL     1      31.203  10.853 -25.162  1.00  0.00    -0.290 OA
ENDBRANCH  17  18
ENDBRANCH   1  17
TORSDOF 5
ENDMDL
