MODEL 1
REMARK VINA RESULT: -7.947932759      0.000      0.000
REMARK  6 active torsions:
REMARK  status: ('A' for Active; 'I' for Inactive)
REMARK    1  A    between atoms: N1_2  and  C2_3 
REMARK    2  A    between atoms: N1_2  and  C6_14 
REMARK    3  A    between atoms: C4_7  and  N3_8 
REMARK    4  A    between atoms: C7_17  and  N6_18 
REMARK    5  A    between atoms: N6_18  and  C8_20 
REMARK    6  A    between atoms: C12_27  and  N8_28 
ROOT
HETATM    1  C6  UNL     1      36.000  14.003 -23.067  1.00  0.00     0.687 A 
HETATM    2  N5  UNL     1      35.164  12.949 -23.071  1.00  0.00    -0.176 N 
ATOM      3  H5  UNL     1      34.172  13.123 -22.910  1.00  0.00     0.186 HD
HETATM    4  C7  UNL     1      35.550  11.696 -23.272  1.00  0.00     0.120 A 
HETATM    5  C11 UNL     1      36.886  11.436 -23.490  1.00  0.00     0.097 A 
HETATM    6  C12 UNL     1      37.783  12.490 -23.493  1.00  0.00     0.122 A 
HETATM    7  N10 UNL     1      37.299  13.723 -23.281  1.00  0.00    -0.176 N 
ATOM      8  H10 UNL     1      37.960  14.500 -23.284  1.00  0.00     0.186 HD
ENDROOT
BRANCH   1   9
HETATM    9  N1  UNL     1      35.508  15.306 -22.841  1.00  0.00    -0.185 N 
HETATM   10  C1  UNL     1      34.460  15.822 -23.740  1.00  0.00     0.175 C 
BRANCH   9  11
HETATM   11  C2  UNL     1      35.947  16.179 -21.820  1.00  0.00     0.083 A 
HETATM   12  C3  UNL     1      35.551  17.489 -21.859  1.00  0.00     0.137 A 
HETATM   13  N2  UNL     1      35.934  18.377 -20.926  1.00  0.00    -0.200 N 
HETATM   14  C4  UNL     1      36.739  17.999 -19.900  1.00  0.00     0.675 A 
ATOM     15  H2  UNL     1      35.617  19.344 -20.990  1.00  0.00     0.183 HD
HETATM   16  N4  UNL     1      37.143  16.732 -19.834  1.00  0.00    -0.200 N 
HETATM   17  C5  UNL     1      36.770  15.812 -20.763  1.00  0.00     0.137 A 
ATOM     18  H4  UNL     1      37.749  16.444 -19.065  1.00  0.00     0.183 HD
BRANCH  14  19
HETATM   19  N3  UNL     1      37.088  18.898 -19.002  1.00  0.00    -0.234 N 
ATOM     20  H32 UNL     1      37.558  19.767 -19.254  1.00  0.00     0.174 HD
ATOM     21  H31 UNL     1      36.887  18.715 -18.019  1.00  0.00     0.174 HD
ENDBRANCH  14  19
ENDBRANCH   9  11
ENDBRANCH   1   9
BRANCH   4  22
HETATM   22  N6  UNL     1      34.711  10.719 -23.270  1.00  0.00    -0.368 N 
ATOM     23  H6  UNL     1      34.585  10.165 -22.423  1.00  0.00     0.161 HD
BRANCH  22  24
HETATM   24  C8  UNL     1      33.957  10.401 -24.436  1.00  0.00     0.134 C 
HETATM   25  C9  UNL     1      32.826  11.389 -24.627  1.00  0.00     0.259 C 
HETATM   26  N7  UNL     1      31.895  10.300 -24.727  1.00  0.00    -0.071 N 
HETATM   27  C10 UNL     1      32.896   9.359 -24.322  1.00  0.00     0.259 C 
ATOM     28  H72 UNL     1      31.015  10.346 -24.214  1.00  0.00     0.277 HD
ATOM     29  H71 UNL     1      31.393  10.151 -25.602  1.00  0.00     0.277 HD
ENDBRANCH  22  24
ENDBRANCH   4  22
BRANCH   6  30
HETATM   30  N8  UNL     1      39.151  12.205 -23.718  1.00  0.00    -0.364 N 
HETATM   31  C13 UNL     1      39.621  10.887 -24.097  1.00  0.00     0.143 C 
HETATM   32  C14 UNL     1      40.607  11.076 -25.261  1.00  0.00     0.133 C 
HETATM   33  N9  UNL     1      41.735  11.863 -24.861  1.00  0.00    -0.418 N 
HETATM   34  C15 UNL     1      41.546  12.640 -23.667  1.00  0.00     0.133 C 
ATOM     35  H9  UNL     1      42.609  11.871 -25.387  1.00  0.00     0.153 HD
HETATM   36  C16 UNL     1      40.165  13.231 -23.583  1.00  0.00     0.143 C 
ENDBRANCH   6  30
TORSDOF 6
ENDMDL
MODEL 2
REMARK VINA RESULT: -7.839922559      2.898      6.486
REMARK  6 active torsions:
REMARK  status: ('A' for Active; 'I' for Inactive)
REMARK    1  A    between atoms: N1_2  and  C2_3 
REMARK    2  A    between atoms: N1_2  and  C6_14 
REMARK    3  A    between atoms: C4_7  and  N3_8 
REMARK    4  A    between atoms: C7_17  and  N6_18 
REMARK    5  A    between atoms: N6_18  and  C8_20 
REMARK    6  A    between atoms: C12_27  and  N8_28 
ROOT
HETATM    1  C6  UNL     1      35.963  14.588 -24.117  1.00  0.00     0.687 A 
HETATM    2  N5  UNL     1      36.045  14.467 -22.779  1.00  0.00    -0.176 N 
ATOM      3  H5  UNL     1      35.368  13.865 -22.310  1.00  0.00     0.186 HD
HETATM    4  C7  UNL     1      36.951  15.083 -22.033  1.00  0.00     0.120 A 
HETATM    5  C11 UNL     1      37.875  15.904 -22.644  1.00  0.00     0.097 A 
HETATM    6  C12 UNL     1      37.828  16.059 -24.019  1.00  0.00     0.122 A 
HETATM    7  N10 UNL     1      36.876  15.395 -24.691  1.00  0.00    -0.176 N 
ATOM      8  H10 UNL     1      36.841  15.508 -25.703  1.00  0.00     0.186 HD
ENDROOT
BRANCH   1   9
HETATM    9  N1  UNL     1      34.964  13.900 -24.838  1.00  0.00    -0.185 N 
HETATM   10  C1  UNL     1      34.358  14.569 -26.004  1.00  0.00     0.175 C 
BRANCH   9  11
HETATM   11  C2  UNL     1      34.475  12.610 -24.529  1.00  0.00     0.083 A 
HETATM   12  C3  UNL     1      33.191  12.292 -24.879  1.00  0.00     0.137 A 
HETATM   13  N2  UNL     1      32.658  11.088 -24.611  1.00  0.00    -0.200 N 
HETATM   14  C4  UNL     1      33.386  10.135 -23.975  1.00  0.00     0.675 A 
ATOM     15  H2  UNL     1      31.697  10.889 -24.888  1.00  0.00     0.183 HD
HETATM   16  N4  UNL     1      34.638  10.413 -23.620  1.00  0.00    -0.200 N 
HETATM   17  C5  UNL     1      35.204  11.622 -23.879  1.00  0.00     0.137 A 
ATOM     18  H4  UNL     1      35.189   9.700 -23.141  1.00  0.00     0.183 HD
BRANCH  14  19
HETATM   19  N3  UNL     1      32.830   8.964 -23.735  1.00  0.00    -0.234 N 
ATOM     20  H32 UNL     1      32.301   8.776 -22.883  1.00  0.00     0.174 HD
ATOM     21  H31 UNL     1      32.935   8.219 -24.424  1.00  0.00     0.174 HD
ENDBRANCH  14  19
ENDBRANCH   9  11
ENDBRANCH   1   9
BRANCH   4  22
HETATM   22  N6  UNL     1      36.992  14.934 -20.754  1.00  0.00    -0.368 N 
ATOM     23  H6  UNL     1      37.746  14.391 -20.334  1.00  0.00     0.161 HD
BRANCH  22  24
HETATM   24  C8  UNL     1      35.996  15.518 -19.918  1.00  0.00     0.134 C 
HETATM   25  C9  UNL     1      36.258  16.998 -19.730  1.00  0.00     0.259 C 
HETATM   26  N7  UNL     1      36.183  16.828 -18.307  1.00  0.00    -0.071 N 
HETATM   27  C10 UNL     1      36.166  15.402 -18.441  1.00  0.00     0.259 C 
ATOM     28  H72 UNL     1      36.887  17.265 -17.713  1.00  0.00     0.277 HD
ATOM     29  H71 UNL     1      35.437  17.291 -17.787  1.00  0.00     0.277 HD
ENDBRANCH  22  24
ENDBRANCH   4  22
BRANCH   6  30
HETATM   30  N8  UNL     1      38.784  16.905 -24.631  1.00  0.00    -0.364 N 
HETATM   31  C13 UNL     1      39.318  16.648 -25.954  1.00  0.00     0.143 C 
HETATM   32  C14 UNL     1      39.276  17.978 -26.723  1.00  0.00     0.133 C 
HETATM   33  N9  UNL     1      40.092  18.969 -26.089  1.00  0.00    -0.418 N 
HETATM   34  C15 UNL     1      40.428  18.698 -24.718  1.00  0.00     0.133 C 
ATOM     35  H9  UNL     1      40.411  19.807 -26.575  1.00  0.00     0.153 HD
HETATM   36  C16 UNL     1      39.280  18.089 -23.959  1.00  0.00     0.143 C 
ENDBRANCH   6  30
TORSDOF 6
ENDMDL
MODEL 3
REMARK VINA RESULT: -7.778176162      1.261      4.982
REMARK  6 active torsions:
REMARK  status: ('A' for Active; 'I' for Inactive)
REMARK    1  A    between atoms: N1_2  and  C2_3 
REMARK    2  A    between atoms: N1_2  and  C6_14 
REMARK    3  A    between atoms: C4_7  and  N3_8 
REMARK    4  A    between atoms: C7_17  and  N6_18 
REMARK    5  A    between atoms: N6_18  and  C8_20 
REMARK    6  A    between atoms: C12_27  and  N8_28 
ROOT
HETATM    1  C6  UNL     1      35.744  14.402 -23.019  1.00  0.00     0.687 A 
HETATM    2  N5  UNL     1      37.041  14.149 -22.765  1.00  0.00    -0.176 N 
ATOM      3  H5  UNL     1      37.590  14.876 -22.305  1.00  0.00     0.186 HD
HETATM    4  C7  UNL     1      37.649  13.013 -23.075  1.00  0.00     0.120 A 
HETATM    5  C11 UNL     1      36.928  12.017 -23.698  1.00  0.00     0.097 A 
HETATM    6  C12 UNL     1      35.590  12.234 -23.979  1.00  0.00     0.122 A 
HETATM    7  N10 UNL     1      35.061  13.415 -23.627  1.00  0.00    -0.176 N 
ATOM      8  H10 UNL     1      34.075  13.575 -23.834  1.00  0.00     0.186 HD
ENDROOT
BRANCH   1   9
HETATM    9  N1  UNL     1      35.172  15.642 -22.659  1.00  0.00    -0.185 N 
HETATM   10  C1  UNL     1      34.034  16.142 -23.450  1.00  0.00     0.175 C 
BRANCH   9  11
HETATM   11  C2  UNL     1      35.610  16.465 -21.597  1.00  0.00     0.083 A 
HETATM   12  C3  UNL     1      36.142  17.691 -21.891  1.00  0.00     0.137 A 
HETATM   13  N2  UNL     1      36.585  18.524 -20.934  1.00  0.00    -0.200 N 
HETATM   14  C4  UNL     1      36.519  18.171 -19.624  1.00  0.00     0.675 A 
ATOM     15  H2  UNL     1      36.974  19.430 -21.194  1.00  0.00     0.183 HD
HETATM   16  N4  UNL     1      36.007  16.984 -19.304  1.00  0.00    -0.200 N 
HETATM   17  C5  UNL     1      35.551  16.122 -20.251  1.00  0.00     0.137 A 
ATOM     18  H4  UNL     1      35.957  16.714 -18.322  1.00  0.00     0.183 HD
BRANCH  14  19
HETATM   19  N3  UNL     1      36.957  19.017 -18.714  1.00  0.00    -0.234 N 
ATOM     20  H32 UNL     1      37.798  19.579 -18.852  1.00  0.00     0.174 HD
ATOM     21  H31 UNL     1      36.441  19.111 -17.840  1.00  0.00     0.174 HD
ENDBRANCH  14  19
ENDBRANCH   9  11
ENDBRANCH   1   9
BRANCH   4  22
HETATM   22  N6  UNL     1      38.894  12.815 -22.809  1.00  0.00    -0.368 N 
ATOM     23  H6  UNL     1      39.160  12.416 -21.909  1.00  0.00     0.161 HD
BRANCH  22  24
HETATM   24  C8  UNL     1      39.906  13.147 -23.756  1.00  0.00     0.134 C 
HETATM   25  C9  UNL     1      41.274  12.770 -23.230  1.00  0.00     0.259 C 
HETATM   26  N7  UNL     1      41.740  14.101 -23.497  1.00  0.00    -0.071 N 
HETATM   27  C10 UNL     1      40.410  14.550 -23.780  1.00  0.00     0.259 C 
ATOM     28  H72 UNL     1      42.292  14.588 -22.791  1.00  0.00     0.277 HD
ATOM     29  H71 UNL     1      42.475  14.244 -24.189  1.00  0.00     0.277 HD
ENDBRANCH  22  24
ENDBRANCH   4  22
BRANCH   6  30
HETATM   30  N8  UNL     1      34.864  11.201 -24.619  1.00  0.00    -0.364 N 
HETATM   31  C13 UNL     1      35.180  10.740 -25.957  1.00  0.00     0.143 C 
HETATM   32  C14 UNL     1      35.185   9.204 -25.916  1.00  0.00     0.133 C 
HETATM   33  N9  UNL     1      33.899   8.691 -25.551  1.00  0.00    -0.418 N 
HETATM   34  C15 UNL     1      33.023   9.636 -24.913  1.00  0.00     0.133 C 
ATOM     35  H9  UNL     1      33.624   7.725 -25.731  1.00  0.00     0.153 HD
HETATM   36  C16 UNL     1      33.756  10.540 -23.960  1.00  0.00     0.143 C 
ENDBRANCH   6  30
TORSDOF 6
ENDMDL
MODEL 4
REMARK VINA RESULT: -7.758925436      1.614      7.082
REMARK  6 active torsions:
REMARK  status: ('A' for Active; 'I' for Inactive)
REMARK    1  A    between atoms: N1_2  and  C2_3 
REMARK    2  A    between atoms: N1_2  and  C6_14 
REMARK    3  A    between atoms: C4_7  and  N3_8 
REMARK    4  A    between atoms: C7_17  and  N6_18 
REMARK    5  A    between atoms: N6_18  and  C8_20 
REMARK    6  A    between atoms: C12_27  and  N8_28 
ROOT
HETATM    1  C6  UNL     1      36.068  14.366 -24.331  1.00  0.00     0.687 A 
HETATM    2  N5  UNL     1      37.352  14.291 -24.725  1.00  0.00    -0.176 N 
ATOM      3  H5  UNL     1      37.568  13.729 -25.549  1.00  0.00     0.186 HD
HETATM    4  C7  UNL     1      38.354  14.902 -24.109  1.00  0.00     0.120 A 
HETATM    5  C11 UNL     1      38.086  15.664 -22.992  1.00  0.00     0.097 A 
HETATM    6  C12 UNL     1      36.779  15.770 -22.550  1.00  0.00     0.122 A 
HETATM    7  N10 UNL     1      35.832  15.116 -23.239  1.00  0.00    -0.176 N 
ATOM      8  H10 UNL     1      34.868  15.194 -22.913  1.00  0.00     0.186 HD
ENDROOT
BRANCH   1   9
HETATM    9  N1  UNL     1      35.059  13.681 -25.042  1.00  0.00    -0.185 N 
HETATM   10  C1  UNL     1      34.506  14.313 -26.253  1.00  0.00     0.175 C 
BRANCH   9  11
HETATM   11  C2  UNL     1      34.516  12.426 -24.682  1.00  0.00     0.083 A 
HETATM   12  C3  UNL     1      33.217  12.152 -25.016  1.00  0.00     0.137 A 
HETATM   13  N2  UNL     1      32.632  10.985 -24.701  1.00  0.00    -0.200 N 
HETATM   14  C4  UNL     1      33.320  10.024 -24.032  1.00  0.00     0.675 A 
ATOM     15  H2  UNL     1      31.662  10.818 -24.968  1.00  0.00     0.183 HD
HETATM   16  N4  UNL     1      34.585  10.259 -23.692  1.00  0.00    -0.200 N 
HETATM   17  C5  UNL     1      35.203  11.431 -23.998  1.00  0.00     0.137 A 
ATOM     18  H4  UNL     1      35.106   9.541 -23.188  1.00  0.00     0.183 HD
BRANCH  14  19
HETATM   19  N3  UNL     1      32.713   8.889 -23.747  1.00  0.00    -0.234 N 
ATOM     20  H32 UNL     1      31.710   8.836 -23.570  1.00  0.00     0.174 HD
ATOM     21  H31 UNL     1      33.267   8.034 -23.696  1.00  0.00     0.174 HD
ENDBRANCH  14  19
ENDBRANCH   9  11
ENDBRANCH   1   9
BRANCH   4  22
HETATM   22  N6  UNL     1      39.569  14.803 -24.525  1.00  0.00    -0.368 N 
ATOM     23  H6  UNL     1      39.811  15.140 -25.457  1.00  0.00     0.161 HD
BRANCH  22  24
HETATM   24  C8  UNL     1      40.580  14.227 -23.702  1.00  0.00     0.134 C 
HETATM   25  C9  UNL     1      41.819  13.918 -24.514  1.00  0.00     0.259 C 
HETATM   26  N7  UNL     1      41.802  12.570 -24.021  1.00  0.00    -0.071 N 
HETATM   27  C10 UNL     1      40.512  12.762 -23.430  1.00  0.00     0.259 C 
ATOM     28  H72 UNL     1      41.944  11.797 -24.672  1.00  0.00     0.277 HD
ATOM     29  H71 UNL     1      42.574  12.240 -23.442  1.00  0.00     0.277 HD
ENDBRANCH  22  24
ENDBRANCH   4  22
BRANCH   6  30
HETATM   30  N8  UNL     1      36.521  16.557 -21.402  1.00  0.00    -0.364 N 
HETATM   31  C13 UNL     1      35.440  16.263 -20.482  1.00  0.00     0.143 C 
HETATM   32  C14 UNL     1      36.018  16.357 -19.061  1.00  0.00     0.133 C 
HETATM   33  N9  UNL     1      36.502  17.675 -18.785  1.00  0.00    -0.418 N 
HETATM   34  C15 UNL     1      36.742  18.493 -19.943  1.00  0.00     0.133 C 
ATOM     35  H9  UNL     1      36.665  18.011 -17.835  1.00  0.00     0.153 HD
HETATM   36  C16 UNL     1      37.338  17.710 -21.081  1.00  0.00     0.143 C 
ENDBRANCH   6  30
TORSDOF 6
ENDMDL
MODEL 5
REMARK VINA RESULT: -7.670225820      1.458      5.978
REMARK  6 active torsions:
REMARK  status: ('A' for Active; 'I' for Inactive)
REMARK    1  A    between atoms: N1_2  and  C2_3 
REMARK    2  A    between atoms: N1_2  and  C6_14 
REMARK    3  A    between atoms: C4_7  and  N3_8 
REMARK    4  A    between atoms: C7_17  and  N6_18 
REMARK    5  A    between atoms: N6_18  and  C8_20 
REMARK    6  A    between atoms: C12_27  and  N8_28 
ROOT
HETATM    1  C6  UNL     1      35.979  14.533 -24.239  1.00  0.00     0.687 A 
HETATM    2  N5  UNL     1      35.861  15.726 -23.627  1.00  0.00    -0.176 N 
ATOM      3  H5  UNL     1      34.951  16.187 -23.647  1.00  0.00     0.186 HD
HETATM    4  C7  UNL     1      36.856  16.339 -23.000  1.00  0.00     0.120 A 
HETATM    5  C11 UNL     1      38.095  15.736 -22.963  1.00  0.00     0.097 A 
HETATM    6  C12 UNL     1      38.262  14.508 -23.579  1.00  0.00     0.122 A 
HETATM    7  N10 UNL     1      37.198  13.964 -24.188  1.00  0.00    -0.176 N 
ATOM      8  H10 UNL     1      37.320  13.059 -24.642  1.00  0.00     0.186 HD
ENDROOT
BRANCH   1   9
HETATM    9  N1  UNL     1      34.870  13.949 -24.887  1.00  0.00    -0.185 N 
HETATM   10  C1  UNL     1      34.188  14.724 -25.940  1.00  0.00     0.175 C 
BRANCH   9  11
HETATM   11  C2  UNL     1      34.338  12.670 -24.604  1.00  0.00     0.083 A 
HETATM   12  C3  UNL     1      33.170  12.295 -25.211  1.00  0.00     0.137 A 
HETATM   13  N2  UNL     1      32.602  11.098 -24.984  1.00  0.00    -0.200 N 
HETATM   14  C4  UNL     1      33.177  10.210 -24.133  1.00  0.00     0.675 A 
ATOM     15  H2  UNL     1      31.731  10.855 -25.456  1.00  0.00     0.183 HD
HETATM   16  N4  UNL     1      34.314  10.545 -23.526  1.00  0.00    -0.200 N 
HETATM   17  C5  UNL     1      34.911  11.748 -23.737  1.00  0.00     0.137 A 
ATOM     18  H4  UNL     1      34.749   9.881 -22.885  1.00  0.00     0.183 HD
BRANCH  14  19
HETATM   19  N3  UNL     1      32.594   9.044 -23.941  1.00  0.00    -0.234 N 
ATOM     20  H32 UNL     1      32.394   8.401 -24.708  1.00  0.00     0.174 HD
ATOM     21  H31 UNL     1      32.329   8.775 -22.994  1.00  0.00     0.174 HD
ENDBRANCH  14  19
ENDBRANCH   9  11
ENDBRANCH   1   9
BRANCH   4  22
HETATM   22  N6  UNL     1      36.695  17.481 -22.426  1.00  0.00    -0.368 N 
ATOM     23  H6  UNL     1      37.153  18.307 -22.810  1.00  0.00     0.161 HD
BRANCH  22  24
HETATM   24  C8  UNL     1      35.884  17.605 -21.261  1.00  0.00     0.134 C 
HETATM   25  C9  UNL     1      36.594  18.420 -20.201  1.00  0.00     0.259 C 
HETATM   26  N7  UNL     1      36.368  17.371 -19.247  1.00  0.00    -0.071 N 
HETATM   27  C10 UNL     1      35.902  16.488 -20.273  1.00  0.00     0.259 C 
ATOM     28  H72 UNL     1      37.131  17.074 -18.640  1.00  0.00     0.277 HD
ATOM     29  H71 UNL     1      35.777  17.553 -18.436  1.00  0.00     0.277 HD
ENDBRANCH  22  24
ENDBRANCH   4  22
BRANCH   6  30
HETATM   30  N8  UNL     1      39.541  13.903 -23.531  1.00  0.00    -0.364 N 
HETATM   31  C13 UNL     1      39.725  12.489 -23.265  1.00  0.00     0.143 C 
HETATM   32  C14 UNL     1      40.731  11.962 -24.300  1.00  0.00     0.133 C 
HETATM   33  N9  UNL     1      41.997  12.616 -24.171  1.00  0.00    -0.418 N 
HETATM   34  C15 UNL     1      41.973  13.858 -23.447  1.00  0.00     0.133 C 
ATOM     35  H9  UNL     1      42.855  12.230 -24.566  1.00  0.00     0.153 HD
HETATM   36  C16 UNL     1      40.747  14.674 -23.753  1.00  0.00     0.143 C 
ENDBRANCH   6  30
TORSDOF 6
ENDMDL
