MODEL 1
REMARK VINA RESULT: -7.881014845      0.000      0.000
REMARK  5 active torsions:
REMARK  status: ('A' for Active; 'I' for Inactive)
REMARK    1  A    between atoms: O1_2  and  C2_3 
REMARK    2  A    between atoms: C6_9  and  N2_10 
REMARK    3  A    between atoms: C11_16  and  C12_17 
REMARK    4  A    between atoms: C12_17  and  N3_18 
REMARK    5  A    between atoms: N3_18  and  C13_20 
ROOT
HETATM    1  C2  UNL     1      34.185  12.162 -25.250  1.00  0.00     0.113 A 
HETATM    2  C3  UNL     1      33.686  13.456 -25.080  1.00  0.00     0.058 A 
HETATM    3  C4  UNL     1      34.447  14.403 -24.430  1.00  0.00     0.039 A 
HETATM    4  C5  UNL     1      35.688  13.994 -23.979  1.00  0.00     0.076 A 
HETATM    5  N1  UNL     1      36.140  12.743 -24.159  1.00  0.00    -0.338 N 
ATOM      6  H1  UNL     1      37.065  12.499 -23.805  1.00  0.00     0.167 HD
HETATM    7  C6  UNL     1      35.409  11.787 -24.796  1.00  0.00     0.138 A 
HETATM    8  C11 UNL     1      36.286  15.160 -23.339  1.00  0.00     0.077 A 
HETATM    9  N7  UNL     1      35.400  16.264 -23.407  1.00  0.00    -0.339 N 
ATOM     10  H7  UNL     1      35.563  17.202 -23.039  1.00  0.00     0.167 HD
HETATM   11  C16 UNL     1      34.242  15.806 -24.088  1.00  0.00     0.112 A 
HETATM   12  N8  UNL     1      33.217  16.545 -24.338  1.00  0.00    -0.385 N 
ATOM     13  H81 UNL     1      33.074  17.526 -24.099  1.00  0.00     0.157 HD
ATOM     14  H82 UNL     1      32.386  16.216 -24.828  1.00  0.00     0.157 HD
ENDROOT
BRANCH   8  15
HETATM   15  C12 UNL     1      37.474  15.196 -22.773  1.00  0.00     0.121 C 
BRANCH  15  16
HETATM   16  N3  UNL     1      37.827  16.213 -21.849  1.00  0.00    -0.347 N 
ATOM     17  H3  UNL     1      38.520  16.919 -22.098  1.00  0.00     0.167 HD
BRANCH  16  18
HETATM   18  C13 UNL     1      37.206  16.235 -20.573  1.00  0.00     0.148 A 
HETATM   19  N4  UNL     1      36.967  15.212 -19.742  1.00  0.00    -0.336 N 
HETATM   20  C14 UNL     1      36.357  15.659 -18.631  1.00  0.00     0.183 A 
ATOM     21  H4  UNL     1      37.213  14.238 -19.924  1.00  0.00     0.168 HD
HETATM   22  N5  UNL     1      36.218  16.980 -18.782  1.00  0.00    -0.338 N 
HETATM   23  C15 UNL     1      36.728  17.367 -19.964  1.00  0.00     0.161 A 
ATOM     24  H5  UNL     1      35.786  17.603 -18.100  1.00  0.00     0.168 HD
HETATM   25  N6  UNL     1      36.732  18.712 -20.419  1.00  0.00    -0.079 NA
ENDBRANCH  16  18
ENDBRANCH  15  16
ENDBRANCH   8  15
BRANCH   7  26
HETATM   26  N2  UNL     1      35.993  10.530 -24.938  1.00  0.00    -0.361 N 
HETATM   27  C7  UNL     1      36.900  10.246 -26.091  1.00  0.00     0.151 C 
HETATM   28  C8  UNL     1      37.965   9.331 -25.521  1.00  0.00     0.187 C 
HETATM   29  O2  UNL     1      38.201   9.575 -24.176  1.00  0.00    -0.388 OA
HETATM   30  C9  UNL     1      37.166   9.269 -23.329  1.00  0.00     0.187 C 
HETATM   31  C10 UNL     1      35.843   9.371 -24.088  1.00  0.00     0.151 C 
ENDBRANCH   7  26
BRANCH   1  32
HETATM   32  O1  UNL     1      33.389  11.271 -25.895  1.00  0.00    -0.352 OA
HETATM   33  C1  UNL     1      32.424  10.507 -25.214  1.00  0.00     0.210 C 
ENDBRANCH   1  32
TORSDOF 5
ENDMDL
MODEL 2
REMARK VINA RESULT: -7.799111688      0.918      1.314
REMARK  5 active torsions:
REMARK  status: ('A' for Active; 'I' for Inactive)
REMARK    1  A    between atoms: O1_2  and  C2_3 
REMARK    2  A    between atoms: C6_9  and  N2_10 
REMARK    3  A    between atoms: C11_16  and  C12_17 
REMARK    4  A    between atoms: C12_17  and  N3_18 
REMARK    5  A    between atoms: N3_18  and  C13_20 
ROOT
HETATM    1  C2  UNL     1      34.963  12.064 -24.548  1.00  0.00     0.113 A 
HETATM    2  C3  UNL     1      34.245  13.262 -24.517  1.00  0.00     0.058 A 
HETATM    3  C4  UNL     1      34.865  14.421 -24.100  1.00  0.00     0.039 A 
HETATM    4  C5  UNL     1      36.192  14.313 -23.733  1.00  0.00     0.076 A 
HETATM    5  N1  UNL     1      36.856  13.146 -23.774  1.00  0.00    -0.338 N 
ATOM      6  H1  UNL     1      37.836  13.128 -23.492  1.00  0.00     0.167 HD
HETATM    7  C6  UNL     1      36.269  11.987 -24.181  1.00  0.00     0.138 A 
HETATM    8  C11 UNL     1      36.610  15.654 -23.340  1.00  0.00     0.077 A 
HETATM    9  N7  UNL     1      35.530  16.561 -23.472  1.00  0.00    -0.339 N 
ATOM     10  H7  UNL     1      35.543  17.560 -23.267  1.00  0.00     0.167 HD
HETATM   11  C16 UNL     1      34.428  15.804 -23.949  1.00  0.00     0.112 A 
HETATM   12  N8  UNL     1      33.266  16.303 -24.190  1.00  0.00    -0.385 N 
ATOM     13  H81 UNL     1      32.960  17.270 -24.084  1.00  0.00     0.157 HD
ATOM     14  H82 UNL     1      32.474  15.759 -24.533  1.00  0.00     0.157 HD
ENDROOT
BRANCH   8  15
HETATM   15  C12 UNL     1      37.812  15.987 -22.919  1.00  0.00     0.121 C 
BRANCH  15  16
HETATM   16  N3  UNL     1      37.999  16.912 -21.859  1.00  0.00    -0.347 N 
ATOM     17  H3  UNL     1      38.616  17.715 -21.978  1.00  0.00     0.167 HD
BRANCH  16  18
HETATM   18  C13 UNL     1      37.317  16.705 -20.632  1.00  0.00     0.148 A 
HETATM   19  N4  UNL     1      37.152  15.563 -19.949  1.00  0.00    -0.336 N 
HETATM   20  C14 UNL     1      36.443  15.798 -18.833  1.00  0.00     0.183 A 
ATOM     21  H4  UNL     1      37.511  14.652 -20.235  1.00  0.00     0.168 HD
HETATM   22  N5  UNL     1      36.167  17.106 -18.827  1.00  0.00    -0.338 N 
HETATM   23  C15 UNL     1      36.689  17.693 -19.918  1.00  0.00     0.161 A 
ATOM     24  H5  UNL     1      35.638  17.588 -18.101  1.00  0.00     0.168 HD
HETATM   25  N6  UNL     1      36.568  19.079 -20.203  1.00  0.00    -0.079 NA
ENDBRANCH  16  18
ENDBRANCH  15  16
ENDBRANCH   8  15
BRANCH   7  26
HETATM   26  N2  UNL     1      37.065  10.844 -24.199  1.00  0.00    -0.361 N 
HETATM   27  C7  UNL     1      37.101   9.931 -23.016  1.00  0.00     0.151 C 
HETATM   28  C8  UNL     1      37.217   8.543 -23.610  1.00  0.00     0.187 C 
HETATM   29  O2  UNL     1      36.606   8.450 -24.853  1.00  0.00    -0.388 OA
HETATM   30  C9  UNL     1      37.196   9.174 -25.857  1.00  0.00     0.187 C 
HETATM   31  C10 UNL     1      37.932  10.371 -25.254  1.00  0.00     0.151 C 
ENDBRANCH   7  26
BRANCH   1  32
HETATM   32  O1  UNL     1      34.300  10.955 -24.964  1.00  0.00    -0.352 OA
HETATM   33  C1  UNL     1      33.446  10.235 -24.109  1.00  0.00     0.210 C 
ENDBRANCH   1  32
TORSDOF 5
ENDMDL
MODEL 3
REMARK VINA RESULT: -7.798085630      1.745      3.810
REMARK  5 active torsions:
REMARK  status: ('A' for Active; 'I' for Inactive)
REMARK    1  A    between atoms: O1_2  and  C2_3 
REMARK    2  A    between atoms: C6_9  and  N2_10 
REMARK    3  A    between atoms: C11_16  and  C12_17 
REMARK    4  A    between atoms: C12_17  and  N3_18 
REMARK    5  A    between atoms: N3_18  and  C13_20 
ROOT
HETATM    1  C2  UNL     1      36.786  10.080 -23.766  1.00  0.00     0.113 A 
HETATM    2  C3  UNL     1      37.988  10.708 -23.427  1.00  0.00     0.058 A 
HETATM    3  C4  UNL     1      38.038  12.081 -23.323  1.00  0.00     0.039 A 
HETATM    4  C5  UNL     1      36.861  12.761 -23.568  1.00  0.00     0.076 A 
HETATM    5  N1  UNL     1      35.721  12.129 -23.891  1.00  0.00    -0.338 N 
ATOM      6  H1  UNL     1      34.882  12.685 -24.060  1.00  0.00     0.167 HD
HETATM    7  C6  UNL     1      35.643  10.775 -24.001  1.00  0.00     0.138 A 
HETATM    8  C11 UNL     1      37.171  14.176 -23.396  1.00  0.00     0.077 A 
HETATM    9  N7  UNL     1      38.536  14.338 -23.049  1.00  0.00    -0.339 N 
ATOM     10  H7  UNL     1      39.020  15.218 -22.870  1.00  0.00     0.167 HD
HETATM   11  C16 UNL     1      39.094  13.034 -22.999  1.00  0.00     0.112 A 
HETATM   12  N8  UNL     1      40.325  12.790 -22.710  1.00  0.00    -0.385 N 
ATOM     13  H81 UNL     1      41.063  13.457 -22.483  1.00  0.00     0.157 HD
ATOM     14  H82 UNL     1      40.725  11.853 -22.674  1.00  0.00     0.157 HD
ENDROOT
BRANCH   8  15
HETATM   15  C12 UNL     1      36.320  15.169 -23.540  1.00  0.00     0.121 C 
BRANCH  15  16
HETATM   16  N3  UNL     1      35.399  15.514 -22.518  1.00  0.00    -0.347 N 
ATOM     17  H3  UNL     1      34.397  15.524 -22.708  1.00  0.00     0.167 HD
BRANCH  16  18
HETATM   18  C13 UNL     1      35.888  15.844 -21.228  1.00  0.00     0.148 A 
HETATM   19  N4  UNL     1      36.200  15.022 -20.216  1.00  0.00    -0.336 N 
HETATM   20  C14 UNL     1      36.628  15.737 -19.162  1.00  0.00     0.183 A 
ATOM     21  H4  UNL     1      36.124  14.005 -20.242  1.00  0.00     0.168 HD
HETATM   22  N5  UNL     1      36.578  17.021 -19.531  1.00  0.00    -0.338 N 
HETATM   23  C15 UNL     1      36.128  17.123 -20.793  1.00  0.00     0.161 A 
ATOM     24  H5  UNL     1      36.844  17.809 -18.940  1.00  0.00     0.168 HD
HETATM   25  N6  UNL     1      35.962  18.357 -21.475  1.00  0.00    -0.079 NA
ENDBRANCH  16  18
ENDBRANCH  15  16
ENDBRANCH   8  15
BRANCH   7  26
HETATM   26  N2  UNL     1      34.400  10.234 -24.324  1.00  0.00    -0.361 N 
HETATM   27  C7  UNL     1      33.151  10.823 -23.754  1.00  0.00     0.151 C 
HETATM   28  C8  UNL     1      32.132  10.704 -24.869  1.00  0.00     0.187 C 
HETATM   29  O2  UNL     1      32.717  10.773 -26.125  1.00  0.00    -0.388 OA
HETATM   30  C9  UNL     1      33.534   9.722 -26.454  1.00  0.00     0.187 C 
HETATM   31  C10 UNL     1      34.108   9.106 -25.178  1.00  0.00     0.151 C 
ENDBRANCH   7  26
BRANCH   1  32
HETATM   32  O1  UNL     1      36.799   8.726 -23.856  1.00  0.00    -0.352 OA
HETATM   33  C1  UNL     1      37.781   8.039 -24.593  1.00  0.00     0.210 C 
ENDBRANCH   1  32
TORSDOF 5
ENDMDL
MODEL 4
REMARK VINA RESULT: -7.722184840      1.513      3.512
REMARK  5 active torsions:
REMARK  status: ('A' for Active; 'I' for Inactive)
REMARK    1  A    between atoms: O1_2  and  C2_3 
REMARK    2  A    between atoms: C6_9  and  N2_10 
REMARK    3  A    between atoms: C11_16  and  C12_17 
REMARK    4  A    between atoms: C12_17  and  N3_18 
REMARK    5  A    between atoms: N3_18  and  C13_20 
ROOT
HETATM    1  C2  UNL     1      37.339  11.582 -24.073  1.00  0.00     0.113 A 
HETATM    2  C3  UNL     1      38.314  12.551 -23.825  1.00  0.00     0.058 A 
HETATM    3  C4  UNL     1      37.937  13.853 -23.573  1.00  0.00     0.039 A 
HETATM    4  C5  UNL     1      36.581  14.115 -23.583  1.00  0.00     0.076 A 
HETATM    5  N1  UNL     1      35.667  13.160 -23.825  1.00  0.00    -0.338 N 
ATOM      6  H1  UNL     1      34.679  13.413 -23.819  1.00  0.00     0.167 HD
HETATM    7  C6  UNL     1      36.012  11.868 -24.077  1.00  0.00     0.138 A 
HETATM    8  C11 UNL     1      36.444  15.537 -23.293  1.00  0.00     0.077 A 
HETATM    9  N7  UNL     1      37.721  16.124 -23.111  1.00  0.00    -0.339 N 
ATOM     10  H7  UNL     1      37.920  17.101 -22.898  1.00  0.00     0.167 HD
HETATM   11  C16 UNL     1      38.669  15.080 -23.282  1.00  0.00     0.112 A 
HETATM   12  N8  UNL     1      39.942  15.244 -23.186  1.00  0.00    -0.385 N 
ATOM     13  H81 UNL     1      40.454  16.103 -22.983  1.00  0.00     0.157 HD
ATOM     14  H82 UNL     1      40.622  14.495 -23.309  1.00  0.00     0.157 HD
ENDROOT
BRANCH   8  15
HETATM   15  C12 UNL     1      35.308  16.196 -23.211  1.00  0.00     0.121 C 
BRANCH  15  16
HETATM   16  N3  UNL     1      34.640  16.376 -21.973  1.00  0.00    -0.347 N 
ATOM     17  H3  UNL     1      33.633  16.540 -21.949  1.00  0.00     0.167 HD
BRANCH  16  18
HETATM   18  C13 UNL     1      35.388  16.327 -20.769  1.00  0.00     0.148 A 
HETATM   19  N4  UNL     1      35.560  15.292 -19.934  1.00  0.00    -0.336 N 
HETATM   20  C14 UNL     1      36.342  15.662 -18.905  1.00  0.00     0.183 A 
ATOM     21  H4  UNL     1      35.158  14.363 -20.060  1.00  0.00     0.168 HD
HETATM   22  N5  UNL     1      36.656  16.945 -19.110  1.00  0.00    -0.338 N 
HETATM   23  C15 UNL     1      36.087  17.385 -20.246  1.00  0.00     0.161 A 
ATOM     24  H5  UNL     1      37.242  17.509 -18.494  1.00  0.00     0.168 HD
HETATM   25  N6  UNL     1      36.231  18.708 -20.740  1.00  0.00    -0.079 NA
ENDBRANCH  16  18
ENDBRANCH  15  16
ENDBRANCH   8  15
BRANCH   7  26
HETATM   26  N2  UNL     1      34.973  10.964 -24.295  1.00  0.00    -0.361 N 
HETATM   27  C7  UNL     1      33.668  11.132 -23.588  1.00  0.00     0.151 C 
HETATM   28  C8  UNL     1      32.628  10.700 -24.601  1.00  0.00     0.187 C 
HETATM   29  O2  UNL     1      33.031  10.948 -25.906  1.00  0.00    -0.388 OA
HETATM   30  C9  UNL     1      34.096  10.206 -26.346  1.00  0.00     0.187 C 
HETATM   31  C10 UNL     1      34.961   9.802 -25.153  1.00  0.00     0.151 C 
ENDBRANCH   7  26
BRANCH   1  32
HETATM   32  O1  UNL     1      37.771  10.318 -24.318  1.00  0.00    -0.352 OA
HETATM   33  C1  UNL     1      39.136   9.980 -24.290  1.00  0.00     0.210 C 
ENDBRANCH   1  32
TORSDOF 5
ENDMDL
MODEL 5
REMARK VINA RESULT: -7.718116942      1.985      4.087
REMARK  5 active torsions:
REMARK  status: ('A' for Active; 'I' for Inactive)
REMARK    1  A    between atoms: O1_2  and  C2_3 
REMARK    2  A    between atoms: C6_9  and  N2_10 
REMARK    3  A    between atoms: C11_16  and  C12_17 
REMARK    4  A    between atoms: C12_17  and  N3_18 
REMARK    5  A    between atoms: N3_18  and  C13_20 
ROOT
HETATM    1  C2  UNL     1      37.147  10.267 -23.545  1.00  0.00     0.113 A 
HETATM    2  C3  UNL     1      38.380  10.851 -23.245  1.00  0.00     0.058 A 
HETATM    3  C4  UNL     1      38.546  12.212 -23.386  1.00  0.00     0.039 A 
HETATM    4  C5  UNL     1      37.447  12.924 -23.827  1.00  0.00     0.076 A 
HETATM    5  N1  UNL     1      36.274  12.334 -24.107  1.00  0.00    -0.338 N 
ATOM      6  H1  UNL     1      35.497  12.912 -24.428  1.00  0.00     0.167 HD
HETATM    7  C6  UNL     1      36.083  10.992 -23.977  1.00  0.00     0.138 A 
HETATM    8  C11 UNL     1      37.871  14.318 -23.891  1.00  0.00     0.077 A 
HETATM    9  N7  UNL     1      39.225  14.436 -23.488  1.00  0.00    -0.339 N 
ATOM     10  H7  UNL     1      39.775  15.294 -23.438  1.00  0.00     0.167 HD
HETATM   11  C16 UNL     1      39.662  13.124 -23.168  1.00  0.00     0.112 A 
HETATM   12  N8  UNL     1      40.851  12.844 -22.759  1.00  0.00    -0.385 N 
ATOM     13  H81 UNL     1      41.632  13.482 -22.607  1.00  0.00     0.157 HD
ATOM     14  H82 UNL     1      41.165  11.902 -22.528  1.00  0.00     0.157 HD
ENDROOT
BRANCH   8  15
HETATM   15  C12 UNL     1      37.119  15.330 -24.267  1.00  0.00     0.121 C 
BRANCH  15  16
HETATM   16  N3  UNL     1      37.412  16.662 -23.876  1.00  0.00    -0.347 N 
ATOM     17  H3  UNL     1      37.893  17.294 -24.515  1.00  0.00     0.167 HD
BRANCH  16  18
HETATM   18  C13 UNL     1      37.028  17.104 -22.583  1.00  0.00     0.148 A 
HETATM   19  N4  UNL     1      37.810  17.480 -21.562  1.00  0.00    -0.336 N 
HETATM   20  C14 UNL     1      37.050  17.828 -20.510  1.00  0.00     0.183 A 
ATOM     21  H4  UNL     1      38.830  17.498 -21.580  1.00  0.00     0.168 HD
HETATM   22  N5  UNL     1      35.779  17.664 -20.890  1.00  0.00    -0.338 N 
HETATM   23  C15 UNL     1      35.729  17.221 -22.158  1.00  0.00     0.161 A 
ATOM     24  H5  UNL     1      34.965  17.849 -20.304  1.00  0.00     0.168 HD
HETATM   25  N6  UNL     1      34.521  16.949 -22.853  1.00  0.00    -0.079 NA
ENDBRANCH  16  18
ENDBRANCH  15  16
ENDBRANCH   8  15
BRANCH   7  26
HETATM   26  N2  UNL     1      34.816  10.498 -24.280  1.00  0.00    -0.361 N 
HETATM   27  C7  UNL     1      33.609  11.048 -23.592  1.00  0.00     0.151 C 
HETATM   28  C8  UNL     1      32.530  11.045 -24.656  1.00  0.00     0.187 C 
HETATM   29  O2  UNL     1      33.049  11.221 -25.930  1.00  0.00    -0.388 OA
HETATM   30  C9  UNL     1      33.829  10.194 -26.398  1.00  0.00     0.187 C 
HETATM   31  C10 UNL     1      34.459   9.457 -25.216  1.00  0.00     0.151 C 
ENDBRANCH   7  26
BRANCH   1  32
HETATM   32  O1  UNL     1      37.045   8.922 -23.391  1.00  0.00    -0.352 OA
HETATM   33  C1  UNL     1      37.727   8.023 -24.231  1.00  0.00     0.210 C 
ENDBRANCH   1  32
TORSDOF 5
ENDMDL
