MODEL 1
REMARK VINA RESULT: -7.933059330      0.000      0.000
REMARK  6 active torsions:
REMARK  status: ('A' for Active; 'I' for Inactive)
REMARK    1  A    between atoms: C2_2  and  C3_3 
REMARK    2  A    between atoms: C3_3  and  N1_4 
REMARK    3  A    between atoms: C5_9  and  C6_10 
REMARK    4  A    between atoms: C7_11  and  O1_12 
REMARK    5  A    between atoms: C9_15  and  N3_16 
REMARK    6  A    between atoms: C15_28  and  N6_29 
ROOT
HETATM    1  N1  UNL     1      37.121  15.499 -20.084  1.00  0.00    -0.222 N 
ATOM      2  H1  UNL     1      38.074  15.454 -19.724  1.00  0.00     0.178 HD
HETATM    3  C4  UNL     1      36.960  15.909 -21.285  1.00  0.00     0.694 A 
HETATM    4  N2  UNL     1      38.094  16.256 -21.987  1.00  0.00    -0.175 N 
ATOM      5  H2  UNL     1      39.007  16.178 -21.538  1.00  0.00     0.186 HD
HETATM    6  C5  UNL     1      38.012  16.692 -23.245  1.00  0.00     0.155 A 
HETATM    7  N5  UNL     1      36.744  16.755 -23.738  1.00  0.00    -0.175 N 
ATOM      8  H5  UNL     1      36.639  17.084 -24.697  1.00  0.00     0.186 HD
HETATM    9  C15 UNL     1      35.640  16.433 -23.096  1.00  0.00     0.692 A 
HETATM   10  N7  UNL     1      35.739  15.994 -21.829  1.00  0.00    -0.023 N 
ATOM     11  H7  UNL     1      34.908  15.733 -21.297  1.00  0.00     0.203 HD
ENDROOT
BRANCH   6  12
HETATM   12  C6  UNL     1      39.158  17.009 -24.107  1.00  0.00     0.110 A 
HETATM   13  C7  UNL     1      39.265  18.214 -24.786  1.00  0.00     0.088 A 
HETATM   14  C8  UNL     1      40.349  18.455 -25.672  1.00  0.00     0.086 A 
HETATM   15  C9  UNL     1      41.309  17.524 -25.879  1.00  0.00     0.108 A 
HETATM   16  N4  UNL     1      41.196  16.367 -25.219  1.00  0.00    -0.309 N 
HETATM   17  C14 UNL     1      40.167  16.103 -24.362  1.00  0.00     0.263 A 
ATOM     18  H4  UNL     1      41.909  15.651 -25.361  1.00  0.00     0.170 HD
HETATM   19  O3  UNL     1      40.175  14.979 -23.806  1.00  0.00    -0.267 OA
BRANCH  13  20
HETATM   20  O1  UNL     1      38.361  19.215 -24.643  1.00  0.00    -0.359 OA
ATOM     21  H1  UNL     1      38.516  20.094 -24.968  1.00  0.00     0.217 HD
ENDBRANCH  13  20
BRANCH  15  22
HETATM   22  N3  UNL     1      42.421  17.717 -26.758  1.00  0.00    -0.363 N 
HETATM   23  C10 UNL     1      43.725  17.216 -26.452  1.00  0.00     0.150 C 
HETATM   24  C11 UNL     1      44.441  16.817 -27.727  1.00  0.00     0.187 C 
HETATM   25  O2  UNL     1      44.490  17.800 -28.677  1.00  0.00    -0.388 OA
HETATM   26  C12 UNL     1      43.633  18.855 -28.482  1.00  0.00     0.187 C 
HETATM   27  C13 UNL     1      42.256  18.441 -28.006  1.00  0.00     0.150 C 
ENDBRANCH  15  22
ENDBRANCH   6  12
BRANCH   9  28
HETATM   28  N6  UNL     1      34.487  16.546 -23.701  1.00  0.00    -0.234 N 
ATOM     29  H62 UNL     1      34.211  15.923 -24.459  1.00  0.00     0.174 HD
ATOM     30  H61 UNL     1      33.839  17.279 -23.412  1.00  0.00     0.174 HD
ENDBRANCH   9  28
BRANCH   1  31
HETATM   31  C3  UNL     1      36.065  15.100 -19.212  1.00  0.00     0.164 C 
BRANCH  31  32
HETATM   32  C2  UNL     1      35.880  16.037 -18.062  1.00  0.00    -0.017 C 
HETATM   33  C1  UNL     1      35.904  15.601 -16.812  1.00  0.00     0.008 C 
ENDBRANCH  31  32
ENDBRANCH   1  31
TORSDOF 6
ENDMDL
MODEL 2
REMARK VINA RESULT: -7.762584769      5.684      7.514
REMARK  6 active torsions:
REMARK  status: ('A' for Active; 'I' for Inactive)
REMARK    1  A    between atoms: C2_2  and  C3_3 
REMARK    2  A    between atoms: C3_3  and  N1_4 
REMARK    3  A    between atoms: C5_9  and  C6_10 
REMARK    4  A    between atoms: C7_11  and  O1_12 
REMARK    5  A    between atoms: C9_15  and  N3_16 
REMARK    6  A    between atoms: C15_28  and  N6_29 
ROOT
HETATM    1  N1  UNL     1      36.799  14.778 -20.286  1.00  0.00    -0.222 N 
ATOM      2  H1  UNL     1      37.235  13.871 -20.122  1.00  0.00     0.178 HD
HETATM    3  C4  UNL     1      36.187  14.951 -21.397  1.00  0.00     0.694 A 
HETATM    4  N2  UNL     1      36.174  13.890 -22.276  1.00  0.00    -0.175 N 
ATOM      5  H2  UNL     1      36.642  13.020 -22.023  1.00  0.00     0.186 HD
HETATM    6  C5  UNL     1      35.556  13.987 -23.455  1.00  0.00     0.155 A 
HETATM    7  N5  UNL     1      34.968  15.194 -23.684  1.00  0.00    -0.175 N 
ATOM      8  H5  UNL     1      34.486  15.309 -24.575  1.00  0.00     0.186 HD
HETATM    9  C15 UNL     1      34.962  16.228 -22.867  1.00  0.00     0.692 A 
HETATM   10  N7  UNL     1      35.588  16.113 -21.683  1.00  0.00    -0.023 N 
ATOM     11  H7  UNL     1      35.606  16.890 -21.021  1.00  0.00     0.203 HD
ENDROOT
BRANCH   6  12
HETATM   12  C6  UNL     1      35.412  12.897 -24.427  1.00  0.00     0.110 A 
HETATM   13  C7  UNL     1      35.051  11.611 -24.053  1.00  0.00     0.088 A 
HETATM   14  C8  UNL     1      34.998  10.562 -25.010  1.00  0.00     0.086 A 
HETATM   15  C9  UNL     1      35.294  10.783 -26.312  1.00  0.00     0.108 A 
HETATM   16  N4  UNL     1      35.640  12.026 -26.662  1.00  0.00    -0.309 N 
HETATM   17  C14 UNL     1      35.702  13.055 -25.767  1.00  0.00     0.263 A 
ATOM     18  H4  UNL     1      35.868  12.214 -27.638  1.00  0.00     0.170 HD
HETATM   19  O3  UNL     1      36.043  14.173 -26.222  1.00  0.00    -0.267 OA
BRANCH  13  20
HETATM   20  O1  UNL     1      34.728  11.286 -22.776  1.00  0.00    -0.359 OA
ATOM     21  H1  UNL     1      34.900  10.428 -22.407  1.00  0.00     0.217 HD
ENDBRANCH  13  20
BRANCH  15  22
HETATM   22  N3  UNL     1      35.254   9.764 -27.315  1.00  0.00    -0.363 N 
HETATM   23  C10 UNL     1      34.420   8.610 -27.191  1.00  0.00     0.150 C 
HETATM   24  C11 UNL     1      33.935   8.170 -28.559  1.00  0.00     0.187 C 
HETATM   25  O2  UNL     1      34.933   7.973 -29.473  1.00  0.00    -0.388 OA
HETATM   26  C12 UNL     1      36.157   8.499 -29.138  1.00  0.00     0.187 C 
HETATM   27  C13 UNL     1      36.076   9.874 -28.508  1.00  0.00     0.150 C 
ENDBRANCH  15  22
ENDBRANCH   6  12
BRANCH   9  28
HETATM   28  N6  UNL     1      34.354  17.327 -23.225  1.00  0.00    -0.234 N 
ATOM     29  H62 UNL     1      34.680  18.247 -22.929  1.00  0.00     0.174 HD
ATOM     30  H61 UNL     1      33.527  17.273 -23.820  1.00  0.00     0.174 HD
ENDBRANCH   9  28
BRANCH   1  31
HETATM   31  C3  UNL     1      36.915  15.762 -19.260  1.00  0.00     0.164 C 
BRANCH  31  32
HETATM   32  C2  UNL     1      35.812  15.679 -18.253  1.00  0.00    -0.017 C 
HETATM   33  C1  UNL     1      36.072  15.626 -16.956  1.00  0.00     0.008 C 
ENDBRANCH  31  32
ENDBRANCH   1  31
TORSDOF 6
ENDMDL
MODEL 3
REMARK VINA RESULT: -7.719830896      0.871      1.789
REMARK  6 active torsions:
REMARK  status: ('A' for Active; 'I' for Inactive)
REMARK    1  A    between atoms: C2_2  and  C3_3 
REMARK    2  A    between atoms: C3_3  and  N1_4 
REMARK    3  A    between atoms: C5_9  and  C6_10 
REMARK    4  A    between atoms: C7_11  and  O1_12 
REMARK    5  A    between atoms: C9_15  and  N3_16 
REMARK    6  A    between atoms: C15_28  and  N6_29 
ROOT
HETATM    1  N1  UNL     1      37.195  17.295 -19.621  1.00  0.00    -0.222 N 
ATOM      2  H1  UNL     1      38.154  17.413 -19.294  1.00  0.00     0.178 HD
HETATM    3  C4  UNL     1      37.002  17.237 -20.884  1.00  0.00     0.694 A 
HETATM    4  N2  UNL     1      38.112  17.342 -21.694  1.00  0.00    -0.175 N 
ATOM      5  H2  UNL     1      39.033  17.460 -21.272  1.00  0.00     0.186 HD
HETATM    6  C5  UNL     1      37.997  17.289 -23.022  1.00  0.00     0.155 A 
HETATM    7  N5  UNL     1      36.721  17.130 -23.470  1.00  0.00    -0.175 N 
ATOM      8  H5  UNL     1      36.591  17.086 -24.480  1.00  0.00     0.186 HD
HETATM    9  C15 UNL     1      35.639  17.028 -22.726  1.00  0.00     0.692 A 
HETATM   10  N7  UNL     1      35.772  17.082 -21.389  1.00  0.00    -0.023 N 
ATOM     11  H7  UNL     1      34.959  17.005 -20.778  1.00  0.00     0.203 HD
ENDROOT
BRANCH   6  12
HETATM   12  C6  UNL     1      39.119  17.308 -23.970  1.00  0.00     0.110 A 
HETATM   13  C7  UNL     1      40.010  16.252 -24.086  1.00  0.00     0.088 A 
HETATM   14  C8  UNL     1      41.129  16.338 -24.957  1.00  0.00     0.086 A 
HETATM   15  C9  UNL     1      41.359  17.445 -25.701  1.00  0.00     0.108 A 
HETATM   16  N4  UNL     1      40.492  18.457 -25.581  1.00  0.00    -0.309 N 
HETATM   17  C14 UNL     1      39.409  18.407 -24.753  1.00  0.00     0.263 A 
ATOM     18  H4  UNL     1      40.647  19.301 -26.132  1.00  0.00     0.170 HD
HETATM   19  O3  UNL     1      38.674  19.422 -24.730  1.00  0.00    -0.267 OA
BRANCH  13  20
HETATM   20  O1  UNL     1      39.866  15.095 -23.392  1.00  0.00    -0.359 OA
ATOM     21  H1  UNL     1      40.595  14.513 -23.211  1.00  0.00     0.217 HD
ENDBRANCH  13  20
BRANCH  15  22
HETATM   22  N3  UNL     1      42.467  17.582 -26.594  1.00  0.00    -0.363 N 
HETATM   23  C10 UNL     1      43.732  16.969 -26.332  1.00  0.00     0.150 C 
HETATM   24  C11 UNL     1      44.392  16.562 -27.635  1.00  0.00     0.187 C 
HETATM   25  O2  UNL     1      44.503  17.572 -28.550  1.00  0.00    -0.388 OA
HETATM   26  C12 UNL     1      43.735  18.684 -28.302  1.00  0.00     0.187 C 
HETATM   27  C13 UNL     1      42.338  18.362 -27.812  1.00  0.00     0.150 C 
ENDBRANCH  15  22
ENDBRANCH   6  12
BRANCH   9  28
HETATM   28  N6  UNL     1      34.475  16.879 -23.301  1.00  0.00    -0.234 N 
ATOM     29  H62 UNL     1      33.752  16.276 -22.910  1.00  0.00     0.174 HD
ATOM     30  H61 UNL     1      34.275  17.378 -24.168  1.00  0.00     0.174 HD
ENDBRANCH   9  28
BRANCH   1  31
HETATM   31  C3  UNL     1      36.167  17.206 -18.636  1.00  0.00     0.164 C 
BRANCH  31  32
HETATM   32  C2  UNL     1      35.950  15.807 -18.153  1.00  0.00    -0.017 C 
HETATM   33  C1  UNL     1      35.849  15.537 -16.861  1.00  0.00     0.008 C 
ENDBRANCH  31  32
ENDBRANCH   1  31
TORSDOF 6
ENDMDL
MODEL 4
REMARK VINA RESULT: -7.639133829      0.409      1.030
REMARK  6 active torsions:
REMARK  status: ('A' for Active; 'I' for Inactive)
REMARK    1  A    between atoms: C2_2  and  C3_3 
REMARK    2  A    between atoms: C3_3  and  N1_4 
REMARK    3  A    between atoms: C5_9  and  C6_10 
REMARK    4  A    between atoms: C7_11  and  O1_12 
REMARK    5  A    between atoms: C9_15  and  N3_16 
REMARK    6  A    between atoms: C15_28  and  N6_29 
ROOT
HETATM    1  N1  UNL     1      37.155  15.709 -20.227  1.00  0.00    -0.222 N 
ATOM      2  H1  UNL     1      38.079  15.831 -19.814  1.00  0.00     0.178 HD
HETATM    3  C4  UNL     1      37.030  15.934 -21.480  1.00  0.00     0.694 A 
HETATM    4  N2  UNL     1      38.162  16.324 -22.163  1.00  0.00    -0.175 N 
ATOM      5  H2  UNL     1      39.044  16.421 -21.661  1.00  0.00     0.186 HD
HETATM    6  C5  UNL     1      38.117  16.577 -23.472  1.00  0.00     0.155 A 
HETATM    7  N5  UNL     1      36.887  16.416 -24.034  1.00  0.00    -0.175 N 
ATOM      8  H5  UNL     1      36.811  16.600 -25.034  1.00  0.00     0.186 HD
HETATM    9  C15 UNL     1      35.786  16.046 -23.413  1.00  0.00     0.692 A 
HETATM   10  N7  UNL     1      35.848  15.794 -22.093  1.00  0.00    -0.023 N 
ATOM     11  H7  UNL     1      35.019  15.504 -21.575  1.00  0.00     0.203 HD
ENDROOT
BRANCH   6  12
HETATM   12  C6  UNL     1      39.275  16.918 -24.308  1.00  0.00     0.110 A 
HETATM   13  C7  UNL     1      39.404  18.152 -24.929  1.00  0.00     0.088 A 
HETATM   14  C8  UNL     1      40.500  18.420 -25.794  1.00  0.00     0.086 A 
HETATM   15  C9  UNL     1      41.449  17.486 -26.036  1.00  0.00     0.108 A 
HETATM   16  N4  UNL     1      41.314  16.300 -25.432  1.00  0.00    -0.309 N 
HETATM   17  C14 UNL     1      40.274  16.011 -24.597  1.00  0.00     0.263 A 
ATOM     18  H4  UNL     1      42.018  15.583 -25.601  1.00  0.00     0.170 HD
HETATM   19  O3  UNL     1      40.261  14.862 -24.095  1.00  0.00    -0.267 OA
BRANCH  13  20
HETATM   20  O1  UNL     1      38.513  19.158 -24.746  1.00  0.00    -0.359 OA
ATOM     21  H1  UNL     1      38.657  20.036 -25.078  1.00  0.00     0.217 HD
ENDBRANCH  13  20
BRANCH  15  22
HETATM   22  N3  UNL     1      42.571  17.704 -26.895  1.00  0.00    -0.363 N 
HETATM   23  C10 UNL     1      42.421  18.196 -28.228  1.00  0.00     0.150 C 
HETATM   24  C11 UNL     1      43.607  19.064 -28.599  1.00  0.00     0.187 C 
HETATM   25  O2  UNL     1      44.823  18.463 -28.419  1.00  0.00    -0.388 OA
HETATM   26  C12 UNL     1      44.814  17.327 -27.648  1.00  0.00     0.187 C 
HETATM   27  C13 UNL     1      43.919  17.426 -26.430  1.00  0.00     0.150 C 
ENDBRANCH  15  22
ENDBRANCH   6  12
BRANCH   9  28
HETATM   28  N6  UNL     1      34.673  15.935 -24.087  1.00  0.00    -0.234 N 
ATOM     29  H62 UNL     1      34.617  16.159 -25.081  1.00  0.00     0.174 HD
ATOM     30  H61 UNL     1      33.828  15.614 -23.613  1.00  0.00     0.174 HD
ENDBRANCH   9  28
BRANCH   1  31
HETATM   31  C3  UNL     1      36.095  15.300 -19.364  1.00  0.00     0.164 C 
BRANCH  31  32
HETATM   32  C2  UNL     1      36.445  15.432 -17.916  1.00  0.00    -0.017 C 
HETATM   33  C1  UNL     1      35.524  15.730 -17.014  1.00  0.00     0.008 C 
ENDBRANCH  31  32
ENDBRANCH   1  31
TORSDOF 6
ENDMDL
MODEL 5
REMARK VINA RESULT: -7.566428693      5.698      7.455
REMARK  6 active torsions:
REMARK  status: ('A' for Active; 'I' for Inactive)
REMARK    1  A    between atoms: C2_2  and  C3_3 
REMARK    2  A    between atoms: C3_3  and  N1_4 
REMARK    3  A    between atoms: C5_9  and  C6_10 
REMARK    4  A    between atoms: C7_11  and  O1_12 
REMARK    5  A    between atoms: C9_15  and  N3_16 
REMARK    6  A    between atoms: C15_28  and  N6_29 
ROOT
HETATM    1  N1  UNL     1      36.814  14.832 -20.341  1.00  0.00    -0.222 N 
ATOM      2  H1  UNL     1      37.308  13.959 -20.155  1.00  0.00     0.178 HD
HETATM    3  C4  UNL     1      36.215  14.945 -21.466  1.00  0.00     0.694 A 
HETATM    4  N2  UNL     1      36.292  13.874 -22.329  1.00  0.00    -0.175 N 
ATOM      5  H2  UNL     1      36.814  13.042 -22.053  1.00  0.00     0.186 HD
HETATM    6  C5  UNL     1      35.694  13.912 -23.521  1.00  0.00     0.155 A 
HETATM    7  N5  UNL     1      35.030  15.071 -23.781  1.00  0.00    -0.175 N 
ATOM      8  H5  UNL     1      34.559  15.140 -24.683  1.00  0.00     0.186 HD
HETATM    9  C15 UNL     1      34.936  16.114 -22.981  1.00  0.00     0.692 A 
HETATM   10  N7  UNL     1      35.543  16.059 -21.783  1.00  0.00    -0.023 N 
ATOM     11  H7  UNL     1      35.494  16.845 -21.133  1.00  0.00     0.203 HD
ENDROOT
BRANCH   6  12
HETATM   12  C6  UNL     1      35.646  12.800 -24.479  1.00  0.00     0.110 A 
HETATM   13  C7  UNL     1      36.765  12.043 -24.795  1.00  0.00     0.088 A 
HETATM   14  C8  UNL     1      36.700  11.026 -25.785  1.00  0.00     0.086 A 
HETATM   15  C9  UNL     1      35.549  10.761 -26.446  1.00  0.00     0.108 A 
HETATM   16  N4  UNL     1      34.476  11.495 -26.133  1.00  0.00    -0.309 N 
HETATM   17  C14 UNL     1      34.506  12.480 -25.189  1.00  0.00     0.263 A 
ATOM     18  H4  UNL     1      33.599  11.312 -26.619  1.00  0.00     0.170 HD
HETATM   19  O3  UNL     1      33.434  13.098 -24.990  1.00  0.00    -0.267 OA
BRANCH  13  20
HETATM   20  O1  UNL     1      37.964  12.224 -24.186  1.00  0.00    -0.359 OA
ATOM     21  H1  UNL     1      38.635  11.551 -24.168  1.00  0.00     0.217 HD
ENDBRANCH  13  20
BRANCH  15  22
HETATM   22  N3  UNL     1      35.428   9.747 -27.448  1.00  0.00    -0.363 N 
HETATM   23  C10 UNL     1      34.595   8.600 -27.269  1.00  0.00     0.150 C 
HETATM   24  C11 UNL     1      34.010   8.170 -28.600  1.00  0.00     0.187 C 
HETATM   25  O2  UNL     1      34.937   7.969 -29.585  1.00  0.00    -0.388 OA
HETATM   26  C12 UNL     1      36.186   8.484 -29.336  1.00  0.00     0.187 C 
HETATM   27  C13 UNL     1      36.163   9.856 -28.696  1.00  0.00     0.150 C 
ENDBRANCH  15  22
ENDBRANCH   6  12
BRANCH   9  28
HETATM   28  N6  UNL     1      34.261  17.163 -23.368  1.00  0.00    -0.234 N 
ATOM     29  H62 UNL     1      33.279  17.106 -23.638  1.00  0.00     0.174 HD
ATOM     30  H61 UNL     1      34.723  18.072 -23.405  1.00  0.00     0.174 HD
ENDBRANCH   9  28
BRANCH   1  31
HETATM   31  C3  UNL     1      36.840  15.836 -19.329  1.00  0.00     0.164 C 
BRANCH  31  32
HETATM   32  C2  UNL     1      35.765  15.653 -18.306  1.00  0.00    -0.017 C 
HETATM   33  C1  UNL     1      36.051  15.594 -17.015  1.00  0.00     0.008 C 
ENDBRANCH  31  32
ENDBRANCH   1  31
TORSDOF 6
ENDMDL
