MODEL 1
REMARK VINA RESULT: -6.219882976      0.000      0.000
REMARK  4 active torsions:
REMARK  status: ('A' for Active; 'I' for Inactive)
REMARK    1  A    between atoms: N1_1  and  C1_4 
REMARK    2  A    between atoms: C2_7  and  N3_8 
REMARK    3  A    between atoms: N3_8  and  S1_10 
REMARK    4  A    between atoms: S1_10  and  N4_11 
ROOT
HETATM    1  C1  UNL     1     -30.552 -24.486 -56.460  1.00  0.00     0.679 A 
HETATM    2  N2  UNL     1     -31.861 -24.712 -56.165  1.00  0.00    -0.174 N 
ATOM      3  H2  UNL     1     -32.295 -25.582 -56.472  1.00  0.00     0.186 HD
HETATM    4  C2  UNL     1     -32.599 -23.820 -55.480  1.00  0.00     0.163 A 
HETATM    5  C3  UNL     1     -31.967 -22.658 -55.084  1.00  0.00     0.137 A 
HETATM    6  N5  UNL     1     -32.381 -21.565 -54.399  1.00  0.00    -0.277 N 
ATOM      7  H5  UNL     1     -33.323 -21.423 -54.033  1.00  0.00     0.184 HD
HETATM    8  N6  UNL     1     -31.377 -20.708 -54.276  1.00  0.00    -0.020 NA
HETATM    9  N7  UNL     1     -30.309 -21.218 -54.871  1.00  0.00    -0.267 N 
ATOM     10  H7  UNL     1     -29.394 -20.771 -54.928  1.00  0.00     0.186 HD
HETATM   11  C4  UNL     1     -30.625 -22.428 -55.388  1.00  0.00     0.165 A 
HETATM   12  N8  UNL     1     -29.943 -23.364 -56.079  1.00  0.00    -0.173 N 
ATOM     13  H8  UNL     1     -28.961 -23.214 -56.310  1.00  0.00     0.186 HD
ENDROOT
BRANCH   4  14
HETATM   14  N3  UNL     1     -33.831 -23.980 -55.175  1.00  0.00    -0.251 N 
ATOM     15  H3  UNL     1     -34.524 -23.745 -55.886  1.00  0.00     0.182 HD
BRANCH  14  16
HETATM   16  S1  UNL     1     -34.406 -24.554 -53.679  1.00  0.00     0.318 S 
HETATM   17  O1  UNL     1     -33.281 -25.025 -52.769  1.00  0.00    -0.183 OA
HETATM   18  O2  UNL     1     -35.456 -25.624 -53.825  1.00  0.00    -0.183 OA
BRANCH  16  19
HETATM   19  N4  UNL     1     -35.190 -23.219 -52.866  1.00  0.00    -0.311 N 
ATOM     20  H42 UNL     1     -35.857 -22.576 -53.294  1.00  0.00     0.170 HD
ATOM     21  H41 UNL     1     -34.859 -23.207 -51.902  1.00  0.00     0.170 HD
ENDBRANCH  16  19
ENDBRANCH  14  16
ENDBRANCH   4  14
BRANCH   1  22
HETATM   22  N1  UNL     1     -29.854 -25.350 -57.119  1.00  0.00    -0.234 N 
ATOM     23  H12 UNL     1     -30.347 -26.149 -57.517  1.00  0.00     0.174 HD
ATOM     24  H11 UNL     1     -28.847 -25.238 -57.238  1.00  0.00     0.174 HD
ENDBRANCH   1  22
TORSDOF 4
ENDMDL
MODEL 2
REMARK VINA RESULT: -6.195028575      1.117      1.150
REMARK  4 active torsions:
REMARK  status: ('A' for Active; 'I' for Inactive)
REMARK    1  A    between atoms: N1_1  and  C1_4 
REMARK    2  A    between atoms: C2_7  and  N3_8 
REMARK    3  A    between atoms: N3_8  and  S1_10 
REMARK    4  A    between atoms: S1_10  and  N4_11 
ROOT
HETATM    1  C1  UNL     1     -30.429 -24.407 -56.557  1.00  0.00     0.679 A 
HETATM    2  N2  UNL     1     -31.424 -25.038 -55.877  1.00  0.00    -0.174 N 
ATOM      3  H2  UNL     1     -31.684 -25.986 -56.147  1.00  0.00     0.186 HD
HETATM    4  C2  UNL     1     -32.074 -24.446 -54.859  1.00  0.00     0.163 A 
HETATM    5  C3  UNL     1     -31.684 -23.163 -54.530  1.00  0.00     0.137 A 
HETATM    6  N5  UNL     1     -32.100 -22.281 -53.591  1.00  0.00    -0.277 N 
ATOM      7  H5  UNL     1     -32.843 -22.451 -52.913  1.00  0.00     0.184 HD
HETATM    8  N6  UNL     1     -31.396 -21.161 -53.685  1.00  0.00    -0.020 NA
HETATM    9  N7  UNL     1     -30.523 -21.292 -54.673  1.00  0.00    -0.267 N 
ATOM     10  H7  UNL     1     -29.851 -20.583 -54.968  1.00  0.00     0.186 HD
HETATM   11  C4  UNL     1     -30.663 -22.518 -55.228  1.00  0.00     0.165 A 
HETATM   12  N8  UNL     1     -30.053 -23.169 -56.240  1.00  0.00    -0.173 N 
ATOM     13  H8  UNL     1     -29.305 -22.714 -56.763  1.00  0.00     0.186 HD
ENDROOT
BRANCH   4  14
HETATM   14  N3  UNL     1     -33.015 -24.990 -54.186  1.00  0.00    -0.251 N 
ATOM     15  H3  UNL     1     -32.776 -25.804 -53.618  1.00  0.00     0.182 HD
BRANCH  14  16
HETATM   16  S1  UNL     1     -34.635 -24.466 -54.160  1.00  0.00     0.318 S 
HETATM   17  O1  UNL     1     -34.947 -23.612 -52.940  1.00  0.00    -0.183 OA
HETATM   18  O2  UNL     1     -35.620 -25.599 -54.283  1.00  0.00    -0.183 OA
BRANCH  16  19
HETATM   19  N4  UNL     1     -34.887 -23.456 -55.564  1.00  0.00    -0.311 N 
ATOM     20  H42 UNL     1     -35.651 -23.552 -56.232  1.00  0.00     0.170 HD
ATOM     21  H41 UNL     1     -34.136 -22.766 -55.587  1.00  0.00     0.170 HD
ENDBRANCH  16  19
ENDBRANCH  14  16
ENDBRANCH   4  14
BRANCH   1  22
HETATM   22  N1  UNL     1     -29.812 -24.986 -57.534  1.00  0.00    -0.234 N 
ATOM     23  H12 UNL     1     -28.792 -24.985 -57.514  1.00  0.00     0.174 HD
ATOM     24  H11 UNL     1     -30.324 -25.430 -58.296  1.00  0.00     0.174 HD
ENDBRANCH   1  22
TORSDOF 4
ENDMDL
MODEL 3
REMARK VINA RESULT: -6.132082980      1.033      1.233
REMARK  4 active torsions:
REMARK  status: ('A' for Active; 'I' for Inactive)
REMARK    1  A    between atoms: N1_1  and  C1_4 
REMARK    2  A    between atoms: C2_7  and  N3_8 
REMARK    3  A    between atoms: N3_8  and  S1_10 
REMARK    4  A    between atoms: S1_10  and  N4_11 
ROOT
HETATM    1  C1  UNL     1     -30.446 -24.485 -56.482  1.00  0.00     0.679 A 
HETATM    2  N2  UNL     1     -31.429 -25.074 -55.751  1.00  0.00    -0.174 N 
ATOM      3  H2  UNL     1     -31.693 -26.037 -55.961  1.00  0.00     0.186 HD
HETATM    4  C2  UNL     1     -32.063 -24.424 -54.758  1.00  0.00     0.163 A 
HETATM    5  C3  UNL     1     -31.669 -23.125 -54.510  1.00  0.00     0.137 A 
HETATM    6  N5  UNL     1     -32.070 -22.189 -53.617  1.00  0.00    -0.277 N 
ATOM      7  H5  UNL     1     -32.802 -22.320 -52.918  1.00  0.00     0.184 HD
HETATM    8  N6  UNL     1     -31.368 -21.077 -53.788  1.00  0.00    -0.020 NA
HETATM    9  N7  UNL     1     -30.512 -21.266 -54.781  1.00  0.00    -0.267 N 
ATOM     10  H7  UNL     1     -29.846 -20.574 -55.127  1.00  0.00     0.186 HD
HETATM   11  C4  UNL     1     -30.660 -22.522 -55.262  1.00  0.00     0.165 A 
HETATM   12  N8  UNL     1     -30.066 -23.231 -56.244  1.00  0.00    -0.173 N 
ATOM     13  H8  UNL     1     -29.327 -22.806 -56.804  1.00  0.00     0.186 HD
ENDROOT
BRANCH   4  14
HETATM   14  N3  UNL     1     -32.993 -24.929 -54.039  1.00  0.00    -0.251 N 
ATOM     15  H3  UNL     1     -32.735 -25.681 -53.399  1.00  0.00     0.182 HD
BRANCH  14  16
HETATM   16  S1  UNL     1     -34.625 -24.446 -54.063  1.00  0.00     0.318 S 
HETATM   17  O1  UNL     1     -35.568 -25.610 -54.329  1.00  0.00    -0.183 OA
HETATM   18  O2  UNL     1     -34.889 -23.317 -55.024  1.00  0.00    -0.183 OA
BRANCH  16  19
HETATM   19  N4  UNL     1     -35.018 -23.828 -52.475  1.00  0.00    -0.311 N 
ATOM     20  H42 UNL     1     -34.345 -23.467 -51.799  1.00  0.00     0.170 HD
ATOM     21  H41 UNL     1     -36.028 -23.896 -52.359  1.00  0.00     0.170 HD
ENDBRANCH  16  19
ENDBRANCH  14  16
ENDBRANCH   4  14
BRANCH   1  22
HETATM   22  N1  UNL     1     -29.844 -25.120 -57.434  1.00  0.00    -0.234 N 
ATOM     23  H12 UNL     1     -30.329 -25.916 -57.849  1.00  0.00     0.174 HD
ATOM     24  H11 UNL     1     -28.920 -24.836 -57.759  1.00  0.00     0.174 HD
ENDBRANCH   1  22
TORSDOF 4
ENDMDL
MODEL 4
REMARK VINA RESULT: -6.108592818      3.084      4.366
REMARK  4 active torsions:
REMARK  status: ('A' for Active; 'I' for Inactive)
REMARK    1  A    between atoms: N1_1  and  C1_4 
REMARK    2  A    between atoms: C2_7  and  N3_8 
REMARK    3  A    between atoms: N3_8  and  S1_10 
REMARK    4  A    between atoms: S1_10  and  N4_11 
ROOT
HETATM    1  C1  UNL     1     -33.561 -23.745 -52.503  1.00  0.00     0.679 A 
HETATM    2  N2  UNL     1     -33.829 -22.442 -52.784  1.00  0.00    -0.174 N 
ATOM      3  H2  UNL     1     -34.329 -21.879 -52.095  1.00  0.00     0.186 HD
HETATM    4  C2  UNL     1     -33.454 -21.873 -53.944  1.00  0.00     0.163 A 
HETATM    5  C3  UNL     1     -32.779 -22.674 -54.844  1.00  0.00     0.137 A 
HETATM    6  N5  UNL     1     -32.264 -22.452 -56.076  1.00  0.00    -0.277 N 
ATOM      7  H5  UNL     1     -32.300 -21.564 -56.577  1.00  0.00     0.184 HD
HETATM    8  N6  UNL     1     -31.703 -23.564 -56.533  1.00  0.00    -0.020 NA
HETATM    9  N7  UNL     1     -31.843 -24.514 -55.621  1.00  0.00    -0.267 N 
ATOM     10  H7  UNL     1     -31.505 -25.473 -55.709  1.00  0.00     0.186 HD
HETATM   11  C4  UNL     1     -32.505 -24.011 -54.554  1.00  0.00     0.165 A 
HETATM   12  N8  UNL     1     -32.910 -24.518 -53.371  1.00  0.00    -0.173 N 
ATOM     13  H8  UNL     1     -32.719 -25.493 -53.142  1.00  0.00     0.186 HD
ENDROOT
BRANCH   4  14
HETATM   14  N3  UNL     1     -33.679 -20.654 -54.260  1.00  0.00    -0.251 N 
ATOM     15  H3  UNL     1     -32.992 -20.189 -54.854  1.00  0.00     0.182 HD
BRANCH  14  16
HETATM   16  S1  UNL     1     -35.034 -19.746 -53.771  1.00  0.00     0.318 S 
HETATM   17  O1  UNL     1     -34.753 -18.913 -52.529  1.00  0.00    -0.183 OA
HETATM   18  O2  UNL     1     -36.268 -20.589 -53.580  1.00  0.00    -0.183 OA
BRANCH  16  19
HETATM   19  N4  UNL     1     -35.413 -18.626 -55.059  1.00  0.00    -0.311 N 
ATOM     20  H42 UNL     1     -36.347 -18.291 -55.295  1.00  0.00     0.170 HD
ATOM     21  H41 UNL     1     -34.537 -18.376 -55.518  1.00  0.00     0.170 HD
ENDBRANCH  16  19
ENDBRANCH  14  16
ENDBRANCH   4  14
BRANCH   1  22
HETATM   22  N1  UNL     1     -33.927 -24.280 -51.385  1.00  0.00    -0.234 N 
ATOM     23  H12 UNL     1     -34.887 -24.124 -51.080  1.00  0.00     0.174 HD
ATOM     24  H11 UNL     1     -33.280 -24.838 -50.828  1.00  0.00     0.174 HD
ENDBRANCH   1  22
TORSDOF 4
ENDMDL
MODEL 5
REMARK VINA RESULT: -6.078780987      2.775      4.948
REMARK  4 active torsions:
REMARK  status: ('A' for Active; 'I' for Inactive)
REMARK    1  A    between atoms: N1_1  and  C1_4 
REMARK    2  A    between atoms: C2_7  and  N3_8 
REMARK    3  A    between atoms: N3_8  and  S1_10 
REMARK    4  A    between atoms: S1_10  and  N4_11 
ROOT
HETATM    1  C1  UNL     1     -34.126 -20.872 -53.971  1.00  0.00     0.679 A 
HETATM    2  N2  UNL     1     -32.914 -21.253 -54.456  1.00  0.00    -0.174 N 
ATOM      3  H2  UNL     1     -32.363 -20.584 -54.994  1.00  0.00     0.186 HD
HETATM    4  C2  UNL     1     -32.421 -22.487 -54.247  1.00  0.00     0.163 A 
HETATM    5  C3  UNL     1     -33.202 -23.356 -53.511  1.00  0.00     0.137 A 
HETATM    6  N5  UNL     1     -33.037 -24.640 -53.113  1.00  0.00    -0.277 N 
ATOM      7  H5  UNL     1     -32.222 -25.218 -53.319  1.00  0.00     0.184 HD
HETATM    8  N6  UNL     1     -34.095 -25.031 -52.416  1.00  0.00    -0.020 NA
HETATM    9  N7  UNL     1     -34.954 -24.026 -52.350  1.00  0.00    -0.267 N 
ATOM     10  H7  UNL     1     -35.856 -24.049 -51.872  1.00  0.00     0.186 HD
HETATM   11  C4  UNL     1     -34.446 -22.963 -53.015  1.00  0.00     0.165 A 
HETATM   12  N8  UNL     1     -34.881 -21.711 -53.263  1.00  0.00    -0.173 N 
ATOM     13  H8  UNL     1     -35.787 -21.406 -52.908  1.00  0.00     0.186 HD
ENDROOT
BRANCH   4  14
HETATM   14  N3  UNL     1     -31.289 -22.898 -54.678  1.00  0.00    -0.251 N 
ATOM     15  H3  UNL     1     -30.467 -22.688 -54.111  1.00  0.00     0.182 HD
BRANCH  14  16
HETATM   16  S1  UNL     1     -31.045 -23.769 -56.121  1.00  0.00     0.318 S 
HETATM   17  O1  UNL     1     -31.628 -25.172 -56.055  1.00  0.00    -0.183 OA
HETATM   18  O2  UNL     1     -29.600 -23.811 -56.543  1.00  0.00    -0.183 OA
BRANCH  16  19
HETATM   19  N4  UNL     1     -31.893 -22.926 -57.397  1.00  0.00    -0.311 N 
ATOM     20  H42 UNL     1     -32.853 -22.588 -57.344  1.00  0.00     0.170 HD
ATOM     21  H41 UNL     1     -31.254 -22.840 -58.187  1.00  0.00     0.170 HD
ENDBRANCH  16  19
ENDBRANCH  14  16
ENDBRANCH   4  14
BRANCH   1  22
HETATM   22  N1  UNL     1     -34.590 -19.684 -54.180  1.00  0.00    -0.234 N 
ATOM     23  H12 UNL     1     -34.560 -19.328 -55.135  1.00  0.00     0.174 HD
ATOM     24  H11 UNL     1     -34.971 -19.122 -53.418  1.00  0.00     0.174 HD
ENDBRANCH   1  22
TORSDOF 4
ENDMDL
