MODEL 1
REMARK VINA RESULT: -6.161825206      0.000      0.000
REMARK  0 active torsions:
REMARK  status: ('A' for Active; 'I' for Inactive)
REMARK       I    between atoms: N1_1  and  C1_5 
REMARK       I    between atoms: C1_5  and  N2_6 
REMARK       I    between atoms: C1_5  and  N3_10 
ROOT
HETATM    1  N1  UNL     1     -35.941 -22.582 -54.694  1.00  0.00    -0.036 N 
ATOM      2  H11 UNL     1     -35.878 -21.964 -55.502  1.00  0.00     0.278 HD
ATOM      3  H12 UNL     1     -35.801 -22.092 -53.809  1.00  0.00     0.278 HD
ATOM      4  H13 UNL     1     -36.891 -22.910 -54.518  1.00  0.00     0.278 HD
HETATM    5  C1  UNL     1     -35.004 -23.659 -54.891  1.00  0.00     0.470 C 
HETATM    6  N2  UNL     1     -35.092 -24.541 -53.737  1.00  0.00    -0.036 N 
ATOM      7  H21 UNL     1     -34.430 -25.303 -53.877  1.00  0.00     0.278 HD
ATOM      8  H22 UNL     1     -36.042 -24.869 -53.562  1.00  0.00     0.278 HD
ATOM      9  H23 UNL     1     -34.953 -24.052 -52.853  1.00  0.00     0.278 HD
HETATM   10  N3  UNL     1     -33.672 -23.161 -55.104  1.00  0.00    -0.140 NA
HETATM   11  C2  UNL     1     -32.759 -24.124 -55.610  1.00  0.00     0.115 C 
HETATM   12  C3  UNL     1     -31.887 -23.452 -56.649  1.00  0.00     0.035 C 
HETATM   13  C4  UNL     1     -30.457 -23.677 -56.256  1.00  0.00     0.125 C 
HETATM   14  N4  UNL     1     -29.921 -22.535 -55.567  1.00  0.00    -0.342 N 
ATOM     15  H4  UNL     1     -28.928 -22.392 -55.750  1.00  0.00     0.164 HD
HETATM   16  C5  UNL     1     -30.461 -21.570 -54.695  1.00  0.00     0.330 C 
HETATM   17  O1  UNL     1     -29.719 -20.571 -54.602  1.00  0.00    -0.246 OA
HETATM   18  N5  UNL     1     -31.656 -21.514 -53.917  1.00  0.00    -0.223 N 
ATOM     19  H5  UNL     1     -31.593 -20.747 -53.247  1.00  0.00     0.184 HD
HETATM   20  S1  UNL     1     -33.146 -22.302 -53.739  1.00  0.00     0.309 S 
HETATM   21  O2  UNL     1     -34.185 -21.245 -53.423  1.00  0.00    -0.188 OA
HETATM   22  O3  UNL     1     -33.100 -23.202 -52.514  1.00  0.00    -0.188 OA
ENDROOT
TORSDOF 0
ENDMDL
MODEL 2
REMARK VINA RESULT: -5.598856469      2.413      3.182
REMARK  0 active torsions:
REMARK  status: ('A' for Active; 'I' for Inactive)
REMARK       I    between atoms: N1_1  and  C1_5 
REMARK       I    between atoms: C1_5  and  N2_6 
REMARK       I    between atoms: C1_5  and  N3_10 
ROOT
HETATM    1  N1  UNL     1     -34.957 -25.471 -52.217  1.00  0.00    -0.036 N 
ATOM      2  H11 UNL     1     -34.068 -25.965 -52.139  1.00  0.00     0.278 HD
ATOM      3  H12 UNL     1     -35.487 -25.738 -53.047  1.00  0.00     0.278 HD
ATOM      4  H13 UNL     1     -35.639 -25.769 -51.519  1.00  0.00     0.278 HD
HETATM    5  C1  UNL     1     -34.681 -24.057 -52.160  1.00  0.00     0.470 C 
HETATM    6  N2  UNL     1     -35.948 -23.352 -52.271  1.00  0.00    -0.036 N 
ATOM      7  H21 UNL     1     -35.752 -22.352 -52.231  1.00  0.00     0.278 HD
ATOM      8  H22 UNL     1     -36.630 -23.651 -51.573  1.00  0.00     0.278 HD
ATOM      9  H23 UNL     1     -36.478 -23.619 -53.101  1.00  0.00     0.278 HD
HETATM   10  N3  UNL     1     -33.741 -23.668 -53.175  1.00  0.00    -0.140 NA
HETATM   11  C2  UNL     1     -33.183 -22.374 -52.994  1.00  0.00     0.115 C 
HETATM   12  C3  UNL     1     -31.713 -22.437 -53.349  1.00  0.00     0.035 C 
HETATM   13  C4  UNL     1     -31.449 -21.383 -54.382  1.00  0.00     0.125 C 
HETATM   14  N4  UNL     1     -31.439 -21.942 -55.706  1.00  0.00    -0.342 N 
ATOM     15  H4  UNL     1     -30.786 -21.470 -56.331  1.00  0.00     0.164 HD
HETATM   16  C5  UNL     1     -32.131 -22.997 -56.333  1.00  0.00     0.330 C 
HETATM   17  O1  UNL     1     -31.570 -23.347 -57.392  1.00  0.00    -0.246 OA
HETATM   18  N5  UNL     1     -33.316 -23.722 -56.004  1.00  0.00    -0.223 N 
ATOM     19  H5  UNL     1     -33.619 -24.266 -56.812  1.00  0.00     0.184 HD
HETATM   20  S1  UNL     1     -34.385 -23.976 -54.715  1.00  0.00     0.309 S 
HETATM   21  O2  UNL     1     -34.814 -25.429 -54.758  1.00  0.00    -0.188 OA
HETATM   22  O3  UNL     1     -35.656 -23.173 -54.943  1.00  0.00    -0.188 OA
ENDROOT
TORSDOF 0
ENDMDL
MODEL 3
REMARK VINA RESULT: -5.521516718      7.753      8.539
REMARK  0 active torsions:
REMARK  status: ('A' for Active; 'I' for Inactive)
REMARK       I    between atoms: N1_1  and  C1_5 
REMARK       I    between atoms: C1_5  and  N2_6 
REMARK       I    between atoms: C1_5  and  N3_10 
ROOT
HETATM    1  N1  UNL     1     -35.558 -15.122 -48.307  1.00  0.00    -0.036 N 
ATOM      2  H11 UNL     1     -35.517 -14.125 -48.516  1.00  0.00     0.278 HD
ATOM      3  H12 UNL     1     -34.635 -15.547 -48.218  1.00  0.00     0.278 HD
ATOM      4  H13 UNL     1     -35.889 -15.316 -47.362  1.00  0.00     0.278 HD
HETATM    5  C1  UNL     1     -36.367 -15.751 -49.322  1.00  0.00     0.470 C 
HETATM    6  N2  UNL     1     -36.426 -17.173 -49.025  1.00  0.00    -0.036 N 
ATOM      7  H21 UNL     1     -36.999 -17.617 -49.742  1.00  0.00     0.278 HD
ATOM      8  H22 UNL     1     -36.756 -17.367 -48.079  1.00  0.00     0.278 HD
ATOM      9  H23 UNL     1     -35.503 -17.598 -48.935  1.00  0.00     0.278 HD
HETATM   10  N3  UNL     1     -35.856 -15.482 -50.638  1.00  0.00    -0.140 NA
HETATM   11  C2  UNL     1     -36.754 -15.795 -51.692  1.00  0.00     0.115 C 
HETATM   12  C3  UNL     1     -36.658 -14.704 -52.738  1.00  0.00     0.035 C 
HETATM   13  C4  UNL     1     -36.360 -15.360 -54.053  1.00  0.00     0.125 C 
HETATM   14  N4  UNL     1     -34.956 -15.299 -54.358  1.00  0.00    -0.342 N 
ATOM     15  H4  UNL     1     -34.771 -15.217 -55.357  1.00  0.00     0.164 HD
HETATM   16  C5  UNL     1     -33.780 -15.329 -53.585  1.00  0.00     0.330 C 
HETATM   17  O1  UNL     1     -32.796 -14.915 -54.231  1.00  0.00    -0.246 OA
HETATM   18  N5  UNL     1     -33.501 -15.731 -52.243  1.00  0.00    -0.223 N 
ATOM     19  H5  UNL     1     -32.492 -15.810 -52.113  1.00  0.00     0.184 HD
HETATM   20  S1  UNL     1     -34.292 -16.122 -50.797  1.00  0.00     0.309 S 
HETATM   21  O2  UNL     1     -33.450 -15.585 -49.658  1.00  0.00    -0.188 OA
HETATM   22  O3  UNL     1     -34.301 -17.632 -50.615  1.00  0.00    -0.188 OA
ENDROOT
TORSDOF 0
ENDMDL
MODEL 4
REMARK VINA RESULT: -5.208066849      2.428      3.145
REMARK  0 active torsions:
REMARK  status: ('A' for Active; 'I' for Inactive)
REMARK       I    between atoms: N1_1  and  C1_5 
REMARK       I    between atoms: C1_5  and  N2_6 
REMARK       I    between atoms: C1_5  and  N3_10 
ROOT
HETATM    1  N1  UNL     1     -35.667 -24.082 -52.115  1.00  0.00    -0.036 N 
ATOM      2  H11 UNL     1     -34.938 -24.505 -51.541  1.00  0.00     0.278 HD
ATOM      3  H12 UNL     1     -36.036 -24.720 -52.821  1.00  0.00     0.278 HD
ATOM      4  H13 UNL     1     -36.536 -23.929 -51.603  1.00  0.00     0.278 HD
HETATM    5  C1  UNL     1     -35.131 -22.869 -52.681  1.00  0.00     0.470 C 
HETATM    6  N2  UNL     1     -36.171 -22.266 -53.501  1.00  0.00    -0.036 N 
ATOM      7  H21 UNL     1     -35.792 -21.408 -53.901  1.00  0.00     0.278 HD
ATOM      8  H22 UNL     1     -37.040 -22.113 -52.989  1.00  0.00     0.278 HD
ATOM      9  H23 UNL     1     -36.539 -22.903 -54.206  1.00  0.00     0.278 HD
HETATM   10  N3  UNL     1     -33.925 -23.126 -53.420  1.00  0.00    -0.140 NA
HETATM   11  C2  UNL     1     -33.175 -21.964 -53.741  1.00  0.00     0.115 C 
HETATM   12  C3  UNL     1     -31.706 -22.282 -53.558  1.00  0.00     0.035 C 
HETATM   13  C4  UNL     1     -31.005 -21.950 -54.842  1.00  0.00     0.125 C 
HETATM   14  N4  UNL     1     -30.806 -23.126 -55.644  1.00  0.00    -0.342 N 
ATOM     15  H4  UNL     1     -29.945 -23.091 -56.191  1.00  0.00     0.164 HD
HETATM   16  C5  UNL     1     -31.534 -24.315 -55.845  1.00  0.00     0.330 C 
HETATM   17  O1  UNL     1     -30.828 -25.200 -56.369  1.00  0.00    -0.246 OA
HETATM   18  N5  UNL     1     -32.884 -24.692 -55.576  1.00  0.00    -0.223 N 
ATOM     19  H5  UNL     1     -33.097 -25.565 -56.059  1.00  0.00     0.184 HD
HETATM   20  S1  UNL     1     -34.249 -24.169 -54.719  1.00  0.00     0.309 S 
HETATM   21  O2  UNL     1     -34.940 -25.400 -54.168  1.00  0.00    -0.188 OA
HETATM   22  O3  UNL     1     -35.244 -23.544 -55.684  1.00  0.00    -0.188 OA
ENDROOT
TORSDOF 0
ENDMDL
MODEL 5
REMARK VINA RESULT: -5.082182157      2.490      5.149
REMARK  0 active torsions:
REMARK  status: ('A' for Active; 'I' for Inactive)
REMARK       I    between atoms: N1_1  and  C1_5 
REMARK       I    between atoms: C1_5  and  N2_6 
REMARK       I    between atoms: C1_5  and  N3_10 
ROOT
HETATM    1  N1  UNL     1     -31.662 -22.271 -55.838  1.00  0.00    -0.036 N 
ATOM      2  H11 UNL     1     -32.244 -22.044 -56.645  1.00  0.00     0.278 HD
ATOM      3  H12 UNL     1     -31.361 -23.246 -55.829  1.00  0.00     0.278 HD
ATOM      4  H13 UNL     1     -30.737 -21.844 -55.884  1.00  0.00     0.278 HD
HETATM    5  C1  UNL     1     -32.392 -21.899 -54.652  1.00  0.00     0.470 C 
HETATM    6  N2  UNL     1     -31.563 -22.223 -53.501  1.00  0.00    -0.036 N 
ATOM      7  H21 UNL     1     -32.079 -21.960 -52.662  1.00  0.00     0.278 HD
ATOM      8  H22 UNL     1     -30.638 -21.796 -53.547  1.00  0.00     0.278 HD
ATOM      9  H23 UNL     1     -31.261 -23.198 -53.492  1.00  0.00     0.278 HD
HETATM   10  N3  UNL     1     -33.676 -22.543 -54.605  1.00  0.00    -0.140 NA
HETATM   11  C2  UNL     1     -34.572 -21.998 -53.646  1.00  0.00     0.115 C 
HETATM   12  C3  UNL     1     -35.955 -21.951 -54.260  1.00  0.00     0.035 C 
HETATM   13  C4  UNL     1     -36.887 -22.679 -53.338  1.00  0.00     0.125 C 
HETATM   14  N4  UNL     1     -37.111 -24.027 -53.781  1.00  0.00    -0.342 N 
ATOM     15  H4  UNL     1     -38.050 -24.363 -53.569  1.00  0.00     0.164 HD
HETATM   16  C5  UNL     1     -36.323 -24.989 -54.443  1.00  0.00     0.330 C 
HETATM   17  O1  UNL     1     -37.024 -25.902 -54.925  1.00  0.00    -0.246 OA
HETATM   18  N5  UNL     1     -34.918 -25.119 -54.663  1.00  0.00    -0.223 N 
ATOM     19  H5  UNL     1     -34.711 -26.060 -54.998  1.00  0.00     0.184 HD
HETATM   20  S1  UNL     1     -33.482 -24.228 -54.550  1.00  0.00     0.309 S 
HETATM   21  O2  UNL     1     -32.600 -24.634 -55.713  1.00  0.00    -0.188 OA
HETATM   22  O3  UNL     1     -32.722 -24.647 -53.301  1.00  0.00    -0.188 OA
ENDROOT
TORSDOF 0
ENDMDL
