MODEL 1
REMARK VINA RESULT: -7.259567823      0.000      0.000
REMARK  8 active torsions:
REMARK  status: ('A' for Active; 'I' for Inactive)
REMARK    1  A    between atoms: C1_4  and  C2_5 
REMARK    2  A    between atoms: C1_4  and  N2_8 
REMARK    3  A    between atoms: C2_5  and  O1_6 
REMARK    4  A    between atoms: N2_8  and  N3_10 
REMARK    5  A    between atoms: N3_10  and  C3_12 
REMARK    6  A    between atoms: C4_15  and  N5_16 
REMARK    7  A    between atoms: C10_24  and  N7_25 
REMARK    8  A    between atoms: C14_29  and  N8_30 
ROOT
HETATM    1  C3  UNL     1      25.227  35.060  52.050  1.00  0.00     0.726 A 
HETATM    2  N4  UNL     1      25.481  33.769  52.325  1.00  0.00    -0.020 N 
ATOM      3  H4  UNL     1      26.325  33.342  51.942  1.00  0.00     0.203 HD
HETATM    4  C4  UNL     1      24.663  33.021  53.087  1.00  0.00     0.709 A 
HETATM    5  N6  UNL     1      23.559  33.597  53.582  1.00  0.00    -0.021 N 
ATOM      6  H6  UNL     1      22.932  33.039  54.161  1.00  0.00     0.203 HD
HETATM    7  C10 UNL     1      23.242  34.901  53.341  1.00  0.00     0.709 A 
HETATM    8  N9  UNL     1      24.106  35.588  52.571  1.00  0.00    -0.020 N 
ATOM      9  H9  UNL     1      23.899  36.566  52.373  1.00  0.00     0.203 HD
ENDROOT
BRANCH   1  10
HETATM   10  N3  UNL     1      26.024  35.787  51.308  1.00  0.00    -0.130 N 
ATOM     11  H3  UNL     1      26.713  36.400  51.744  1.00  0.00     0.205 HD
BRANCH  10  12
HETATM   12  N2  UNL     1      25.926  35.717  49.919  1.00  0.00    -0.273 N 
ATOM     13  H2  UNL     1      25.025  35.800  49.448  1.00  0.00     0.189 HD
BRANCH  12  14
HETATM   14  C1  UNL     1      27.131  35.524  49.178  1.00  0.00     0.113 C 
HETATM   15  N1  UNL     1      27.316  36.042  48.014  1.00  0.00    -0.386 N 
ATOM     16  H12 UNL     1      28.177  35.904  47.485  1.00  0.00     0.157 HD
ATOM     17  H11 UNL     1      26.578  36.612  47.599  1.00  0.00     0.157 HD
BRANCH  14  18
HETATM   18  C2  UNL     1      28.194  34.703  49.777  1.00  0.00     0.241 C 
BRANCH  18  19
HETATM   19  O1  UNL     1      27.651  33.418  50.004  1.00  0.00    -0.393 OA
ATOM     20  H1  UNL     1      26.854  33.536  50.507  1.00  0.00     0.209 HD
ENDBRANCH  18  19
ENDBRANCH  14  18
ENDBRANCH  12  14
ENDBRANCH  10  12
ENDBRANCH   1  10
BRANCH   4  21
HETATM   21  N5  UNL     1      24.909  31.653  53.393  1.00  0.00    -0.217 N 
HETATM   22  C5  UNL     1      25.151  30.708  52.319  1.00  0.00     0.141 C 
HETATM   23  C6  UNL     1      26.378  29.892  52.679  1.00  0.00     0.020 C 
HETATM   24  C7  UNL     1      26.050  29.078  53.920  1.00  0.00     0.003 C 
HETATM   25  C8  UNL     1      24.831  29.627  54.641  1.00  0.00     0.020 C 
HETATM   26  C9  UNL     1      24.931  31.142  54.746  1.00  0.00     0.141 C 
ENDBRANCH   4  21
BRANCH   7  27
HETATM   27  N7  UNL     1      22.056  35.494  53.881  1.00  0.00    -0.215 N 
HETATM   28  C11 UNL     1      21.304  36.369  53.023  1.00  0.00     0.141 C 
HETATM   29  C12 UNL     1      19.887  36.559  53.410  1.00  0.00     0.022 C 
HETATM   30  C13 UNL     1      19.432  35.743  54.580  1.00  0.00     0.036 C 
HETATM   31  C14 UNL     1      20.488  35.923  55.678  1.00  0.00     0.202 C 
HETATM   32  C15 UNL     1      21.702  35.174  55.237  1.00  0.00     0.173 C 
BRANCH  31  33
HETATM   33  N8  UNL     1      19.923  35.426  56.895  1.00  0.00    -0.073 N 
ATOM     34  H83 UNL     1      19.125  34.809  56.741  1.00  0.00     0.274 HD
ATOM     35  H82 UNL     1      20.524  34.749  57.366  1.00  0.00     0.274 HD
ATOM     36  H81 UNL     1      19.699  36.233  57.476  1.00  0.00     0.274 HD
ENDBRANCH  31  33
ENDBRANCH   7  27
TORSDOF 8
ENDMDL
MODEL 2
REMARK VINA RESULT: -7.162862107      3.948      6.849
REMARK  8 active torsions:
REMARK  status: ('A' for Active; 'I' for Inactive)
REMARK    1  A    between atoms: C1_4  and  C2_5 
REMARK    2  A    between atoms: C1_4  and  N2_8 
REMARK    3  A    between atoms: C2_5  and  O1_6 
REMARK    4  A    between atoms: N2_8  and  N3_10 
REMARK    5  A    between atoms: N3_10  and  C3_12 
REMARK    6  A    between atoms: C4_15  and  N5_16 
REMARK    7  A    between atoms: C10_24  and  N7_25 
REMARK    8  A    between atoms: C14_29  and  N8_30 
ROOT
HETATM    1  C3  UNL     1      23.263  35.448  55.319  1.00  0.00     0.726 A 
HETATM    2  N4  UNL     1      24.362  35.986  55.875  1.00  0.00    -0.020 N 
ATOM      3  H4  UNL     1      24.292  36.904  56.314  1.00  0.00     0.203 HD
HETATM    4  C4  UNL     1      25.552  35.356  55.874  1.00  0.00     0.709 A 
HETATM    5  N6  UNL     1      25.626  34.151  55.293  1.00  0.00    -0.021 N 
ATOM      6  H6  UNL     1      26.523  33.665  55.287  1.00  0.00     0.203 HD
HETATM    7  C10 UNL     1      24.551  33.550  54.710  1.00  0.00     0.709 A 
HETATM    8  N9  UNL     1      23.395  34.238  54.750  1.00  0.00    -0.020 N 
ATOM      9  H9  UNL     1      22.570  33.815  54.324  1.00  0.00     0.203 HD
ENDROOT
BRANCH   1  10
HETATM   10  N3  UNL     1      22.107  36.062  55.321  1.00  0.00    -0.130 N 
ATOM     11  H3  UNL     1      21.416  35.853  56.042  1.00  0.00     0.205 HD
BRANCH  10  12
HETATM   12  N2  UNL     1      21.826  37.005  54.333  1.00  0.00    -0.273 N 
ATOM     13  H2  UNL     1      22.355  37.874  54.266  1.00  0.00     0.189 HD
BRANCH  12  14
HETATM   14  C1  UNL     1      20.770  36.711  53.418  1.00  0.00     0.113 C 
HETATM   15  N1  UNL     1      20.991  36.295  52.220  1.00  0.00    -0.386 N 
ATOM     16  H12 UNL     1      20.236  36.085  51.566  1.00  0.00     0.157 HD
ATOM     17  H11 UNL     1      21.954  36.168  51.906  1.00  0.00     0.157 HD
BRANCH  14  18
HETATM   18  C2  UNL     1      19.383  36.893  53.872  1.00  0.00     0.241 C 
BRANCH  18  19
HETATM   19  O1  UNL     1      19.437  37.499  55.147  1.00  0.00    -0.393 OA
ATOM     20  H1  UNL     1      18.589  37.898  55.303  1.00  0.00     0.209 HD
ENDBRANCH  18  19
ENDBRANCH  14  18
ENDBRANCH  12  14
ENDBRANCH  10  12
ENDBRANCH   1  10
BRANCH   4  21
HETATM   21  N5  UNL     1      26.729  35.904  56.455  1.00  0.00    -0.217 N 
HETATM   22  C5  UNL     1      26.666  37.180  57.142  1.00  0.00     0.141 C 
HETATM   23  C6  UNL     1      27.374  37.032  58.475  1.00  0.00     0.020 C 
HETATM   24  C7  UNL     1      28.842  36.751  58.196  1.00  0.00     0.003 C 
HETATM   25  C8  UNL     1      29.059  36.287  56.765  1.00  0.00     0.020 C 
HETATM   26  C9  UNL     1      28.014  35.243  56.397  1.00  0.00     0.141 C 
ENDBRANCH   4  21
BRANCH   7  27
HETATM   27  N7  UNL     1      24.657  32.261  54.096  1.00  0.00    -0.215 N 
HETATM   28  C11 UNL     1      24.645  32.211  52.658  1.00  0.00     0.141 C 
HETATM   29  C12 UNL     1      25.236  30.986  52.071  1.00  0.00     0.022 C 
HETATM   30  C13 UNL     1      25.834  30.031  53.057  1.00  0.00     0.036 C 
HETATM   31  C14 UNL     1      24.796  29.843  54.170  1.00  0.00     0.202 C 
HETATM   32  C15 UNL     1      24.767  31.114  54.954  1.00  0.00     0.173 C 
BRANCH  31  33
HETATM   33  N8  UNL     1      25.202  28.709  54.941  1.00  0.00    -0.073 N 
ATOM     34  H83 UNL     1      26.197  28.502  54.853  1.00  0.00     0.274 HD
ATOM     35  H82 UNL     1      25.191  28.884  55.946  1.00  0.00     0.274 HD
ATOM     36  H81 UNL     1      24.606  27.928  54.666  1.00  0.00     0.274 HD
ENDBRANCH  31  33
ENDBRANCH   7  27
TORSDOF 8
ENDMDL
MODEL 3
REMARK VINA RESULT: -7.099260396      3.707      4.858
REMARK  8 active torsions:
REMARK  status: ('A' for Active; 'I' for Inactive)
REMARK    1  A    between atoms: C1_4  and  C2_5 
REMARK    2  A    between atoms: C1_4  and  N2_8 
REMARK    3  A    between atoms: C2_5  and  O1_6 
REMARK    4  A    between atoms: N2_8  and  N3_10 
REMARK    5  A    between atoms: N3_10  and  C3_12 
REMARK    6  A    between atoms: C4_15  and  N5_16 
REMARK    7  A    between atoms: C10_24  and  N7_25 
REMARK    8  A    between atoms: C14_29  and  N8_30 
ROOT
HETATM    1  C3  UNL     1      25.609  35.079  56.037  1.00  0.00     0.726 A 
HETATM    2  N4  UNL     1      25.855  33.933  55.380  1.00  0.00    -0.020 N 
ATOM      3  H4  UNL     1      26.786  33.521  55.442  1.00  0.00     0.203 HD
HETATM    4  C4  UNL     1      24.917  33.308  54.644  1.00  0.00     0.709 A 
HETATM    5  N6  UNL     1      23.700  33.863  54.573  1.00  0.00    -0.021 N 
ATOM      6  H6  UNL     1      22.981  33.398  54.018  1.00  0.00     0.203 HD
HETATM    7  C10 UNL     1      23.384  35.024  55.213  1.00  0.00     0.709 A 
HETATM    8  N9  UNL     1      24.371  35.591  55.931  1.00  0.00    -0.020 N 
ATOM      9  H9  UNL     1      24.167  36.460  56.424  1.00  0.00     0.203 HD
ENDROOT
BRANCH   1  10
HETATM   10  N3  UNL     1      26.523  35.684  56.753  1.00  0.00    -0.130 N 
ATOM     11  H3  UNL     1      27.412  35.224  56.945  1.00  0.00     0.205 HD
BRANCH  10  12
HETATM   12  N2  UNL     1      26.271  36.962  57.252  1.00  0.00    -0.273 N 
ATOM     13  H2  UNL     1      25.792  37.664  56.688  1.00  0.00     0.189 HD
BRANCH  12  14
HETATM   14  C1  UNL     1      26.709  37.253  58.579  1.00  0.00     0.113 C 
HETATM   15  N1  UNL     1      27.938  37.515  58.858  1.00  0.00    -0.386 N 
ATOM     16  H12 UNL     1      28.251  37.723  59.807  1.00  0.00     0.157 HD
ATOM     17  H11 UNL     1      28.630  37.517  58.108  1.00  0.00     0.157 HD
BRANCH  14  18
HETATM   18  C2  UNL     1      25.711  37.251  59.659  1.00  0.00     0.241 C 
BRANCH  18  19
HETATM   19  O1  UNL     1      24.606  36.497  59.204  1.00  0.00    -0.393 OA
ATOM     20  H1  UNL     1      24.124  36.215  59.973  1.00  0.00     0.209 HD
ENDBRANCH  18  19
ENDBRANCH  14  18
ENDBRANCH  12  14
ENDBRANCH  10  12
ENDBRANCH   1  10
BRANCH   4  21
HETATM   21  N5  UNL     1      25.152  32.095  53.939  1.00  0.00    -0.217 N 
HETATM   22  C5  UNL     1      25.663  30.938  54.649  1.00  0.00     0.141 C 
HETATM   23  C6  UNL     1      24.819  29.739  54.264  1.00  0.00     0.020 C 
HETATM   24  C7  UNL     1      25.029  29.476  52.781  1.00  0.00     0.003 C 
HETATM   25  C8  UNL     1      25.628  30.684  52.081  1.00  0.00     0.020 C 
HETATM   26  C9  UNL     1      24.905  31.949  52.521  1.00  0.00     0.141 C 
ENDBRANCH   4  21
BRANCH   7  27
HETATM   27  N7  UNL     1      22.074  35.596  55.121  1.00  0.00    -0.215 N 
HETATM   28  C11 UNL     1      21.887  36.671  54.184  1.00  0.00     0.141 C 
HETATM   29  C12 UNL     1      20.485  36.894  53.761  1.00  0.00     0.022 C 
HETATM   30  C13 UNL     1      19.492  35.913  54.305  1.00  0.00     0.036 C 
HETATM   31  C14 UNL     1      19.761  35.805  55.811  1.00  0.00     0.202 C 
HETATM   32  C15 UNL     1      21.045  35.060  55.969  1.00  0.00     0.173 C 
BRANCH  31  33
HETATM   33  N8  UNL     1      18.639  35.136  56.394  1.00  0.00    -0.073 N 
ATOM     34  H83 UNL     1      17.778  35.264  55.863  1.00  0.00     0.274 HD
ATOM     35  H82 UNL     1      18.695  34.121  56.315  1.00  0.00     0.274 HD
ATOM     36  H81 UNL     1      18.565  35.458  57.359  1.00  0.00     0.274 HD
ENDBRANCH  31  33
ENDBRANCH   7  27
TORSDOF 8
ENDMDL
MODEL 4
REMARK VINA RESULT: -7.098384950      4.253      6.044
REMARK  8 active torsions:
REMARK  status: ('A' for Active; 'I' for Inactive)
REMARK    1  A    between atoms: C1_4  and  C2_5 
REMARK    2  A    between atoms: C1_4  and  N2_8 
REMARK    3  A    between atoms: C2_5  and  O1_6 
REMARK    4  A    between atoms: N2_8  and  N3_10 
REMARK    5  A    between atoms: N3_10  and  C3_12 
REMARK    6  A    between atoms: C4_15  and  N5_16 
REMARK    7  A    between atoms: C10_24  and  N7_25 
REMARK    8  A    between atoms: C14_29  and  N8_30 
ROOT
HETATM    1  C3  UNL     1      23.116  35.336  55.390  1.00  0.00     0.726 A 
HETATM    2  N4  UNL     1      23.407  34.234  54.677  1.00  0.00    -0.020 N 
ATOM      3  H4  UNL     1      22.692  33.839  54.068  1.00  0.00     0.203 HD
HETATM    4  C4  UNL     1      24.611  33.633  54.739  1.00  0.00     0.709 A 
HETATM    5  N6  UNL     1      25.540  34.165  55.545  1.00  0.00    -0.021 N 
ATOM      6  H6  UNL     1      26.455  33.719  55.599  1.00  0.00     0.203 HD
HETATM    7  C10 UNL     1      25.310  35.280  56.294  1.00  0.00     0.709 A 
HETATM    8  N9  UNL     1      24.085  35.827  56.181  1.00  0.00    -0.020 N 
ATOM      9  H9  UNL     1      23.880  36.663  56.728  1.00  0.00     0.203 HD
ENDROOT
BRANCH   1  10
HETATM   10  N3  UNL     1      21.946  35.918  55.327  1.00  0.00    -0.130 N 
ATOM     11  H3  UNL     1      21.196  35.634  55.958  1.00  0.00     0.205 HD
BRANCH  10  12
HETATM   12  N2  UNL     1      21.730  36.931  54.393  1.00  0.00    -0.273 N 
ATOM     13  H2  UNL     1      22.295  37.781  54.395  1.00  0.00     0.189 HD
BRANCH  12  14
HETATM   14  C1  UNL     1      20.691  36.737  53.434  1.00  0.00     0.113 C 
HETATM   15  N1  UNL     1      20.926  36.334  52.234  1.00  0.00    -0.386 N 
ATOM     16  H12 UNL     1      20.183  36.195  51.548  1.00  0.00     0.157 HD
ATOM     17  H11 UNL     1      21.888  36.144  51.951  1.00  0.00     0.157 HD
BRANCH  14  18
HETATM   18  C2  UNL     1      19.305  37.009  53.842  1.00  0.00     0.241 C 
BRANCH  18  19
HETATM   19  O1  UNL     1      19.348  37.490  55.170  1.00  0.00    -0.393 OA
ATOM     20  H1  UNL     1      18.474  37.795  55.386  1.00  0.00     0.209 HD
ENDBRANCH  18  19
ENDBRANCH  14  18
ENDBRANCH  12  14
ENDBRANCH  10  12
ENDBRANCH   1  10
BRANCH   4  21
HETATM   21  N5  UNL     1      24.944  32.467  53.996  1.00  0.00    -0.217 N 
HETATM   22  C5  UNL     1      25.556  31.336  54.668  1.00  0.00     0.141 C 
HETATM   23  C6  UNL     1      24.815  30.082  54.248  1.00  0.00     0.020 C 
HETATM   24  C7  UNL     1      25.036  29.885  52.757  1.00  0.00     0.003 C 
HETATM   25  C8  UNL     1      25.526  31.160  52.092  1.00  0.00     0.020 C 
HETATM   26  C9  UNL     1      24.701  32.344  52.576  1.00  0.00     0.141 C 
ENDBRANCH   4  21
BRANCH   7  27
HETATM   27  N7  UNL     1      26.320  35.829  57.148  1.00  0.00    -0.215 N 
HETATM   28  C11 UNL     1      27.688  35.692  56.726  1.00  0.00     0.141 C 
HETATM   29  C12 UNL     1      28.630  36.660  57.335  1.00  0.00     0.022 C 
HETATM   30  C13 UNL     1      28.001  37.686  58.225  1.00  0.00     0.036 C 
HETATM   31  C14 UNL     1      27.065  36.928  59.175  1.00  0.00     0.202 C 
HETATM   32  C15 UNL     1      25.898  36.475  58.360  1.00  0.00     0.173 C 
BRANCH  31  33
HETATM   33  N8  UNL     1      26.708  37.830  60.226  1.00  0.00    -0.073 N 
ATOM     34  H83 UNL     1      26.445  38.755  59.887  1.00  0.00     0.274 HD
ATOM     35  H82 UNL     1      25.819  37.595  60.669  1.00  0.00     0.274 HD
ATOM     36  H81 UNL     1      27.487  37.852  60.883  1.00  0.00     0.274 HD
ENDBRANCH  31  33
ENDBRANCH   7  27
TORSDOF 8
ENDMDL
MODEL 5
REMARK VINA RESULT: -7.087092163      3.951      7.230
REMARK  8 active torsions:
REMARK  status: ('A' for Active; 'I' for Inactive)
REMARK    1  A    between atoms: C1_4  and  C2_5 
REMARK    2  A    between atoms: C1_4  and  N2_8 
REMARK    3  A    between atoms: C2_5  and  O1_6 
REMARK    4  A    between atoms: N2_8  and  N3_10 
REMARK    5  A    between atoms: N3_10  and  C3_12 
REMARK    6  A    between atoms: C4_15  and  N5_16 
REMARK    7  A    between atoms: C10_24  and  N7_25 
REMARK    8  A    between atoms: C14_29  and  N8_30 
ROOT
HETATM    1  C3  UNL     1      23.405  35.458  55.303  1.00  0.00     0.726 A 
HETATM    2  N4  UNL     1      24.517  35.977  55.850  1.00  0.00    -0.020 N 
ATOM      3  H4  UNL     1      24.469  36.900  56.282  1.00  0.00     0.203 HD
HETATM    4  C4  UNL     1      25.694  35.322  55.849  1.00  0.00     0.709 A 
HETATM    5  N6  UNL     1      25.740  34.111  55.277  1.00  0.00    -0.021 N 
ATOM      6  H6  UNL     1      26.626  33.606  55.271  1.00  0.00     0.203 HD
HETATM    7  C10 UNL     1      24.650  33.528  54.704  1.00  0.00     0.709 A 
HETATM    8  N9  UNL     1      23.508  34.241  54.744  1.00  0.00    -0.020 N 
ATOM      9  H9  UNL     1      22.673  33.832  54.325  1.00  0.00     0.203 HD
ENDROOT
BRANCH   1  10
HETATM   10  N3  UNL     1      22.262  36.097  55.306  1.00  0.00    -0.130 N 
ATOM     11  H3  UNL     1      22.079  36.825  54.616  1.00  0.00     0.205 HD
BRANCH  10  12
HETATM   12  N2  UNL     1      21.296  35.774  56.259  1.00  0.00    -0.273 N 
ATOM     13  H2  UNL     1      21.464  35.928  57.254  1.00  0.00     0.189 HD
BRANCH  12  14
HETATM   14  C1  UNL     1      20.066  35.221  55.795  1.00  0.00     0.113 C 
HETATM   15  N1  UNL     1      19.592  34.113  56.250  1.00  0.00    -0.386 N 
ATOM     16  H12 UNL     1      18.712  33.718  55.917  1.00  0.00     0.157 HD
ATOM     17  H11 UNL     1      20.109  33.608  56.969  1.00  0.00     0.157 HD
BRANCH  14  18
HETATM   18  C2  UNL     1      19.320  35.950  54.758  1.00  0.00     0.241 C 
BRANCH  18  19
HETATM   19  O1  UNL     1      19.479  37.329  55.023  1.00  0.00    -0.393 OA
ATOM     20  H1  UNL     1      18.807  37.573  55.648  1.00  0.00     0.209 HD
ENDBRANCH  18  19
ENDBRANCH  14  18
ENDBRANCH  12  14
ENDBRANCH  10  12
ENDBRANCH   1  10
BRANCH   4  21
HETATM   21  N5  UNL     1      26.885  35.849  56.421  1.00  0.00    -0.217 N 
HETATM   22  C5  UNL     1      26.850  37.126  57.107  1.00  0.00     0.141 C 
HETATM   23  C6  UNL     1      27.566  36.967  58.434  1.00  0.00     0.020 C 
HETATM   24  C7  UNL     1      29.027  36.660  58.144  1.00  0.00     0.003 C 
HETATM   25  C8  UNL     1      29.224  36.191  56.712  1.00  0.00     0.020 C 
HETATM   26  C9  UNL     1      28.158  35.166  56.353  1.00  0.00     0.141 C 
ENDBRANCH   4  21
BRANCH   7  27
HETATM   27  N7  UNL     1      24.726  32.233  54.100  1.00  0.00    -0.215 N 
HETATM   28  C11 UNL     1      24.690  32.170  52.663  1.00  0.00     0.141 C 
HETATM   29  C12 UNL     1      25.252  30.931  52.077  1.00  0.00     0.022 C 
HETATM   30  C13 UNL     1      25.850  29.976  53.062  1.00  0.00     0.036 C 
HETATM   31  C14 UNL     1      24.828  29.814  54.193  1.00  0.00     0.202 C 
HETATM   32  C15 UNL     1      24.832  31.091  54.966  1.00  0.00     0.173 C 
BRANCH  31  33
HETATM   33  N8  UNL     1      25.229  28.679  54.968  1.00  0.00    -0.073 N 
ATOM     34  H83 UNL     1      25.463  27.868  54.395  1.00  0.00     0.274 HD
ATOM     35  H82 UNL     1      26.142  28.799  55.408  1.00  0.00     0.274 HD
ATOM     36  H81 UNL     1      24.484  28.493  55.639  1.00  0.00     0.274 HD
ENDBRANCH  31  33
ENDBRANCH   7  27
TORSDOF 8
ENDMDL
