MODEL 1
REMARK VINA RESULT: -6.871283727      0.000      0.000
REMARK  7 active torsions:
REMARK  status: ('A' for Active; 'I' for Inactive)
REMARK    1  A    between atoms: N1_1  and  C1_4 
REMARK    2  A    between atoms: C3_9  and  C4_10 
REMARK    3  A    between atoms: C4_10  and  N4_12 
REMARK    4  A    between atoms: C7_16  and  C8_17 
REMARK    5  A    between atoms: C8_17  and  C9_18 
REMARK    6  A    between atoms: C9_18  and  N5_19 
REMARK    7  A    between atoms: C13_27  and  N8_28 
ROOT
HETATM    1  C4  UNL     1      24.488  40.712  53.166  1.00  0.00     0.116 C 
HETATM    2  S1  UNL     1      25.879  41.432  53.604  1.00  0.00    -0.059 SA
ENDROOT
BRANCH   1   3
HETATM    3  C3  UNL     1      23.724  41.265  52.077  1.00  0.00     0.087 A 
HETATM    4  C2  UNL     1      22.821  42.278  52.376  1.00  0.00     0.148 A 
HETATM    5  N2  UNL     1      22.088  42.821  51.391  1.00  0.00    -0.178 N 
HETATM    6  N3  UNL     1      22.686  42.726  53.718  1.00  0.00    -0.081 NA
HETATM    7  C1  UNL     1      22.209  42.403  50.118  1.00  0.00     0.678 A 
ATOM      8  H2  UNL     1      21.427  43.566  51.612  1.00  0.00     0.185 HD
HETATM    9  N9  UNL     1      23.086  41.422  49.842  1.00  0.00    -0.176 N 
HETATM   10  C13 UNL     1      23.857  40.824  50.762  1.00  0.00     0.131 A 
ATOM     11  H9  UNL     1      23.171  41.114  48.873  1.00  0.00     0.186 HD
BRANCH   7  12
HETATM   12  N1  UNL     1      21.478  42.956  49.180  1.00  0.00    -0.234 N 
ATOM     13  H12 UNL     1      21.267  43.954  49.184  1.00  0.00     0.174 HD
ATOM     14  H11 UNL     1      21.104  42.381  48.425  1.00  0.00     0.174 HD
ENDBRANCH   7  12
BRANCH  10  15
HETATM   15  N8  UNL     1      24.690  39.893  50.507  1.00  0.00    -0.384 N 
ATOM     16  H82 UNL     1      25.180  39.350  51.217  1.00  0.00     0.157 HD
ATOM     17  H81 UNL     1      24.890  39.665  49.533  1.00  0.00     0.157 HD
ENDBRANCH  10  15
ENDBRANCH   1   3
BRANCH   1  18
HETATM   18  N4  UNL     1      24.052  39.557  53.860  1.00  0.00    -0.367 N 
HETATM   19  C5  UNL     1      24.932  38.801  54.731  1.00  0.00     0.150 C 
HETATM   20  C6  UNL     1      24.926  37.348  54.302  1.00  0.00     0.188 C 
HETATM   21  O1  UNL     1      24.006  37.118  53.281  1.00  0.00    -0.383 OA
HETATM   22  C7  UNL     1      22.765  37.558  53.746  1.00  0.00     0.141 C 
HETATM   23  C12 UNL     1      22.692  39.070  53.731  1.00  0.00     0.155 C 
BRANCH  22  24
HETATM   24  C8  UNL     1      21.620  36.914  53.040  1.00  0.00     0.055 C 
BRANCH  24  25
HETATM   25  C9  UNL     1      20.301  37.117  53.749  1.00  0.00     0.152 C 
BRANCH  25  26
HETATM   26  N5  UNL     1      20.116  36.098  54.763  1.00  0.00    -0.287 N 
HETATM   27  C10 UNL     1      20.002  34.769  54.628  1.00  0.00     0.201 A 
HETATM   28  N6  UNL     1      19.841  34.188  55.828  1.00  0.00    -0.346 N 
HETATM   29  C11 UNL     1      19.854  35.178  56.740  1.00  0.00     0.198 A 
ATOM     30  H6  UNL     1      19.730  33.191  56.013  1.00  0.00     0.167 HD
HETATM   31  N7  UNL     1      20.021  36.318  56.077  1.00  0.00    -0.293 N 
ATOM     32  H7  UNL     1      20.070  37.239  56.514  1.00  0.00     0.188 HD
ENDBRANCH  25  26
ENDBRANCH  24  25
ENDBRANCH  22  24
ENDBRANCH   1  18
TORSDOF 7
ENDMDL
MODEL 2
REMARK VINA RESULT: -6.847814642      5.226      8.149
REMARK  7 active torsions:
REMARK  status: ('A' for Active; 'I' for Inactive)
REMARK    1  A    between atoms: N1_1  and  C1_4 
REMARK    2  A    between atoms: C3_9  and  C4_10 
REMARK    3  A    between atoms: C4_10  and  N4_12 
REMARK    4  A    between atoms: C7_16  and  C8_17 
REMARK    5  A    between atoms: C8_17  and  C9_18 
REMARK    6  A    between atoms: C9_18  and  N5_19 
REMARK    7  A    between atoms: C13_27  and  N8_28 
ROOT
HETATM    1  C4  UNL     1      26.195  33.104  53.856  1.00  0.00     0.116 C 
HETATM    2  S1  UNL     1      27.704  33.416  54.375  1.00  0.00    -0.059 SA
ENDROOT
BRANCH   1   3
HETATM    3  C3  UNL     1      25.863  31.769  53.426  1.00  0.00     0.087 A 
HETATM    4  C2  UNL     1      26.276  31.382  52.156  1.00  0.00     0.148 A 
HETATM    5  N2  UNL     1      25.987  30.148  51.716  1.00  0.00    -0.178 N 
HETATM    6  N3  UNL     1      26.998  32.297  51.344  1.00  0.00    -0.081 NA
HETATM    7  C1  UNL     1      25.303  29.276  52.479  1.00  0.00     0.678 A 
ATOM      8  H2  UNL     1      26.293  29.865  50.785  1.00  0.00     0.185 HD
HETATM    9  N9  UNL     1      24.909  29.663  53.706  1.00  0.00    -0.176 N 
HETATM   10  C13 UNL     1      25.154  30.874  54.225  1.00  0.00     0.131 A 
ATOM     11  H9  UNL     1      24.393  28.993  54.276  1.00  0.00     0.186 HD
BRANCH   7  12
HETATM   12  N1  UNL     1      25.038  28.077  52.018  1.00  0.00    -0.234 N 
ATOM     13  H12 UNL     1      25.066  27.869  51.020  1.00  0.00     0.174 HD
ATOM     14  H11 UNL     1      24.795  27.328  52.666  1.00  0.00     0.174 HD
ENDBRANCH   7  12
BRANCH  10  15
HETATM   15  N8  UNL     1      24.783  31.247  55.386  1.00  0.00    -0.384 N 
ATOM     16  H82 UNL     1      25.329  31.856  55.996  1.00  0.00     0.157 HD
ATOM     17  H81 UNL     1      23.884  30.925  55.743  1.00  0.00     0.157 HD
ENDBRANCH  10  15
ENDBRANCH   1   3
BRANCH   1  18
HETATM   18  N4  UNL     1      25.236  34.145  53.834  1.00  0.00    -0.367 N 
HETATM   19  C5  UNL     1      25.098  35.091  54.925  1.00  0.00     0.150 C 
HETATM   20  C6  UNL     1      23.656  35.101  55.392  1.00  0.00     0.188 C 
HETATM   21  O1  UNL     1      22.850  34.301  54.587  1.00  0.00    -0.383 OA
HETATM   22  C7  UNL     1      23.004  34.757  53.276  1.00  0.00     0.141 C 
HETATM   23  C12 UNL     1      24.336  34.317  52.709  1.00  0.00     0.155 C 
BRANCH  22  24
HETATM   24  C8  UNL     1      21.852  34.400  52.398  1.00  0.00     0.055 C 
BRANCH  24  25
HETATM   25  C9  UNL     1      20.856  35.527  52.246  1.00  0.00     0.152 C 
BRANCH  25  26
HETATM   26  N5  UNL     1      20.226  35.813  53.520  1.00  0.00    -0.287 N 
HETATM   27  C10 UNL     1      19.884  36.993  54.057  1.00  0.00     0.201 A 
HETATM   28  N6  UNL     1      19.321  36.814  55.263  1.00  0.00    -0.346 N 
HETATM   29  C11 UNL     1      19.310  35.487  55.488  1.00  0.00     0.198 A 
ATOM     30  H6  UNL     1      18.970  37.541  55.887  1.00  0.00     0.167 HD
HETATM   31  N7  UNL     1      19.859  34.905  54.427  1.00  0.00    -0.293 N 
ATOM     32  H7  UNL     1      19.983  33.898  54.319  1.00  0.00     0.188 HD
ENDBRANCH  25  26
ENDBRANCH  24  25
ENDBRANCH  22  24
ENDBRANCH   1  18
TORSDOF 7
ENDMDL
MODEL 3
REMARK VINA RESULT: -6.735873782      5.098      7.897
REMARK  7 active torsions:
REMARK  status: ('A' for Active; 'I' for Inactive)
REMARK    1  A    between atoms: N1_1  and  C1_4 
REMARK    2  A    between atoms: C3_9  and  C4_10 
REMARK    3  A    between atoms: C4_10  and  N4_12 
REMARK    4  A    between atoms: C7_16  and  C8_17 
REMARK    5  A    between atoms: C8_17  and  C9_18 
REMARK    6  A    between atoms: C9_18  and  N5_19 
REMARK    7  A    between atoms: C13_27  and  N8_28 
ROOT
HETATM    1  C4  UNL     1      26.216  33.344  53.889  1.00  0.00     0.116 C 
HETATM    2  S1  UNL     1      27.689  33.687  54.485  1.00  0.00    -0.059 SA
ENDROOT
BRANCH   1   3
HETATM    3  C3  UNL     1      25.948  32.017  53.397  1.00  0.00     0.087 A 
HETATM    4  C2  UNL     1      25.235  31.158  54.225  1.00  0.00     0.148 A 
HETATM    5  N2  UNL     1      24.963  29.912  53.806  1.00  0.00    -0.178 N 
HETATM    6  N3  UNL     1      24.802  31.609  55.501  1.00  0.00    -0.081 NA
HETATM    7  C1  UNL     1      25.369  29.476  52.599  1.00  0.00     0.678 A 
ATOM      8  H2  UNL     1      24.438  29.283  54.414  1.00  0.00     0.185 HD
HETATM    9  N9  UNL     1      26.058  30.317  51.808  1.00  0.00    -0.176 N 
HETATM   10  C13 UNL     1      26.373  31.576  52.146  1.00  0.00     0.131 A 
ATOM     11  H9  UNL     1      26.360  29.977  50.894  1.00  0.00     0.186 HD
BRANCH   7  12
HETATM   12  N1  UNL     1      25.087  28.253  52.221  1.00  0.00    -0.234 N 
ATOM     13  H12 UNL     1      24.353  28.059  51.539  1.00  0.00     0.174 HD
ATOM     14  H11 UNL     1      25.606  27.469  52.615  1.00  0.00     0.174 HD
ENDBRANCH   7  12
BRANCH  10  15
HETATM   15  N8  UNL     1      27.026  32.378  51.400  1.00  0.00    -0.384 N 
ATOM     16  H82 UNL     1      28.044  32.402  51.335  1.00  0.00     0.157 HD
ATOM     17  H81 UNL     1      26.512  33.045  50.825  1.00  0.00     0.157 HD
ENDBRANCH  10  15
ENDBRANCH   1   3
BRANCH   1  18
HETATM   18  N4  UNL     1      25.223  34.354  53.861  1.00  0.00    -0.367 N 
HETATM   19  C5  UNL     1      25.025  35.273  54.966  1.00  0.00     0.150 C 
HETATM   20  C6  UNL     1      23.573  35.226  55.396  1.00  0.00     0.188 C 
HETATM   21  O1  UNL     1      22.814  34.416  54.554  1.00  0.00    -0.383 OA
HETATM   22  C7  UNL     1      22.987  34.903  53.257  1.00  0.00     0.141 C 
HETATM   23  C12 UNL     1      24.347  34.519  52.716  1.00  0.00     0.155 C 
BRANCH  22  24
HETATM   24  C8  UNL     1      21.870  34.527  52.342  1.00  0.00     0.055 C 
BRANCH  24  25
HETATM   25  C9  UNL     1      20.830  35.614  52.204  1.00  0.00     0.152 C 
BRANCH  25  26
HETATM   26  N5  UNL     1      20.206  35.876  53.485  1.00  0.00    -0.287 N 
HETATM   27  C10 UNL     1      19.865  37.046  54.046  1.00  0.00     0.201 A 
HETATM   28  N6  UNL     1      19.308  36.843  55.251  1.00  0.00    -0.346 N 
HETATM   29  C11 UNL     1      19.298  35.512  55.451  1.00  0.00     0.198 A 
ATOM     30  H6  UNL     1      18.960  37.558  55.890  1.00  0.00     0.167 HD
HETATM   31  N7  UNL     1      19.842  34.950  54.376  1.00  0.00    -0.293 N 
ATOM     32  H7  UNL     1      19.966  33.946  54.249  1.00  0.00     0.188 HD
ENDBRANCH  25  26
ENDBRANCH  24  25
ENDBRANCH  22  24
ENDBRANCH   1  18
TORSDOF 7
ENDMDL
MODEL 4
REMARK VINA RESULT: -6.715722513      5.892      8.107
REMARK  7 active torsions:
REMARK  status: ('A' for Active; 'I' for Inactive)
REMARK    1  A    between atoms: N1_1  and  C1_4 
REMARK    2  A    between atoms: C3_9  and  C4_10 
REMARK    3  A    between atoms: C4_10  and  N4_12 
REMARK    4  A    between atoms: C7_16  and  C8_17 
REMARK    5  A    between atoms: C8_17  and  C9_18 
REMARK    6  A    between atoms: C9_18  and  N5_19 
REMARK    7  A    between atoms: C13_27  and  N8_28 
ROOT
HETATM    1  C4  UNL     1      24.698  34.842  53.520  1.00  0.00     0.116 C 
HETATM    2  S1  UNL     1      25.423  36.170  52.922  1.00  0.00    -0.059 SA
ENDROOT
BRANCH   1   3
HETATM    3  C3  UNL     1      23.337  34.934  53.983  1.00  0.00     0.087 A 
HETATM    4  C2  UNL     1      22.331  34.560  53.099  1.00  0.00     0.148 A 
HETATM    5  N2  UNL     1      21.049  34.630  53.490  1.00  0.00    -0.178 N 
HETATM    6  N3  UNL     1      22.674  34.108  51.796  1.00  0.00    -0.081 NA
HETATM    7  C1  UNL     1      20.716  35.057  54.722  1.00  0.00     0.678 A 
ATOM      8  H2  UNL     1      20.312  34.353  52.840  1.00  0.00     0.185 HD
HETATM    9  N9  UNL     1      21.699  35.416  55.567  1.00  0.00    -0.176 N 
HETATM   10  C13 UNL     1      23.003  35.377  55.261  1.00  0.00     0.131 A 
ATOM     11  H9  UNL     1      21.435  35.736  56.499  1.00  0.00     0.186 HD
BRANCH   7  12
HETATM   12  N1  UNL     1      19.454  35.112  55.071  1.00  0.00    -0.234 N 
ATOM     13  H12 UNL     1      18.969  34.302  55.457  1.00  0.00     0.174 HD
ATOM     14  H11 UNL     1      18.935  35.983  54.956  1.00  0.00     0.174 HD
ENDBRANCH   7  12
BRANCH  10  15
HETATM   15  N8  UNL     1      23.939  35.717  56.058  1.00  0.00    -0.384 N 
ATOM     16  H82 UNL     1      24.520  35.057  56.576  1.00  0.00     0.157 HD
ATOM     17  H81 UNL     1      24.132  36.709  56.197  1.00  0.00     0.157 HD
ENDBRANCH  10  15
ENDBRANCH   1   3
BRANCH   1  18
HETATM   18  N4  UNL     1      25.414  33.621  53.575  1.00  0.00    -0.367 N 
HETATM   19  C5  UNL     1      26.328  33.214  52.525  1.00  0.00     0.150 C 
HETATM   20  C6  UNL     1      25.941  31.832  52.040  1.00  0.00     0.188 C 
HETATM   21  O1  UNL     1      24.905  31.293  52.799  1.00  0.00    -0.383 OA
HETATM   22  C7  UNL     1      25.326  31.309  54.131  1.00  0.00     0.141 C 
HETATM   23  C12 UNL     1      25.265  32.711  54.695  1.00  0.00     0.155 C 
BRANCH  22  24
HETATM   24  C8  UNL     1      24.610  30.310  54.976  1.00  0.00     0.055 C 
BRANCH  24  25
HETATM   25  C9  UNL     1      25.466  29.116  55.330  1.00  0.00     0.152 C 
BRANCH  25  26
HETATM   26  N5  UNL     1      26.094  28.580  54.139  1.00  0.00    -0.287 N 
HETATM   27  C10 UNL     1      27.395  28.396  53.868  1.00  0.00     0.201 A 
HETATM   28  N6  UNL     1      27.549  27.872  52.641  1.00  0.00    -0.346 N 
HETATM   29  C11 UNL     1      26.313  27.723  52.129  1.00  0.00     0.198 A 
ATOM     30  H6  UNL     1      28.430  27.634  52.187  1.00  0.00     0.167 HD
HETATM   31  N7  UNL     1      25.454  28.154  53.047  1.00  0.00    -0.293 N 
ATOM     32  H7  UNL     1      24.440  28.160  52.932  1.00  0.00     0.188 HD
ENDBRANCH  25  26
ENDBRANCH  24  25
ENDBRANCH  22  24
ENDBRANCH   1  18
TORSDOF 7
ENDMDL
MODEL 5
REMARK VINA RESULT: -6.542249873      4.294      6.953
REMARK  7 active torsions:
REMARK  status: ('A' for Active; 'I' for Inactive)
REMARK    1  A    between atoms: N1_1  and  C1_4 
REMARK    2  A    between atoms: C3_9  and  C4_10 
REMARK    3  A    between atoms: C4_10  and  N4_12 
REMARK    4  A    between atoms: C7_16  and  C8_17 
REMARK    5  A    between atoms: C8_17  and  C9_18 
REMARK    6  A    between atoms: C9_18  and  N5_19 
REMARK    7  A    between atoms: C13_27  and  N8_28 
ROOT
HETATM    1  C4  UNL     1      22.820  36.490  53.655  1.00  0.00     0.116 C 
HETATM    2  S1  UNL     1      23.158  38.073  53.493  1.00  0.00    -0.059 SA
ENDROOT
BRANCH   1   3
HETATM    3  C3  UNL     1      21.667  36.093  54.423  1.00  0.00     0.087 A 
HETATM    4  C2  UNL     1      20.420  36.223  53.823  1.00  0.00     0.148 A 
HETATM    5  N2  UNL     1      19.320  35.865  54.503  1.00  0.00    -0.178 N 
HETATM    6  N3  UNL     1      20.327  36.732  52.499  1.00  0.00    -0.081 NA
HETATM    7  C1  UNL     1      19.400  35.383  55.757  1.00  0.00     0.678 A 
ATOM      8  H2  UNL     1      18.406  35.960  54.061  1.00  0.00     0.185 HD
HETATM    9  N9  UNL     1      20.612  35.262  56.326  1.00  0.00    -0.176 N 
HETATM   10  C13 UNL     1      21.761  35.595  55.721  1.00  0.00     0.131 A 
ATOM     11  H9  UNL     1      20.661  34.894  57.276  1.00  0.00     0.186 HD
BRANCH   7  12
HETATM   12  N1  UNL     1      18.305  35.042  56.393  1.00  0.00    -0.234 N 
ATOM     13  H12 UNL     1      17.436  35.565  56.281  1.00  0.00     0.174 HD
ATOM     14  H11 UNL     1      18.313  34.237  57.019  1.00  0.00     0.174 HD
ENDBRANCH   7  12
BRANCH  10  15
HETATM   15  N8  UNL     1      22.914  35.483  56.255  1.00  0.00    -0.384 N 
ATOM     16  H82 UNL     1      23.250  34.643  56.726  1.00  0.00     0.157 HD
ATOM     17  H81 UNL     1      23.553  36.277  56.218  1.00  0.00     0.157 HD
ENDBRANCH  10  15
ENDBRANCH   1   3
BRANCH   1  18
HETATM   18  N4  UNL     1      23.661  35.531  53.040  1.00  0.00    -0.367 N 
HETATM   19  C5  UNL     1      23.210  34.701  51.939  1.00  0.00     0.150 C 
HETATM   20  C6  UNL     1      23.449  33.245  52.287  1.00  0.00     0.188 C 
HETATM   21  O1  UNL     1      24.128  33.110  53.495  1.00  0.00    -0.383 OA
HETATM   22  C7  UNL     1      25.309  33.848  53.382  1.00  0.00     0.141 C 
HETATM   23  C12 UNL     1      25.027  35.330  53.487  1.00  0.00     0.155 C 
BRANCH  22  24
HETATM   24  C8  UNL     1      26.371  33.390  54.324  1.00  0.00     0.055 C 
BRANCH  24  25
HETATM   25  C9  UNL     1      27.004  32.082  53.908  1.00  0.00     0.152 C 
BRANCH  25  26
HETATM   26  N5  UNL     1      26.085  30.985  54.136  1.00  0.00    -0.287 N 
HETATM   27  C10 UNL     1      25.891  29.869  53.418  1.00  0.00     0.201 A 
HETATM   28  N6  UNL     1      24.938  29.109  53.981  1.00  0.00    -0.346 N 
HETATM   29  C11 UNL     1      24.523  29.765  55.081  1.00  0.00     0.198 A 
ATOM     30  H6  UNL     1      24.595  28.211  53.642  1.00  0.00     0.167 HD
HETATM   31  N7  UNL     1      25.227  30.890  55.155  1.00  0.00    -0.293 N 
ATOM     32  H7  UNL     1      25.125  31.588  55.892  1.00  0.00     0.188 HD
ENDBRANCH  25  26
ENDBRANCH  24  25
ENDBRANCH  22  24
ENDBRANCH   1  18
TORSDOF 7
ENDMDL
