MODEL 1
REMARK VINA RESULT: -6.921991927      0.000      0.000
REMARK  6 active torsions:
REMARK  status: ('A' for Active; 'I' for Inactive)
REMARK    1  A    between atoms: O1_2  and  C2_3 
REMARK    2  A    between atoms: C2_3  and  C3_5 
REMARK    3  A    between atoms: C3_5  and  S1_6 
REMARK    4  A    between atoms: S1_6  and  C4_7 
REMARK    5  A    between atoms: C7_12  and  N2_13 
REMARK    6  A    between atoms: C14_28  and  N6_29 
ROOT
HETATM    1  C4  UNL     1      22.739  35.408  53.667  1.00  0.00     0.146 A 
HETATM    2  N1  UNL     1      22.940  34.236  54.291  1.00  0.00    -0.336 N 
ATOM      3  H1  UNL     1      22.282  33.927  55.007  1.00  0.00     0.168 HD
HETATM    4  C5  UNL     1      23.988  33.472  53.987  1.00  0.00     0.055 A 
HETATM    5  C6  UNL     1      24.224  32.252  54.616  1.00  0.00     0.079 A 
HETATM    6  C7  UNL     1      25.327  31.536  54.238  1.00  0.00     0.106 A 
HETATM    7  N4  UNL     1      26.185  31.970  53.285  1.00  0.00    -0.328 N 
ATOM      8  H4  UNL     1      26.996  31.404  53.035  1.00  0.00     0.169 HD
HETATM    9  C12 UNL     1      25.975  33.127  52.677  1.00  0.00     0.116 A 
HETATM   10  N5  UNL     1      26.772  33.594  51.748  1.00  0.00    -0.385 N 
ATOM     11  H51 UNL     1      26.610  34.485  51.280  1.00  0.00     0.157 HD
ATOM     12  H52 UNL     1      27.583  33.029  51.496  1.00  0.00     0.157 HD
HETATM   13  C13 UNL     1      24.883  33.888  53.017  1.00  0.00     0.078 A 
HETATM   14  C14 UNL     1      24.684  35.100  52.365  1.00  0.00     0.117 A 
HETATM   15  N7  UNL     1      23.609  35.814  52.723  1.00  0.00    -0.322 N 
ATOM     16  H7  UNL     1      23.441  36.706  52.259  1.00  0.00     0.169 HD
ENDROOT
BRANCH   6  17
HETATM   17  N2  UNL     1      25.620  30.293  54.844  1.00  0.00    -0.364 N 
HETATM   18  C8  UNL     1      24.757  29.730  55.893  1.00  0.00     0.152 C 
HETATM   19  C9  UNL     1      25.544  28.643  56.586  1.00  0.00     0.252 C 
HETATM   20  N3  UNL     1      25.908  27.574  55.698  1.00  0.00    -0.072 N 
HETATM   21  C10 UNL     1      26.201  28.043  54.361  1.00  0.00     0.252 C 
ATOM     22  H32 UNL     1      26.685  27.031  56.075  1.00  0.00     0.277 HD
ATOM     23  H31 UNL     1      25.193  26.847  55.684  1.00  0.00     0.277 HD
HETATM   24  C11 UNL     1      26.762  29.468  54.507  1.00  0.00     0.152 C 
ENDBRANCH   6  17
BRANCH   1  25
HETATM   25  S1  UNL     1      21.369  36.501  54.005  1.00  0.00    -0.084 SA
BRANCH  25  26
HETATM   26  C3  UNL     1      19.871  35.573  54.391  1.00  0.00     0.193 C 
BRANCH  26  27
HETATM   27  C2  UNL     1      19.966  35.044  55.777  1.00  0.00     0.268 C 
HETATM   28  O2  UNL     1      20.850  35.477  56.587  1.00  0.00    -0.264 OA
BRANCH  27  29
HETATM   29  O1  UNL     1      19.127  34.067  56.292  1.00  0.00    -0.326 OA
HETATM   30  C1  UNL     1      17.989  34.392  57.040  1.00  0.00     0.213 C 
ENDBRANCH  27  29
ENDBRANCH  26  27
ENDBRANCH  25  26
ENDBRANCH   1  25
BRANCH  14  31
HETATM   31  N6  UNL     1      25.516  35.505  51.450  1.00  0.00    -0.385 N 
ATOM     32  H62 UNL     1      25.866  34.886  50.718  1.00  0.00     0.157 HD
ATOM     33  H61 UNL     1      25.849  36.469  51.441  1.00  0.00     0.157 HD
ENDBRANCH  14  31
TORSDOF 6
ENDMDL
MODEL 2
REMARK VINA RESULT: -6.825742937      1.295      1.778
REMARK  6 active torsions:
REMARK  status: ('A' for Active; 'I' for Inactive)
REMARK    1  A    between atoms: O1_2  and  C2_3 
REMARK    2  A    between atoms: C2_3  and  C3_5 
REMARK    3  A    between atoms: C3_5  and  S1_6 
REMARK    4  A    between atoms: S1_6  and  C4_7 
REMARK    5  A    between atoms: C7_12  and  N2_13 
REMARK    6  A    between atoms: C14_28  and  N6_29 
ROOT
HETATM    1  C4  UNL     1      23.560  35.370  53.477  1.00  0.00     0.146 A 
HETATM    2  N1  UNL     1      23.551  34.238  54.197  1.00  0.00    -0.336 N 
ATOM      3  H1  UNL     1      22.900  34.141  54.975  1.00  0.00     0.168 HD
HETATM    4  C5  UNL     1      24.384  33.239  53.907  1.00  0.00     0.055 A 
HETATM    5  C6  UNL     1      24.399  32.051  54.634  1.00  0.00     0.079 A 
HETATM    6  C7  UNL     1      25.290  31.081  54.263  1.00  0.00     0.106 A 
HETATM    7  N4  UNL     1      26.145  31.236  53.226  1.00  0.00    -0.328 N 
ATOM      8  H4  UNL     1      26.792  30.485  52.985  1.00  0.00     0.169 HD
HETATM    9  C12 UNL     1      26.142  32.358  52.523  1.00  0.00     0.116 A 
HETATM   10  N5  UNL     1      26.947  32.560  51.510  1.00  0.00    -0.385 N 
ATOM     11  H51 UNL     1      26.945  33.425  50.968  1.00  0.00     0.157 HD
ATOM     12  H52 UNL     1      27.596  31.812  51.266  1.00  0.00     0.157 HD
HETATM   13  C13 UNL     1      25.270  33.366  52.852  1.00  0.00     0.078 A 
HETATM   14  C14 UNL     1      25.286  34.536  52.100  1.00  0.00     0.117 A 
HETATM   15  N7  UNL     1      24.421  35.497  52.449  1.00  0.00    -0.322 N 
ATOM     16  H7  UNL     1      24.415  36.364  51.913  1.00  0.00     0.169 HD
ENDROOT
BRANCH   6  17
HETATM   17  N2  UNL     1      25.354  29.857  54.967  1.00  0.00    -0.364 N 
HETATM   18  C8  UNL     1      26.445  28.897  54.738  1.00  0.00     0.152 C 
HETATM   19  C9  UNL     1      26.008  27.573  55.319  1.00  0.00     0.252 C 
HETATM   20  N3  UNL     1      25.776  27.642  56.736  1.00  0.00    -0.072 N 
HETATM   21  C10 UNL     1      25.221  28.916  57.142  1.00  0.00     0.252 C 
ATOM     22  H32 UNL     1      25.190  26.869  57.051  1.00  0.00     0.277 HD
ATOM     23  H31 UNL     1      26.624  27.427  57.259  1.00  0.00     0.277 HD
HETATM   24  C11 UNL     1      24.387  29.431  55.958  1.00  0.00     0.152 C 
ENDBRANCH   6  17
BRANCH   1  25
HETATM   25  S1  UNL     1      22.488  36.763  53.788  1.00  0.00    -0.084 SA
BRANCH  25  26
HETATM   26  C3  UNL     1      20.912  36.581  52.930  1.00  0.00     0.193 C 
BRANCH  26  27
HETATM   27  C2  UNL     1      19.802  36.821  53.888  1.00  0.00     0.268 C 
HETATM   28  O2  UNL     1      18.889  37.673  53.637  1.00  0.00    -0.264 OA
BRANCH  27  29
HETATM   29  O1  UNL     1      19.669  36.157  55.100  1.00  0.00    -0.326 OA
HETATM   30  C1  UNL     1      19.690  34.760  55.181  1.00  0.00     0.213 C 
ENDBRANCH  27  29
ENDBRANCH  26  27
ENDBRANCH  25  26
ENDBRANCH   1  25
BRANCH  14  31
HETATM   31  N6  UNL     1      26.113  34.671  51.104  1.00  0.00    -0.385 N 
ATOM     32  H62 UNL     1      27.124  34.713  51.235  1.00  0.00     0.157 HD
ATOM     33  H61 UNL     1      25.766  34.742  50.147  1.00  0.00     0.157 HD
ENDBRANCH  14  31
TORSDOF 6
ENDMDL
MODEL 3
REMARK VINA RESULT: -6.797246868      3.620      6.876
REMARK  6 active torsions:
REMARK  status: ('A' for Active; 'I' for Inactive)
REMARK    1  A    between atoms: O1_2  and  C2_3 
REMARK    2  A    between atoms: C2_3  and  C3_5 
REMARK    3  A    between atoms: C3_5  and  S1_6 
REMARK    4  A    between atoms: S1_6  and  C4_7 
REMARK    5  A    between atoms: C7_12  and  N2_13 
REMARK    6  A    between atoms: C14_28  and  N6_29 
ROOT
HETATM    1  C4  UNL     1      26.456  32.689  53.532  1.00  0.00     0.146 A 
HETATM    2  N1  UNL     1      25.127  32.872  53.483  1.00  0.00    -0.336 N 
ATOM      3  H1  UNL     1      24.565  32.314  52.840  1.00  0.00     0.168 HD
HETATM    4  C5  UNL     1      24.534  33.774  54.264  1.00  0.00     0.055 A 
HETATM    5  C6  UNL     1      23.157  33.988  54.237  1.00  0.00     0.079 A 
HETATM    6  C7  UNL     1      22.637  34.936  55.074  1.00  0.00     0.106 A 
HETATM    7  N4  UNL     1      23.406  35.664  55.917  1.00  0.00    -0.328 N 
ATOM      8  H4  UNL     1      22.975  36.361  56.524  1.00  0.00     0.169 HD
HETATM    9  C12 UNL     1      24.716  35.472  55.956  1.00  0.00     0.116 A 
HETATM   10  N5  UNL     1      25.506  36.148  56.753  1.00  0.00    -0.385 N 
ATOM     11  H51 UNL     1      26.515  36.000  56.783  1.00  0.00     0.157 HD
ATOM     12  H52 UNL     1      25.079  36.846  57.361  1.00  0.00     0.157 HD
HETATM   13  C13 UNL     1      25.292  34.533  55.136  1.00  0.00     0.078 A 
HETATM   14  C14 UNL     1      26.670  34.351  55.194  1.00  0.00     0.117 A 
HETATM   15  N7  UNL     1      27.197  33.427  54.380  1.00  0.00    -0.322 N 
ATOM     16  H7  UNL     1      28.204  33.275  54.404  1.00  0.00     0.169 HD
ENDROOT
BRANCH   6  17
HETATM   17  N2  UNL     1      21.248  35.199  55.088  1.00  0.00    -0.364 N 
HETATM   18  C8  UNL     1      20.473  35.161  56.337  1.00  0.00     0.152 C 
HETATM   19  C9  UNL     1      19.013  35.083  55.958  1.00  0.00     0.252 C 
HETATM   20  N3  UNL     1      18.577  36.228  55.206  1.00  0.00    -0.072 N 
HETATM   21  C10 UNL     1      19.606  36.734  54.324  1.00  0.00     0.252 C 
ATOM     22  H32 UNL     1      17.719  36.025  54.693  1.00  0.00     0.277 HD
ATOM     23  H31 UNL     1      18.228  36.962  55.823  1.00  0.00     0.277 HD
HETATM   24  C11 UNL     1      20.466  35.527  53.913  1.00  0.00     0.152 C 
ENDBRANCH   6  17
BRANCH   1  25
HETATM   25  S1  UNL     1      27.342  31.510  52.526  1.00  0.00    -0.084 SA
BRANCH  25  26
HETATM   26  C3  UNL     1      27.109  29.827  53.132  1.00  0.00     0.193 C 
BRANCH  26  27
HETATM   27  C2  UNL     1      25.697  29.420  52.914  1.00  0.00     0.268 C 
HETATM   28  O2  UNL     1      25.354  28.770  51.873  1.00  0.00    -0.264 OA
BRANCH  27  29
HETATM   29  O1  UNL     1      24.664  29.701  53.797  1.00  0.00    -0.326 OA
HETATM   30  C1  UNL     1      24.847  29.651  55.184  1.00  0.00     0.213 C 
ENDBRANCH  27  29
ENDBRANCH  26  27
ENDBRANCH  25  26
ENDBRANCH   1  25
BRANCH  14  31
HETATM   31  N6  UNL     1      27.398  35.057  56.010  1.00  0.00    -0.385 N 
ATOM     32  H62 UNL     1      27.065  35.928  56.424  1.00  0.00     0.157 HD
ATOM     33  H61 UNL     1      28.339  34.753  56.262  1.00  0.00     0.157 HD
ENDBRANCH  14  31
TORSDOF 6
ENDMDL
MODEL 4
REMARK VINA RESULT: -6.679553148      3.563      6.777
REMARK  6 active torsions:
REMARK  status: ('A' for Active; 'I' for Inactive)
REMARK    1  A    between atoms: O1_2  and  C2_3 
REMARK    2  A    between atoms: C2_3  and  C3_5 
REMARK    3  A    between atoms: C3_5  and  S1_6 
REMARK    4  A    between atoms: S1_6  and  C4_7 
REMARK    5  A    between atoms: C7_12  and  N2_13 
REMARK    6  A    between atoms: C14_28  and  N6_29 
ROOT
HETATM    1  C4  UNL     1      26.102  32.386  53.551  1.00  0.00     0.146 A 
HETATM    2  N1  UNL     1      24.794  32.686  53.598  1.00  0.00    -0.336 N 
ATOM      3  H1  UNL     1      24.133  32.142  53.044  1.00  0.00     0.168 HD
HETATM    4  C5  UNL     1      24.350  33.687  54.358  1.00  0.00     0.055 A 
HETATM    5  C6  UNL     1      23.000  34.022  54.428  1.00  0.00     0.079 A 
HETATM    6  C7  UNL     1      22.638  35.065  55.236  1.00  0.00     0.106 A 
HETATM    7  N4  UNL     1      23.537  35.772  55.960  1.00  0.00    -0.328 N 
ATOM      8  H4  UNL     1      23.222  36.543  56.549  1.00  0.00     0.169 HD
HETATM    9  C12 UNL     1      24.824  35.465  55.905  1.00  0.00     0.116 A 
HETATM   10  N5  UNL     1      25.736  36.115  56.585  1.00  0.00    -0.385 N 
ATOM     11  H51 UNL     1      26.727  35.879  56.543  1.00  0.00     0.157 HD
ATOM     12  H52 UNL     1      25.424  36.886  57.175  1.00  0.00     0.157 HD
HETATM   13  C13 UNL     1      25.244  34.427  55.110  1.00  0.00     0.078 A 
HETATM   14  C14 UNL     1      26.601  34.125  55.068  1.00  0.00     0.117 A 
HETATM   15  N7  UNL     1      26.974  33.106  54.283  1.00  0.00    -0.322 N 
ATOM     16  H7  UNL     1      27.963  32.865  54.235  1.00  0.00     0.169 HD
ENDROOT
BRANCH   6  17
HETATM   17  N2  UNL     1      21.283  35.454  55.344  1.00  0.00    -0.364 N 
HETATM   18  C8  UNL     1      20.498  35.834  54.159  1.00  0.00     0.152 C 
HETATM   19  C9  UNL     1      19.268  36.560  54.649  1.00  0.00     0.252 C 
HETATM   20  N3  UNL     1      18.435  35.736  55.481  1.00  0.00    -0.072 N 
HETATM   21  C10 UNL     1      19.204  34.824  56.300  1.00  0.00     0.252 C 
ATOM     22  H32 UNL     1      17.809  36.304  56.052  1.00  0.00     0.277 HD
ATOM     23  H31 UNL     1      17.741  35.236  54.926  1.00  0.00     0.277 HD
HETATM   24  C11 UNL     1      20.547  35.517  56.589  1.00  0.00     0.152 C 
ENDBRANCH   6  17
BRANCH   1  25
HETATM   25  S1  UNL     1      26.793  31.070  52.564  1.00  0.00    -0.084 SA
BRANCH  25  26
HETATM   26  C3  UNL     1      25.691  29.643  52.512  1.00  0.00     0.193 C 
BRANCH  26  27
HETATM   27  C2  UNL     1      25.434  29.173  53.898  1.00  0.00     0.268 C 
HETATM   28  O2  UNL     1      26.147  28.259  54.426  1.00  0.00    -0.264 OA
BRANCH  27  29
HETATM   29  O1  UNL     1      24.427  29.675  54.711  1.00  0.00    -0.326 OA
HETATM   30  C1  UNL     1      24.575  29.758  56.100  1.00  0.00     0.213 C 
ENDBRANCH  27  29
ENDBRANCH  26  27
ENDBRANCH  25  26
ENDBRANCH   1  25
BRANCH  14  31
HETATM   31  N6  UNL     1      27.455  34.812  55.770  1.00  0.00    -0.385 N 
ATOM     32  H62 UNL     1      28.260  35.275  55.350  1.00  0.00     0.157 HD
ATOM     33  H61 UNL     1      27.340  34.907  56.780  1.00  0.00     0.157 HD
ENDBRANCH  14  31
TORSDOF 6
ENDMDL
MODEL 5
REMARK VINA RESULT: -6.673044585      3.372      6.589
REMARK  6 active torsions:
REMARK  status: ('A' for Active; 'I' for Inactive)
REMARK    1  A    between atoms: O1_2  and  C2_3 
REMARK    2  A    between atoms: C2_3  and  C3_5 
REMARK    3  A    between atoms: C3_5  and  S1_6 
REMARK    4  A    between atoms: S1_6  and  C4_7 
REMARK    5  A    between atoms: C7_12  and  N2_13 
REMARK    6  A    between atoms: C14_28  and  N6_29 
ROOT
HETATM    1  C4  UNL     1      26.653  31.172  53.128  1.00  0.00     0.146 A 
HETATM    2  N1  UNL     1      25.545  31.602  53.753  1.00  0.00    -0.336 N 
ATOM      3  H1  UNL     1      25.141  31.043  54.504  1.00  0.00     0.168 HD
HETATM    4  C5  UNL     1      24.967  32.751  53.403  1.00  0.00     0.055 A 
HETATM    5  C6  UNL     1      23.818  33.224  54.031  1.00  0.00     0.079 A 
HETATM    6  C7  UNL     1      23.295  34.414  53.604  1.00  0.00     0.106 A 
HETATM    7  N4  UNL     1      23.851  35.136  52.603  1.00  0.00    -0.328 N 
ATOM      8  H4  UNL     1      23.426  36.018  52.317  1.00  0.00     0.169 HD
HETATM    9  C12 UNL     1      24.944  34.700  51.996  1.00  0.00     0.116 A 
HETATM   10  N5  UNL     1      25.523  35.359  51.024  1.00  0.00    -0.385 N 
ATOM     11  H51 UNL     1      26.365  35.024  50.556  1.00  0.00     0.157 HD
ATOM     12  H52 UNL     1      25.101  36.242  50.735  1.00  0.00     0.157 HD
HETATM   13  C13 UNL     1      25.512  33.512  52.384  1.00  0.00     0.078 A 
HETATM   14  C14 UNL     1      26.659  33.074  51.731  1.00  0.00     0.117 A 
HETATM   15  N7  UNL     1      27.185  31.911  52.136  1.00  0.00    -0.322 N 
ATOM     16  H7  UNL     1      28.026  31.570  51.673  1.00  0.00     0.169 HD
ENDROOT
BRANCH   6  17
HETATM   17  N2  UNL     1      22.127  34.942  54.201  1.00  0.00    -0.364 N 
HETATM   18  C8  UNL     1      22.122  35.403  55.597  1.00  0.00     0.152 C 
HETATM   19  C9  UNL     1      20.679  35.516  56.028  1.00  0.00     0.252 C 
HETATM   20  N3  UNL     1      19.944  36.474  55.248  1.00  0.00    -0.072 N 
HETATM   21  C10 UNL     1      20.371  36.502  53.865  1.00  0.00     0.252 C 
ATOM     22  H32 UNL     1      18.940  36.313  55.320  1.00  0.00     0.277 HD
ATOM     23  H31 UNL     1      19.991  37.403  55.666  1.00  0.00     0.277 HD
HETATM   24  C11 UNL     1      20.854  35.083  53.524  1.00  0.00     0.152 C 
ENDBRANCH   6  17
BRANCH   1  25
HETATM   25  S1  UNL     1      27.498  29.649  53.521  1.00  0.00    -0.084 SA
BRANCH  25  26
HETATM   26  C3  UNL     1      26.327  28.311  53.823  1.00  0.00     0.193 C 
BRANCH  26  27
HETATM   27  C2  UNL     1      25.855  28.380  55.230  1.00  0.00     0.268 C 
HETATM   28  O2  UNL     1      26.295  27.573  56.112  1.00  0.00    -0.264 OA
BRANCH  27  29
HETATM   29  O1  UNL     1      24.926  29.303  55.690  1.00  0.00    -0.326 OA
HETATM   30  C1  UNL     1      24.628  29.432  57.052  1.00  0.00     0.213 C 
ENDBRANCH  27  29
ENDBRANCH  26  27
ENDBRANCH  25  26
ENDBRANCH   1  25
BRANCH  14  31
HETATM   31  N6  UNL     1      27.184  33.780  50.771  1.00  0.00    -0.385 N 
ATOM     32  H62 UNL     1      26.811  34.687  50.493  1.00  0.00     0.157 HD
ATOM     33  H61 UNL     1      27.998  33.436  50.260  1.00  0.00     0.157 HD
ENDBRANCH  14  31
TORSDOF 6
ENDMDL
