MODEL 1
REMARK VINA RESULT: -6.499219766      0.000      0.000
REMARK  2 active torsions:
REMARK  status: ('A' for Active; 'I' for Inactive)
REMARK    1  A    between atoms: C2_2  and  C4_4 
REMARK    2  A    between atoms: C4_4  and  C5_5 
ROOT
HETATM    1  C5  UNL     1      22.332  16.921  14.221  1.00  0.00     0.178 C 
HETATM    2  O1  UNL     1      20.985  16.841  13.769  1.00  0.00    -0.374 OA
HETATM    3  C6  UNL     1      20.700  17.607  12.682  1.00  0.00     0.128 C 
HETATM    4  C7  UNL     1      19.173  17.747  12.562  1.00  0.00     0.040 C 
HETATM    5  C8  UNL     1      21.089  16.853  11.397  1.00  0.00     0.112 C 
HETATM    6  S1  UNL     1      22.927  16.822  11.485  1.00  0.00    -0.112 SA
HETATM    7  C9  UNL     1      23.245  16.370  13.213  1.00  0.00     0.069 C 
HETATM    8  N1  UNL     1      24.225  15.581  13.390  1.00  0.00    -0.395 N 
ATOM      9  H11 UNL     1      24.860  15.198  12.689  1.00  0.00     0.156 HD
ATOM     10  H12 UNL     1      24.404  15.327  14.362  1.00  0.00     0.156 HD
ENDROOT
BRANCH   1  11
HETATM   11  C4  UNL     1      22.623  18.227  14.824  1.00  0.00     0.042 C 
BRANCH  11  12
HETATM   12  C2  UNL     1      22.463  18.455  16.268  1.00  0.00    -0.020 C 
HETATM   13  C1  UNL     1      23.139  17.484  17.194  1.00  0.00     0.009 C 
HETATM   14  C3  UNL     1      21.023  18.712  16.692  1.00  0.00     0.009 C 
ENDBRANCH  11  12
ENDBRANCH   1  11
TORSDOF 2
ENDMDL
MODEL 2
REMARK VINA RESULT: -5.602066344      1.599      1.801
REMARK  2 active torsions:
REMARK  status: ('A' for Active; 'I' for Inactive)
REMARK    1  A    between atoms: C2_2  and  C4_4 
REMARK    2  A    between atoms: C4_4  and  C5_5 
ROOT
HETATM    1  C5  UNL     1      21.095  17.096  13.941  1.00  0.00     0.178 C 
HETATM    2  O1  UNL     1      20.765  16.912  12.568  1.00  0.00    -0.374 OA
HETATM    3  C6  UNL     1      21.722  17.317  11.690  1.00  0.00     0.128 C 
HETATM    4  C7  UNL     1      21.090  17.448  10.294  1.00  0.00     0.040 C 
HETATM    5  C8  UNL     1      22.765  16.200  11.505  1.00  0.00     0.112 C 
HETATM    6  S1  UNL     1      23.611  16.159  13.140  1.00  0.00    -0.112 SA
HETATM    7  C9  UNL     1      22.231  16.245  14.314  1.00  0.00     0.069 C 
HETATM    8  N1  UNL     1      22.364  15.527  15.354  1.00  0.00    -0.395 N 
ATOM      9  H11 UNL     1      23.153  14.936  15.613  1.00  0.00     0.156 HD
ATOM     10  H12 UNL     1      21.588  15.577  16.014  1.00  0.00     0.156 HD
ENDROOT
BRANCH   1  11
HETATM   11  C4  UNL     1      21.103  18.517  14.308  1.00  0.00     0.042 C 
BRANCH  11  12
HETATM   12  C2  UNL     1      21.603  18.966  15.615  1.00  0.00    -0.020 C 
HETATM   13  C1  UNL     1      23.091  18.948  15.823  1.00  0.00     0.009 C 
HETATM   14  C3  UNL     1      20.872  18.344  16.797  1.00  0.00     0.009 C 
ENDBRANCH  11  12
ENDBRANCH   1  11
TORSDOF 2
ENDMDL
MODEL 3
REMARK VINA RESULT: -5.255815509      2.343      4.507
REMARK  2 active torsions:
REMARK  status: ('A' for Active; 'I' for Inactive)
REMARK    1  A    between atoms: C2_2  and  C4_4 
REMARK    2  A    between atoms: C4_4  and  C5_5 
ROOT
HETATM    1  C5  UNL     1      22.230  16.468  12.904  1.00  0.00     0.178 C 
HETATM    2  O1  UNL     1      22.501  16.827  14.254  1.00  0.00    -0.374 OA
HETATM    3  C6  UNL     1      22.352  18.149  14.536  1.00  0.00     0.128 C 
HETATM    4  C7  UNL     1      23.056  18.454  15.869  1.00  0.00     0.040 C 
HETATM    5  C8  UNL     1      20.873  18.454  14.837  1.00  0.00     0.112 C 
HETATM    6  S1  UNL     1      20.069  18.226  13.197  1.00  0.00    -0.112 SA
HETATM    7  C9  UNL     1      20.814  16.688  12.588  1.00  0.00     0.069 C 
HETATM    8  N1  UNL     1      20.022  15.919  11.961  1.00  0.00    -0.395 N 
ATOM      9  H11 UNL     1      19.037  16.072  11.741  1.00  0.00     0.156 HD
ATOM     10  H12 UNL     1      20.441  15.054  11.618  1.00  0.00     0.156 HD
ENDROOT
BRANCH   1  11
HETATM   11  C4  UNL     1      23.263  16.975  11.993  1.00  0.00     0.042 C 
BRANCH  11  12
HETATM   12  C2  UNL     1      23.160  16.786  10.538  1.00  0.00    -0.020 C 
HETATM   13  C1  UNL     1      24.445  16.659   9.770  1.00  0.00     0.009 C 
HETATM   14  C3  UNL     1      22.205  17.759   9.861  1.00  0.00     0.009 C 
ENDBRANCH  11  12
ENDBRANCH   1  11
TORSDOF 2
ENDMDL
MODEL 4
REMARK VINA RESULT: -4.874633982      2.175      2.979
REMARK  2 active torsions:
REMARK  status: ('A' for Active; 'I' for Inactive)
REMARK    1  A    between atoms: C2_2  and  C4_4 
REMARK    2  A    between atoms: C4_4  and  C5_5 
ROOT
HETATM    1  C5  UNL     1      21.302  17.950  14.092  1.00  0.00     0.178 C 
HETATM    2  O1  UNL     1      22.539  17.751  13.417  1.00  0.00    -0.374 OA
HETATM    3  C6  UNL     1      22.742  16.489  12.952  1.00  0.00     0.128 C 
HETATM    4  C7  UNL     1      24.236  16.314  12.631  1.00  0.00     0.040 C 
HETATM    5  C8  UNL     1      22.062  16.323  11.581  1.00  0.00     0.112 C 
HETATM    6  S1  UNL     1      20.272  16.390  12.004  1.00  0.00    -0.112 SA
HETATM    7  C9  UNL     1      20.178  17.783  13.162  1.00  0.00     0.069 C 
HETATM    8  N1  UNL     1      19.147  18.516  13.039  1.00  0.00    -0.395 N 
ATOM      9  H11 UNL     1      18.367  18.400  12.392  1.00  0.00     0.156 HD
ATOM     10  H12 UNL     1      19.095  19.299  13.690  1.00  0.00     0.156 HD
ENDROOT
BRANCH   1  11
HETATM   11  C4  UNL     1      21.277  17.262  15.388  1.00  0.00     0.042 C 
BRANCH  11  12
HETATM   12  C2  UNL     1      21.565  17.978  16.639  1.00  0.00    -0.020 C 
HETATM   13  C1  UNL     1      22.409  19.218  16.541  1.00  0.00     0.009 C 
HETATM   14  C3  UNL     1      22.042  17.073  17.766  1.00  0.00     0.009 C 
ENDBRANCH  11  12
ENDBRANCH   1  11
TORSDOF 2
ENDMDL
MODEL 5
REMARK VINA RESULT: -4.843189422      1.838      2.496
REMARK  2 active torsions:
REMARK  status: ('A' for Active; 'I' for Inactive)
REMARK    1  A    between atoms: C2_2  and  C4_4 
REMARK    2  A    between atoms: C4_4  and  C5_5 
ROOT
HETATM    1  C5  UNL     1      23.085  16.222  11.776  1.00  0.00     0.178 C 
HETATM    2  O1  UNL     1      21.672  16.050  11.742  1.00  0.00    -0.374 OA
HETATM    3  C6  UNL     1      20.959  17.199  11.591  1.00  0.00     0.128 C 
HETATM    4  C7  UNL     1      19.496  16.928  11.980  1.00  0.00     0.040 C 
HETATM    5  C8  UNL     1      20.868  17.563  10.098  1.00  0.00     0.112 C 
HETATM    6  S1  UNL     1      22.602  18.025   9.686  1.00  0.00    -0.112 SA
HETATM    7  C9  UNL     1      23.572  16.716  10.482  1.00  0.00     0.069 C 
HETATM    8  N1  UNL     1      24.584  16.320   9.823  1.00  0.00    -0.395 N 
ATOM      9  H11 UNL     1      24.923  16.663   8.924  1.00  0.00     0.156 HD
ATOM     10  H12 UNL     1      25.130  15.584  10.272  1.00  0.00     0.156 HD
ENDROOT
BRANCH   1  11
HETATM   11  C4  UNL     1      23.519  16.882  13.013  1.00  0.00     0.042 C 
BRANCH  11  12
HETATM   12  C2  UNL     1      22.611  17.027  14.160  1.00  0.00    -0.020 C 
HETATM   13  C1  UNL     1      22.671  18.321  14.922  1.00  0.00     0.009 C 
HETATM   14  C3  UNL     1      22.617  15.830  15.101  1.00  0.00     0.009 C 
ENDBRANCH  11  12
ENDBRANCH   1  11
TORSDOF 2
ENDMDL
