MODEL 1
REMARK VINA RESULT: -6.046671888      0.000      0.000
REMARK  3 active torsions:
REMARK  status: ('A' for Active; 'I' for Inactive)
REMARK    1  A    between atoms: C8_8  and  N1_9 
REMARK    2  A    between atoms: C8_8  and  N2_13 
REMARK    3  A    between atoms: N2_13  and  O1_14 
ROOT
HETATM    1  C1  UNL     1      23.849  16.546  10.845  1.00  0.00     0.010 C 
HETATM    2  C2  UNL     1      22.854  16.323  11.945  1.00  0.00    -0.010 C 
HETATM    3  C3  UNL     1      23.104  17.305  13.034  1.00  0.00     0.013 C 
HETATM    4  C4  UNL     1      22.192  17.059  14.183  1.00  0.00    -0.044 C 
HETATM    5  C5  UNL     1      21.958  18.406  14.877  1.00  0.00     0.015 C 
HETATM    6  C6  UNL     1      22.911  16.198  15.231  1.00  0.00     0.015 C 
HETATM    7  C7  UNL     1      20.909  16.401  13.864  1.00  0.00     0.068 C 
HETATM    8  C8  UNL     1      20.409  16.533  12.477  1.00  0.00     0.222 C 
HETATM    9  C9  UNL     1      21.427  16.479  11.400  1.00  0.00     0.040 C 
HETATM   10  C10 UNL     1      21.391  17.657  10.454  1.00  0.00     0.014 C 
ENDROOT
BRANCH   8  11
HETATM   11  N1  UNL     1      19.562  17.734  12.404  1.00  0.00    -0.053 N 
ATOM     12  H13 UNL     1      19.211  18.023  13.317  1.00  0.00     0.276 HD
ATOM     13  H12 UNL     1      20.094  18.577  12.187  1.00  0.00     0.276 HD
ATOM     14  H11 UNL     1      18.814  17.558  11.734  1.00  0.00     0.276 HD
ENDBRANCH   8  11
BRANCH   8  15
HETATM   15  N2  UNL     1      19.475  15.431  12.262  1.00  0.00    -0.063 NA
BRANCH  15  16
HETATM   16  O1  UNL     1      18.321  15.722  12.491  1.00  0.00    -0.294 OA
ATOM     17  H1  UNL     1      17.705  15.356  11.866  1.00  0.00     0.238 HD
ENDBRANCH  15  16
ENDBRANCH   8  15
TORSDOF 3
ENDMDL
MODEL 2
REMARK VINA RESULT: -4.990915460      2.420      3.578
REMARK  3 active torsions:
REMARK  status: ('A' for Active; 'I' for Inactive)
REMARK    1  A    between atoms: C8_8  and  N1_9 
REMARK    2  A    between atoms: C8_8  and  N2_13 
REMARK    3  A    between atoms: N2_13  and  O1_14 
ROOT
HETATM    1  C1  UNL     1      23.889  16.717  10.820  1.00  0.00     0.010 C 
HETATM    2  C2  UNL     1      22.842  17.191  11.784  1.00  0.00    -0.010 C 
HETATM    3  C3  UNL     1      21.557  16.505  11.482  1.00  0.00     0.013 C 
HETATM    4  C4  UNL     1      20.471  17.013  12.362  1.00  0.00    -0.044 C 
HETATM    5  C5  UNL     1      19.464  15.872  12.552  1.00  0.00     0.015 C 
HETATM    6  C6  UNL     1      19.688  18.109  11.626  1.00  0.00     0.015 C 
HETATM    7  C7  UNL     1      20.895  17.562  13.666  1.00  0.00     0.068 C 
HETATM    8  C8  UNL     1      22.191  17.094  14.207  1.00  0.00     0.222 C 
HETATM    9  C9  UNL     1      23.284  16.894  13.224  1.00  0.00     0.040 C 
HETATM   10  C10 UNL     1      23.914  15.522  13.270  1.00  0.00     0.014 C 
ENDROOT
BRANCH   8  11
HETATM   11  N1  UNL     1      21.941  15.902  15.035  1.00  0.00    -0.053 N 
ATOM     12  H13 UNL     1      22.461  15.918  15.912  1.00  0.00     0.276 HD
ATOM     13  H12 UNL     1      21.001  15.888  15.431  1.00  0.00     0.276 HD
ATOM     14  H11 UNL     1      22.144  15.075  14.474  1.00  0.00     0.276 HD
ENDBRANCH   8  11
BRANCH   8  15
HETATM   15  N2  UNL     1      22.633  18.102  15.166  1.00  0.00    -0.063 NA
BRANCH  15  16
HETATM   16  O1  UNL     1      22.272  19.226  14.890  1.00  0.00    -0.294 OA
ATOM     17  H1  UNL     1      21.967  19.318  13.995  1.00  0.00     0.238 HD
ENDBRANCH  15  16
ENDBRANCH   8  15
TORSDOF 3
ENDMDL
MODEL 3
REMARK VINA RESULT: -4.688324653      2.583      3.552
REMARK  3 active torsions:
REMARK  status: ('A' for Active; 'I' for Inactive)
REMARK    1  A    between atoms: C8_8  and  N1_9 
REMARK    2  A    between atoms: C8_8  and  N2_13 
REMARK    3  A    between atoms: N2_13  and  O1_14 
ROOT
HETATM    1  C1  UNL     1      19.293  18.513  13.004  1.00  0.00     0.010 C 
HETATM    2  C2  UNL     1      20.672  18.359  13.574  1.00  0.00    -0.010 C 
HETATM    3  C3  UNL     1      20.572  18.169  15.046  1.00  0.00     0.013 C 
HETATM    4  C4  UNL     1      21.925  18.098  15.660  1.00  0.00    -0.044 C 
HETATM    5  C5  UNL     1      21.814  17.218  16.911  1.00  0.00     0.015 C 
HETATM    6  C6  UNL     1      22.318  19.484  16.190  1.00  0.00     0.015 C 
HETATM    7  C7  UNL     1      23.013  17.627  14.780  1.00  0.00     0.068 C 
HETATM    8  C8  UNL     1      22.631  16.789  13.622  1.00  0.00     0.222 C 
HETATM    9  C9  UNL     1      21.375  17.159  12.925  1.00  0.00     0.040 C 
HETATM   10  C10 UNL     1      20.386  16.025  12.790  1.00  0.00     0.014 C 
ENDROOT
BRANCH   8  11
HETATM   11  N1  UNL     1      22.657  15.379  14.045  1.00  0.00    -0.053 N 
ATOM     12  H13 UNL     1      21.923  15.157  14.717  1.00  0.00     0.276 HD
ATOM     13  H12 UNL     1      22.364  14.742  13.304  1.00  0.00     0.276 HD
ATOM     14  H11 UNL     1      23.590  15.168  14.398  1.00  0.00     0.276 HD
ENDBRANCH   8  11
BRANCH   8  15
HETATM   15  N2  UNL     1      23.722  16.887  12.657  1.00  0.00    -0.063 NA
BRANCH  15  16
HETATM   16  O1  UNL     1      23.346  16.981  11.508  1.00  0.00    -0.294 OA
ATOM     17  H1  UNL     1      22.512  16.556  11.345  1.00  0.00     0.238 HD
ENDBRANCH  15  16
ENDBRANCH   8  15
TORSDOF 3
ENDMDL
MODEL 4
REMARK VINA RESULT: -4.416761216      1.309      1.622
REMARK  3 active torsions:
REMARK  status: ('A' for Active; 'I' for Inactive)
REMARK    1  A    between atoms: C8_8  and  N1_9 
REMARK    2  A    between atoms: C8_8  and  N2_13 
REMARK    3  A    between atoms: N2_13  and  O1_14 
ROOT
HETATM    1  C1  UNL     1      24.505  15.608  13.429  1.00  0.00     0.010 C 
HETATM    2  C2  UNL     1      23.116  16.003  13.834  1.00  0.00    -0.010 C 
HETATM    3  C3  UNL     1      23.174  17.287  14.584  1.00  0.00     0.013 C 
HETATM    4  C4  UNL     1      21.824  17.669  15.077  1.00  0.00    -0.044 C 
HETATM    5  C5  UNL     1      21.780  19.200  15.153  1.00  0.00     0.015 C 
HETATM    6  C6  UNL     1      21.660  17.200  16.529  1.00  0.00     0.015 C 
HETATM    7  C7  UNL     1      20.679  17.148  14.304  1.00  0.00     0.068 C 
HETATM    8  C8  UNL     1      20.926  16.788  12.890  1.00  0.00     0.222 C 
HETATM    9  C9  UNL     1      22.230  16.149  12.589  1.00  0.00     0.040 C 
HETATM   10  C10 UNL     1      23.021  16.838  11.503  1.00  0.00     0.014 C 
ENDROOT
BRANCH   8  11
HETATM   11  N1  UNL     1      20.666  17.976  12.060  1.00  0.00    -0.053 N 
ATOM     12  H13 UNL     1      21.159  17.946  11.167  1.00  0.00     0.276 HD
ATOM     13  H12 UNL     1      19.715  17.999  11.693  1.00  0.00     0.276 HD
ATOM     14  H11 UNL     1      20.896  18.805  12.608  1.00  0.00     0.276 HD
ENDBRANCH   8  11
BRANCH   8  15
HETATM   15  N2  UNL     1      19.872  15.854  12.505  1.00  0.00    -0.063 NA
BRANCH  15  16
HETATM   16  O1  UNL     1      19.971  15.454  11.365  1.00  0.00    -0.294 OA
ATOM     17  H1  UNL     1      20.477  16.029  10.803  1.00  0.00     0.238 HD
ENDBRANCH  15  16
ENDBRANCH   8  15
TORSDOF 3
ENDMDL
MODEL 5
REMARK VINA RESULT: -3.609481404      2.375      3.533
REMARK  3 active torsions:
REMARK  status: ('A' for Active; 'I' for Inactive)
REMARK    1  A    between atoms: C8_8  and  N1_9 
REMARK    2  A    between atoms: C8_8  and  N2_13 
REMARK    3  A    between atoms: N2_13  and  O1_14 
ROOT
HETATM    1  C1  UNL     1      22.607  17.709   9.650  1.00  0.00     0.010 C 
HETATM    2  C2  UNL     1      21.969  17.776  11.006  1.00  0.00    -0.010 C 
HETATM    3  C3  UNL     1      20.752  16.921  11.015  1.00  0.00     0.013 C 
HETATM    4  C4  UNL     1      20.043  17.028  12.317  1.00  0.00    -0.044 C 
HETATM    5  C5  UNL     1      19.320  15.698  12.557  1.00  0.00     0.015 C 
HETATM    6  C6  UNL     1      18.920  18.069  12.203  1.00  0.00     0.015 C 
HETATM    7  C7  UNL     1      20.876  17.392  13.481  1.00  0.00     0.068 C 
HETATM    8  C8  UNL     1      22.323  17.094  13.397  1.00  0.00     0.222 C 
HETATM    9  C9  UNL     1      22.964  17.303  12.075  1.00  0.00     0.040 C 
HETATM   10  C10 UNL     1      23.710  16.099  11.552  1.00  0.00     0.014 C 
ENDROOT
BRANCH   8  11
HETATM   11  N1  UNL     1      22.547  15.741  13.933  1.00  0.00    -0.053 N 
ATOM     12  H13 UNL     1      22.274  15.657  14.912  1.00  0.00     0.276 HD
ATOM     13  H12 UNL     1      21.900  15.053  13.548  1.00  0.00     0.276 HD
ATOM     14  H11 UNL     1      23.523  15.493  13.775  1.00  0.00     0.276 HD
ENDBRANCH   8  11
BRANCH   8  15
HETATM   15  N2  UNL     1      22.988  17.968  14.358  1.00  0.00    -0.063 NA
BRANCH  15  16
HETATM   16  O1  UNL     1      22.331  18.940  14.666  1.00  0.00    -0.294 OA
ATOM     17  H1  UNL     1      21.896  18.855  15.506  1.00  0.00     0.238 HD
ENDBRANCH  15  16
ENDBRANCH   8  15
TORSDOF 3
ENDMDL
