MODEL 1
REMARK VINA RESULT: -7.803199245      0.000      0.000
REMARK  16 active torsions:
REMARK  status: ('A' for Active; 'I' for Inactive)
REMARK    1  A    between atoms: C2_2  and  O1_3 
REMARK    2  A    between atoms: C2_2  and  C3_5 
REMARK    3  A    between atoms: C3_5  and  O2_6 
REMARK    4  A    between atoms: C3_5  and  C4_8 
REMARK    5  A    between atoms: C4_8  and  O3_9 
REMARK    6  A    between atoms: C4_8  and  N1_11 
REMARK    7  A    between atoms: N1_11  and  C5_12 
REMARK    8  A    between atoms: N1_11  and  N10_47 
REMARK    9  A    between atoms: C6_15  and  N3_16 
REMARK   10  A    between atoms: C8_22  and  N5_23 
REMARK   11  A    between atoms: N5_23  and  C10_26 
REMARK   12  A    between atoms: C10_26  and  C11_27 
REMARK   13  A    between atoms: C11_27  and  C12_28 
REMARK   14  A    between atoms: N7_31  and  C13_32 
REMARK   15  A    between atoms: C15_36  and  O6_37 
REMARK   16  A    between atoms: C16_39  and  O7_40 
ROOT
HETATM    1  N5  UNL     1      28.739   7.979  10.076  1.00  0.00    -0.116 N 
HETATM    2  C9  UNL     1      29.213   9.002   9.284  1.00  0.00     0.199 C 
HETATM    3  N6  UNL     1      29.642   9.850   8.579  1.00  0.00    -0.171 NA
ENDROOT
BRANCH   1   4
HETATM    4  C8  UNL     1      28.755   6.654   9.478  1.00  0.00     0.702 A 
HETATM    5  N4  UNL     1      27.617   6.104   9.059  1.00  0.00    -0.184 N 
HETATM    6  C7  UNL     1      27.955   4.907   8.578  1.00  0.00     0.126 A 
ATOM      7  H4  UNL     1      26.683   6.512   9.097  1.00  0.00     0.184 HD
HETATM    8  C6  UNL     1      27.048   4.020   8.049  1.00  0.00     0.144 C 
HETATM    9  C17 UNL     1      29.346   4.731   8.715  1.00  0.00     0.158 A 
HETATM   10  N2  UNL     1      27.252   2.739   7.673  1.00  0.00    -0.173 N 
HETATM   11  C5  UNL     1      28.422   2.110   7.546  1.00  0.00     0.711 C 
ATOM     12  H2  UNL     1      26.418   2.191   7.463  1.00  0.00     0.186 HD
HETATM   13  N9  UNL     1      29.627   2.409   8.040  1.00  0.00    -0.152 N 
HETATM   14  C18 UNL     1      30.101   3.649   8.346  1.00  0.00     0.290 C 
ATOM     15  H9  UNL     1      30.259   1.625   8.207  1.00  0.00     0.187 HD
HETATM   16  O8  UNL     1      31.323   3.829   8.285  1.00  0.00    -0.265 OA
HETATM   17  N7  UNL     1      29.836   5.850   9.287  1.00  0.00    -0.125 N 
BRANCH   8  18
HETATM   18  N3  UNL     1      25.855   4.441   7.879  1.00  0.00    -0.383 N 
ATOM     19  H32 UNL     1      25.132   3.738   7.723  1.00  0.00     0.157 HD
ATOM     20  H31 UNL     1      25.751   5.455   7.922  1.00  0.00     0.157 HD
ENDBRANCH   8  18
BRANCH  11  21
HETATM   21  N1  UNL     1      28.348   0.914   6.734  1.00  0.00    -0.031 N 
BRANCH  21  22
HETATM   22  C4  UNL     1      29.033  -0.208   7.245  1.00  0.00     0.296 C 
BRANCH  22  23
HETATM   23  C3  UNL     1      29.792  -1.094   6.346  1.00  0.00     0.197 C 
BRANCH  23  24
HETATM   24  C2  UNL     1      29.000  -2.014   5.470  1.00  0.00     0.147 C 
HETATM   25  C1  UNL     1      29.350  -1.805   3.990  1.00  0.00     0.042 C 
BRANCH  24  26
HETATM   26  O1  UNL     1      29.246  -3.351   5.737  1.00  0.00    -0.393 OA
ATOM     27  H1  UNL     1      29.101  -3.464   6.669  1.00  0.00     0.210 HD
ENDBRANCH  24  26
ENDBRANCH  23  24
BRANCH  23  28
HETATM   28  O2  UNL     1      30.911  -1.677   6.927  1.00  0.00    -0.389 OA
ATOM     29  H2  UNL     1      31.540  -1.057   7.277  1.00  0.00     0.210 HD
ENDBRANCH  23  28
ENDBRANCH  22  23
BRANCH  22  30
HETATM   30  O3  UNL     1      28.049  -1.024   7.874  1.00  0.00    -0.371 OA
ATOM     31  H3  UNL     1      27.209  -0.732   7.542  1.00  0.00     0.212 HD
ENDBRANCH  22  30
ENDBRANCH  21  22
BRANCH  21  32
HETATM   32  N10 UNL     1      27.606   1.075   5.584  1.00  0.00    -0.019 N 
HETATM   33  O9  UNL     1      26.383   1.170   5.633  1.00  0.00    -0.516 OA
HETATM   34  O10 UNL     1      28.234   1.144   4.377  1.00  0.00    -0.516 OA
ENDBRANCH  21  32
ENDBRANCH  11  21
BRANCH  17  35
HETATM   35  C13 UNL     1      31.147   6.165   9.648  1.00  0.00     0.133 C 
HETATM   36  N8  UNL     1      31.840   5.487  10.707  1.00  0.00    -0.374 N 
HETATM   37  C14 UNL     1      33.112   6.112  10.771  1.00  0.00     0.155 C 
ATOM     38  H8  UNL     1      31.493   4.724  11.287  1.00  0.00     0.161 HD
HETATM   39  C15 UNL     1      33.228   7.157   9.717  1.00  0.00     0.172 C 
HETATM   40  C16 UNL     1      32.078   6.840   8.735  1.00  0.00     0.216 C 
BRANCH  39  41
HETATM   41  O6  UNL     1      32.990   8.393  10.311  1.00  0.00    -0.391 OA
ATOM     42  H6  UNL     1      33.761   8.932  10.183  1.00  0.00     0.210 HD
ENDBRANCH  39  41
BRANCH  40  43
HETATM   43  O7  UNL     1      32.616   6.274   7.652  1.00  0.00    -0.385 OA
ATOM     44  H7  UNL     1      32.732   6.714   6.817  1.00  0.00     0.210 HD
ENDBRANCH  40  43
ENDBRANCH  17  35
ENDBRANCH   1   4
BRANCH   1  45
HETATM   45  C10 UNL     1      28.244   8.116  11.392  1.00  0.00     0.170 C 
BRANCH  45  46
HETATM   46  C11 UNL     1      29.111   8.716  12.438  1.00  0.00     0.135 C 
BRANCH  46  47
HETATM   47  C12 UNL     1      30.394   8.122  12.740  1.00  0.00     0.174 C 
HETATM   48  O4  UNL     1      30.580   6.956  13.089  1.00  0.00    -0.648 OA
HETATM   49  O5  UNL     1      31.551   8.923  12.635  1.00  0.00    -0.648 OA
ENDBRANCH  46  47
ENDBRANCH  45  46
ENDBRANCH   1  45
TORSDOF 16
ENDMDL
MODEL 2
REMARK VINA RESULT: -7.391024079      8.016     14.172
REMARK  16 active torsions:
REMARK  status: ('A' for Active; 'I' for Inactive)
REMARK    1  A    between atoms: C2_2  and  O1_3 
REMARK    2  A    between atoms: C2_2  and  C3_5 
REMARK    3  A    between atoms: C3_5  and  O2_6 
REMARK    4  A    between atoms: C3_5  and  C4_8 
REMARK    5  A    between atoms: C4_8  and  O3_9 
REMARK    6  A    between atoms: C4_8  and  N1_11 
REMARK    7  A    between atoms: N1_11  and  C5_12 
REMARK    8  A    between atoms: N1_11  and  N10_47 
REMARK    9  A    between atoms: C6_15  and  N3_16 
REMARK   10  A    between atoms: C8_22  and  N5_23 
REMARK   11  A    between atoms: N5_23  and  C10_26 
REMARK   12  A    between atoms: C10_26  and  C11_27 
REMARK   13  A    between atoms: C11_27  and  C12_28 
REMARK   14  A    between atoms: N7_31  and  C13_32 
REMARK   15  A    between atoms: C15_36  and  O6_37 
REMARK   16  A    between atoms: C16_39  and  O7_40 
ROOT
HETATM    1  N5  UNL     1      35.513  -4.869  -1.718  1.00  0.00    -0.116 N 
HETATM    2  C9  UNL     1      36.734  -4.922  -1.082  1.00  0.00     0.199 C 
HETATM    3  N6  UNL     1      37.766  -4.940  -0.503  1.00  0.00    -0.171 NA
ENDROOT
BRANCH   1   4
HETATM    4  C8  UNL     1      34.382  -4.488  -0.889  1.00  0.00     0.702 A 
HETATM    5  N4  UNL     1      33.790  -3.309  -1.077  1.00  0.00    -0.184 N 
HETATM    6  C7  UNL     1      32.813  -3.252  -0.172  1.00  0.00     0.126 A 
ATOM      7  H4  UNL     1      34.034  -2.599  -1.768  1.00  0.00     0.184 HD
HETATM    8  C6  UNL     1      31.965  -2.177  -0.041  1.00  0.00     0.144 C 
HETATM    9  C17 UNL     1      32.817  -4.438   0.588  1.00  0.00     0.158 A 
HETATM   10  N2  UNL     1      31.047  -1.950   0.923  1.00  0.00    -0.173 N 
HETATM   11  C5  UNL     1      30.618  -2.808   1.851  1.00  0.00     0.711 C 
ATOM     12  H2  UNL     1      30.634  -1.017   0.944  1.00  0.00     0.186 HD
HETATM   13  N9  UNL     1      31.161  -3.942   2.302  1.00  0.00    -0.152 N 
HETATM   14  C18 UNL     1      31.980  -4.787   1.615  1.00  0.00     0.290 C 
ATOM     15  H9  UNL     1      30.940  -4.204   3.263  1.00  0.00     0.187 HD
HETATM   16  O8  UNL     1      31.974  -5.981   1.935  1.00  0.00    -0.265 OA
HETATM   17  N7  UNL     1      33.819  -5.209   0.118  1.00  0.00    -0.125 N 
BRANCH   8  18
HETATM   18  N3  UNL     1      32.036  -1.268  -0.934  1.00  0.00    -0.383 N 
ATOM     19  H32 UNL     1      31.170  -0.785  -1.175  1.00  0.00     0.157 HD
ATOM     20  H31 UNL     1      32.970  -1.119  -1.316  1.00  0.00     0.157 HD
ENDBRANCH   8  18
BRANCH  11  21
HETATM   21  N1  UNL     1      29.357  -2.427   2.449  1.00  0.00    -0.031 N 
BRANCH  21  22
HETATM   22  C4  UNL     1      29.449  -1.542   3.544  1.00  0.00     0.296 C 
BRANCH  22  23
HETATM   23  C3  UNL     1      29.264  -2.034   4.920  1.00  0.00     0.197 C 
BRANCH  23  24
HETATM   24  C2  UNL     1      29.740  -1.148   6.028  1.00  0.00     0.147 C 
HETATM   25  C1  UNL     1      28.607  -0.842   7.017  1.00  0.00     0.042 C 
BRANCH  24  26
HETATM   26  O1  UNL     1      30.755  -1.724   6.775  1.00  0.00    -0.393 OA
ATOM     27  H1  UNL     1      30.923  -2.572   6.381  1.00  0.00     0.210 HD
ENDBRANCH  24  26
ENDBRANCH  23  24
BRANCH  23  28
HETATM   28  O2  UNL     1      29.562  -3.380   5.092  1.00  0.00    -0.389 OA
ATOM     29  H2  UNL     1      29.258  -3.942   4.390  1.00  0.00     0.210 HD
ENDBRANCH  23  28
ENDBRANCH  22  23
BRANCH  22  30
HETATM   30  O3  UNL     1      28.450  -0.546   3.338  1.00  0.00    -0.371 OA
ATOM     31  H3  UNL     1      28.913   0.253   3.119  1.00  0.00     0.212 HD
ENDBRANCH  22  30
ENDBRANCH  21  22
BRANCH  21  32
HETATM   32  N10 UNL     1      28.262  -2.997   1.836  1.00  0.00    -0.019 N 
HETATM   33  O9  UNL     1      27.423  -2.301   1.273  1.00  0.00    -0.516 OA
HETATM   34  O10 UNL     1      28.114  -4.352   1.840  1.00  0.00    -0.516 OA
ENDBRANCH  21  32
ENDBRANCH  11  21
BRANCH  17  35
HETATM   35  C13 UNL     1      34.248  -6.468   0.542  1.00  0.00     0.133 C 
HETATM   36  N8  UNL     1      34.656  -6.729   1.894  1.00  0.00    -0.374 N 
HETATM   37  C14 UNL     1      35.037  -8.097   1.904  1.00  0.00     0.155 C 
ATOM     38  H8  UNL     1      34.670  -6.075   2.676  1.00  0.00     0.161 HD
HETATM   39  C15 UNL     1      34.824  -8.702   0.560  1.00  0.00     0.172 C 
HETATM   40  C16 UNL     1      33.894  -7.705  -0.166  1.00  0.00     0.216 C 
BRANCH  39  41
HETATM   41  O6  UNL     1      36.052  -8.735  -0.093  1.00  0.00    -0.391 OA
ATOM     42  H6  UNL     1      35.898  -9.006  -0.991  1.00  0.00     0.210 HD
ENDBRANCH  39  41
BRANCH  40  43
HETATM   43  O7  UNL     1      32.669  -8.237  -0.188  1.00  0.00    -0.385 OA
ATOM     44  H7  UNL     1      32.425  -9.003  -0.695  1.00  0.00     0.210 HD
ENDBRANCH  40  43
ENDBRANCH  17  35
ENDBRANCH   1   4
BRANCH   1  45
HETATM   45  C10 UNL     1      35.280  -5.156  -3.081  1.00  0.00     0.170 C 
BRANCH  45  46
HETATM   46  C11 UNL     1      34.823  -6.515  -3.471  1.00  0.00     0.135 C 
BRANCH  46  47
HETATM   47  C12 UNL     1      33.432  -6.748  -3.781  1.00  0.00     0.174 C 
HETATM   48  O4  UNL     1      32.493  -6.642  -2.992  1.00  0.00    -0.648 OA
HETATM   49  O5  UNL     1      33.088  -7.131  -5.096  1.00  0.00    -0.648 OA
ENDBRANCH  46  47
ENDBRANCH  45  46
ENDBRANCH   1  45
TORSDOF 16
ENDMDL
MODEL 3
REMARK VINA RESULT: -7.243514155      8.130     14.463
REMARK  16 active torsions:
REMARK  status: ('A' for Active; 'I' for Inactive)
REMARK    1  A    between atoms: C2_2  and  O1_3 
REMARK    2  A    between atoms: C2_2  and  C3_5 
REMARK    3  A    between atoms: C3_5  and  O2_6 
REMARK    4  A    between atoms: C3_5  and  C4_8 
REMARK    5  A    between atoms: C4_8  and  O3_9 
REMARK    6  A    between atoms: C4_8  and  N1_11 
REMARK    7  A    between atoms: N1_11  and  C5_12 
REMARK    8  A    between atoms: N1_11  and  N10_47 
REMARK    9  A    between atoms: C6_15  and  N3_16 
REMARK   10  A    between atoms: C8_22  and  N5_23 
REMARK   11  A    between atoms: N5_23  and  C10_26 
REMARK   12  A    between atoms: C10_26  and  C11_27 
REMARK   13  A    between atoms: C11_27  and  C12_28 
REMARK   14  A    between atoms: N7_31  and  C13_32 
REMARK   15  A    between atoms: C15_36  and  O6_37 
REMARK   16  A    between atoms: C16_39  and  O7_40 
ROOT
HETATM    1  N5  UNL     1      35.058  -4.998  -2.276  1.00  0.00    -0.116 N 
HETATM    2  C9  UNL     1      36.353  -4.862  -1.822  1.00  0.00     0.199 C 
HETATM    3  N6  UNL     1      37.448  -4.715  -1.402  1.00  0.00    -0.171 NA
ENDROOT
BRANCH   1   4
HETATM    4  C8  UNL     1      34.015  -4.615  -1.340  1.00  0.00     0.702 A 
HETATM    5  N4  UNL     1      33.295  -3.517  -1.563  1.00  0.00    -0.184 N 
HETATM    6  C7  UNL     1      32.444  -3.433  -0.541  1.00  0.00     0.126 A 
ATOM      7  H4  UNL     1      33.379  -2.873  -2.351  1.00  0.00     0.184 HD
HETATM    8  C6  UNL     1      31.524  -2.421  -0.403  1.00  0.00     0.144 C 
HETATM    9  C17 UNL     1      32.659  -4.520   0.329  1.00  0.00     0.158 A 
HETATM   10  N2  UNL     1      30.722  -2.157   0.651  1.00  0.00    -0.173 N 
HETATM   11  C5  UNL     1      30.500  -2.934   1.714  1.00  0.00     0.711 C 
ATOM     12  H2  UNL     1      30.230  -1.263   0.634  1.00  0.00     0.186 HD
HETATM   13  N9  UNL     1      31.202  -3.963   2.198  1.00  0.00    -0.152 N 
HETATM   14  C18 UNL     1      32.000  -4.814   1.493  1.00  0.00     0.290 C 
ATOM     15  H9  UNL     1      31.134  -4.130   3.203  1.00  0.00     0.187 HD
HETATM   16  O8  UNL     1      32.148  -5.960   1.933  1.00  0.00    -0.265 OA
HETATM   17  N7  UNL     1      33.658  -5.258  -0.195  1.00  0.00    -0.125 N 
BRANCH   8  18
HETATM   18  N3  UNL     1      31.392  -1.617  -1.386  1.00  0.00    -0.383 N 
ATOM     19  H32 UNL     1      32.239  -1.173  -1.740  1.00  0.00     0.157 HD
ATOM     20  H31 UNL     1      30.433  -1.506  -1.719  1.00  0.00     0.157 HD
ENDBRANCH   8  18
BRANCH  11  21
HETATM   21  N1  UNL     1      29.298  -2.588   2.441  1.00  0.00    -0.031 N 
BRANCH  21  22
HETATM   22  C4  UNL     1      29.480  -1.702   3.523  1.00  0.00     0.296 C 
BRANCH  22  23
HETATM   23  C3  UNL     1      29.259  -2.158   4.907  1.00  0.00     0.197 C 
BRANCH  23  24
HETATM   24  C2  UNL     1      29.686  -1.234   6.004  1.00  0.00     0.147 C 
HETATM   25  C1  UNL     1      28.579  -1.076   7.056  1.00  0.00     0.042 C 
BRANCH  24  26
HETATM   26  O1  UNL     1      30.801  -1.693   6.686  1.00  0.00    -0.393 OA
ATOM     27  H1  UNL     1      31.447  -0.999   6.631  1.00  0.00     0.210 HD
ENDBRANCH  24  26
ENDBRANCH  23  24
BRANCH  23  28
HETATM   28  O2  UNL     1      29.571  -3.494   5.126  1.00  0.00    -0.389 OA
ATOM     29  H2  UNL     1      29.708  -4.000   4.335  1.00  0.00     0.210 HD
ENDBRANCH  23  28
ENDBRANCH  22  23
BRANCH  22  30
HETATM   30  O3  UNL     1      28.577  -0.620   3.310  1.00  0.00    -0.371 OA
ATOM     31  H3  UNL     1      27.703  -0.990   3.355  1.00  0.00     0.212 HD
ENDBRANCH  22  30
ENDBRANCH  21  22
BRANCH  21  32
HETATM   32  N10 UNL     1      28.161  -3.187   1.941  1.00  0.00    -0.019 N 
HETATM   33  O9  UNL     1      27.221  -2.510   1.537  1.00  0.00    -0.516 OA
HETATM   34  O10 UNL     1      28.084  -4.545   1.880  1.00  0.00    -0.516 OA
ENDBRANCH  21  32
ENDBRANCH  11  21
BRANCH  17  35
HETATM   35  C13 UNL     1      34.255  -6.423   0.292  1.00  0.00     0.133 C 
HETATM   36  N8  UNL     1      34.904  -6.480   1.572  1.00  0.00    -0.374 N 
HETATM   37  C14 UNL     1      35.393  -7.809   1.675  1.00  0.00     0.155 C 
ATOM     38  H8  UNL     1      34.995  -5.730   2.257  1.00  0.00     0.161 HD
HETATM   39  C15 UNL     1      35.009  -8.596   0.471  1.00  0.00     0.172 C 
HETATM   40  C16 UNL     1      33.891  -7.761  -0.192  1.00  0.00     0.216 C 
BRANCH  39  41
HETATM   41  O6  UNL     1      36.109  -8.639  -0.380  1.00  0.00    -0.391 OA
ATOM     42  H6  UNL     1      36.652  -9.372  -0.119  1.00  0.00     0.210 HD
ENDBRANCH  39  41
BRANCH  40  43
HETATM   43  O7  UNL     1      32.728  -8.365   0.066  1.00  0.00    -0.385 OA
ATOM     44  H7  UNL     1      32.030  -7.985   0.587  1.00  0.00     0.210 HD
ENDBRANCH  40  43
ENDBRANCH  17  35
ENDBRANCH   1   4
BRANCH   1  45
HETATM   45  C10 UNL     1      34.676  -5.477  -3.548  1.00  0.00     0.170 C 
BRANCH  45  46
HETATM   46  C11 UNL     1      34.392  -6.924  -3.726  1.00  0.00     0.135 C 
BRANCH  46  47
HETATM   47  C12 UNL     1      35.475  -7.848  -3.974  1.00  0.00     0.174 C 
HETATM   48  O4  UNL     1      36.402  -8.091  -3.201  1.00  0.00    -0.648 OA
HETATM   49  O5  UNL     1      35.499  -8.547  -5.200  1.00  0.00    -0.648 OA
ENDBRANCH  46  47
ENDBRANCH  45  46
ENDBRANCH   1  45
TORSDOF 16
ENDMDL
MODEL 4
REMARK VINA RESULT: -7.218779301      7.904     13.735
REMARK  16 active torsions:
REMARK  status: ('A' for Active; 'I' for Inactive)
REMARK    1  A    between atoms: C2_2  and  O1_3 
REMARK    2  A    between atoms: C2_2  and  C3_5 
REMARK    3  A    between atoms: C3_5  and  O2_6 
REMARK    4  A    between atoms: C3_5  and  C4_8 
REMARK    5  A    between atoms: C4_8  and  O3_9 
REMARK    6  A    between atoms: C4_8  and  N1_11 
REMARK    7  A    between atoms: N1_11  and  C5_12 
REMARK    8  A    between atoms: N1_11  and  N10_47 
REMARK    9  A    between atoms: C6_15  and  N3_16 
REMARK   10  A    between atoms: C8_22  and  N5_23 
REMARK   11  A    between atoms: N5_23  and  C10_26 
REMARK   12  A    between atoms: C10_26  and  C11_27 
REMARK   13  A    between atoms: C11_27  and  C12_28 
REMARK   14  A    between atoms: N7_31  and  C13_32 
REMARK   15  A    between atoms: C15_36  and  O6_37 
REMARK   16  A    between atoms: C16_39  and  O7_40 
ROOT
HETATM    1  N5  UNL     1      35.290  -2.992  -2.318  1.00  0.00    -0.116 N 
HETATM    2  C9  UNL     1      34.939  -3.166  -3.640  1.00  0.00     0.199 C 
HETATM    3  N6  UNL     1      34.598  -3.332  -4.760  1.00  0.00    -0.171 NA
ENDROOT
BRANCH   1   4
HETATM    4  C8  UNL     1      34.188  -2.937  -1.372  1.00  0.00     0.702 A 
HETATM    5  N4  UNL     1      33.849  -1.774  -0.817  1.00  0.00    -0.184 N 
HETATM    6  C7  UNL     1      32.831  -2.050  -0.003  1.00  0.00     0.126 A 
ATOM      7  H4  UNL     1      34.280  -0.863  -0.980  1.00  0.00     0.184 HD
HETATM    8  C6  UNL     1      32.196  -1.102   0.764  1.00  0.00     0.144 C 
HETATM    9  C17 UNL     1      32.547  -3.429  -0.070  1.00  0.00     0.158 A 
HETATM   10  N2  UNL     1      31.262  -1.288   1.721  1.00  0.00    -0.173 N 
HETATM   11  C5  UNL     1      30.603  -2.415   2.000  1.00  0.00     0.711 C 
ATOM     12  H2  UNL     1      31.035  -0.477   2.296  1.00  0.00     0.186 HD
HETATM   13  N9  UNL     1      30.882  -3.684   1.687  1.00  0.00    -0.152 N 
HETATM   14  C18 UNL     1      31.578  -4.125   0.602  1.00  0.00     0.290 C 
ATOM     15  H9  UNL     1      30.536  -4.399   2.329  1.00  0.00     0.187 HD
HETATM   16  O8  UNL     1      31.318  -5.255   0.173  1.00  0.00    -0.265 OA
HETATM   17  N7  UNL     1      33.418  -3.973  -0.943  1.00  0.00    -0.125 N 
BRANCH   8  18
HETATM   18  N3  UNL     1      32.511   0.118   0.559  1.00  0.00    -0.383 N 
ATOM     19  H32 UNL     1      33.166   0.545   1.214  1.00  0.00     0.157 HD
ATOM     20  H31 UNL     1      32.067   0.541  -0.257  1.00  0.00     0.157 HD
ENDBRANCH   8  18
BRANCH  11  21
HETATM   21  N1  UNL     1      29.393  -2.201   2.765  1.00  0.00    -0.031 N 
BRANCH  21  22
HETATM   22  C4  UNL     1      29.536  -1.391   3.910  1.00  0.00     0.296 C 
BRANCH  22  23
HETATM   23  C3  UNL     1      29.205  -1.919   5.245  1.00  0.00     0.197 C 
BRANCH  23  24
HETATM   24  C2  UNL     1      29.739  -1.169   6.425  1.00  0.00     0.147 C 
HETATM   25  C1  UNL     1      28.739  -1.187   7.590  1.00  0.00     0.042 C 
BRANCH  24  26
HETATM   26  O1  UNL     1      30.913  -1.714   6.919  1.00  0.00    -0.393 OA
ATOM     27  H1  UNL     1      31.144  -2.420   6.327  1.00  0.00     0.210 HD
ENDBRANCH  24  26
ENDBRANCH  23  24
BRANCH  23  28
HETATM   28  O2  UNL     1      29.298  -3.301   5.354  1.00  0.00    -0.389 OA
ATOM     29  H2  UNL     1      29.051  -3.774   4.567  1.00  0.00     0.210 HD
ENDBRANCH  23  28
ENDBRANCH  22  23
BRANCH  22  30
HETATM   30  O3  UNL     1      28.694  -0.260   3.708  1.00  0.00    -0.371 OA
ATOM     31  H3  UNL     1      29.073   0.229   2.987  1.00  0.00     0.212 HD
ENDBRANCH  22  30
ENDBRANCH  21  22
BRANCH  21  32
HETATM   32  N10 UNL     1      28.288  -2.830   2.233  1.00  0.00    -0.019 N 
HETATM   33  O9  UNL     1      27.432  -2.192   1.628  1.00  0.00    -0.516 OA
HETATM   34  O10 UNL     1      28.148  -4.179   2.366  1.00  0.00    -0.516 OA
ENDBRANCH  21  32
ENDBRANCH  11  21
BRANCH  17  35
HETATM   35  C13 UNL     1      33.563  -5.302  -1.345  1.00  0.00     0.133 C 
HETATM   36  N8  UNL     1      34.031  -6.330  -0.458  1.00  0.00    -0.374 N 
HETATM   37  C14 UNL     1      34.060  -7.509  -1.247  1.00  0.00     0.155 C 
ATOM     38  H8  UNL     1      34.288  -6.233   0.524  1.00  0.00     0.161 HD
HETATM   39  C15 UNL     1      33.565  -7.223  -2.622  1.00  0.00     0.172 C 
HETATM   40  C16 UNL     1      32.841  -5.864  -2.494  1.00  0.00     0.216 C 
BRANCH  39  41
HETATM   41  O6  UNL     1      34.672  -7.071  -3.452  1.00  0.00    -0.391 OA
ATOM     42  H6  UNL     1      34.532  -6.300  -3.988  1.00  0.00     0.210 HD
ENDBRANCH  39  41
BRANCH  40  43
HETATM   43  O7  UNL     1      31.527  -6.103  -2.516  1.00  0.00    -0.385 OA
ATOM     44  H7  UNL     1      30.961  -5.919  -3.257  1.00  0.00     0.210 HD
ENDBRANCH  40  43
ENDBRANCH  17  35
ENDBRANCH   1   4
BRANCH   1  45
HETATM   45  C10 UNL     1      36.606  -2.858  -1.825  1.00  0.00     0.170 C 
BRANCH  45  46
HETATM   46  C11 UNL     1      37.580  -3.958  -2.040  1.00  0.00     0.135 C 
BRANCH  46  47
HETATM   47  C12 UNL     1      37.239  -5.309  -1.656  1.00  0.00     0.174 C 
HETATM   48  O4  UNL     1      37.188  -6.279  -2.412  1.00  0.00    -0.648 OA
HETATM   49  O5  UNL     1      36.935  -5.570  -0.302  1.00  0.00    -0.648 OA
ENDBRANCH  46  47
ENDBRANCH  45  46
ENDBRANCH   1  45
TORSDOF 16
ENDMDL
MODEL 5
REMARK VINA RESULT: -7.191661181      5.320     11.061
REMARK  16 active torsions:
REMARK  status: ('A' for Active; 'I' for Inactive)
REMARK    1  A    between atoms: C2_2  and  O1_3 
REMARK    2  A    between atoms: C2_2  and  C3_5 
REMARK    3  A    between atoms: C3_5  and  O2_6 
REMARK    4  A    between atoms: C3_5  and  C4_8 
REMARK    5  A    between atoms: C4_8  and  O3_9 
REMARK    6  A    between atoms: C4_8  and  N1_11 
REMARK    7  A    between atoms: N1_11  and  C5_12 
REMARK    8  A    between atoms: N1_11  and  N10_47 
REMARK    9  A    between atoms: C6_15  and  N3_16 
REMARK   10  A    between atoms: C8_22  and  N5_23 
REMARK   11  A    between atoms: N5_23  and  C10_26 
REMARK   12  A    between atoms: C10_26  and  C11_27 
REMARK   13  A    between atoms: C11_27  and  C12_28 
REMARK   14  A    between atoms: N7_31  and  C13_32 
REMARK   15  A    between atoms: C15_36  and  O6_37 
REMARK   16  A    between atoms: C16_39  and  O7_40 
ROOT
HETATM    1  N5  UNL     1      32.527  -2.383  -0.921  1.00  0.00    -0.116 N 
HETATM    2  C9  UNL     1      32.044  -1.841  -2.093  1.00  0.00     0.199 C 
HETATM    3  N6  UNL     1      31.591  -1.365  -3.076  1.00  0.00    -0.171 NA
ENDROOT
BRANCH   1   4
HETATM    4  C8  UNL     1      31.905  -1.905   0.302  1.00  0.00     0.702 A 
HETATM    5  N4  UNL     1      30.977  -2.645   0.907  1.00  0.00    -0.184 N 
HETATM    6  C7  UNL     1      30.600  -1.943   1.975  1.00  0.00     0.126 A 
ATOM      7  H4  UNL     1      30.628  -3.558   0.613  1.00  0.00     0.184 HD
HETATM    8  C6  UNL     1      29.644  -2.373   2.865  1.00  0.00     0.144 C 
HETATM    9  C17 UNL     1      31.327  -0.737   2.015  1.00  0.00     0.158 A 
HETATM   10  N2  UNL     1      29.084  -1.690   3.886  1.00  0.00    -0.173 N 
HETATM   11  C5  UNL     1      29.476  -0.515   4.385  1.00  0.00     0.711 C 
ATOM     12  H2  UNL     1      28.271  -2.120   4.327  1.00  0.00     0.186 HD
HETATM   13  N9  UNL     1      30.253   0.437   3.857  1.00  0.00    -0.152 N 
HETATM   14  C18 UNL     1      31.250   0.266   2.945  1.00  0.00     0.290 C 
ATOM     15  H9  UNL     1      30.080   1.392   4.171  1.00  0.00     0.187 HD
HETATM   16  O8  UNL     1      32.178   1.083   2.949  1.00  0.00    -0.265 OA
HETATM   17  N7  UNL     1      32.150  -0.731   0.946  1.00  0.00    -0.125 N 
BRANCH   8  18
HETATM   18  N3  UNL     1      29.218  -3.568   2.727  1.00  0.00    -0.383 N 
ATOM     19  H32 UNL     1      29.463  -4.236   3.459  1.00  0.00     0.157 HD
ATOM     20  H31 UNL     1      28.665  -3.729   1.885  1.00  0.00     0.157 HD
ENDBRANCH   8  18
BRANCH  11  21
HETATM   21  N1  UNL     1      28.965  -0.253   5.713  1.00  0.00    -0.031 N 
BRANCH  21  22
HETATM   22  C4  UNL     1      28.144   0.887   5.832  1.00  0.00     0.296 C 
BRANCH  22  23
HETATM   23  C3  UNL     1      28.176   1.707   7.056  1.00  0.00     0.197 C 
BRANCH  23  24
HETATM   24  C2  UNL     1      27.165   2.804   7.166  1.00  0.00     0.147 C 
HETATM   25  C1  UNL     1      27.814   4.106   7.657  1.00  0.00     0.042 C 
BRANCH  24  26
HETATM   26  O1  UNL     1      26.570   3.108   5.952  1.00  0.00    -0.393 OA
ATOM     27  H1  UNL     1      26.267   2.281   5.594  1.00  0.00     0.210 HD
ENDBRANCH  24  26
ENDBRANCH  23  24
BRANCH  23  28
HETATM   28  O2  UNL     1      29.453   2.058   7.476  1.00  0.00    -0.389 OA
ATOM     29  H2  UNL     1      29.536   2.184   8.414  1.00  0.00     0.210 HD
ENDBRANCH  23  28
ENDBRANCH  22  23
BRANCH  22  30
HETATM   30  O3  UNL     1      26.801   0.429   5.693  1.00  0.00    -0.371 OA
ATOM     31  H3  UNL     1      26.449   0.867   4.927  1.00  0.00     0.212 HD
ENDBRANCH  22  30
ENDBRANCH  21  22
BRANCH  21  32
HETATM   32  N10 UNL     1      29.370  -1.180   6.650  1.00  0.00    -0.019 N 
HETATM   33  O9  UNL     1      28.546  -1.823   7.294  1.00  0.00    -0.516 OA
HETATM   34  O10 UNL     1      30.699  -1.397   6.856  1.00  0.00    -0.516 OA
ENDBRANCH  21  32
ENDBRANCH  11  21
BRANCH  17  35
HETATM   35  C13 UNL     1      33.058   0.242   0.527  1.00  0.00     0.133 C 
HETATM   36  N8  UNL     1      32.656   1.580   0.193  1.00  0.00    -0.374 N 
HETATM   37  C14 UNL     1      33.852   2.233  -0.203  1.00  0.00     0.155 C 
ATOM     38  H8  UNL     1      31.717   1.974   0.233  1.00  0.00     0.161 HD
HETATM   39  C15 UNL     1      35.013   1.309  -0.076  1.00  0.00     0.172 C 
HETATM   40  C16 UNL     1      34.494   0.165   0.824  1.00  0.00     0.216 C 
BRANCH  39  41
HETATM   41  O6  UNL     1      35.295   0.800  -1.339  1.00  0.00    -0.391 OA
ATOM     42  H6  UNL     1      36.235   0.846  -1.470  1.00  0.00     0.210 HD
ENDBRANCH  39  41
BRANCH  40  43
HETATM   43  O7  UNL     1      35.023   0.335   2.039  1.00  0.00    -0.385 OA
ATOM     44  H7  UNL     1      35.782  -0.135   2.363  1.00  0.00     0.210 HD
ENDBRANCH  40  43
ENDBRANCH  17  35
ENDBRANCH   1   4
BRANCH   1  45
HETATM   45  C10 UNL     1      33.561  -3.339  -0.820  1.00  0.00     0.170 C 
BRANCH  45  46
HETATM   46  C11 UNL     1      33.334  -4.714  -1.332  1.00  0.00     0.135 C 
BRANCH  46  47
HETATM   47  C12 UNL     1      32.120  -5.421  -0.992  1.00  0.00     0.174 C 
HETATM   48  O4  UNL     1      31.343  -5.940  -1.794  1.00  0.00    -0.648 OA
HETATM   49  O5  UNL     1      31.770  -5.545   0.370  1.00  0.00    -0.648 OA
ENDBRANCH  46  47
ENDBRANCH  45  46
ENDBRANCH   1  45
TORSDOF 16
ENDMDL
