MODEL 1
REMARK VINA RESULT: -10.364304759      0.000      0.000
REMARK  14 active torsions:
REMARK  status: ('A' for Active; 'I' for Inactive)
REMARK    1  A    between atoms: N1_1  and  C1_4 
REMARK    2  A    between atoms: C2_7  and  N3_8 
REMARK    3  A    between atoms: N4_10  and  N5_12 
REMARK       I    between atoms: N5_12  and  C3_14 
REMARK    4  A    between atoms: C3_14  and  C4_16 
REMARK    5  A    between atoms: C4_16  and  C5_17 
REMARK    6  A    between atoms: C4_16  and  C6_22 
REMARK    7  A    between atoms: C5_17  and  N6_18 
REMARK    8  A    between atoms: C6_22  and  N7_23 
REMARK    9  A    between atoms: C8_25  and  C9_26 
REMARK   10  A    between atoms: C10_28  and  C11_29 
REMARK   11  A    between atoms: C13_36  and  N10_37 
REMARK   12  A    between atoms: C14_43  and  C15_44 
REMARK   13  A    between atoms: C15_44  and  O5_45 
REMARK   14  A    between atoms: C16_47  and  O6_48 
ROOT
HETATM    1  N7  UNL     1      28.670   0.247   5.104  1.00  0.00    -0.286 N 
HETATM    2  C7  UNL     1      28.075  -0.810   4.481  1.00  0.00     0.140 A 
HETATM    3  C8  UNL     1      28.929  -1.302   3.516  1.00  0.00     0.076 A 
HETATM    4  N12 UNL     1      30.025  -0.522   3.584  1.00  0.00    -0.286 N 
ATOM      5  H12 UNL     1      30.859  -0.613   3.003  1.00  0.00     0.188 HD
HETATM    6  N13 UNL     1      29.835   0.391   4.542  1.00  0.00    -0.241 N 
ATOM      7  H13 UNL     1      30.515   1.107   4.798  1.00  0.00     0.208 HD
ENDROOT
BRANCH   1   8
HETATM    8  C6  UNL     1      28.025   0.986   6.171  1.00  0.00     0.165 C 
BRANCH   8   9
HETATM    9  C4  UNL     1      29.052   1.216   7.258  1.00  0.00     0.125 C 
BRANCH   9  10
HETATM   10  C3  UNL     1      28.647   2.427   7.997  1.00  0.00     0.244 C 
HETATM   11  N5  UNL     1      28.864   3.720   7.450  1.00  0.00    -0.255 N 
ATOM     12  H5  UNL     1      29.306   3.833   6.538  1.00  0.00     0.191 HD
HETATM   13  O1  UNL     1      28.096   2.302   9.136  1.00  0.00    -0.271 OA
BRANCH  11  14
HETATM   14  N4  UNL     1      28.451   4.854   8.200  1.00  0.00    -0.226 N 
HETATM   15  N3  UNL     1      28.972   5.993   8.005  1.00  0.00    -0.117 N 
ATOM     16  H3  UNL     1      28.663   6.794   8.554  1.00  0.00     0.207 HD
ATOM     17  H4  UNL     1      27.723   4.750   8.907  1.00  0.00     0.209 HD
BRANCH  15  18
HETATM   18  C2  UNL     1      29.987   6.157   7.022  1.00  0.00     0.716 A 
HETATM   19  N2  UNL     1      31.270   5.901   7.335  1.00  0.00    -0.021 N 
HETATM   20  C1  UNL     1      32.252   6.048   6.424  1.00  0.00     0.694 A 
ATOM     21  H2  UNL     1      31.503   5.589   8.278  1.00  0.00     0.203 HD
HETATM   22  N15 UNL     1      31.905   6.459   5.198  1.00  0.00    -0.141 N 
HETATM   23  C17 UNL     1      30.650   6.728   4.834  1.00  0.00     0.352 A 
ATOM     24  H15 UNL     1      32.642   6.573   4.503  1.00  0.00     0.189 HD
HETATM   25  N14 UNL     1      29.682   6.567   5.782  1.00  0.00    -0.139 N 
HETATM   26  O7  UNL     1      30.384   7.107   3.675  1.00  0.00    -0.246 OA
ATOM     27  H14 UNL     1      28.710   6.762   5.544  1.00  0.00     0.189 HD
BRANCH  20  28
HETATM   28  N1  UNL     1      33.493   5.799   6.729  1.00  0.00    -0.234 N 
ATOM     29  H12 UNL     1      33.762   4.931   7.191  1.00  0.00     0.174 HD
ATOM     30  H11 UNL     1      34.231   6.469   6.513  1.00  0.00     0.174 HD
ENDBRANCH  20  28
ENDBRANCH  15  18
ENDBRANCH  11  14
ENDBRANCH   9  10
BRANCH   9  31
HETATM   31  C5  UNL     1      29.259   0.028   8.128  1.00  0.00     0.245 C 
BRANCH  31  32
HETATM   32  N6  UNL     1      28.115  -0.524   8.757  1.00  0.00    -0.078 N 
ATOM     33  H63 UNL     1      27.278  -0.064   8.400  1.00  0.00     0.274 HD
ATOM     34  H62 UNL     1      27.969  -1.475   8.419  1.00  0.00     0.274 HD
ATOM     35  H61 UNL     1      28.094  -0.519   9.777  1.00  0.00     0.274 HD
ENDBRANCH  31  32
ENDBRANCH   9  31
ENDBRANCH   8   9
ENDBRANCH   1   8
BRANCH   3  36
HETATM   36  C9  UNL     1      28.693  -2.462   2.584  1.00  0.00     0.209 C 
HETATM   37  O2  UNL     1      27.732  -2.247   1.675  1.00  0.00    -0.340 OA
HETATM   38  C10 UNL     1      27.846  -2.687   0.421  1.00  0.00     0.330 C 
HETATM   39  O4  UNL     1      28.877  -3.483   0.060  1.00  0.00    -0.344 OA
HETATM   40  C14 UNL     1      29.682  -3.983   1.022  1.00  0.00     0.180 C 
HETATM   41  C16 UNL     1      30.030  -2.836   1.980  1.00  0.00     0.184 C 
BRANCH  38  42
HETATM   42  C11 UNL     1      26.573  -3.397   0.048  1.00  0.00     0.157 A 
HETATM   43  N8  UNL     1      25.495  -2.739  -0.420  1.00  0.00    -0.293 N 
HETATM   44  C12 UNL     1      24.364  -3.386  -0.750  1.00  0.00     0.340 A 
ATOM     45  H8  UNL     1      25.538  -1.726  -0.526  1.00  0.00     0.172 HD
HETATM   46  O3  UNL     1      23.369  -2.752  -1.185  1.00  0.00    -0.246 OA
HETATM   47  N9  UNL     1      24.255  -4.715  -0.628  1.00  0.00    -0.141 N 
HETATM   48  C13 UNL     1      25.320  -5.397  -0.163  1.00  0.00     0.681 A 
ATOM     49  H9  UNL     1      23.392  -5.197  -0.881  1.00  0.00     0.189 HD
HETATM   50  N11 UNL     1      26.454  -4.732   0.165  1.00  0.00    -0.175 N 
ATOM     51  H11 UNL     1      27.250  -5.265   0.516  1.00  0.00     0.185 HD
BRANCH  48  52
HETATM   52  N10 UNL     1      25.241  -6.676  -0.038  1.00  0.00    -0.234 N 
ATOM     53 2H10 UNL     1      24.949  -7.100   0.842  1.00  0.00     0.174 HD
ATOM     54 1H10 UNL     1      25.474  -7.271  -0.834  1.00  0.00     0.174 HD
ENDBRANCH  48  52
ENDBRANCH  38  42
BRANCH  40  55
HETATM   55  C15 UNL     1      30.943  -4.562   0.457  1.00  0.00     0.198 C 
BRANCH  55  56
HETATM   56  O5  UNL     1      30.609  -5.237  -0.724  1.00  0.00    -0.398 OA
ATOM     57  H5  UNL     1      29.801  -5.712  -0.566  1.00  0.00     0.209 HD
ENDBRANCH  55  56
ENDBRANCH  40  55
BRANCH  41  58
HETATM   58  O6  UNL     1      30.472  -1.732   1.255  1.00  0.00    -0.390 OA
ATOM     59  H6  UNL     1      31.329  -1.501   1.596  1.00  0.00     0.210 HD
ENDBRANCH  41  58
ENDBRANCH   3  36
TORSDOF 14
ENDMDL
MODEL 2
REMARK VINA RESULT: -10.348506383      1.351      1.712
REMARK  14 active torsions:
REMARK  status: ('A' for Active; 'I' for Inactive)
REMARK    1  A    between atoms: N1_1  and  C1_4 
REMARK    2  A    between atoms: C2_7  and  N3_8 
REMARK    3  A    between atoms: N4_10  and  N5_12 
REMARK       I    between atoms: N5_12  and  C3_14 
REMARK    4  A    between atoms: C3_14  and  C4_16 
REMARK    5  A    between atoms: C4_16  and  C5_17 
REMARK    6  A    between atoms: C4_16  and  C6_22 
REMARK    7  A    between atoms: C5_17  and  N6_18 
REMARK    8  A    between atoms: C6_22  and  N7_23 
REMARK    9  A    between atoms: C8_25  and  C9_26 
REMARK   10  A    between atoms: C10_28  and  C11_29 
REMARK   11  A    between atoms: C13_36  and  N10_37 
REMARK   12  A    between atoms: C14_43  and  C15_44 
REMARK   13  A    between atoms: C15_44  and  O5_45 
REMARK   14  A    between atoms: C16_47  and  O6_48 
ROOT
HETATM    1  N7  UNL     1      28.495   0.327   5.223  1.00  0.00    -0.286 N 
HETATM    2  C7  UNL     1      27.930  -0.727   4.569  1.00  0.00     0.140 A 
HETATM    3  C8  UNL     1      28.854  -1.262   3.696  1.00  0.00     0.076 A 
HETATM    4  N12 UNL     1      29.961  -0.509   3.848  1.00  0.00    -0.286 N 
ATOM      5  H12 UNL     1      30.841  -0.633   3.348  1.00  0.00     0.188 HD
HETATM    6  N13 UNL     1      29.710   0.429   4.767  1.00  0.00    -0.241 N 
ATOM      7  H13 UNL     1      30.383   1.132   5.071  1.00  0.00     0.208 HD
ENDROOT
BRANCH   1   8
HETATM    8  C6  UNL     1      27.776   1.105   6.214  1.00  0.00     0.165 C 
BRANCH   8   9
HETATM    9  C4  UNL     1      28.729   1.395   7.351  1.00  0.00     0.125 C 
BRANCH   9  10
HETATM   10  C3  UNL     1      28.169   2.525   8.117  1.00  0.00     0.244 C 
HETATM   11  N5  UNL     1      27.624   3.656   7.452  1.00  0.00    -0.255 N 
ATOM     12  H5  UNL     1      27.614   3.706   6.433  1.00  0.00     0.191 HD
HETATM   13  O1  UNL     1      28.177   2.478   9.388  1.00  0.00    -0.271 OA
BRANCH  11  14
HETATM   14  N4  UNL     1      27.094   4.716   8.234  1.00  0.00    -0.226 N 
HETATM   15  N3  UNL     1      27.832   5.663   8.640  1.00  0.00    -0.117 N 
ATOM     16  H3  UNL     1      27.432   6.414   9.202  1.00  0.00     0.207 HD
ATOM     17  H4  UNL     1      26.102   4.715   8.474  1.00  0.00     0.209 HD
BRANCH  15  18
HETATM   18  C2  UNL     1      29.216   5.682   8.314  1.00  0.00     0.716 A 
HETATM   19  N2  UNL     1      29.615   6.137   7.113  1.00  0.00    -0.021 N 
HETATM   20  C1  UNL     1      30.920   6.165   6.778  1.00  0.00     0.694 A 
ATOM     21  H2  UNL     1      28.918   6.465   6.445  1.00  0.00     0.203 HD
HETATM   22  N15 UNL     1      31.804   5.726   7.683  1.00  0.00    -0.141 N 
HETATM   23  C17 UNL     1      31.464   5.265   8.888  1.00  0.00     0.352 A 
ATOM     24  H15 UNL     1      32.793   5.745   7.437  1.00  0.00     0.189 HD
HETATM   25  N14 UNL     1      30.134   5.250   9.192  1.00  0.00    -0.139 N 
HETATM   26  O7  UNL     1      32.331   4.868   9.693  1.00  0.00    -0.246 OA
ATOM     27  H14 UNL     1      29.832   4.905  10.103  1.00  0.00     0.189 HD
BRANCH  20  28
HETATM   28  N1  UNL     1      31.304   6.606   5.614  1.00  0.00    -0.234 N 
ATOM     29  H12 UNL     1      31.622   7.567   5.490  1.00  0.00     0.174 HD
ATOM     30  H11 UNL     1      31.298   5.999   4.794  1.00  0.00     0.174 HD
ENDBRANCH  20  28
ENDBRANCH  15  18
ENDBRANCH  11  14
ENDBRANCH   9  10
BRANCH   9  31
HETATM   31  C5  UNL     1      29.026   0.200   8.186  1.00  0.00     0.245 C 
BRANCH  31  32
HETATM   32  N6  UNL     1      27.980  -0.298   9.003  1.00  0.00    -0.078 N 
ATOM     33  H63 UNL     1      28.178  -0.075   9.978  1.00  0.00     0.274 HD
ATOM     34  H62 UNL     1      27.137   0.255   8.848  1.00  0.00     0.274 HD
ATOM     35  H61 UNL     1      27.755  -1.289   8.922  1.00  0.00     0.274 HD
ENDBRANCH  31  32
ENDBRANCH   9  31
ENDBRANCH   8   9
ENDBRANCH   1   8
BRANCH   3  36
HETATM   36  C9  UNL     1      28.673  -2.434   2.768  1.00  0.00     0.209 C 
HETATM   37  O2  UNL     1      27.755  -2.239   1.811  1.00  0.00    -0.340 OA
HETATM   38  C10 UNL     1      27.932  -2.693   0.569  1.00  0.00     0.330 C 
HETATM   39  O4  UNL     1      28.985  -3.485   0.268  1.00  0.00    -0.344 OA
HETATM   40  C14 UNL     1      29.748  -3.967   1.274  1.00  0.00     0.180 C 
HETATM   41  C16 UNL     1      30.039  -2.805   2.233  1.00  0.00     0.184 C 
BRANCH  38  42
HETATM   42  C11 UNL     1      26.684  -3.419   0.145  1.00  0.00     0.157 A 
HETATM   43  N8  UNL     1      25.622  -2.775  -0.377  1.00  0.00    -0.293 N 
HETATM   44  C12 UNL     1      24.513  -3.435  -0.752  1.00  0.00     0.340 A 
ATOM     45  H8  UNL     1      25.660  -1.762  -0.489  1.00  0.00     0.172 HD
HETATM   46  O3  UNL     1      23.533  -2.815  -1.237  1.00  0.00    -0.246 OA
HETATM   47  N9  UNL     1      24.412  -4.764  -0.625  1.00  0.00    -0.141 N 
HETATM   48  C13 UNL     1      25.460  -5.432  -0.106  1.00  0.00     0.681 A 
ATOM     49  H9  UNL     1      23.565  -5.256  -0.912  1.00  0.00     0.189 HD
HETATM   50  N11 UNL     1      26.572  -4.754   0.268  1.00  0.00    -0.175 N 
ATOM     51  H11 UNL     1      27.356  -5.276   0.659  1.00  0.00     0.185 HD
BRANCH  48  52
HETATM   52  N10 UNL     1      25.387  -6.711   0.027  1.00  0.00    -0.234 N 
ATOM     53 2H10 UNL     1      24.739  -7.261  -0.535  1.00  0.00     0.174 HD
ATOM     54 1H10 UNL     1      25.990  -7.177   0.705  1.00  0.00     0.174 HD
ENDBRANCH  48  52
ENDBRANCH  38  42
BRANCH  40  55
HETATM   55  C15 UNL     1      31.038  -4.541   0.777  1.00  0.00     0.198 C 
BRANCH  55  56
HETATM   56  O5  UNL     1      31.967  -4.465   1.823  1.00  0.00    -0.398 OA
ATOM     57  H5  UNL     1      32.362  -5.324   1.920  1.00  0.00     0.209 HD
ENDBRANCH  55  56
ENDBRANCH  40  55
BRANCH  41  58
HETATM   58  O6  UNL     1      30.507  -1.706   1.516  1.00  0.00    -0.390 OA
ATOM     59  H6  UNL     1      31.240  -1.347   2.004  1.00  0.00     0.210 HD
ENDBRANCH  41  58
ENDBRANCH   3  36
TORSDOF 14
ENDMDL
MODEL 3
REMARK VINA RESULT: -10.285063624      1.037      1.156
REMARK  14 active torsions:
REMARK  status: ('A' for Active; 'I' for Inactive)
REMARK    1  A    between atoms: N1_1  and  C1_4 
REMARK    2  A    between atoms: C2_7  and  N3_8 
REMARK    3  A    between atoms: N4_10  and  N5_12 
REMARK       I    between atoms: N5_12  and  C3_14 
REMARK    4  A    between atoms: C3_14  and  C4_16 
REMARK    5  A    between atoms: C4_16  and  C5_17 
REMARK    6  A    between atoms: C4_16  and  C6_22 
REMARK    7  A    between atoms: C5_17  and  N6_18 
REMARK    8  A    between atoms: C6_22  and  N7_23 
REMARK    9  A    between atoms: C8_25  and  C9_26 
REMARK   10  A    between atoms: C10_28  and  C11_29 
REMARK   11  A    between atoms: C13_36  and  N10_37 
REMARK   12  A    between atoms: C14_43  and  C15_44 
REMARK   13  A    between atoms: C15_44  and  O5_45 
REMARK   14  A    between atoms: C16_47  and  O6_48 
ROOT
HETATM    1  N7  UNL     1      28.524   0.324   5.228  1.00  0.00    -0.286 N 
HETATM    2  C7  UNL     1      27.960  -0.734   4.580  1.00  0.00     0.140 A 
HETATM    3  C8  UNL     1      28.878  -1.263   3.697  1.00  0.00     0.076 A 
HETATM    4  N12 UNL     1      29.981  -0.503   3.837  1.00  0.00    -0.286 N 
ATOM      5  H12 UNL     1      30.856  -0.621   3.327  1.00  0.00     0.188 HD
HETATM    6  N13 UNL     1      29.734   0.434   4.759  1.00  0.00    -0.241 N 
ATOM      7  H13 UNL     1      30.406   1.142   5.056  1.00  0.00     0.208 HD
ENDROOT
BRANCH   1   8
HETATM    8  C6  UNL     1      27.811   1.097   6.226  1.00  0.00     0.165 C 
BRANCH   8   9
HETATM    9  C4  UNL     1      28.772   1.385   7.358  1.00  0.00     0.125 C 
BRANCH   9  10
HETATM   10  C3  UNL     1      28.226   2.524   8.120  1.00  0.00     0.244 C 
HETATM   11  N5  UNL     1      27.863   3.731   7.464  1.00  0.00    -0.255 N 
ATOM     12  H5  UNL     1      27.978   3.831   6.456  1.00  0.00     0.191 HD
HETATM   13  O1  UNL     1      28.080   2.415   9.378  1.00  0.00    -0.271 OA
BRANCH  11  14
HETATM   14  N4  UNL     1      27.338   4.797   8.242  1.00  0.00    -0.226 N 
HETATM   15  N3  UNL     1      28.069   5.768   8.602  1.00  0.00    -0.117 N 
ATOM     16  H3  UNL     1      27.673   6.523   9.161  1.00  0.00     0.207 HD
ATOM     17  H4  UNL     1      26.355   4.782   8.516  1.00  0.00     0.209 HD
BRANCH  15  18
HETATM   18  C2  UNL     1      29.441   5.808   8.228  1.00  0.00     0.716 A 
HETATM   19  N2  UNL     1      30.375   5.307   9.056  1.00  0.00    -0.021 N 
HETATM   20  C1  UNL     1      31.682   5.332   8.728  1.00  0.00     0.694 A 
ATOM     21  H2  UNL     1      30.090   4.901   9.948  1.00  0.00     0.203 HD
HETATM   22  N15 UNL     1      32.016   5.873   7.550  1.00  0.00    -0.141 N 
HETATM   23  C17 UNL     1      31.132   6.384   6.691  1.00  0.00     0.352 A 
ATOM     24  H15 UNL     1      33.003   5.895   7.294  1.00  0.00     0.189 HD
HETATM   25  N14 UNL     1      29.818   6.341   7.057  1.00  0.00    -0.139 N 
HETATM   26  O7  UNL     1      31.501   6.875   5.605  1.00  0.00    -0.246 OA
ATOM     27  H14 UNL     1      29.110   6.721   6.429  1.00  0.00     0.189 HD
BRANCH  20  28
HETATM   28  N1  UNL     1      32.585   4.846   9.531  1.00  0.00    -0.234 N 
ATOM     29  H12 UNL     1      32.336   4.481  10.450  1.00  0.00     0.174 HD
ATOM     30  H11 UNL     1      33.568   4.819   9.260  1.00  0.00     0.174 HD
ENDBRANCH  20  28
ENDBRANCH  15  18
ENDBRANCH  11  14
ENDBRANCH   9  10
BRANCH   9  31
HETATM   31  C5  UNL     1      29.061   0.192   8.198  1.00  0.00     0.245 C 
BRANCH  31  32
HETATM   32  N6  UNL     1      27.983  -0.364   8.931  1.00  0.00    -0.078 N 
ATOM     33  H63 UNL     1      27.206  -0.554   8.299  1.00  0.00     0.274 HD
ATOM     34  H62 UNL     1      28.226  -1.309   9.225  1.00  0.00     0.274 HD
ATOM     35  H61 UNL     1      27.644   0.164   9.735  1.00  0.00     0.274 HD
ENDBRANCH  31  32
ENDBRANCH   9  31
ENDBRANCH   8   9
ENDBRANCH   1   8
BRANCH   3  36
HETATM   36  C9  UNL     1      28.694  -2.437   2.772  1.00  0.00     0.209 C 
HETATM   37  O2  UNL     1      27.774  -2.242   1.815  1.00  0.00    -0.340 OA
HETATM   38  C10 UNL     1      27.949  -2.698   0.574  1.00  0.00     0.330 C 
HETATM   39  O4  UNL     1      29.001  -3.492   0.272  1.00  0.00    -0.344 OA
HETATM   40  C14 UNL     1      29.765  -3.972   1.278  1.00  0.00     0.180 C 
HETATM   41  C16 UNL     1      30.059  -2.809   2.235  1.00  0.00     0.184 C 
BRANCH  38  42
HETATM   42  C11 UNL     1      26.700  -3.424   0.153  1.00  0.00     0.157 A 
HETATM   43  N8  UNL     1      25.639  -2.780  -0.369  1.00  0.00    -0.293 N 
HETATM   44  C12 UNL     1      24.528  -3.440  -0.741  1.00  0.00     0.340 A 
ATOM     45  H8  UNL     1      25.677  -1.767  -0.484  1.00  0.00     0.172 HD
HETATM   46  O3  UNL     1      23.548  -2.820  -1.227  1.00  0.00    -0.246 OA
HETATM   47  N9  UNL     1      24.425  -4.768  -0.610  1.00  0.00    -0.141 N 
HETATM   48  C13 UNL     1      25.474  -5.436  -0.091  1.00  0.00     0.681 A 
ATOM     49  H9  UNL     1      23.578  -5.260  -0.895  1.00  0.00     0.189 HD
HETATM   50  N11 UNL     1      26.587  -4.758   0.280  1.00  0.00    -0.175 N 
ATOM     51  H11 UNL     1      27.370  -5.281   0.672  1.00  0.00     0.185 HD
BRANCH  48  52
HETATM   52  N10 UNL     1      25.400  -6.715   0.045  1.00  0.00    -0.234 N 
ATOM     53 2H10 UNL     1      25.343  -7.327  -0.768  1.00  0.00     0.174 HD
ATOM     54 1H10 UNL     1      25.399  -7.117   0.983  1.00  0.00     0.174 HD
ENDBRANCH  48  52
ENDBRANCH  38  42
BRANCH  40  55
HETATM   55  C15 UNL     1      31.054  -4.548   0.780  1.00  0.00     0.198 C 
BRANCH  55  56
HETATM   56  O5  UNL     1      31.987  -4.465   1.822  1.00  0.00    -0.398 OA
ATOM     57  H5  UNL     1      32.201  -3.548   1.944  1.00  0.00     0.209 HD
ENDBRANCH  55  56
ENDBRANCH  40  55
BRANCH  41  58
HETATM   58  O6  UNL     1      30.527  -1.711   1.515  1.00  0.00    -0.390 OA
ATOM     59  H6  UNL     1      31.476  -1.756   1.526  1.00  0.00     0.210 HD
ENDBRANCH  41  58
ENDBRANCH   3  36
TORSDOF 14
ENDMDL
MODEL 4
REMARK VINA RESULT: -10.157847969      0.887      1.332
REMARK  14 active torsions:
REMARK  status: ('A' for Active; 'I' for Inactive)
REMARK    1  A    between atoms: N1_1  and  C1_4 
REMARK    2  A    between atoms: C2_7  and  N3_8 
REMARK    3  A    between atoms: N4_10  and  N5_12 
REMARK       I    between atoms: N5_12  and  C3_14 
REMARK    4  A    between atoms: C3_14  and  C4_16 
REMARK    5  A    between atoms: C4_16  and  C5_17 
REMARK    6  A    between atoms: C4_16  and  C6_22 
REMARK    7  A    between atoms: C5_17  and  N6_18 
REMARK    8  A    between atoms: C6_22  and  N7_23 
REMARK    9  A    between atoms: C8_25  and  C9_26 
REMARK   10  A    between atoms: C10_28  and  C11_29 
REMARK   11  A    between atoms: C13_36  and  N10_37 
REMARK   12  A    between atoms: C14_43  and  C15_44 
REMARK   13  A    between atoms: C15_44  and  O5_45 
REMARK   14  A    between atoms: C16_47  and  O6_48 
ROOT
HETATM    1  N7  UNL     1      28.666   0.109   5.027  1.00  0.00    -0.286 N 
HETATM    2  C7  UNL     1      28.008  -0.883   4.363  1.00  0.00     0.140 A 
HETATM    3  C8  UNL     1      28.844  -1.413   3.402  1.00  0.00     0.076 A 
HETATM    4  N12 UNL     1      29.994  -0.719   3.513  1.00  0.00    -0.286 N 
ATOM      5  H12 UNL     1      30.830  -0.856   2.946  1.00  0.00     0.188 HD
HETATM    6  N13 UNL     1      29.851   0.180   4.492  1.00  0.00    -0.241 N 
ATOM      7  H13 UNL     1      30.576   0.836   4.782  1.00  0.00     0.208 HD
ENDROOT
BRANCH   1   8
HETATM    8  C6  UNL     1      28.054   0.865   6.102  1.00  0.00     0.165 C 
BRANCH   8   9
HETATM    9  C4  UNL     1      29.093   1.045   7.187  1.00  0.00     0.125 C 
BRANCH   9  10
HETATM   10  C3  UNL     1      28.697   2.222   7.984  1.00  0.00     0.244 C 
HETATM   11  N5  UNL     1      28.930   3.539   7.504  1.00  0.00    -0.255 N 
ATOM     12  H5  UNL     1      29.378   3.692   6.601  1.00  0.00     0.191 HD
HETATM   13  O1  UNL     1      28.139   2.046   9.113  1.00  0.00    -0.271 OA
BRANCH  11  14
HETATM   14  N4  UNL     1      28.525   4.638   8.308  1.00  0.00    -0.226 N 
HETATM   15  N3  UNL     1      29.029   5.789   8.144  1.00  0.00    -0.117 N 
ATOM     16  H3  UNL     1      28.726   6.565   8.732  1.00  0.00     0.207 HD
ATOM     17  H4  UNL     1      27.817   4.499   9.029  1.00  0.00     0.209 HD
BRANCH  15  18
HETATM   18  C2  UNL     1      30.016   6.003   7.142  1.00  0.00     0.716 A 
HETATM   19  N2  UNL     1      31.309   5.743   7.410  1.00  0.00    -0.021 N 
HETATM   20  C1  UNL     1      32.264   5.938   6.480  1.00  0.00     0.694 A 
ATOM     21  H2  UNL     1      31.569   5.393   8.332  1.00  0.00     0.203 HD
HETATM   22  N15 UNL     1      31.881   6.398   5.282  1.00  0.00    -0.141 N 
HETATM   23  C17 UNL     1      30.615   6.672   4.964  1.00  0.00     0.352 A 
ATOM     24  H15 UNL     1      32.599   6.547   4.573  1.00  0.00     0.189 HD
HETATM   25  N14 UNL     1      29.675   6.463   5.930  1.00  0.00    -0.139 N 
HETATM   26  O7  UNL     1      30.316   7.098   3.829  1.00  0.00    -0.246 OA
ATOM     27  H14 UNL     1      28.695   6.661   5.727  1.00  0.00     0.189 HD
BRANCH  20  28
HETATM   28  N1  UNL     1      33.515   5.685   6.741  1.00  0.00    -0.234 N 
ATOM     29  H12 UNL     1      34.243   5.839   6.044  1.00  0.00     0.174 HD
ATOM     30  H11 UNL     1      33.800   5.326   7.652  1.00  0.00     0.174 HD
ENDBRANCH  20  28
ENDBRANCH  15  18
ENDBRANCH  11  14
ENDBRANCH   9  10
BRANCH   9  31
HETATM   31  C5  UNL     1      29.308  -0.180   8.001  1.00  0.00     0.245 C 
BRANCH  31  32
HETATM   32  N6  UNL     1      28.173  -0.747   8.634  1.00  0.00    -0.078 N 
ATOM     33  H63 UNL     1      27.686  -0.025   9.164  1.00  0.00     0.274 HD
ATOM     34  H62 UNL     1      27.471  -0.974   7.930  1.00  0.00     0.274 HD
ATOM     35  H61 UNL     1      28.328  -1.558   9.232  1.00  0.00     0.274 HD
ENDBRANCH  31  32
ENDBRANCH   9  31
ENDBRANCH   8   9
ENDBRANCH   1   8
BRANCH   3  36
HETATM   36  C9  UNL     1      28.544  -2.526   2.433  1.00  0.00     0.209 C 
HETATM   37  O2  UNL     1      27.560  -2.247   1.566  1.00  0.00    -0.340 OA
HETATM   38  C10 UNL     1      27.619  -2.639   0.293  1.00  0.00     0.330 C 
HETATM   39  O4  UNL     1      28.613  -3.449  -0.135  1.00  0.00    -0.344 OA
HETATM   40  C14 UNL     1      29.435  -4.010   0.778  1.00  0.00     0.180 C 
HETATM   41  C16 UNL     1      29.847  -2.913   1.769  1.00  0.00     0.184 C 
BRANCH  38  42
HETATM   42  C11 UNL     1      26.314  -3.297  -0.065  1.00  0.00     0.157 A 
HETATM   43  N8  UNL     1      26.105  -4.616   0.109  1.00  0.00    -0.293 N 
HETATM   44  C12 UNL     1      24.934  -5.192  -0.214  1.00  0.00     0.340 A 
ATOM     45  H8  UNL     1      26.853  -5.192   0.495  1.00  0.00     0.172 HD
HETATM   46  O3  UNL     1      24.760  -6.426  -0.043  1.00  0.00    -0.246 OA
HETATM   47  N9  UNL     1      23.921  -4.482  -0.725  1.00  0.00    -0.141 N 
HETATM   48  C13 UNL     1      24.104  -3.160  -0.909  1.00  0.00     0.681 A 
ATOM     49  H9  UNL     1      23.036  -4.929  -0.968  1.00  0.00     0.189 HD
HETATM   50  N11 UNL     1      25.289  -2.592  -0.578  1.00  0.00    -0.175 N 
ATOM     51  H11 UNL     1      25.409  -1.590  -0.725  1.00  0.00     0.185 HD
BRANCH  48  52
HETATM   52  N10 UNL     1      23.144  -2.455  -1.399  1.00  0.00    -0.234 N 
ATOM     53 2H10 UNL     1      23.079  -2.282  -2.401  1.00  0.00     0.174 HD
ATOM     54 1H10 UNL     1      22.441  -2.066  -0.770  1.00  0.00     0.174 HD
ENDBRANCH  48  52
ENDBRANCH  38  42
BRANCH  40  55
HETATM   55  C15 UNL     1      30.658  -4.600   0.148  1.00  0.00     0.198 C 
BRANCH  55  56
HETATM   56  O5  UNL     1      31.715  -4.458   1.057  1.00  0.00    -0.398 OA
ATOM     57  H5  UNL     1      31.410  -4.761   1.903  1.00  0.00     0.209 HD
ENDBRANCH  55  56
ENDBRANCH  40  55
BRANCH  41  58
HETATM   58  O6  UNL     1      30.298  -1.793   1.074  1.00  0.00    -0.390 OA
ATOM     59  H6  UNL     1      29.545  -1.418   0.632  1.00  0.00     0.210 HD
ENDBRANCH  41  58
ENDBRANCH   3  36
TORSDOF 14
ENDMDL
MODEL 5
REMARK VINA RESULT: -10.132502261      1.574      2.119
REMARK  14 active torsions:
REMARK  status: ('A' for Active; 'I' for Inactive)
REMARK    1  A    between atoms: N1_1  and  C1_4 
REMARK    2  A    between atoms: C2_7  and  N3_8 
REMARK    3  A    between atoms: N4_10  and  N5_12 
REMARK       I    between atoms: N5_12  and  C3_14 
REMARK    4  A    between atoms: C3_14  and  C4_16 
REMARK    5  A    between atoms: C4_16  and  C5_17 
REMARK    6  A    between atoms: C4_16  and  C6_22 
REMARK    7  A    between atoms: C5_17  and  N6_18 
REMARK    8  A    between atoms: C6_22  and  N7_23 
REMARK    9  A    between atoms: C8_25  and  C9_26 
REMARK   10  A    between atoms: C10_28  and  C11_29 
REMARK   11  A    between atoms: C13_36  and  N10_37 
REMARK   12  A    between atoms: C14_43  and  C15_44 
REMARK   13  A    between atoms: C15_44  and  O5_45 
REMARK   14  A    between atoms: C16_47  and  O6_48 
ROOT
HETATM    1  N7  UNL     1      28.488   0.384   5.255  1.00  0.00    -0.286 N 
HETATM    2  C7  UNL     1      27.923  -0.679   4.614  1.00  0.00     0.140 A 
HETATM    3  C8  UNL     1      28.840  -1.213   3.734  1.00  0.00     0.076 A 
HETATM    4  N12 UNL     1      29.944  -0.451   3.868  1.00  0.00    -0.286 N 
ATOM      5  H12 UNL     1      30.819  -0.573   3.358  1.00  0.00     0.188 HD
HETATM    6  N13 UNL     1      29.697   0.491   4.784  1.00  0.00    -0.241 N 
ATOM      7  H13 UNL     1      30.369   1.200   5.076  1.00  0.00     0.208 HD
ENDROOT
BRANCH   1   8
HETATM    8  C6  UNL     1      27.776   1.163   6.249  1.00  0.00     0.165 C 
BRANCH   8   9
HETATM    9  C4  UNL     1      28.733   1.443   7.386  1.00  0.00     0.125 C 
BRANCH   9  10
HETATM   10  C3  UNL     1      28.186   2.580   8.151  1.00  0.00     0.244 C 
HETATM   11  N5  UNL     1      27.666   3.723   7.485  1.00  0.00    -0.255 N 
ATOM     12  H5  UNL     1      27.666   3.776   6.466  1.00  0.00     0.191 HD
HETATM   13  O1  UNL     1      28.182   2.529   9.422  1.00  0.00    -0.271 OA
BRANCH  11  14
HETATM   14  N4  UNL     1      27.147   4.789   8.267  1.00  0.00    -0.226 N 
HETATM   15  N3  UNL     1      27.893   5.734   8.662  1.00  0.00    -0.117 N 
ATOM     16  H3  UNL     1      27.502   6.490   9.223  1.00  0.00     0.207 HD
ATOM     17  H4  UNL     1      26.158   4.794   8.515  1.00  0.00     0.209 HD
BRANCH  15  18
HETATM   18  C2  UNL     1      29.275   5.745   8.324  1.00  0.00     0.716 A 
HETATM   19  N2  UNL     1      29.670   6.238   7.137  1.00  0.00    -0.021 N 
HETATM   20  C1  UNL     1      30.972   6.259   6.791  1.00  0.00     0.694 A 
ATOM     21  H2  UNL     1      28.972   6.601   6.487  1.00  0.00     0.203 HD
HETATM   22  N15 UNL     1      31.857   5.774   7.671  1.00  0.00    -0.141 N 
HETATM   23  C17 UNL     1      31.521   5.275   8.862  1.00  0.00     0.352 A 
ATOM     24  H15 UNL     1      32.845   5.788   7.417  1.00  0.00     0.189 HD
HETATM   25  N14 UNL     1      30.193   5.269   9.177  1.00  0.00    -0.139 N 
HETATM   26  O7  UNL     1      32.389   4.836   9.644  1.00  0.00    -0.246 OA
ATOM     27  H14 UNL     1      29.894   4.895  10.078  1.00  0.00     0.189 HD
BRANCH  20  28
HETATM   28  N1  UNL     1      31.353   6.737   5.641  1.00  0.00    -0.234 N 
ATOM     29  H12 UNL     1      31.112   6.270   4.767  1.00  0.00     0.174 HD
ATOM     30  H11 UNL     1      31.904   7.593   5.584  1.00  0.00     0.174 HD
ENDBRANCH  20  28
ENDBRANCH  15  18
ENDBRANCH  11  14
ENDBRANCH   9  10
BRANCH   9  31
HETATM   31  C5  UNL     1      29.016   0.246   8.221  1.00  0.00     0.245 C 
BRANCH  31  32
HETATM   32  N6  UNL     1      27.960  -0.250   9.027  1.00  0.00    -0.078 N 
ATOM     33  H63 UNL     1      28.095   0.057   9.989  1.00  0.00     0.274 HD
ATOM     34  H62 UNL     1      27.097   0.239   8.790  1.00  0.00     0.274 HD
ATOM     35  H61 UNL     1      27.794  -1.256   9.013  1.00  0.00     0.274 HD
ENDBRANCH  31  32
ENDBRANCH   9  31
ENDBRANCH   8   9
ENDBRANCH   1   8
BRANCH   3  36
HETATM   36  C9  UNL     1      28.656  -2.392   2.816  1.00  0.00     0.209 C 
HETATM   37  O2  UNL     1      27.746  -2.199   1.851  1.00  0.00    -0.340 OA
HETATM   38  C10 UNL     1      27.928  -2.666   0.615  1.00  0.00     0.330 C 
HETATM   39  O4  UNL     1      28.977  -3.469   0.328  1.00  0.00    -0.344 OA
HETATM   40  C14 UNL     1      29.729  -3.947   1.343  1.00  0.00     0.180 C 
HETATM   41  C16 UNL     1      30.023  -2.778   2.294  1.00  0.00     0.184 C 
BRANCH  38  42
HETATM   42  C11 UNL     1      26.677  -3.386   0.189  1.00  0.00     0.157 A 
HETATM   43  N8  UNL     1      26.515  -4.710   0.370  1.00  0.00    -0.293 N 
HETATM   44  C12 UNL     1      25.392  -5.342  -0.015  1.00  0.00     0.340 A 
ATOM     45  H8  UNL     1      27.262  -5.248   0.810  1.00  0.00     0.172 HD
HETATM   46  O3  UNL     1      25.261  -6.579   0.165  1.00  0.00    -0.246 OA
HETATM   47  N9  UNL     1      24.383  -4.684  -0.598  1.00  0.00    -0.141 N 
HETATM   48  C13 UNL     1      24.520  -3.357  -0.791  1.00  0.00     0.681 A 
ATOM     49  H9  UNL     1      23.535  -5.172  -0.888  1.00  0.00     0.189 HD
HETATM   50  N11 UNL     1      25.657  -2.734  -0.398  1.00  0.00    -0.175 N 
ATOM     51  H11 UNL     1      25.743  -1.729  -0.552  1.00  0.00     0.185 HD
BRANCH  48  52
HETATM   52  N10 UNL     1      23.563  -2.702  -1.350  1.00  0.00    -0.234 N 
ATOM     53 2H10 UNL     1      22.599  -3.028  -1.292  1.00  0.00     0.174 HD
ATOM     54 1H10 UNL     1      23.777  -1.842  -1.857  1.00  0.00     0.174 HD
ENDBRANCH  48  52
ENDBRANCH  38  42
BRANCH  40  55
HETATM   55  C15 UNL     1      31.018  -4.536   0.861  1.00  0.00     0.198 C 
BRANCH  55  56
HETATM   56  O5  UNL     1      31.924  -4.508   1.929  1.00  0.00    -0.398 OA
ATOM     57  H5  UNL     1      32.785  -4.329   1.570  1.00  0.00     0.209 HD
ENDBRANCH  55  56
ENDBRANCH  40  55
BRANCH  41  58
HETATM   58  O6  UNL     1      30.505  -1.690   1.570  1.00  0.00    -0.390 OA
ATOM     59  H6  UNL     1      30.828  -2.028   0.742  1.00  0.00     0.210 HD
ENDBRANCH  41  58
ENDBRANCH   3  36
TORSDOF 14
ENDMDL
