MODEL 1
REMARK VINA RESULT: -8.386628368      0.000      0.000
REMARK  18 active torsions:
REMARK  status: ('A' for Active; 'I' for Inactive)
REMARK    1  A    between atoms: N1_1  and  C1_5 
REMARK    2  A    between atoms: C1_5  and  C2_6 
REMARK    3  A    between atoms: C2_6  and  N2_7 
REMARK    4  A    between atoms: C2_6  and  C21_48 
REMARK    5  A    between atoms: N2_7  and  C3_10 
REMARK    6  A    between atoms: C6_15  and  O3_16 
REMARK    7  A    between atoms: C7_18  and  O4_19 
REMARK    8  A    between atoms: C7_18  and  C8_21 
REMARK    9  A    between atoms: C8_21  and  O5_22 
REMARK   10  A    between atoms: C10_26  and  O7_27 
REMARK   11  A    between atoms: C10_26  and  C11_29 
REMARK   12  A    between atoms: C11_29  and  O8_30 
REMARK   13  A    between atoms: O8_30  and  C12_31 
REMARK   14  A    between atoms: C12_31  and  C13_33 
REMARK   15  A    between atoms: C14_34  and  C15_35 
REMARK   16  A    between atoms: C17_37  and  O10_38 
REMARK   17  A    between atoms: C18_40  and  O11_41 
REMARK   18  A    between atoms: C19_43  and  O12_44 
ROOT
HETATM    1  C3  UNL     1      33.039  -6.839   1.817  1.00  0.00     0.480 C 
HETATM    2  O1  UNL     1      32.937  -7.798   0.750  1.00  0.00    -0.264 OA
HETATM    3  C4  UNL     1      33.065  -7.469  -0.583  1.00  0.00     0.272 C 
HETATM    4  O2  UNL     1      32.752  -8.369  -1.385  1.00  0.00    -0.265 OA
HETATM    5  C5  UNL     1      33.516  -6.211  -1.137  1.00  0.00     0.154 C 
HETATM    6  C6  UNL     1      32.983  -5.948  -2.527  1.00  0.00     0.199 C 
HETATM    7  C7  UNL     1      33.056  -4.458  -2.587  1.00  0.00     0.211 C 
HETATM    8  O6  UNL     1      32.809  -4.032  -1.324  1.00  0.00    -0.339 OA
HETATM    9  C9  UNL     1      33.190  -4.991  -0.389  1.00  0.00     0.206 C 
HETATM   10  C10 UNL     1      32.103  -5.030   0.640  1.00  0.00     0.216 C 
HETATM   11  O13 UNL     1      32.076  -5.910   1.585  1.00  0.00    -0.297 OA
ENDROOT
BRANCH  10  12
HETATM   12  O7  UNL     1      30.913  -5.175  -0.131  1.00  0.00    -0.362 OA
ATOM     13  H7  UNL     1      30.770  -4.308  -0.492  1.00  0.00     0.213 HD
ENDBRANCH  10  12
BRANCH  10  14
HETATM   14  C11 UNL     1      32.006  -3.616   1.173  1.00  0.00     0.250 C 
BRANCH  14  15
HETATM   15  O8  UNL     1      31.093  -3.329   2.128  1.00  0.00    -0.313 OA
BRANCH  15  16
HETATM   16  C12 UNL     1      29.955  -2.603   2.147  1.00  0.00     0.283 C 
HETATM   17  O9  UNL     1      30.013  -1.404   2.498  1.00  0.00    -0.260 OA
BRANCH  16  18
HETATM   18  C13 UNL     1      28.648  -3.174   1.769  1.00  0.00     0.083 C 
HETATM   19  C14 UNL     1      28.171  -2.962   0.583  1.00  0.00     0.017 C 
BRANCH  19  20
HETATM   20  C15 UNL     1      26.893  -3.505   0.169  1.00  0.00    -0.031 A 
HETATM   21  C16 UNL     1      25.929  -2.637  -0.333  1.00  0.00     0.051 A 
HETATM   22  C17 UNL     1      24.711  -3.074  -0.746  1.00  0.00     0.102 A 
HETATM   23  C18 UNL     1      24.418  -4.417  -0.666  1.00  0.00     0.132 A 
HETATM   24  C19 UNL     1      25.349  -5.303  -0.174  1.00  0.00     0.102 A 
HETATM   25  C20 UNL     1      26.593  -4.825   0.243  1.00  0.00     0.051 A 
BRANCH  22  26
HETATM   26  O10 UNL     1      23.761  -2.202  -1.243  1.00  0.00    -0.358 OA
ATOM     27  H10 UNL     1      22.921  -2.512  -1.562  1.00  0.00     0.217 HD
ENDBRANCH  22  26
BRANCH  23  28
HETATM   28  O11 UNL     1      23.185  -4.913  -1.077  1.00  0.00    -0.356 OA
ATOM     29  H11 UNL     1      22.439  -4.931  -0.488  1.00  0.00     0.218 HD
ENDBRANCH  23  28
BRANCH  24  30
HETATM   30  O12 UNL     1      25.049  -6.651  -0.097  1.00  0.00    -0.358 OA
ATOM     31  H12 UNL     1      25.282  -7.146   0.679  1.00  0.00     0.217 HD
ENDBRANCH  24  30
ENDBRANCH  19  20
ENDBRANCH  16  18
ENDBRANCH  15  16
ENDBRANCH  14  15
ENDBRANCH  10  14
BRANCH   1  32
HETATM   32  N2  UNL     1      34.357  -6.354   1.980  1.00  0.00    -0.009 N 
ATOM     33  H22 UNL     1      34.421  -5.703   2.762  1.00  0.00     0.284 HD
ATOM     34  H21 UNL     1      34.618  -5.720   1.225  1.00  0.00     0.284 HD
BRANCH  32  35
HETATM   35  C2  UNL     1      35.299  -7.430   2.114  1.00  0.00     0.316 C 
BRANCH  35  36
HETATM   36  C1  UNL     1      35.525  -7.851   3.535  1.00  0.00     0.274 C 
BRANCH  36  37
HETATM   37  N1  UNL     1      36.185  -6.751   4.244  1.00  0.00    -0.077 N 
ATOM     38  H13 UNL     1      36.081  -5.857   3.763  1.00  0.00     0.274 HD
ATOM     39  H12 UNL     1      35.708  -6.499   5.109  1.00  0.00     0.274 HD
ATOM     40  H11 UNL     1      37.161  -7.005   4.393  1.00  0.00     0.274 HD
ENDBRANCH  36  37
ENDBRANCH  35  36
BRANCH  35  41
HETATM   41  C21 UNL     1      36.608  -7.071   1.451  1.00  0.00     0.206 C 
HETATM   42  O14 UNL     1      36.622  -6.172   0.576  1.00  0.00    -0.646 OA
HETATM   43  O15 UNL     1      37.802  -7.692   1.765  1.00  0.00    -0.646 OA
ENDBRANCH  35  41
ENDBRANCH  32  35
ENDBRANCH   1  32
BRANCH   6  44
HETATM   44  O3  UNL     1      31.692  -6.452  -2.588  1.00  0.00    -0.389 OA
ATOM     45  H3  UNL     1      31.229  -6.157  -1.813  1.00  0.00     0.210 HD
ENDBRANCH   6  44
BRANCH   7  46
HETATM   46  O4  UNL     1      34.303  -4.029  -3.026  1.00  0.00    -0.362 OA
ATOM     47  H4  UNL     1      34.619  -3.296  -2.511  1.00  0.00     0.213 HD
ENDBRANCH   7  46
BRANCH   7  48
HETATM   48  C8  UNL     1      31.993  -3.868  -3.502  1.00  0.00     0.235 C 
BRANCH  48  49
HETATM   49  O5  UNL     1      32.092  -4.548  -4.715  1.00  0.00    -0.395 OA
ATOM     50  H5  UNL     1      32.895  -4.251  -5.126  1.00  0.00     0.209 HD
ENDBRANCH  48  49
ENDBRANCH   7  48
TORSDOF 18
ENDMDL
MODEL 2
REMARK VINA RESULT: -8.278126521      5.050      8.236
REMARK  18 active torsions:
REMARK  status: ('A' for Active; 'I' for Inactive)
REMARK    1  A    between atoms: N1_1  and  C1_5 
REMARK    2  A    between atoms: C1_5  and  C2_6 
REMARK    3  A    between atoms: C2_6  and  N2_7 
REMARK    4  A    between atoms: C2_6  and  C21_48 
REMARK    5  A    between atoms: N2_7  and  C3_10 
REMARK    6  A    between atoms: C6_15  and  O3_16 
REMARK    7  A    between atoms: C7_18  and  O4_19 
REMARK    8  A    between atoms: C7_18  and  C8_21 
REMARK    9  A    between atoms: C8_21  and  O5_22 
REMARK   10  A    between atoms: C10_26  and  O7_27 
REMARK   11  A    between atoms: C10_26  and  C11_29 
REMARK   12  A    between atoms: C11_29  and  O8_30 
REMARK   13  A    between atoms: O8_30  and  C12_31 
REMARK   14  A    between atoms: C12_31  and  C13_33 
REMARK   15  A    between atoms: C14_34  and  C15_35 
REMARK   16  A    between atoms: C17_37  and  O10_38 
REMARK   17  A    between atoms: C18_40  and  O11_41 
REMARK   18  A    between atoms: C19_43  and  O12_44 
ROOT
HETATM    1  C3  UNL     1      31.406  -2.476   1.534  1.00  0.00     0.480 C 
HETATM    2  O1  UNL     1      31.322  -3.575   0.610  1.00  0.00    -0.264 OA
HETATM    3  C4  UNL     1      30.149  -3.962  -0.006  1.00  0.00     0.272 C 
HETATM    4  O2  UNL     1      30.203  -5.047  -0.615  1.00  0.00    -0.265 OA
HETATM    5  C5  UNL     1      28.889  -3.252  -0.018  1.00  0.00     0.154 C 
HETATM    6  C6  UNL     1      27.697  -4.160  -0.218  1.00  0.00     0.199 C 
HETATM    7  C7  UNL     1      26.609  -3.349   0.403  1.00  0.00     0.211 C 
HETATM    8  O6  UNL     1      27.194  -2.679   1.425  1.00  0.00    -0.339 OA
HETATM    9  C9  UNL     1      28.548  -2.467   1.175  1.00  0.00     0.206 C 
HETATM   10  C10 UNL     1      29.261  -2.740   2.462  1.00  0.00     0.216 C 
HETATM   11  O13 UNL     1      30.550  -2.765   2.547  1.00  0.00    -0.297 OA
ENDROOT
BRANCH  10  12
HETATM   12  O7  UNL     1      28.769  -4.019   2.856  1.00  0.00    -0.362 OA
ATOM     13  H7  UNL     1      29.497  -4.404   3.330  1.00  0.00     0.213 HD
ENDBRANCH  10  12
BRANCH  10  14
HETATM   14  C11 UNL     1      28.640  -1.798   3.472  1.00  0.00     0.250 C 
BRANCH  14  15
HETATM   15  O8  UNL     1      28.861  -2.000   4.790  1.00  0.00    -0.313 OA
BRANCH  15  16
HETATM   16  C12 UNL     1      29.495  -1.294   5.752  1.00  0.00     0.283 C 
HETATM   17  O9  UNL     1      30.447  -1.829   6.360  1.00  0.00    -0.260 OA
BRANCH  16  18
HETATM   18  C13 UNL     1      29.101   0.082   6.109  1.00  0.00     0.083 C 
HETATM   19  C14 UNL     1      29.260   0.501   7.325  1.00  0.00     0.017 C 
BRANCH  19  20
HETATM   20  C15 UNL     1      28.889   1.846   7.720  1.00  0.00    -0.031 A 
HETATM   21  C16 UNL     1      29.827   2.864   7.582  1.00  0.00     0.051 A 
HETATM   22  C17 UNL     1      29.550   4.149   7.926  1.00  0.00     0.102 A 
HETATM   23  C18 UNL     1      28.304   4.457   8.425  1.00  0.00     0.132 A 
HETATM   24  C19 UNL     1      27.354   3.472   8.574  1.00  0.00     0.102 A 
HETATM   25  C20 UNL     1      27.667   2.160   8.214  1.00  0.00     0.051 A 
BRANCH  22  26
HETATM   26  O10 UNL     1      30.489   5.153   7.785  1.00  0.00    -0.358 OA
ATOM     27  H10 UNL     1      30.491   5.728   7.028  1.00  0.00     0.217 HD
ENDBRANCH  22  26
BRANCH  23  28
HETATM   28  O11 UNL     1      27.973   5.757   8.790  1.00  0.00    -0.356 OA
ATOM     29  H11 UNL     1      27.122   5.965   9.156  1.00  0.00     0.218 HD
ENDBRANCH  23  28
BRANCH  24  30
HETATM   30  O12 UNL     1      26.104   3.787   9.076  1.00  0.00    -0.358 OA
ATOM     31  H12 UNL     1      25.343   3.287   8.806  1.00  0.00     0.217 HD
ENDBRANCH  24  30
ENDBRANCH  19  20
ENDBRANCH  16  18
ENDBRANCH  15  16
ENDBRANCH  14  15
ENDBRANCH  10  14
BRANCH   1  32
HETATM   32  N2  UNL     1      31.233  -1.225   0.899  1.00  0.00    -0.009 N 
ATOM     33  H22 UNL     1      30.410  -0.738   1.251  1.00  0.00     0.284 HD
ATOM     34  H21 UNL     1      30.947  -1.336  -0.074  1.00  0.00     0.284 HD
BRANCH  32  35
HETATM   35  C2  UNL     1      32.413  -0.412   1.010  1.00  0.00     0.316 C 
BRANCH  35  36
HETATM   36  C1  UNL     1      33.679  -1.210   1.100  1.00  0.00     0.274 C 
BRANCH  36  37
HETATM   37  N1  UNL     1      34.750  -0.452   0.446  1.00  0.00    -0.077 N 
ATOM     38  H13 UNL     1      35.623  -0.473   0.973  1.00  0.00     0.274 HD
ATOM     39  H12 UNL     1      35.090  -0.905  -0.402  1.00  0.00     0.274 HD
ATOM     40  H11 UNL     1      34.415   0.496   0.278  1.00  0.00     0.274 HD
ENDBRANCH  36  37
ENDBRANCH  35  36
BRANCH  35  41
HETATM   41  C21 UNL     1      32.293   0.532   2.183  1.00  0.00     0.206 C 
HETATM   42  O14 UNL     1      33.295   1.204   2.530  1.00  0.00    -0.646 OA
HETATM   43  O15 UNL     1      31.122   0.691   2.900  1.00  0.00    -0.646 OA
ENDBRANCH  35  41
ENDBRANCH  32  35
ENDBRANCH   1  32
BRANCH   6  44
HETATM   44  O3  UNL     1      27.957  -5.353   0.441  1.00  0.00    -0.389 OA
ATOM     45  H3  UNL     1      27.150  -5.853   0.464  1.00  0.00     0.210 HD
ENDBRANCH   6  44
BRANCH   7  46
HETATM   46  O4  UNL     1      26.045  -2.470  -0.516  1.00  0.00    -0.362 OA
ATOM     47  H4  UNL     1      25.181  -2.187  -0.239  1.00  0.00     0.213 HD
ENDBRANCH   7  46
BRANCH   7  48
HETATM   48  C8  UNL     1      25.502  -4.220   0.980  1.00  0.00     0.235 C 
BRANCH  48  49
HETATM   49  O5  UNL     1      25.092  -5.071  -0.045  1.00  0.00    -0.395 OA
ATOM     50  H5  UNL     1      24.563  -5.748   0.361  1.00  0.00     0.209 HD
ENDBRANCH  48  49
ENDBRANCH   7  48
TORSDOF 18
ENDMDL
MODEL 3
REMARK VINA RESULT: -8.264660072      0.500      1.426
REMARK  18 active torsions:
REMARK  status: ('A' for Active; 'I' for Inactive)
REMARK    1  A    between atoms: N1_1  and  C1_5 
REMARK    2  A    between atoms: C1_5  and  C2_6 
REMARK    3  A    between atoms: C2_6  and  N2_7 
REMARK    4  A    between atoms: C2_6  and  C21_48 
REMARK    5  A    between atoms: N2_7  and  C3_10 
REMARK    6  A    between atoms: C6_15  and  O3_16 
REMARK    7  A    between atoms: C7_18  and  O4_19 
REMARK    8  A    between atoms: C7_18  and  C8_21 
REMARK    9  A    between atoms: C8_21  and  O5_22 
REMARK   10  A    between atoms: C10_26  and  O7_27 
REMARK   11  A    between atoms: C10_26  and  C11_29 
REMARK   12  A    between atoms: C11_29  and  O8_30 
REMARK   13  A    between atoms: O8_30  and  C12_31 
REMARK   14  A    between atoms: C12_31  and  C13_33 
REMARK   15  A    between atoms: C14_34  and  C15_35 
REMARK   16  A    between atoms: C17_37  and  O10_38 
REMARK   17  A    between atoms: C18_40  and  O11_41 
REMARK   18  A    between atoms: C19_43  and  O12_44 
ROOT
HETATM    1  C3  UNL     1      33.015  -6.723   1.571  1.00  0.00     0.480 C 
HETATM    2  O1  UNL     1      33.044  -7.524   0.377  1.00  0.00    -0.264 OA
HETATM    3  C4  UNL     1      33.223  -6.999  -0.887  1.00  0.00     0.272 C 
HETATM    4  O2  UNL     1      33.022  -7.793  -1.825  1.00  0.00    -0.265 OA
HETATM    5  C5  UNL     1      33.612  -5.648  -1.228  1.00  0.00     0.154 C 
HETATM    6  C6  UNL     1      33.141  -5.222  -2.600  1.00  0.00     0.199 C 
HETATM    7  C7  UNL     1      33.109  -3.738  -2.446  1.00  0.00     0.211 C 
HETATM    8  O6  UNL     1      32.761  -3.514  -1.155  1.00  0.00    -0.339 OA
HETATM    9  C9  UNL     1      33.157  -4.572  -0.340  1.00  0.00     0.206 C 
HETATM   10  C10 UNL     1      32.020  -4.827   0.599  1.00  0.00     0.216 C 
HETATM   11  O13 UNL     1      32.002  -5.834   1.408  1.00  0.00    -0.297 OA
ENDROOT
BRANCH  10  12
HETATM   12  O7  UNL     1      30.889  -4.936  -0.263  1.00  0.00    -0.362 OA
ATOM     13  H7  UNL     1      30.457  -4.094  -0.175  1.00  0.00     0.213 HD
ENDBRANCH  10  12
BRANCH  10  14
HETATM   14  C11 UNL     1      31.790  -3.514   1.317  1.00  0.00     0.250 C 
BRANCH  14  15
HETATM   15  O8  UNL     1      30.790  -3.419   2.222  1.00  0.00    -0.313 OA
BRANCH  15  16
HETATM   16  C12 UNL     1      29.603  -2.775   2.240  1.00  0.00     0.283 C 
HETATM   17  O9  UNL     1      29.552  -1.622   2.720  1.00  0.00    -0.260 OA
BRANCH  16  18
HETATM   18  C13 UNL     1      28.366  -3.386   1.717  1.00  0.00     0.083 C 
HETATM   19  C14 UNL     1      27.733  -2.820   0.738  1.00  0.00     0.017 C 
BRANCH  19  20
HETATM   20  C15 UNL     1      26.515  -3.387   0.192  1.00  0.00    -0.031 A 
HETATM   21  C16 UNL     1      26.329  -4.763   0.264  1.00  0.00     0.051 A 
HETATM   22  C17 UNL     1      25.212  -5.365  -0.221  1.00  0.00     0.102 A 
HETATM   23  C18 UNL     1      24.232  -4.591  -0.802  1.00  0.00     0.132 A 
HETATM   24  C19 UNL     1      24.385  -3.226  -0.890  1.00  0.00     0.102 A 
HETATM   25  C20 UNL     1      25.545  -2.636  -0.383  1.00  0.00     0.051 A 
BRANCH  22  26
HETATM   26  O10 UNL     1      25.037  -6.733  -0.145  1.00  0.00    -0.358 OA
ATOM     27  H10 UNL     1      24.486  -7.199  -0.764  1.00  0.00     0.217 HD
ENDBRANCH  22  26
BRANCH  23  28
HETATM   28  O11 UNL     1      23.070  -5.161  -1.313  1.00  0.00    -0.356 OA
ATOM     29  H11 UNL     1      22.562  -4.725  -1.986  1.00  0.00     0.218 HD
ENDBRANCH  23  28
BRANCH  24  30
HETATM   30  O12 UNL     1      23.397  -2.455  -1.474  1.00  0.00    -0.358 OA
ATOM     31  H12 UNL     1      23.608  -1.596  -1.820  1.00  0.00     0.217 HD
ENDBRANCH  24  30
ENDBRANCH  19  20
ENDBRANCH  16  18
ENDBRANCH  15  16
ENDBRANCH  14  15
ENDBRANCH  10  14
BRANCH   1  32
HETATM   32  N2  UNL     1      34.284  -6.184   1.888  1.00  0.00    -0.009 N 
ATOM     33  H22 UNL     1      34.242  -5.591   2.716  1.00  0.00     0.284 HD
ATOM     34  H21 UNL     1      34.572  -5.482   1.206  1.00  0.00     0.284 HD
BRANCH  32  35
HETATM   35  C2  UNL     1      35.272  -7.217   2.030  1.00  0.00     0.316 C 
BRANCH  35  36
HETATM   36  C1  UNL     1      35.389  -7.740   3.431  1.00  0.00     0.274 C 
BRANCH  36  37
HETATM   37  N1  UNL     1      36.323  -6.882   4.167  1.00  0.00    -0.077 N 
ATOM     38  H13 UNL     1      37.217  -6.775   3.688  1.00  0.00     0.274 HD
ATOM     39  H12 UNL     1      36.044  -5.901   4.160  1.00  0.00     0.274 HD
ATOM     40  H11 UNL     1      36.425  -7.255   5.111  1.00  0.00     0.274 HD
ENDBRANCH  36  37
ENDBRANCH  35  36
BRANCH  35  41
HETATM   41  C21 UNL     1      36.613  -6.736   1.527  1.00  0.00     0.206 C 
HETATM   42  O14 UNL     1      36.749  -5.530   1.211  1.00  0.00    -0.646 OA
HETATM   43  O15 UNL     1      37.707  -7.571   1.396  1.00  0.00    -0.646 OA
ENDBRANCH  35  41
ENDBRANCH  32  35
ENDBRANCH   1  32
BRANCH   6  44
HETATM   44  O3  UNL     1      31.895  -5.793  -2.816  1.00  0.00    -0.389 OA
ATOM     45  H3  UNL     1      31.336  -5.552  -2.088  1.00  0.00     0.210 HD
ENDBRANCH   6  44
BRANCH   7  46
HETATM   46  O4  UNL     1      34.345  -3.172  -2.738  1.00  0.00    -0.362 OA
ATOM     47  H4  UNL     1      34.859  -3.035  -1.950  1.00  0.00     0.213 HD
ENDBRANCH   7  46
BRANCH   7  48
HETATM   48  C8  UNL     1      32.060  -3.091  -3.338  1.00  0.00     0.235 C 
BRANCH  48  49
HETATM   49  O5  UNL     1      32.233  -3.632  -4.611  1.00  0.00    -0.395 OA
ATOM     50  H5  UNL     1      31.390  -3.578  -5.045  1.00  0.00     0.209 HD
ENDBRANCH  48  49
ENDBRANCH   7  48
TORSDOF 18
ENDMDL
MODEL 4
REMARK VINA RESULT: -8.231512333      2.644      6.274
REMARK  18 active torsions:
REMARK  status: ('A' for Active; 'I' for Inactive)
REMARK    1  A    between atoms: N1_1  and  C1_5 
REMARK    2  A    between atoms: C1_5  and  C2_6 
REMARK    3  A    between atoms: C2_6  and  N2_7 
REMARK    4  A    between atoms: C2_6  and  C21_48 
REMARK    5  A    between atoms: N2_7  and  C3_10 
REMARK    6  A    between atoms: C6_15  and  O3_16 
REMARK    7  A    between atoms: C7_18  and  O4_19 
REMARK    8  A    between atoms: C7_18  and  C8_21 
REMARK    9  A    between atoms: C8_21  and  O5_22 
REMARK   10  A    between atoms: C10_26  and  O7_27 
REMARK   11  A    between atoms: C10_26  and  C11_29 
REMARK   12  A    between atoms: C11_29  and  O8_30 
REMARK   13  A    between atoms: O8_30  and  C12_31 
REMARK   14  A    between atoms: C12_31  and  C13_33 
REMARK   15  A    between atoms: C14_34  and  C15_35 
REMARK   16  A    between atoms: C17_37  and  O10_38 
REMARK   17  A    between atoms: C18_40  and  O11_41 
REMARK   18  A    between atoms: C19_43  and  O12_44 
ROOT
HETATM    1  C3  UNL     1      31.040  -2.545   0.555  1.00  0.00     0.480 C 
HETATM    2  O1  UNL     1      31.275  -1.162   0.874  1.00  0.00    -0.264 OA
HETATM    3  C4  UNL     1      31.031  -0.616   2.118  1.00  0.00     0.272 C 
HETATM    4  O2  UNL     1      31.093   0.626   2.174  1.00  0.00    -0.265 OA
HETATM    5  C5  UNL     1      30.717  -1.324   3.340  1.00  0.00     0.154 C 
HETATM    6  C6  UNL     1      29.931  -0.489   4.325  1.00  0.00     0.199 C 
HETATM    7  C7  UNL     1      29.249  -1.550   5.123  1.00  0.00     0.211 C 
HETATM    8  O6  UNL     1      29.007  -2.560   4.252  1.00  0.00    -0.339 OA
HETATM    9  C9  UNL     1      29.941  -2.564   3.219  1.00  0.00     0.206 C 
HETATM   10  C10 UNL     1      29.175  -2.831   1.961  1.00  0.00     0.216 C 
HETATM   11  O13 UNL     1      29.722  -2.770   0.792  1.00  0.00    -0.297 OA
ENDROOT
BRANCH  10  12
HETATM   12  O7  UNL     1      28.117  -1.877   2.002  1.00  0.00    -0.362 OA
ATOM     13  H7  UNL     1      27.860  -1.787   1.091  1.00  0.00     0.213 HD
ENDBRANCH  10  12
BRANCH  10  14
HETATM   14  C11 UNL     1      28.470  -4.150   2.194  1.00  0.00     0.250 C 
BRANCH  14  15
HETATM   15  O8  UNL     1      28.253  -4.980   1.149  1.00  0.00    -0.313 OA
BRANCH  15  16
HETATM   16  C12 UNL     1      27.143  -5.422   0.519  1.00  0.00     0.283 C 
HETATM   17  O9  UNL     1      27.106  -6.610   0.131  1.00  0.00    -0.260 OA
BRANCH  16  18
HETATM   18  C13 UNL     1      25.976  -4.554   0.274  1.00  0.00     0.083 C 
HETATM   19  C14 UNL     1      26.146  -3.379  -0.248  1.00  0.00     0.017 C 
BRANCH  19  20
HETATM   20  C15 UNL     1      25.028  -2.494  -0.509  1.00  0.00    -0.031 A 
HETATM   21  C16 UNL     1      23.764  -2.868  -0.065  1.00  0.00     0.051 A 
HETATM   22  C17 UNL     1      22.670  -2.087  -0.267  1.00  0.00     0.102 A 
HETATM   23  C18 UNL     1      22.814  -0.889  -0.930  1.00  0.00     0.132 A 
HETATM   24  C19 UNL     1      24.052  -0.490  -1.383  1.00  0.00     0.102 A 
HETATM   25  C20 UNL     1      25.158  -1.313  -1.161  1.00  0.00     0.051 A 
BRANCH  22  26
HETATM   26  O10 UNL     1      21.419  -2.468   0.178  1.00  0.00    -0.358 OA
ATOM     27  H10 UNL     1      20.667  -2.480  -0.403  1.00  0.00     0.217 HD
ENDBRANCH  22  26
BRANCH  23  28
HETATM   28  O11 UNL     1      21.725  -0.056  -1.161  1.00  0.00    -0.356 OA
ATOM     29  H11 UNL     1      20.908  -0.170  -0.690  1.00  0.00     0.218 HD
ENDBRANCH  23  28
BRANCH  24  30
HETATM   30  O12 UNL     1      24.190   0.714  -2.049  1.00  0.00    -0.358 OA
ATOM     31  H12 UNL     1      24.879   1.318  -1.799  1.00  0.00     0.217 HD
ENDBRANCH  24  30
ENDBRANCH  19  20
ENDBRANCH  16  18
ENDBRANCH  15  16
ENDBRANCH  14  15
ENDBRANCH  10  14
BRANCH   1  32
HETATM   32  N2  UNL     1      31.954  -3.408   1.202  1.00  0.00    -0.009 N 
ATOM     33  H22 UNL     1      31.909  -3.309   2.216  1.00  0.00     0.284 HD
ATOM     34  H21 UNL     1      32.918  -3.109   1.057  1.00  0.00     0.284 HD
BRANCH  32  35
HETATM   35  C2  UNL     1      31.761  -4.774   0.799  1.00  0.00     0.316 C 
BRANCH  35  36
HETATM   36  C1  UNL     1      32.607  -5.746   1.565  1.00  0.00     0.274 C 
BRANCH  36  37
HETATM   37  N1  UNL     1      33.194  -6.696   0.616  1.00  0.00    -0.077 N 
ATOM     38  H13 UNL     1      32.652  -6.775  -0.245  1.00  0.00     0.274 HD
ATOM     39  H12 UNL     1      34.061  -6.353   0.202  1.00  0.00     0.274 HD
ATOM     40  H11 UNL     1      33.313  -7.591   1.089  1.00  0.00     0.274 HD
ENDBRANCH  36  37
ENDBRANCH  35  36
BRANCH  35  41
HETATM   41  C21 UNL     1      31.991  -4.923  -0.686  1.00  0.00     0.206 C 
HETATM   42  O14 UNL     1      33.008  -4.399  -1.202  1.00  0.00    -0.646 OA
HETATM   43  O15 UNL     1      31.126  -5.614  -1.513  1.00  0.00    -0.646 OA
ENDBRANCH  35  41
ENDBRANCH  32  35
ENDBRANCH   1  32
BRANCH   6  44
HETATM   44  O3  UNL     1      29.064   0.316   3.601  1.00  0.00    -0.389 OA
ATOM     45  H3  UNL     1      28.276   0.431   4.118  1.00  0.00     0.210 HD
ENDBRANCH   6  44
BRANCH   7  46
HETATM   46  O4  UNL     1      30.044  -1.979   6.180  1.00  0.00    -0.362 OA
ATOM     47  H4  UNL     1      29.739  -2.808   6.530  1.00  0.00     0.213 HD
ENDBRANCH   7  46
BRANCH   7  48
HETATM   48  C8  UNL     1      27.915  -1.079   5.683  1.00  0.00     0.235 C 
BRANCH  48  49
HETATM   49  O5  UNL     1      28.177   0.086   6.403  1.00  0.00    -0.395 OA
ATOM     50  H5  UNL     1      28.938   0.487   6.001  1.00  0.00     0.209 HD
ENDBRANCH  48  49
ENDBRANCH   7  48
TORSDOF 18
ENDMDL
MODEL 5
REMARK VINA RESULT: -8.195340657      2.526      5.176
REMARK  18 active torsions:
REMARK  status: ('A' for Active; 'I' for Inactive)
REMARK    1  A    between atoms: N1_1  and  C1_5 
REMARK    2  A    between atoms: C1_5  and  C2_6 
REMARK    3  A    between atoms: C2_6  and  N2_7 
REMARK    4  A    between atoms: C2_6  and  C21_48 
REMARK    5  A    between atoms: N2_7  and  C3_10 
REMARK    6  A    between atoms: C6_15  and  O3_16 
REMARK    7  A    between atoms: C7_18  and  O4_19 
REMARK    8  A    between atoms: C7_18  and  C8_21 
REMARK    9  A    between atoms: C8_21  and  O5_22 
REMARK   10  A    between atoms: C10_26  and  O7_27 
REMARK   11  A    between atoms: C10_26  and  C11_29 
REMARK   12  A    between atoms: C11_29  and  O8_30 
REMARK   13  A    between atoms: O8_30  and  C12_31 
REMARK   14  A    between atoms: C12_31  and  C13_33 
REMARK   15  A    between atoms: C14_34  and  C15_35 
REMARK   16  A    between atoms: C17_37  and  O10_38 
REMARK   17  A    between atoms: C18_40  and  O11_41 
REMARK   18  A    between atoms: C19_43  and  O12_44 
ROOT
HETATM    1  C3  UNL     1      33.200  -3.792  -3.437  1.00  0.00     0.480 C 
HETATM    2  O1  UNL     1      34.561  -4.213  -3.239  1.00  0.00    -0.264 OA
HETATM    3  C4  UNL     1      34.917  -5.304  -2.472  1.00  0.00     0.272 C 
HETATM    4  O2  UNL     1      36.134  -5.414  -2.238  1.00  0.00    -0.265 OA
HETATM    5  C5  UNL     1      34.037  -6.314  -1.923  1.00  0.00     0.154 C 
HETATM    6  C6  UNL     1      34.596  -6.979  -0.686  1.00  0.00     0.199 C 
HETATM    7  C7  UNL     1      33.345  -7.451  -0.023  1.00  0.00     0.211 C 
HETATM    8  O6  UNL     1      32.403  -6.522  -0.321  1.00  0.00    -0.339 OA
HETATM    9  C9  UNL     1      32.690  -5.889  -1.528  1.00  0.00     0.206 C 
HETATM   10  C10 UNL     1      32.411  -4.434  -1.316  1.00  0.00     0.216 C 
HETATM   11  O13 UNL     1      32.699  -3.538  -2.201  1.00  0.00    -0.297 OA
ENDROOT
BRANCH  10  12
HETATM   12  O7  UNL     1      33.130  -4.123  -0.125  1.00  0.00    -0.362 OA
ATOM     13  H7  UNL     1      32.522  -4.343   0.571  1.00  0.00     0.213 HD
ENDBRANCH  10  12
BRANCH  10  14
HETATM   14  C11 UNL     1      30.962  -4.363  -0.881  1.00  0.00     0.250 C 
BRANCH  14  15
HETATM   15  O8  UNL     1      30.647  -3.735   0.275  1.00  0.00    -0.313 OA
BRANCH  15  16
HETATM   16  C12 UNL     1      29.576  -3.027   0.693  1.00  0.00     0.283 C 
HETATM   17  O9  UNL     1      29.763  -2.037   1.433  1.00  0.00    -0.260 OA
BRANCH  16  18
HETATM   18  C13 UNL     1      28.197  -3.382   0.309  1.00  0.00     0.083 C 
HETATM   19  C14 UNL     1      27.355  -2.447  -0.004  1.00  0.00     0.017 C 
BRANCH  19  20
HETATM   20  C15 UNL     1      25.991  -2.750  -0.389  1.00  0.00    -0.031 A 
HETATM   21  C16 UNL     1      25.540  -4.061  -0.272  1.00  0.00     0.051 A 
HETATM   22  C17 UNL     1      24.273  -4.419  -0.608  1.00  0.00     0.102 A 
HETATM   23  C18 UNL     1      23.407  -3.458  -1.079  1.00  0.00     0.132 A 
HETATM   24  C19 UNL     1      23.822  -2.152  -1.207  1.00  0.00     0.102 A 
HETATM   25  C20 UNL     1      25.129  -1.813  -0.855  1.00  0.00     0.051 A 
BRANCH  22  26
HETATM   26  O10 UNL     1      23.836  -5.724  -0.488  1.00  0.00    -0.358 OA
ATOM     27  H10 UNL     1      23.277  -6.123  -1.145  1.00  0.00     0.217 HD
ENDBRANCH  22  26
BRANCH  23  28
HETATM   28  O11 UNL     1      22.101  -3.776  -1.436  1.00  0.00    -0.356 OA
ATOM     29  H11 UNL     1      21.910  -4.260  -2.230  1.00  0.00     0.218 HD
ENDBRANCH  23  28
BRANCH  24  30
HETATM   30  O12 UNL     1      22.946  -1.191  -1.681  1.00  0.00    -0.358 OA
ATOM     31  H12 UNL     1      23.186  -0.273  -1.647  1.00  0.00     0.217 HD
ENDBRANCH  24  30
ENDBRANCH  19  20
ENDBRANCH  16  18
ENDBRANCH  15  16
ENDBRANCH  14  15
ENDBRANCH  10  14
BRANCH   1  32
HETATM   32  N2  UNL     1      32.469  -4.697  -4.241  1.00  0.00    -0.009 N 
ATOM     33  H22 UNL     1      31.477  -4.463  -4.259  1.00  0.00     0.284 HD
ATOM     34  H21 UNL     1      32.407  -5.617  -3.807  1.00  0.00     0.284 HD
BRANCH  32  35
HETATM   35  C2  UNL     1      33.014  -4.777  -5.568  1.00  0.00     0.316 C 
BRANCH  35  36
HETATM   36  C1  UNL     1      32.137  -4.149  -6.610  1.00  0.00     0.274 C 
BRANCH  36  37
HETATM   37  N1  UNL     1      31.452  -5.218  -7.342  1.00  0.00    -0.077 N 
ATOM     38  H13 UNL     1      31.090  -4.907  -8.244  1.00  0.00     0.274 HD
ATOM     39  H12 UNL     1      32.094  -5.930  -7.690  1.00  0.00     0.274 HD
ATOM     40  H11 UNL     1      30.726  -5.605  -6.740  1.00  0.00     0.274 HD
ENDBRANCH  36  37
ENDBRANCH  35  36
BRANCH  35  41
HETATM   41  C21 UNL     1      33.322  -6.211  -5.926  1.00  0.00     0.206 C 
HETATM   42  O14 UNL     1      32.932  -7.128  -5.163  1.00  0.00    -0.646 OA
HETATM   43  O15 UNL     1      34.022  -6.566  -7.064  1.00  0.00    -0.646 OA
ENDBRANCH  35  41
ENDBRANCH  32  35
ENDBRANCH   1  32
BRANCH   6  44
HETATM   44  O3  UNL     1      35.288  -6.017   0.036  1.00  0.00    -0.389 OA
ATOM     45  H3  UNL     1      36.209  -6.245   0.013  1.00  0.00     0.210 HD
ENDBRANCH   6  44
BRANCH   7  46
HETATM   46  O4  UNL     1      32.971  -8.709  -0.483  1.00  0.00    -0.362 OA
ATOM     47  H4  UNL     1      33.461  -9.397  -0.048  1.00  0.00     0.213 HD
ENDBRANCH   7  46
BRANCH   7  48
HETATM   48  C8  UNL     1      33.486  -7.513   1.491  1.00  0.00     0.235 C 
BRANCH  48  49
HETATM   49  O5  UNL     1      33.011  -6.298   1.983  1.00  0.00    -0.395 OA
ATOM     50  H5  UNL     1      33.616  -5.631   1.683  1.00  0.00     0.209 HD
ENDBRANCH  48  49
ENDBRANCH   7  48
TORSDOF 18
ENDMDL
