MODEL 1
REMARK VINA RESULT: -7.365556044      0.000      0.000
REMARK  19 active torsions:
REMARK  status: ('A' for Active; 'I' for Inactive)
REMARK    1  A    between atoms: O1_2  and  C2_3 
REMARK    2  A    between atoms: C2_3  and  C3_5 
REMARK    3  A    between atoms: C4_7  and  S1_8 
REMARK    4  A    between atoms: S1_8  and  C5_9 
REMARK    5  A    between atoms: C6_11  and  C7_12 
REMARK    6  A    between atoms: C7_12  and  O5_13 
REMARK    7  A    between atoms: C7_12  and  C8_15 
REMARK    8  A    between atoms: C9_18  and  C10_19 
REMARK    9  A    between atoms: C10_19  and  O8_20 
REMARK   10  A    between atoms: C11_23  and  N1_24 
REMARK   11  A    between atoms: N1_24  and  C12_26 
REMARK   12  A    between atoms: C12_26  and  O10_27 
REMARK   13  A    between atoms: C12_26  and  C13_29 
REMARK   14  A    between atoms: C13_29  and  O11_30 
REMARK   15  A    between atoms: C13_29  and  C14_32 
REMARK   16  A    between atoms: C14_32  and  O12_34 
REMARK   17  A    between atoms: C17_37  and  N2_38 
REMARK   18  A    between atoms: C18_42  and  O13_43 
REMARK   19  A    between atoms: C19_45  and  O14_46 
ROOT
HETATM    1  C5  UNL     1      32.478  -3.368  -0.019  1.00  0.00     0.216 C 
HETATM    2  O4  UNL     1      31.813  -3.085   1.168  1.00  0.00    -0.363 OA
HETATM    3  C6  UNL     1      30.526  -3.544   1.244  1.00  0.00     0.179 C 
HETATM    4  C11 UNL     1      29.568  -2.889   0.236  1.00  0.00     0.113 C 
HETATM    5  C16 UNL     1      30.453  -2.362  -0.847  1.00  0.00     0.063 C 
HETATM    6  C17 UNL     1      31.442  -3.505  -1.117  1.00  0.00     0.224 C 
ENDROOT
BRANCH   1   7
HETATM    7  S1  UNL     1      33.584  -4.765   0.045  1.00  0.00    -0.101 SA
BRANCH   7   8
HETATM    8  C4  UNL     1      33.623  -5.790  -1.406  1.00  0.00     0.217 C 
HETATM    9  O3  UNL     1      34.130  -5.150  -2.530  1.00  0.00    -0.355 OA
HETATM   10  C3  UNL     1      34.537  -6.085  -3.435  1.00  0.00     0.253 C 
HETATM   11  C19 UNL     1      34.569  -7.435  -2.756  1.00  0.00     0.189 C 
HETATM   12  C18 UNL     1      34.397  -7.059  -1.298  1.00  0.00     0.189 C 
BRANCH  10  13
HETATM   13  C2  UNL     1      33.669  -6.133  -4.650  1.00  0.00     0.290 C 
HETATM   14  O2  UNL     1      33.042  -5.116  -5.041  1.00  0.00    -0.262 OA
BRANCH  13  15
HETATM   15  O1  UNL     1      33.524  -7.291  -5.391  1.00  0.00    -0.324 OA
HETATM   16  C1  UNL     1      34.381  -7.573  -6.504  1.00  0.00     0.213 C 
ENDBRANCH  13  15
ENDBRANCH  10  13
BRANCH  11  17
HETATM   17  O14 UNL     1      35.767  -8.113  -2.972  1.00  0.00    -0.390 OA
ATOM     18  H14 UNL     1      36.327  -8.117  -2.204  1.00  0.00     0.210 HD
ENDBRANCH  11  17
BRANCH  12  19
HETATM   19  O13 UNL     1      33.713  -8.079  -0.655  1.00  0.00    -0.389 OA
ATOM     20  H13 UNL     1      34.113  -8.355   0.162  1.00  0.00     0.210 HD
ENDBRANCH  12  19
ENDBRANCH   7   8
ENDBRANCH   1   7
BRANCH   6  21
HETATM   21  N2  UNL     1      31.987  -3.439  -2.439  1.00  0.00    -0.072 N 
ATOM     22  H23 UNL     1      31.647  -2.610  -2.927  1.00  0.00     0.274 HD
ATOM     23  H22 UNL     1      32.983  -3.222  -2.406  1.00  0.00     0.274 HD
ATOM     24  H21 UNL     1      31.821  -4.277  -2.996  1.00  0.00     0.274 HD
ENDBRANCH   6  21
BRANCH   3  25
HETATM   25  C7  UNL     1      30.004  -3.334   2.647  1.00  0.00     0.207 C 
BRANCH  25  26
HETATM   26  O5  UNL     1      28.844  -4.072   2.798  1.00  0.00    -0.388 OA
ATOM     27  H5  UNL     1      28.220  -3.555   3.294  1.00  0.00     0.210 HD
ENDBRANCH  25  26
BRANCH  25  28
HETATM   28  C8  UNL     1      29.693  -1.889   2.881  1.00  0.00     0.331 C 
HETATM   29  O6  UNL     1      28.369  -1.649   3.198  1.00  0.00    -0.203 OA
HETATM   30  O7  UNL     1      28.464  -0.507   3.887  1.00  0.00    -0.203 OA
HETATM   31  C9  UNL     1      29.476  -0.839   4.796  1.00  0.00     0.323 C 
HETATM   32  O9  UNL     1      30.410  -1.499   4.021  1.00  0.00    -0.321 OA
BRANCH  31  33
HETATM   33  C10 UNL     1      28.846  -1.746   5.845  1.00  0.00     0.227 C 
BRANCH  33  34
HETATM   34  O8  UNL     1      29.411  -2.993   5.733  1.00  0.00    -0.396 OA
ATOM     35  H8  UNL     1      29.017  -3.433   4.990  1.00  0.00     0.209 HD
ENDBRANCH  33  34
ENDBRANCH  31  33
ENDBRANCH  25  28
ENDBRANCH   3  25
BRANCH   4  36
HETATM   36  N1  UNL     1      28.640  -3.890  -0.133  1.00  0.00    -0.388 N 
ATOM     37  H1  UNL     1      28.963  -4.758  -0.559  1.00  0.00     0.156 HD
BRANCH  36  38
HETATM   38  C12 UNL     1      27.264  -3.676   0.093  1.00  0.00     0.245 C 
BRANCH  38  39
HETATM   39  O10 UNL     1      26.913  -2.571   0.833  1.00  0.00    -0.374 OA
ATOM     40  H10 UNL     1      26.017  -2.264   0.757  1.00  0.00     0.212 HD
ENDBRANCH  38  39
BRANCH  38  41
HETATM   41  C13 UNL     1      26.491  -4.878   0.594  1.00  0.00     0.194 C 
BRANCH  41  42
HETATM   42  O11 UNL     1      27.317  -5.989   0.783  1.00  0.00    -0.389 OA
ATOM     43  H11 UNL     1      27.056  -6.500   1.541  1.00  0.00     0.210 HD
ENDBRANCH  41  42
BRANCH  41  44
HETATM   44  C14 UNL     1      25.458  -5.291  -0.455  1.00  0.00     0.147 C 
HETATM   45  C15 UNL     1      24.282  -4.345  -0.351  1.00  0.00     0.042 C 
BRANCH  44  46
HETATM   46  O12 UNL     1      24.991  -6.571  -0.170  1.00  0.00    -0.393 OA
ATOM     47  H12 UNL     1      24.047  -6.550  -0.068  1.00  0.00     0.210 HD
ENDBRANCH  44  46
ENDBRANCH  41  44
ENDBRANCH  38  41
ENDBRANCH  36  38
ENDBRANCH   4  36
TORSDOF 19
ENDMDL
MODEL 2
REMARK VINA RESULT: -7.196368677      1.290      1.661
REMARK  19 active torsions:
REMARK  status: ('A' for Active; 'I' for Inactive)
REMARK    1  A    between atoms: O1_2  and  C2_3 
REMARK    2  A    between atoms: C2_3  and  C3_5 
REMARK    3  A    between atoms: C4_7  and  S1_8 
REMARK    4  A    between atoms: S1_8  and  C5_9 
REMARK    5  A    between atoms: C6_11  and  C7_12 
REMARK    6  A    between atoms: C7_12  and  O5_13 
REMARK    7  A    between atoms: C7_12  and  C8_15 
REMARK    8  A    between atoms: C9_18  and  C10_19 
REMARK    9  A    between atoms: C10_19  and  O8_20 
REMARK   10  A    between atoms: C11_23  and  N1_24 
REMARK   11  A    between atoms: N1_24  and  C12_26 
REMARK   12  A    between atoms: C12_26  and  O10_27 
REMARK   13  A    between atoms: C12_26  and  C13_29 
REMARK   14  A    between atoms: C13_29  and  O11_30 
REMARK   15  A    between atoms: C13_29  and  C14_32 
REMARK   16  A    between atoms: C14_32  and  O12_34 
REMARK   17  A    between atoms: C17_37  and  N2_38 
REMARK   18  A    between atoms: C18_42  and  O13_43 
REMARK   19  A    between atoms: C19_45  and  O14_46 
ROOT
HETATM    1  C5  UNL     1      31.962  -2.959   0.488  1.00  0.00     0.216 C 
HETATM    2  O4  UNL     1      31.112  -2.496   1.486  1.00  0.00    -0.363 OA
HETATM    3  C6  UNL     1      29.873  -3.076   1.517  1.00  0.00     0.179 C 
HETATM    4  C11 UNL     1      29.014  -2.783   0.277  1.00  0.00     0.113 C 
HETATM    5  C16 UNL     1      29.995  -2.414  -0.789  1.00  0.00     0.063 C 
HETATM    6  C17 UNL     1      31.108  -3.463  -0.659  1.00  0.00     0.224 C 
ENDROOT
BRANCH   1   7
HETATM    7  S1  UNL     1      33.166  -4.165   1.015  1.00  0.00    -0.101 SA
BRANCH   7   8
HETATM    8  C4  UNL     1      33.304  -5.616   0.000  1.00  0.00     0.217 C 
HETATM    9  O3  UNL     1      34.100  -5.441  -1.125  1.00  0.00    -0.355 OA
HETATM   10  C3  UNL     1      34.511  -6.658  -1.580  1.00  0.00     0.253 C 
HETATM   11  C19 UNL     1      34.206  -7.698  -0.526  1.00  0.00     0.189 C 
HETATM   12  C18 UNL     1      33.835  -6.840   0.666  1.00  0.00     0.189 C 
BRANCH  10  13
HETATM   13  C2  UNL     1      33.881  -7.034  -2.882  1.00  0.00     0.290 C 
HETATM   14  O2  UNL     1      32.635  -6.980  -3.039  1.00  0.00    -0.262 OA
BRANCH  13  15
HETATM   15  O1  UNL     1      34.639  -7.452  -3.959  1.00  0.00    -0.324 OA
HETATM   16  C1  UNL     1      35.991  -7.895  -3.789  1.00  0.00     0.213 C 
ENDBRANCH  13  15
ENDBRANCH  10  13
BRANCH  11  17
HETATM   17  O14 UNL     1      35.302  -8.514  -0.249  1.00  0.00    -0.390 OA
ATOM     18  H14 UNL     1      35.096  -9.438  -0.329  1.00  0.00     0.210 HD
ENDBRANCH  11  17
BRANCH  12  19
HETATM   19  O13 UNL     1      32.894  -7.518   1.425  1.00  0.00    -0.389 OA
ATOM     20  H13 UNL     1      33.257  -7.955   2.186  1.00  0.00     0.210 HD
ENDBRANCH  12  19
ENDBRANCH   7   8
ENDBRANCH   1   7
BRANCH   6  21
HETATM   21  N2  UNL     1      31.828  -3.634  -1.885  1.00  0.00    -0.072 N 
ATOM     22  H23 UNL     1      32.616  -2.987  -1.932  1.00  0.00     0.274 HD
ATOM     23  H22 UNL     1      32.334  -4.519  -1.884  1.00  0.00     0.274 HD
ATOM     24  H21 UNL     1      31.247  -3.554  -2.719  1.00  0.00     0.274 HD
ENDBRANCH   6  21
BRANCH   3  25
HETATM   25  C7  UNL     1      29.140  -2.617   2.758  1.00  0.00     0.207 C 
BRANCH  25  26
HETATM   26  O5  UNL     1      27.952  -2.022   2.371  1.00  0.00    -0.388 OA
ATOM     27  H5  UNL     1      27.818  -1.245   2.900  1.00  0.00     0.210 HD
ENDBRANCH  25  26
BRANCH  25  28
HETATM   28  C8  UNL     1      29.960  -1.617   3.513  1.00  0.00     0.331 C 
HETATM   29  O6  UNL     1      29.538  -0.311   3.343  1.00  0.00    -0.203 OA
HETATM   30  O7  UNL     1      29.981   0.259   4.469  1.00  0.00    -0.203 OA
HETATM   31  C9  UNL     1      29.493  -0.642   5.422  1.00  0.00     0.323 C 
HETATM   32  O9  UNL     1      29.767  -1.881   4.876  1.00  0.00    -0.321 OA
BRANCH  31  33
HETATM   33  C10 UNL     1      27.997  -0.381   5.548  1.00  0.00     0.227 C 
BRANCH  33  34
HETATM   34  O8  UNL     1      27.726   0.849   5.000  1.00  0.00    -0.396 OA
ATOM     35  H8  UNL     1      27.689   0.753   4.055  1.00  0.00     0.209 HD
ENDBRANCH  33  34
ENDBRANCH  31  33
ENDBRANCH  25  28
ENDBRANCH   3  25
BRANCH   4  36
HETATM   36  N1  UNL     1      28.240  -3.945   0.052  1.00  0.00    -0.388 N 
ATOM     37  H1  UNL     1      28.679  -4.865   0.055  1.00  0.00     0.156 HD
BRANCH  36  38
HETATM   38  C12 UNL     1      26.853  -3.818  -0.177  1.00  0.00     0.245 C 
BRANCH  38  39
HETATM   39  O10 UNL     1      26.286  -2.589   0.063  1.00  0.00    -0.374 OA
ATOM     40  H10 UNL     1      25.613  -2.544   0.733  1.00  0.00     0.212 HD
ENDBRANCH  38  39
BRANCH  38  41
HETATM   41  C13 UNL     1      25.989  -4.897   0.442  1.00  0.00     0.194 C 
BRANCH  41  42
HETATM   42  O11 UNL     1      26.754  -5.927   0.994  1.00  0.00    -0.389 OA
ATOM     43  H11 UNL     1      27.386  -5.602   1.624  1.00  0.00     0.210 HD
ENDBRANCH  41  42
BRANCH  41  44
HETATM   44  C14 UNL     1      25.127  -5.543  -0.643  1.00  0.00     0.147 C 
HETATM   45  C15 UNL     1      23.900  -4.680  -0.841  1.00  0.00     0.042 C 
BRANCH  44  46
HETATM   46  O12 UNL     1      24.692  -6.793  -0.210  1.00  0.00    -0.393 OA
ATOM     47  H12 UNL     1      25.387  -7.221   0.276  1.00  0.00     0.210 HD
ENDBRANCH  44  46
ENDBRANCH  41  44
ENDBRANCH  38  41
ENDBRANCH  36  38
ENDBRANCH   4  36
TORSDOF 19
ENDMDL
MODEL 3
REMARK VINA RESULT: -7.188055154      2.721      9.091
REMARK  19 active torsions:
REMARK  status: ('A' for Active; 'I' for Inactive)
REMARK    1  A    between atoms: O1_2  and  C2_3 
REMARK    2  A    between atoms: C2_3  and  C3_5 
REMARK    3  A    between atoms: C4_7  and  S1_8 
REMARK    4  A    between atoms: S1_8  and  C5_9 
REMARK    5  A    between atoms: C6_11  and  C7_12 
REMARK    6  A    between atoms: C7_12  and  O5_13 
REMARK    7  A    between atoms: C7_12  and  C8_15 
REMARK    8  A    between atoms: C9_18  and  C10_19 
REMARK    9  A    between atoms: C10_19  and  O8_20 
REMARK   10  A    between atoms: C11_23  and  N1_24 
REMARK   11  A    between atoms: N1_24  and  C12_26 
REMARK   12  A    between atoms: C12_26  and  O10_27 
REMARK   13  A    between atoms: C12_26  and  C13_29 
REMARK   14  A    between atoms: C13_29  and  O11_30 
REMARK   15  A    between atoms: C13_29  and  C14_32 
REMARK   16  A    between atoms: C14_32  and  O12_34 
REMARK   17  A    between atoms: C17_37  and  N2_38 
REMARK   18  A    between atoms: C18_42  and  O13_43 
REMARK   19  A    between atoms: C19_45  and  O14_46 
ROOT
HETATM    1  C5  UNL     1      29.031  -2.347   2.498  1.00  0.00     0.216 C 
HETATM    2  O4  UNL     1      27.998  -3.113   1.972  1.00  0.00    -0.363 OA
HETATM    3  C6  UNL     1      28.387  -4.218   1.265  1.00  0.00     0.179 C 
HETATM    4  C11 UNL     1      29.164  -3.896  -0.021  1.00  0.00     0.113 C 
HETATM    5  C16 UNL     1      29.703  -2.518   0.191  1.00  0.00     0.063 C 
HETATM    6  C17 UNL     1      30.254  -2.546   1.624  1.00  0.00     0.224 C 
ENDROOT
BRANCH   1   7
HETATM    7  S1  UNL     1      29.380  -2.624   4.224  1.00  0.00    -0.101 SA
BRANCH   7   8
HETATM    8  C4  UNL     1      29.167  -1.221   5.293  1.00  0.00     0.217 C 
HETATM    9  O3  UNL     1      27.877  -0.703   5.287  1.00  0.00    -0.355 OA
HETATM   10  C3  UNL     1      27.685   0.037   6.415  1.00  0.00     0.253 C 
HETATM   11  C19 UNL     1      28.820  -0.237   7.375  1.00  0.00     0.189 C 
HETATM   12  C18 UNL     1      29.496  -1.431   6.732  1.00  0.00     0.189 C 
BRANCH  10  13
HETATM   13  C2  UNL     1      27.579   1.502   6.137  1.00  0.00     0.290 C 
HETATM   14  O2  UNL     1      26.741   1.947   5.313  1.00  0.00    -0.262 OA
BRANCH  13  15
HETATM   15  O1  UNL     1      28.393   2.420   6.773  1.00  0.00    -0.324 OA
HETATM   16  C1  UNL     1      27.842   3.463   7.587  1.00  0.00     0.213 C 
ENDBRANCH  13  15
ENDBRANCH  10  13
BRANCH  11  17
HETATM   17  O14 UNL     1      28.372  -0.533   8.661  1.00  0.00    -0.390 OA
ATOM     18  H14 UNL     1      28.720  -1.355   8.987  1.00  0.00     0.210 HD
ENDBRANCH  11  17
BRANCH  12  19
HETATM   19  O13 UNL     1      30.853  -1.375   7.009  1.00  0.00    -0.389 OA
ATOM     20  H13 UNL     1      31.057  -0.981   7.849  1.00  0.00     0.210 HD
ENDBRANCH  12  19
ENDBRANCH   7   8
ENDBRANCH   1   7
BRANCH   6  21
HETATM   21  N2  UNL     1      31.274  -1.560   1.824  1.00  0.00    -0.072 N 
ATOM     22  H23 UNL     1      31.852  -1.800   2.630  1.00  0.00     0.274 HD
ATOM     23  H22 UNL     1      31.976  -1.616   1.086  1.00  0.00     0.274 HD
ATOM     24  H21 UNL     1      30.917  -0.609   1.908  1.00  0.00     0.274 HD
ENDBRANCH   6  21
BRANCH   3  25
HETATM   25  C7  UNL     1      27.169  -5.047   0.926  1.00  0.00     0.207 C 
BRANCH  25  26
HETATM   26  O5  UNL     1      27.446  -5.788  -0.210  1.00  0.00    -0.388 OA
ATOM     27  H5  UNL     1      26.796  -5.580  -0.871  1.00  0.00     0.210 HD
ENDBRANCH  25  26
BRANCH  25  28
HETATM   28  C8  UNL     1      25.992  -4.164   0.653  1.00  0.00     0.331 C 
HETATM   29  O6  UNL     1      25.951  -3.675  -0.639  1.00  0.00    -0.203 OA
HETATM   30  O7  UNL     1      24.642  -3.451  -0.796  1.00  0.00    -0.203 OA
HETATM   31  C9  UNL     1      24.118  -4.676  -0.368  1.00  0.00     0.323 C 
HETATM   32  O9  UNL     1      24.848  -4.967   0.769  1.00  0.00    -0.321 OA
BRANCH  31  33
HETATM   33  C10 UNL     1      24.365  -5.677  -1.489  1.00  0.00     0.227 C 
BRANCH  33  34
HETATM   34  O8  UNL     1      25.014  -6.766  -0.961  1.00  0.00    -0.396 OA
ATOM     35  H8  UNL     1      24.829  -6.801  -0.030  1.00  0.00     0.209 HD
ENDBRANCH  33  34
ENDBRANCH  31  33
ENDBRANCH  25  28
ENDBRANCH   3  25
BRANCH   4  36
HETATM   36  N1  UNL     1      30.113  -4.932  -0.178  1.00  0.00    -0.388 N 
ATOM     37  H1  UNL     1      30.146  -5.706   0.486  1.00  0.00     0.156 HD
BRANCH  36  38
HETATM   38  C12 UNL     1      31.015  -4.886  -1.262  1.00  0.00     0.245 C 
BRANCH  38  39
HETATM   39  O10 UNL     1      31.045  -5.975  -2.102  1.00  0.00    -0.374 OA
ATOM     40  H10 UNL     1      31.811  -6.076  -2.655  1.00  0.00     0.212 HD
ENDBRANCH  38  39
BRANCH  38  41
HETATM   41  C13 UNL     1      32.434  -4.485  -0.914  1.00  0.00     0.194 C 
BRANCH  41  42
HETATM   42  O11 UNL     1      33.362  -5.018  -1.811  1.00  0.00    -0.389 OA
ATOM     43  H11 UNL     1      33.919  -5.669  -1.401  1.00  0.00     0.210 HD
ENDBRANCH  41  42
BRANCH  41  44
HETATM   44  C14 UNL     1      32.799  -5.048   0.459  1.00  0.00     0.147 C 
HETATM   45  C15 UNL     1      34.281  -4.834   0.674  1.00  0.00     0.042 C 
BRANCH  44  46
HETATM   46  O12 UNL     1      32.568  -6.421   0.477  1.00  0.00    -0.393 OA
ATOM     47  H12 UNL     1      33.386  -6.879   0.627  1.00  0.00     0.210 HD
ENDBRANCH  44  46
ENDBRANCH  41  44
ENDBRANCH  38  41
ENDBRANCH  36  38
ENDBRANCH   4  36
TORSDOF 19
ENDMDL
MODEL 4
REMARK VINA RESULT: -7.176706112      2.386      8.080
REMARK  19 active torsions:
REMARK  status: ('A' for Active; 'I' for Inactive)
REMARK    1  A    between atoms: O1_2  and  C2_3 
REMARK    2  A    between atoms: C2_3  and  C3_5 
REMARK    3  A    between atoms: C4_7  and  S1_8 
REMARK    4  A    between atoms: S1_8  and  C5_9 
REMARK    5  A    between atoms: C6_11  and  C7_12 
REMARK    6  A    between atoms: C7_12  and  O5_13 
REMARK    7  A    between atoms: C7_12  and  C8_15 
REMARK    8  A    between atoms: C9_18  and  C10_19 
REMARK    9  A    between atoms: C10_19  and  O8_20 
REMARK   10  A    between atoms: C11_23  and  N1_24 
REMARK   11  A    between atoms: N1_24  and  C12_26 
REMARK   12  A    between atoms: C12_26  and  O10_27 
REMARK   13  A    between atoms: C12_26  and  C13_29 
REMARK   14  A    between atoms: C13_29  and  O11_30 
REMARK   15  A    between atoms: C13_29  and  C14_32 
REMARK   16  A    between atoms: C14_32  and  O12_34 
REMARK   17  A    between atoms: C17_37  and  N2_38 
REMARK   18  A    between atoms: C18_42  and  O13_43 
REMARK   19  A    between atoms: C19_45  and  O14_46 
ROOT
HETATM    1  C5  UNL     1      28.499  -4.322  -0.090  1.00  0.00     0.216 C 
HETATM    2  O4  UNL     1      29.759  -4.906  -0.135  1.00  0.00    -0.363 OA
HETATM    3  C6  UNL     1      30.661  -4.429   0.776  1.00  0.00     0.179 C 
HETATM    4  C11 UNL     1      31.041  -2.955   0.566  1.00  0.00     0.113 C 
HETATM    5  C16 UNL     1      29.912  -2.376  -0.224  1.00  0.00     0.063 C 
HETATM    6  C17 UNL     1      28.652  -2.919   0.465  1.00  0.00     0.224 C 
ENDROOT
BRANCH   1   7
HETATM    7  S1  UNL     1      27.256  -5.260   0.778  1.00  0.00    -0.101 SA
BRANCH   7   8
HETATM    8  C4  UNL     1      25.575  -4.959   0.289  1.00  0.00     0.217 C 
HETATM    9  O3  UNL     1      25.407  -3.796  -0.453  1.00  0.00    -0.355 OA
HETATM   10  C3  UNL     1      24.236  -3.870  -1.146  1.00  0.00     0.253 C 
HETATM   11  C19 UNL     1      23.726  -5.292  -1.088  1.00  0.00     0.189 C 
HETATM   12  C18 UNL     1      24.918  -6.030  -0.512  1.00  0.00     0.189 C 
BRANCH  10  13
HETATM   13  C2  UNL     1      23.199  -2.923  -0.636  1.00  0.00     0.290 C 
HETATM   14  O2  UNL     1      22.422  -3.252   0.296  1.00  0.00    -0.262 OA
BRANCH  13  15
HETATM   15  O1  UNL     1      23.054  -1.654  -1.165  1.00  0.00    -0.324 OA
HETATM   16  C1  UNL     1      24.193  -0.834  -1.451  1.00  0.00     0.213 C 
ENDBRANCH  13  15
ENDBRANCH  10  13
BRANCH  11  17
HETATM   17  O14 UNL     1      23.376  -5.785  -2.343  1.00  0.00    -0.390 OA
ATOM     18  H14 UNL     1      22.869  -5.162  -2.850  1.00  0.00     0.210 HD
ENDBRANCH  11  17
BRANCH  12  19
HETATM   19  O13 UNL     1      24.455  -7.094   0.248  1.00  0.00    -0.389 OA
ATOM     20  H13 UNL     1      23.544  -7.311   0.090  1.00  0.00     0.210 HD
ENDBRANCH  12  19
ENDBRANCH   7   8
ENDBRANCH   1   7
BRANCH   6  21
HETATM   21  N2  UNL     1      27.515  -2.079   0.237  1.00  0.00    -0.072 N 
ATOM     22  H23 UNL     1      27.494  -1.757  -0.731  1.00  0.00     0.274 HD
ATOM     23  H22 UNL     1      26.655  -2.627   0.254  1.00  0.00     0.274 HD
ATOM     24  H21 UNL     1      27.450  -1.290   0.879  1.00  0.00     0.274 HD
ENDBRANCH   6  21
BRANCH   3  25
HETATM   25  C7  UNL     1      31.908  -5.283   0.738  1.00  0.00     0.207 C 
BRANCH  25  26
HETATM   26  O5  UNL     1      32.847  -4.725   1.586  1.00  0.00    -0.388 OA
ATOM     27  H5  UNL     1      32.726  -3.783   1.592  1.00  0.00     0.210 HD
ENDBRANCH  25  26
BRANCH  25  28
HETATM   28  C8  UNL     1      32.472  -5.327  -0.649  1.00  0.00     0.331 C 
HETATM   29  O6  UNL     1      33.835  -5.105  -0.701  1.00  0.00    -0.203 OA
HETATM   30  O7  UNL     1      34.162  -5.735  -1.834  1.00  0.00    -0.203 OA
HETATM   31  C9  UNL     1      33.542  -6.973  -1.628  1.00  0.00     0.323 C 
HETATM   32  O9  UNL     1      32.304  -6.639  -1.113  1.00  0.00    -0.321 OA
BRANCH  31  33
HETATM   33  C10 UNL     1      34.402  -7.735  -0.627  1.00  0.00     0.227 C 
BRANCH  33  34
HETATM   34  O8  UNL     1      33.670  -8.793  -0.146  1.00  0.00    -0.396 OA
ATOM     35  H8  UNL     1      34.104  -9.597  -0.402  1.00  0.00     0.209 HD
ENDBRANCH  33  34
ENDBRANCH  31  33
ENDBRANCH  25  28
ENDBRANCH   3  25
BRANCH   4  36
HETATM   36  N1  UNL     1      31.255  -2.416   1.856  1.00  0.00    -0.388 N 
ATOM     37  H1  UNL     1      31.967  -2.813   2.469  1.00  0.00     0.156 HD
BRANCH  36  38
HETATM   38  C12 UNL     1      30.475  -1.322   2.286  1.00  0.00     0.245 C 
BRANCH  38  39
HETATM   39  O10 UNL     1      31.073  -0.083   2.283  1.00  0.00    -0.374 OA
ATOM     40  H10 UNL     1      31.364   0.261   3.119  1.00  0.00     0.212 HD
ENDBRANCH  38  39
BRANCH  38  41
HETATM   41  C13 UNL     1      29.742  -1.518   3.597  1.00  0.00     0.194 C 
BRANCH  41  42
HETATM   42  O11 UNL     1      28.440  -1.986   3.403  1.00  0.00    -0.389 OA
ATOM     43  H11 UNL     1      27.793  -1.310   3.565  1.00  0.00     0.210 HD
ENDBRANCH  41  42
BRANCH  41  44
HETATM   44  C14 UNL     1      29.608  -0.174   4.312  1.00  0.00     0.147 C 
HETATM   45  C15 UNL     1      29.403  -0.445   5.786  1.00  0.00     0.042 C 
BRANCH  44  46
HETATM   46  O12 UNL     1      28.476   0.490   3.847  1.00  0.00    -0.393 OA
ATOM     47  H12 UNL     1      28.431   1.354   4.238  1.00  0.00     0.210 HD
ENDBRANCH  44  46
ENDBRANCH  41  44
ENDBRANCH  38  41
ENDBRANCH  36  38
ENDBRANCH   4  36
TORSDOF 19
ENDMDL
MODEL 5
REMARK VINA RESULT: -7.149802527      2.655      3.906
REMARK  19 active torsions:
REMARK  status: ('A' for Active; 'I' for Inactive)
REMARK    1  A    between atoms: O1_2  and  C2_3 
REMARK    2  A    between atoms: C2_3  and  C3_5 
REMARK    3  A    between atoms: C4_7  and  S1_8 
REMARK    4  A    between atoms: S1_8  and  C5_9 
REMARK    5  A    between atoms: C6_11  and  C7_12 
REMARK    6  A    between atoms: C7_12  and  O5_13 
REMARK    7  A    between atoms: C7_12  and  C8_15 
REMARK    8  A    between atoms: C9_18  and  C10_19 
REMARK    9  A    between atoms: C10_19  and  O8_20 
REMARK   10  A    between atoms: C11_23  and  N1_24 
REMARK   11  A    between atoms: N1_24  and  C12_26 
REMARK   12  A    between atoms: C12_26  and  O10_27 
REMARK   13  A    between atoms: C12_26  and  C13_29 
REMARK   14  A    between atoms: C13_29  and  O11_30 
REMARK   15  A    between atoms: C13_29  and  C14_32 
REMARK   16  A    between atoms: C14_32  and  O12_34 
REMARK   17  A    between atoms: C17_37  and  N2_38 
REMARK   18  A    between atoms: C18_42  and  O13_43 
REMARK   19  A    between atoms: C19_45  and  O14_46 
ROOT
HETATM    1  C5  UNL     1      32.479  -3.898  -0.247  1.00  0.00     0.216 C 
HETATM    2  O4  UNL     1      31.900  -3.560   0.971  1.00  0.00    -0.363 OA
HETATM    3  C6  UNL     1      30.543  -3.726   1.041  1.00  0.00     0.179 C 
HETATM    4  C11 UNL     1      29.751  -2.803   0.102  1.00  0.00     0.113 C 
HETATM    5  C16 UNL     1      30.726  -2.409  -0.960  1.00  0.00     0.063 C 
HETATM    6  C17 UNL     1      31.433  -3.721  -1.329  1.00  0.00     0.224 C 
ENDROOT
BRANCH   1   7
HETATM    7  S1  UNL     1      33.246  -5.507  -0.303  1.00  0.00    -0.101 SA
BRANCH   7   8
HETATM    8  C4  UNL     1      34.357  -5.883   1.031  1.00  0.00     0.217 C 
HETATM    9  O3  UNL     1      34.969  -7.125   0.918  1.00  0.00    -0.355 OA
HETATM   10  C3  UNL     1      36.092  -7.146   1.689  1.00  0.00     0.253 C 
HETATM   11  C19 UNL     1      36.410  -5.733   2.122  1.00  0.00     0.189 C 
HETATM   12  C18 UNL     1      35.473  -4.919   1.253  1.00  0.00     0.189 C 
BRANCH  10  13
HETATM   13  C2  UNL     1      35.962  -8.039   2.880  1.00  0.00     0.290 C 
HETATM   14  O2  UNL     1      35.115  -7.804   3.778  1.00  0.00    -0.262 OA
BRANCH  13  15
HETATM   15  O1  UNL     1      36.763  -9.154   3.040  1.00  0.00    -0.324 OA
HETATM   16  C1  UNL     1      37.472  -9.391   4.263  1.00  0.00     0.213 C 
ENDBRANCH  13  15
ENDBRANCH  10  13
BRANCH  11  17
HETATM   17  O14 UNL     1      37.742  -5.393   1.898  1.00  0.00    -0.390 OA
ATOM     18  H14 UNL     1      37.953  -5.339   0.973  1.00  0.00     0.210 HD
ENDBRANCH  11  17
BRANCH  12  19
HETATM   19  O13 UNL     1      35.099  -3.780   1.949  1.00  0.00    -0.389 OA
ATOM     20  H13 UNL     1      34.910  -3.936   2.867  1.00  0.00     0.210 HD
ENDBRANCH  12  19
ENDBRANCH   7   8
ENDBRANCH   1   7
BRANCH   6  21
HETATM   21  N2  UNL     1      31.972  -3.683  -2.655  1.00  0.00    -0.072 N 
ATOM     22  H23 UNL     1      31.385  -3.115  -3.266  1.00  0.00     0.274 HD
ATOM     23  H22 UNL     1      32.829  -3.130  -2.679  1.00  0.00     0.274 HD
ATOM     24  H21 UNL     1      32.129  -4.604  -3.063  1.00  0.00     0.274 HD
ENDBRANCH   6  21
BRANCH   3  25
HETATM   25  C7  UNL     1      30.089  -3.507   2.467  1.00  0.00     0.207 C 
BRANCH  25  26
HETATM   26  O5  UNL     1      28.938  -4.247   2.678  1.00  0.00    -0.388 OA
ATOM     27  H5  UNL     1      29.040  -4.738   3.484  1.00  0.00     0.210 HD
ENDBRANCH  25  26
BRANCH  25  28
HETATM   28  C8  UNL     1      29.785  -2.060   2.705  1.00  0.00     0.331 C 
HETATM   29  O6  UNL     1      28.456  -1.810   2.987  1.00  0.00    -0.203 OA
HETATM   30  O7  UNL     1      28.543  -0.675   3.689  1.00  0.00    -0.203 OA
HETATM   31  C9  UNL     1      29.525  -1.026   4.623  1.00  0.00     0.323 C 
HETATM   32  O9  UNL     1      30.474  -1.689   3.869  1.00  0.00    -0.321 OA
BRANCH  31  33
HETATM   33  C10 UNL     1      28.856  -1.936   5.645  1.00  0.00     0.227 C 
BRANCH  33  34
HETATM   34  O8  UNL     1      29.484  -3.157   5.613  1.00  0.00    -0.396 OA
ATOM     35  H8  UNL     1      29.327  -3.550   4.762  1.00  0.00     0.209 HD
ENDBRANCH  33  34
ENDBRANCH  31  33
ENDBRANCH  25  28
ENDBRANCH   3  25
BRANCH   4  36
HETATM   36  N1  UNL     1      28.621  -3.543  -0.316  1.00  0.00    -0.388 N 
ATOM     37  H1  UNL     1      28.739  -4.436  -0.794  1.00  0.00     0.156 HD
BRANCH  36  38
HETATM   38  C12 UNL     1      27.329  -3.035  -0.066  1.00  0.00     0.245 C 
BRANCH  38  39
HETATM   39  O10 UNL     1      27.242  -1.760   0.443  1.00  0.00    -0.374 OA
ATOM     40  H10 UNL     1      28.022  -1.219   0.396  1.00  0.00     0.212 HD
ENDBRANCH  38  39
BRANCH  38  41
HETATM   41  C13 UNL     1      26.409  -3.948   0.717  1.00  0.00     0.194 C 
BRANCH  41  42
HETATM   42  O11 UNL     1      26.802  -5.285   0.630  1.00  0.00    -0.389 OA
ATOM     43  H11 UNL     1      26.275  -5.771   0.007  1.00  0.00     0.210 HD
ENDBRANCH  41  42
BRANCH  41  44
HETATM   44  C14 UNL     1      25.001  -3.880   0.125  1.00  0.00     0.147 C 
HETATM   45  C15 UNL     1      24.733  -5.183  -0.595  1.00  0.00     0.042 C 
BRANCH  44  46
HETATM   46  O12 UNL     1      24.942  -2.860  -0.821  1.00  0.00    -0.393 OA
ATOM     47  H12 UNL     1      24.207  -2.291  -0.629  1.00  0.00     0.210 HD
ENDBRANCH  44  46
ENDBRANCH  41  44
ENDBRANCH  38  41
ENDBRANCH  36  38
ENDBRANCH   4  36
TORSDOF 19
ENDMDL
