MODEL 1
REMARK VINA RESULT: -5.145515228      0.000      0.000
REMARK  4 active torsions:
REMARK  status: ('A' for Active; 'I' for Inactive)
REMARK    1  A    between atoms: N1_1  and  N2_4 
REMARK    2  A    between atoms: N2_4  and  O1_5 
REMARK    3  A    between atoms: O1_5  and  N3_6 
REMARK    4  A    between atoms: N3_6  and  C1_8 
ROOT
HETATM    1  C1  UNL     1      14.613  -2.471   3.008  1.00  0.00     0.144 A 
HETATM    2  C2  UNL     1      13.261  -2.294   2.796  1.00  0.00     0.140 A 
HETATM    3  N4  UNL     1      12.335  -2.933   3.534  1.00  0.00    -0.345 N 
ATOM      4  H4  UNL     1      11.339  -2.788   3.362  1.00  0.00     0.167 HD
HETATM    5  C3  UNL     1      12.751  -3.768   4.504  1.00  0.00     0.154 A 
HETATM    6  N5  UNL     1      12.068  -4.530   5.386  1.00  0.00    -0.291 N 
ATOM      7  H5  UNL     1      11.054  -4.604   5.468  1.00  0.00     0.172 HD
HETATM    8  C4  UNL     1      12.985  -5.174   6.140  1.00  0.00     0.327 A 
HETATM    9  O2  UNL     1      12.676  -5.968   7.059  1.00  0.00    -0.247 OA
HETATM   10  N6  UNL     1      14.218  -4.854   5.774  1.00  0.00    -0.291 N 
ATOM     11  H6  UNL     1      15.083  -5.205   6.185  1.00  0.00     0.172 HD
HETATM   12  C5  UNL     1      14.111  -3.981   4.760  1.00  0.00     0.156 A 
HETATM   13  N7  UNL     1      14.980  -3.312   3.987  1.00  0.00    -0.323 N 
ATOM     14  H7  UNL     1      15.977  -3.450   4.153  1.00  0.00     0.169 HD
ENDROOT
BRANCH   1  15
HETATM   15  N3  UNL     1      15.488  -1.834   2.274  1.00  0.00    -0.226 N 
ATOM     16  H3  UNL     1      15.486  -1.917   1.257  1.00  0.00     0.198 HD
BRANCH  15  17
HETATM   17  O1  UNL     1      16.401  -1.055   2.919  1.00  0.00    -0.141 OA
BRANCH  17  18
HETATM   18  N2  UNL     1      16.209  -0.410   4.094  1.00  0.00     0.040 NA
BRANCH  18  19
HETATM   19  N1  UNL     1      17.289  -0.541   4.962  1.00  0.00    -0.321 N 
ATOM     20  H12 UNL     1      17.281  -1.173   5.763  1.00  0.00     0.174 HD
ATOM     21  H11 UNL     1      18.074   0.059   4.707  1.00  0.00     0.174 HD
ENDBRANCH  18  19
ENDBRANCH  17  18
ENDBRANCH  15  17
ENDBRANCH   1  15
TORSDOF 4
ENDMDL
MODEL 2
REMARK VINA RESULT: -4.954306781      2.723      4.579
REMARK  4 active torsions:
REMARK  status: ('A' for Active; 'I' for Inactive)
REMARK    1  A    between atoms: N1_1  and  N2_4 
REMARK    2  A    between atoms: N2_4  and  O1_5 
REMARK    3  A    between atoms: O1_5  and  N3_6 
REMARK    4  A    between atoms: N3_6  and  C1_8 
ROOT
HETATM    1  C1  UNL     1      11.551  -2.629   3.070  1.00  0.00     0.144 A 
HETATM    2  C2  UNL     1      12.918  -2.541   2.908  1.00  0.00     0.140 A 
HETATM    3  N4  UNL     1      13.774  -3.191   3.718  1.00  0.00    -0.345 N 
ATOM      4  H4  UNL     1      14.782  -3.114   3.581  1.00  0.00     0.167 HD
HETATM    5  C3  UNL     1      13.270  -3.946   4.711  1.00  0.00     0.154 A 
HETATM    6  N5  UNL     1      13.870  -4.697   5.661  1.00  0.00    -0.291 N 
ATOM      7  H5  UNL     1      14.874  -4.825   5.790  1.00  0.00     0.172 HD
HETATM    8  C4  UNL     1      12.887  -5.247   6.405  1.00  0.00     0.327 A 
HETATM    9  O2  UNL     1      13.110  -6.005   7.378  1.00  0.00    -0.247 OA
HETATM   10  N6  UNL     1      11.691  -4.878   5.970  1.00  0.00    -0.291 N 
ATOM     11  H6  UNL     1      10.791  -5.155   6.360  1.00  0.00     0.172 HD
HETATM   12  C5  UNL     1      11.890  -4.069   4.917  1.00  0.00     0.156 A 
HETATM   13  N7  UNL     1      11.095  -3.394   4.074  1.00  0.00    -0.323 N 
ATOM     14  H7  UNL     1      10.086  -3.467   4.202  1.00  0.00     0.169 HD
ENDROOT
BRANCH   1  15
HETATM   15  N3  UNL     1      10.746  -1.985   2.265  1.00  0.00    -0.226 N 
ATOM     16  H3  UNL     1      10.679  -0.967   2.286  1.00  0.00     0.198 HD
BRANCH  15  17
HETATM   17  O1  UNL     1      10.000  -2.726   1.397  1.00  0.00    -0.141 OA
BRANCH  17  18
HETATM   18  N2  UNL     1       8.870  -3.406   1.700  1.00  0.00     0.040 NA
BRANCH  18  19
HETATM   19  N1  UNL     1       7.955  -3.424   0.651  1.00  0.00    -0.321 N 
ATOM     20  H12 UNL     1       7.484  -4.275   0.343  1.00  0.00     0.174 HD
ATOM     21  H11 UNL     1       7.815  -2.503   0.234  1.00  0.00     0.174 HD
ENDBRANCH  18  19
ENDBRANCH  17  18
ENDBRANCH  15  17
ENDBRANCH   1  15
TORSDOF 4
ENDMDL
MODEL 3
REMARK VINA RESULT: -4.910598617      1.565      4.865
REMARK  4 active torsions:
REMARK  status: ('A' for Active; 'I' for Inactive)
REMARK    1  A    between atoms: N1_1  and  N2_4 
REMARK    2  A    between atoms: N2_4  and  O1_5 
REMARK    3  A    between atoms: O1_5  and  N3_6 
REMARK    4  A    between atoms: N3_6  and  C1_8 
ROOT
HETATM    1  C1  UNL     1      11.962  -3.963   4.755  1.00  0.00     0.144 A 
HETATM    2  C2  UNL     1      11.309  -3.129   3.871  1.00  0.00     0.140 A 
HETATM    3  N4  UNL     1      11.978  -2.323   3.027  1.00  0.00    -0.345 N 
ATOM      4  H4  UNL     1      11.477  -1.714   2.380  1.00  0.00     0.167 HD
HETATM    5  C3  UNL     1      13.323  -2.338   3.055  1.00  0.00     0.154 A 
HETATM    6  N5  UNL     1      14.244  -1.654   2.342  1.00  0.00    -0.291 N 
ATOM      7  H5  UNL     1      14.058  -0.964   1.613  1.00  0.00     0.172 HD
HETATM    8  C4  UNL     1      15.457  -2.057   2.777  1.00  0.00     0.327 A 
HETATM    9  O2  UNL     1      16.532  -1.608   2.314  1.00  0.00    -0.247 OA
HETATM   10  N6  UNL     1      15.346  -2.966   3.734  1.00  0.00    -0.291 N 
ATOM     11  H6  UNL     1      16.112  -3.427   4.226  1.00  0.00     0.172 HD
HETATM   12  C5  UNL     1      14.034  -3.167   3.933  1.00  0.00     0.156 A 
HETATM   13  N7  UNL     1      13.304  -3.945   4.747  1.00  0.00    -0.323 N 
ATOM     14  H7  UNL     1      13.797  -4.558   5.396  1.00  0.00     0.169 HD
ENDROOT
BRANCH   1  15
HETATM   15  N3  UNL     1      11.282  -4.736   5.562  1.00  0.00    -0.226 N 
ATOM     16  H3  UNL     1      10.336  -5.041   5.332  1.00  0.00     0.198 HD
BRANCH  15  17
HETATM   17  O1  UNL     1      11.886  -5.120   6.722  1.00  0.00    -0.141 OA
BRANCH  17  18
HETATM   18  N2  UNL     1      12.958  -5.939   6.828  1.00  0.00     0.040 NA
BRANCH  18  19
HETATM   19  N1  UNL     1      13.595  -5.834   8.061  1.00  0.00    -0.321 N 
ATOM     20  H12 UNL     1      14.357  -5.178   8.235  1.00  0.00     0.174 HD
ATOM     21  H11 UNL     1      13.218  -6.479   8.756  1.00  0.00     0.174 HD
ENDBRANCH  18  19
ENDBRANCH  17  18
ENDBRANCH  15  17
ENDBRANCH   1  15
TORSDOF 4
ENDMDL
MODEL 4
REMARK VINA RESULT: -4.888841792      1.195      1.363
REMARK  4 active torsions:
REMARK  status: ('A' for Active; 'I' for Inactive)
REMARK    1  A    between atoms: N1_1  and  N2_4 
REMARK    2  A    between atoms: N2_4  and  O1_5 
REMARK    3  A    between atoms: O1_5  and  N3_6 
REMARK    4  A    between atoms: N3_6  and  C1_8 
ROOT
HETATM    1  C1  UNL     1      14.592  -2.545   2.965  1.00  0.00     0.144 A 
HETATM    2  C2  UNL     1      13.235  -2.365   2.798  1.00  0.00     0.140 A 
HETATM    3  N4  UNL     1      12.332  -2.988   3.576  1.00  0.00    -0.345 N 
ATOM      4  H4  UNL     1      11.332  -2.841   3.437  1.00  0.00     0.167 HD
HETATM    5  C3  UNL     1      12.778  -3.811   4.543  1.00  0.00     0.154 A 
HETATM    6  N5  UNL     1      12.123  -4.557   5.459  1.00  0.00    -0.291 N 
ATOM      7  H5  UNL     1      11.112  -4.625   5.577  1.00  0.00     0.172 HD
HETATM    8  C4  UNL     1      13.062  -5.196   6.190  1.00  0.00     0.327 A 
HETATM    9  O2  UNL     1      12.782  -5.975   7.130  1.00  0.00    -0.247 OA
HETATM   10  N6  UNL     1      14.283  -4.887   5.777  1.00  0.00    -0.291 N 
ATOM     11  H6  UNL     1      15.160  -5.237   6.162  1.00  0.00     0.172 HD
HETATM   12  C5  UNL     1      14.145  -4.028   4.755  1.00  0.00     0.156 A 
HETATM   13  N7  UNL     1      14.990  -3.374   3.943  1.00  0.00    -0.323 N 
ATOM     14  H7  UNL     1      15.991  -3.515   4.076  1.00  0.00     0.169 HD
ENDROOT
BRANCH   1  15
HETATM   15  N3  UNL     1      15.444  -1.923   2.192  1.00  0.00    -0.226 N 
ATOM     16  H3  UNL     1      15.129  -1.371   1.393  1.00  0.00     0.198 HD
BRANCH  15  17
HETATM   17  O1  UNL     1      16.768  -2.040   2.493  1.00  0.00    -0.141 OA
BRANCH  17  18
HETATM   18  N2  UNL     1      17.543  -3.125   2.263  1.00  0.00     0.040 NA
BRANCH  18  19
HETATM   19  N1  UNL     1      18.543  -3.284   3.218  1.00  0.00    -0.321 N 
ATOM     20  H12 UNL     1      19.124  -2.511   3.544  1.00  0.00     0.174 HD
ATOM     21  H11 UNL     1      18.625  -4.246   3.547  1.00  0.00     0.174 HD
ENDBRANCH  18  19
ENDBRANCH  17  18
ENDBRANCH  15  17
ENDBRANCH   1  15
TORSDOF 4
ENDMDL
MODEL 5
REMARK VINA RESULT: -4.807514424      2.874      5.267
REMARK  4 active torsions:
REMARK  status: ('A' for Active; 'I' for Inactive)
REMARK    1  A    between atoms: N1_1  and  N2_4 
REMARK    2  A    between atoms: N2_4  and  O1_5 
REMARK    3  A    between atoms: O1_5  and  N3_6 
REMARK    4  A    between atoms: N3_6  and  C1_8 
ROOT
HETATM    1  C1  UNL     1      13.941  -4.911   4.687  1.00  0.00     0.144 A 
HETATM    2  C2  UNL     1      14.352  -3.670   4.247  1.00  0.00     0.140 A 
HETATM    3  N4  UNL     1      14.628  -3.429   2.952  1.00  0.00    -0.345 N 
ATOM      4  H4  UNL     1      14.930  -2.503   2.646  1.00  0.00     0.167 HD
HETATM    5  C3  UNL     1      14.495  -4.436   2.069  1.00  0.00     0.154 A 
HETATM    6  N5  UNL     1      14.695  -4.491   0.735  1.00  0.00    -0.291 N 
ATOM      7  H5  UNL     1      15.002  -3.726   0.134  1.00  0.00     0.172 HD
HETATM    8  C4  UNL     1      14.411  -5.754   0.347  1.00  0.00     0.327 A 
HETATM    9  O2  UNL     1      14.498  -6.138  -0.842  1.00  0.00    -0.247 OA
HETATM   10  N6  UNL     1      14.040  -6.499   1.378  1.00  0.00    -0.291 N 
ATOM     11  H6  UNL     1      13.775  -7.484   1.350  1.00  0.00     0.172 HD
HETATM   12  C5  UNL     1      14.079  -5.714   2.465  1.00  0.00     0.156 A 
HETATM   13  N7  UNL     1      13.822  -5.884   3.770  1.00  0.00    -0.323 N 
ATOM     14  H7  UNL     1      13.517  -6.805   4.085  1.00  0.00     0.169 HD
ENDROOT
BRANCH   1  15
HETATM   15  N3  UNL     1      13.680  -5.112   5.953  1.00  0.00    -0.226 N 
ATOM     16  H3  UNL     1      14.386  -4.951   6.671  1.00  0.00     0.198 HD
BRANCH  15  17
HETATM   17  O1  UNL     1      12.429  -5.546   6.276  1.00  0.00    -0.141 OA
BRANCH  17  18
HETATM   18  N2  UNL     1      11.385  -5.667   5.423  1.00  0.00     0.040 NA
BRANCH  18  19
HETATM   19  N1  UNL     1      10.504  -4.591   5.494  1.00  0.00    -0.321 N 
ATOM     20  H12 UNL     1       9.513  -4.702   5.706  1.00  0.00     0.174 HD
ATOM     21  H11 UNL     1      10.960  -3.696   5.313  1.00  0.00     0.174 HD
ENDBRANCH  18  19
ENDBRANCH  17  18
ENDBRANCH  15  17
ENDBRANCH   1  15
TORSDOF 4
ENDMDL
