MODEL 1
REMARK VINA RESULT: -4.257932200      0.000      0.000
REMARK  4 active torsions:
REMARK  status: ('A' for Active; 'I' for Inactive)
REMARK    1  A    between atoms: C4_7  and  N3_8 
REMARK    2  A    between atoms: N3_8  and  N4_10 
REMARK    3  A    between atoms: N4_10  and  N5_11 
REMARK    4  A    between atoms: N4_10  and  N6_14 
REMARK       I    between atoms: N6_14  and  C5_16 
ROOT
HETATM    1  N4  UNL     1      14.075  -5.566   4.622  1.00  0.00    -0.030 NA
ENDROOT
BRANCH   1   2
HETATM    2  N3  UNL     1      14.648  -5.254   3.381  1.00  0.00    -0.115 N 
ATOM      3  H3  UNL     1      14.892  -5.997   2.726  1.00  0.00     0.203 HD
BRANCH   2   4
HETATM    4  C4  UNL     1      14.887  -3.879   3.038  1.00  0.00     0.689 C 
HETATM    5  N1  UNL     1      14.017  -3.099   2.229  1.00  0.00    -0.220 N 
HETATM    6  C1  UNL     1      13.051  -3.599   1.298  1.00  0.00     0.168 C 
HETATM    7  C2  UNL     1      14.325  -1.725   2.555  1.00  0.00     0.161 C 
HETATM    8  C3  UNL     1      15.801  -1.829   2.870  1.00  0.00     0.158 C 
HETATM    9  N2  UNL     1      15.903  -3.170   3.409  1.00  0.00    -0.224 N 
ATOM     10  H2  UNL     1      16.667  -3.507   3.995  1.00  0.00     0.177 HD
ENDBRANCH   2   4
ENDBRANCH   1   2
BRANCH   1  11
HETATM   11  N5  UNL     1      14.307  -4.534   5.554  1.00  0.00    -0.327 NA
ATOM     12  H52 UNL     1      15.128  -4.027   5.221  1.00  0.00     0.174 HD
ATOM     13  H51 UNL     1      14.531  -4.918   6.472  1.00  0.00     0.174 HD
ENDBRANCH   1  11
BRANCH   1  14
HETATM   14  N6  UNL     1      12.686  -5.630   4.446  1.00  0.00    -0.256 N 
HETATM   15  C5  UNL     1      11.846  -4.738   5.118  1.00  0.00     0.199 C 
HETATM   16  N7  UNL     1      11.427  -3.671   4.516  1.00  0.00    -0.373 N 
HETATM   17  N8  UNL     1      11.422  -4.947   6.453  1.00  0.00    -0.063 NA
ATOM     18  H72 UNL     1      11.732  -3.521   3.555  1.00  0.00     0.158 HD
ATOM     19  H71 UNL     1      10.813  -3.021   5.007  1.00  0.00     0.158 HD
ATOM     20  H6  UNL     1      12.286  -6.333   3.823  1.00  0.00     0.187 HD
ENDBRANCH   1  14
TORSDOF 4
ENDMDL
MODEL 2
REMARK VINA RESULT: -4.226986189      1.617      2.498
REMARK  4 active torsions:
REMARK  status: ('A' for Active; 'I' for Inactive)
REMARK    1  A    between atoms: C4_7  and  N3_8 
REMARK    2  A    between atoms: N3_8  and  N4_10 
REMARK    3  A    between atoms: N4_10  and  N5_11 
REMARK    4  A    between atoms: N4_10  and  N6_14 
REMARK       I    between atoms: N6_14  and  C5_16 
ROOT
HETATM    1  N4  UNL     1      14.669  -5.506   4.668  1.00  0.00    -0.030 NA
ENDROOT
BRANCH   1   2
HETATM    2  N3  UNL     1      13.542  -5.641   3.845  1.00  0.00    -0.115 N 
ATOM      3  H3  UNL     1      12.844  -6.358   4.042  1.00  0.00     0.203 HD
BRANCH   2   4
HETATM    4  C4  UNL     1      13.380  -4.760   2.721  1.00  0.00     0.689 C 
HETATM    5  N1  UNL     1      12.689  -3.519   2.778  1.00  0.00    -0.220 N 
HETATM    6  C1  UNL     1      11.711  -3.138   3.752  1.00  0.00     0.168 C 
HETATM    7  C2  UNL     1      13.187  -2.755   1.657  1.00  0.00     0.161 C 
HETATM    8  C3  UNL     1      13.469  -3.858   0.660  1.00  0.00     0.158 C 
HETATM    9  N2  UNL     1      13.827  -4.965   1.525  1.00  0.00    -0.224 N 
ATOM     10  H2  UNL     1      14.356  -5.786   1.232  1.00  0.00     0.177 HD
ENDBRANCH   2   4
ENDBRANCH   1   2
BRANCH   1  11
HETATM   11  N5  UNL     1      15.656  -4.719   4.041  1.00  0.00    -0.327 NA
ATOM     12  H52 UNL     1      15.878  -3.966   4.692  1.00  0.00     0.174 HD
ATOM     13  H51 UNL     1      15.294  -4.294   3.187  1.00  0.00     0.174 HD
ENDBRANCH   1  11
BRANCH   1  14
HETATM   14  N6  UNL     1      14.276  -4.803   5.815  1.00  0.00    -0.256 N 
HETATM   15  C5  UNL     1      13.395  -5.382   6.733  1.00  0.00     0.199 C 
HETATM   16  N7  UNL     1      13.860  -5.966   7.790  1.00  0.00    -0.373 N 
HETATM   17  N8  UNL     1      11.989  -5.361   6.559  1.00  0.00    -0.063 NA
ATOM     18  H72 UNL     1      14.872  -5.981   7.915  1.00  0.00     0.158 HD
ATOM     19  H71 UNL     1      13.217  -6.388   8.460  1.00  0.00     0.158 HD
ATOM     20  H6  UNL     1      14.636  -3.862   5.981  1.00  0.00     0.187 HD
ENDBRANCH   1  14
TORSDOF 4
ENDMDL
MODEL 3
REMARK VINA RESULT: -4.114152050      1.394      2.445
REMARK  4 active torsions:
REMARK  status: ('A' for Active; 'I' for Inactive)
REMARK    1  A    between atoms: C4_7  and  N3_8 
REMARK    2  A    between atoms: N3_8  and  N4_10 
REMARK    3  A    between atoms: N4_10  and  N5_11 
REMARK    4  A    between atoms: N4_10  and  N6_14 
REMARK       I    between atoms: N6_14  and  C5_16 
ROOT
HETATM    1  N4  UNL     1      14.210  -3.686   4.762  1.00  0.00    -0.030 NA
ENDROOT
BRANCH   1   2
HETATM    2  N3  UNL     1      15.231  -4.047   3.872  1.00  0.00    -0.115 N 
ATOM      3  H3  UNL     1      16.189  -4.150   4.204  1.00  0.00     0.203 HD
BRANCH   2   4
HETATM    4  C4  UNL     1      14.914  -4.272   2.488  1.00  0.00     0.689 C 
HETATM    5  N1  UNL     1      15.351  -3.433   1.427  1.00  0.00    -0.220 N 
HETATM    6  C1  UNL     1      15.768  -2.068   1.545  1.00  0.00     0.168 C 
HETATM    7  C2  UNL     1      15.276  -4.252   0.240  1.00  0.00     0.161 C 
HETATM    8  C3  UNL     1      14.101  -5.143   0.578  1.00  0.00     0.158 C 
HETATM    9  N2  UNL     1      14.204  -5.246   2.020  1.00  0.00    -0.224 N 
ATOM     10  H2  UNL     1      13.778  -5.981   2.584  1.00  0.00     0.177 HD
ENDBRANCH   2   4
ENDBRANCH   1   2
BRANCH   1  11
HETATM   11  N5  UNL     1      13.025  -3.372   4.065  1.00  0.00    -0.327 NA
ATOM     12  H52 UNL     1      13.288  -2.703   3.342  1.00  0.00     0.174 HD
ATOM     13  H51 UNL     1      12.351  -2.916   4.681  1.00  0.00     0.174 HD
ENDBRANCH   1  11
BRANCH   1  14
HETATM   14  N6  UNL     1      13.916  -4.807   5.550  1.00  0.00    -0.256 N 
HETATM   15  C5  UNL     1      12.642  -5.383   5.514  1.00  0.00     0.199 C 
HETATM   16  N7  UNL     1      12.422  -6.410   4.758  1.00  0.00    -0.373 N 
HETATM   17  N8  UNL     1      11.559  -4.887   6.281  1.00  0.00    -0.063 NA
ATOM     18  H72 UNL     1      13.201  -6.766   4.206  1.00  0.00     0.158 HD
ATOM     19  H71 UNL     1      11.492  -6.829   4.732  1.00  0.00     0.158 HD
ATOM     20  H6  UNL     1      14.636  -5.205   6.154  1.00  0.00     0.187 HD
ENDBRANCH   1  14
TORSDOF 4
ENDMDL
MODEL 4
REMARK VINA RESULT: -4.113307892      1.941      4.960
REMARK  4 active torsions:
REMARK  status: ('A' for Active; 'I' for Inactive)
REMARK    1  A    between atoms: C4_7  and  N3_8 
REMARK    2  A    between atoms: N3_8  and  N4_10 
REMARK    3  A    between atoms: N4_10  and  N5_11 
REMARK    4  A    between atoms: N4_10  and  N6_14 
REMARK       I    between atoms: N6_14  and  C5_16 
ROOT
HETATM    1  N4  UNL     1      15.692  -3.391   2.763  1.00  0.00    -0.030 NA
ENDROOT
BRANCH   1   2
HETATM    2  N3  UNL     1      14.980  -2.917   3.873  1.00  0.00    -0.115 N 
ATOM      3  H3  UNL     1      15.094  -1.952   4.183  1.00  0.00     0.203 HD
BRANCH   2   4
HETATM    4  C4  UNL     1      14.089  -3.802   4.572  1.00  0.00     0.689 C 
HETATM    5  N1  UNL     1      12.700  -3.914   4.292  1.00  0.00    -0.220 N 
HETATM    6  C1  UNL     1      11.887  -2.935   3.636  1.00  0.00     0.168 C 
HETATM    7  C2  UNL     1      12.311  -5.206   4.810  1.00  0.00     0.161 C 
HETATM    8  C3  UNL     1      13.251  -5.338   5.988  1.00  0.00     0.158 C 
HETATM    9  N2  UNL     1      14.415  -4.605   5.533  1.00  0.00    -0.224 N 
ATOM     10  H2  UNL     1      15.355  -4.707   5.915  1.00  0.00     0.177 HD
ENDBRANCH   2   4
ENDBRANCH   1   2
BRANCH   1  11
HETATM   11  N5  UNL     1      15.900  -2.361   1.823  1.00  0.00    -0.327 NA
ATOM     12  H52 UNL     1      15.650  -2.749   0.914  1.00  0.00     0.174 HD
ATOM     13  H51 UNL     1      16.884  -2.095   1.788  1.00  0.00     0.174 HD
ENDBRANCH   1  11
BRANCH   1  14
HETATM   14  N6  UNL     1      16.963  -3.781   3.206  1.00  0.00    -0.256 N 
HETATM   15  C5  UNL     1      18.109  -3.169   2.691  1.00  0.00     0.199 C 
HETATM   16  N7  UNL     1      18.668  -2.198   3.341  1.00  0.00    -0.373 N 
HETATM   17  N8  UNL     1      18.703  -3.566   1.468  1.00  0.00    -0.063 NA
ATOM     18  H72 UNL     1      18.240  -1.912   4.222  1.00  0.00     0.158 HD
ATOM     19  H71 UNL     1      19.504  -1.752   2.966  1.00  0.00     0.158 HD
ATOM     20  H6  UNL     1      17.052  -4.515   3.908  1.00  0.00     0.187 HD
ENDBRANCH   1  14
TORSDOF 4
ENDMDL
MODEL 5
REMARK VINA RESULT: -4.095082674      1.986      4.941
REMARK  4 active torsions:
REMARK  status: ('A' for Active; 'I' for Inactive)
REMARK    1  A    between atoms: C4_7  and  N3_8 
REMARK    2  A    between atoms: N3_8  and  N4_10 
REMARK    3  A    between atoms: N4_10  and  N5_11 
REMARK    4  A    between atoms: N4_10  and  N6_14 
REMARK       I    between atoms: N6_14  and  C5_16 
ROOT
HETATM    1  N4  UNL     1      15.873  -3.432   3.077  1.00  0.00    -0.030 NA
ENDROOT
BRANCH   1   2
HETATM    2  N3  UNL     1      15.724  -4.555   3.902  1.00  0.00    -0.115 N 
ATOM      3  H3  UNL     1      16.535  -5.120   4.152  1.00  0.00     0.203 HD
BRANCH   2   4
HETATM    4  C4  UNL     1      14.418  -4.904   4.391  1.00  0.00     0.689 C 
HETATM    5  N1  UNL     1      13.533  -5.795   3.727  1.00  0.00    -0.220 N 
HETATM    6  C1  UNL     1      13.565  -6.141   2.338  1.00  0.00     0.168 C 
HETATM    7  C2  UNL     1      12.621  -6.256   4.749  1.00  0.00     0.161 C 
HETATM    8  C3  UNL     1      12.553  -5.038   5.644  1.00  0.00     0.158 C 
HETATM    9  N2  UNL     1      13.874  -4.467   5.481  1.00  0.00    -0.224 N 
ATOM     10  H2  UNL     1      14.312  -3.814   6.130  1.00  0.00     0.177 HD
ENDBRANCH   2   4
ENDBRANCH   1   2
BRANCH   1  11
HETATM   11  N5  UNL     1      15.416  -2.268   3.728  1.00  0.00    -0.327 NA
ATOM     12  H52 UNL     1      14.592  -2.544   4.262  1.00  0.00     0.174 HD
ATOM     13  H51 UNL     1      15.124  -1.563   3.050  1.00  0.00     0.174 HD
ENDBRANCH   1  11
BRANCH   1  14
HETATM   14  N6  UNL     1      17.244  -3.244   2.855  1.00  0.00    -0.256 N 
HETATM   15  C5  UNL     1      17.784  -1.956   2.813  1.00  0.00     0.199 C 
HETATM   16  N7  UNL     1      18.338  -1.455   3.870  1.00  0.00    -0.373 N 
HETATM   17  N8  UNL     1      17.754  -1.153   1.646  1.00  0.00    -0.063 NA
ATOM     18  H72 UNL     1      18.360  -2.033   4.710  1.00  0.00     0.158 HD
ATOM     19  H71 UNL     1      18.733  -0.515   3.839  1.00  0.00     0.158 HD
ATOM     20  H6  UNL     1      17.851  -4.054   2.725  1.00  0.00     0.187 HD
ENDBRANCH   1  14
TORSDOF 4
ENDMDL
