MODEL 1
REMARK VINA RESULT: -5.023234274      0.000      0.000
REMARK  3 active torsions:
REMARK  status: ('A' for Active; 'I' for Inactive)
REMARK    1  A    between atoms: N1_1  and  C1_4 
REMARK    2  A    between atoms: C2_7  and  C3_8 
REMARK       I    between atoms: N5_13  and  C4_14 
REMARK       I    between atoms: C4_14  and  N6_16 
REMARK    3  A    between atoms: N6_16  and  N7_18 
ROOT
HETATM    1  C1  UNL     1      12.408  -3.604   4.352  1.00  0.00     0.703 A 
HETATM    2  N2  UNL     1      13.216  -2.961   3.465  1.00  0.00    -0.169 N 
ATOM      3  H2  UNL     1      12.881  -2.397   2.683  1.00  0.00     0.186 HD
HETATM    4  C2  UNL     1      14.509  -3.165   3.751  1.00  0.00     0.202 A 
HETATM    5  N4  UNL     1      14.503  -3.949   4.834  1.00  0.00    -0.255 N 
ATOM      6  H4  UNL     1      15.335  -4.294   5.312  1.00  0.00     0.190 HD
HETATM    7  N5  UNL     1      13.234  -4.217   5.199  1.00  0.00    -0.029 N 
HETATM    8  C4  UNL     1      12.905  -5.026   6.316  1.00  0.00     0.374 C 
HETATM    9  O2  UNL     1      11.717  -5.283   6.666  1.00  0.00    -0.243 OA
HETATM   10  N6  UNL     1      13.935  -5.597   7.104  1.00  0.00    -0.256 N 
ATOM     11  H6  UNL     1      14.911  -5.423   6.866  1.00  0.00     0.191 HD
ENDROOT
BRANCH   1  12
HETATM   12  N1  UNL     1      11.129  -3.597   4.337  1.00  0.00    -0.233 N 
ATOM     13  H12 UNL     1      10.483  -3.005   4.860  1.00  0.00     0.174 HD
ATOM     14  H11 UNL     1      10.538  -4.208   3.774  1.00  0.00     0.174 HD
ENDBRANCH   1  12
BRANCH   4  15
HETATM   15  C3  UNL     1      15.688  -2.649   3.043  1.00  0.00     0.300 C 
HETATM   16  N3  UNL     1      16.197  -1.367   3.324  1.00  0.00    -0.054 NA
HETATM   17  O1  UNL     1      16.276  -3.332   2.169  1.00  0.00    -0.268 OA
ENDBRANCH   4  15
BRANCH  10  18
HETATM   18  N7  UNL     1      13.624  -6.393   8.202  1.00  0.00    -0.341 N 
ATOM     19  H72 UNL     1      13.656  -5.978   9.133  1.00  0.00     0.177 HD
ATOM     20  H71 UNL     1      13.369  -7.372   8.076  1.00  0.00     0.177 HD
ENDBRANCH  10  18
TORSDOF 3
ENDMDL
MODEL 2
REMARK VINA RESULT: -4.869428276      2.743      3.363
REMARK  3 active torsions:
REMARK  status: ('A' for Active; 'I' for Inactive)
REMARK    1  A    between atoms: N1_1  and  C1_4 
REMARK    2  A    between atoms: C2_7  and  C3_8 
REMARK       I    between atoms: N5_13  and  C4_14 
REMARK       I    between atoms: C4_14  and  N6_16 
REMARK    3  A    between atoms: N6_16  and  N7_18 
ROOT
HETATM    1  C1  UNL     1      11.112  -4.037   4.937  1.00  0.00     0.703 A 
HETATM    2  N2  UNL     1      10.490  -3.162   4.099  1.00  0.00    -0.169 N 
ATOM      3  H2  UNL     1       9.503  -2.910   4.158  1.00  0.00     0.186 HD
HETATM    4  C2  UNL     1      11.343  -2.676   3.187  1.00  0.00     0.202 A 
HETATM    5  N4  UNL     1      12.513  -3.260   3.463  1.00  0.00    -0.255 N 
ATOM      6  H4  UNL     1      13.381  -3.105   2.950  1.00  0.00     0.190 HD
HETATM    7  N5  UNL     1      12.377  -4.083   4.521  1.00  0.00    -0.029 N 
HETATM    8  C4  UNL     1      13.448  -4.845   5.052  1.00  0.00     0.374 C 
HETATM    9  O2  UNL     1      13.329  -5.621   6.043  1.00  0.00    -0.243 OA
HETATM   10  N6  UNL     1      14.735  -4.760   4.465  1.00  0.00    -0.256 N 
ATOM     11  H6  UNL     1      14.887  -4.151   3.662  1.00  0.00     0.191 HD
ENDROOT
BRANCH   1  12
HETATM   12  N1  UNL     1      10.559  -4.661   5.907  1.00  0.00    -0.233 N 
ATOM     13  H12 UNL     1       9.943  -5.474   5.880  1.00  0.00     0.174 HD
ATOM     14  H11 UNL     1      10.656  -4.429   6.895  1.00  0.00     0.174 HD
ENDBRANCH   1  12
BRANCH   4  15
HETATM   15  C3  UNL     1      11.070  -1.713   2.111  1.00  0.00     0.300 C 
HETATM   16  N3  UNL     1      11.981  -0.680   1.818  1.00  0.00    -0.054 NA
HETATM   17  O1  UNL     1      10.022  -1.780   1.424  1.00  0.00    -0.268 OA
ENDBRANCH   4  15
BRANCH  10  18
HETATM   18  N7  UNL     1      15.794  -5.503   4.978  1.00  0.00    -0.341 N 
ATOM     19  H72 UNL     1      15.740  -5.835   5.940  1.00  0.00     0.177 HD
ATOM     20  H71 UNL     1      16.609  -5.710   4.399  1.00  0.00     0.177 HD
ENDBRANCH  10  18
TORSDOF 3
ENDMDL
MODEL 3
REMARK VINA RESULT: -4.862880943      1.508      4.794
REMARK  3 active torsions:
REMARK  status: ('A' for Active; 'I' for Inactive)
REMARK    1  A    between atoms: N1_1  and  C1_4 
REMARK    2  A    between atoms: C2_7  and  C3_8 
REMARK       I    between atoms: N5_13  and  C4_14 
REMARK       I    between atoms: C4_14  and  N6_16 
REMARK    3  A    between atoms: N6_16  and  N7_18 
ROOT
HETATM    1  C1  UNL     1      12.402  -2.302   3.049  1.00  0.00     0.703 A 
HETATM    2  N2  UNL     1      11.583  -3.148   3.732  1.00  0.00    -0.169 N 
ATOM      3  H2  UNL     1      10.566  -3.165   3.642  1.00  0.00     0.186 HD
HETATM    4  C2  UNL     1      12.285  -3.956   4.538  1.00  0.00     0.202 A 
HETATM    5  N4  UNL     1      13.562  -3.604   4.352  1.00  0.00    -0.255 N 
ATOM      6  H4  UNL     1      14.361  -4.030   4.821  1.00  0.00     0.190 HD
HETATM    7  N5  UNL     1      13.635  -2.605   3.453  1.00  0.00    -0.029 N 
HETATM    8  C4  UNL     1      14.860  -2.016   3.048  1.00  0.00     0.374 C 
HETATM    9  O2  UNL     1      14.939  -1.077   2.205  1.00  0.00    -0.243 OA
HETATM   10  N6  UNL     1      16.082  -2.479   3.597  1.00  0.00    -0.256 N 
ATOM     11  H6  UNL     1      16.076  -3.234   4.282  1.00  0.00     0.191 HD
ENDROOT
BRANCH   1  12
HETATM   12  N1  UNL     1      12.024  -1.416   2.207  1.00  0.00    -0.233 N 
ATOM     13  H12 UNL     1      11.157  -1.367   1.671  1.00  0.00     0.174 HD
ATOM     14  H11 UNL     1      12.556  -0.591   1.934  1.00  0.00     0.174 HD
ENDBRANCH   1  12
BRANCH   4  15
HETATM   15  C3  UNL     1      11.781  -5.005   5.435  1.00  0.00     0.300 C 
HETATM   16  N3  UNL     1      12.535  -5.428   6.548  1.00  0.00    -0.054 NA
HETATM   17  O1  UNL     1      10.669  -5.553   5.241  1.00  0.00    -0.268 OA
ENDBRANCH   4  15
BRANCH  10  18
HETATM   18  N7  UNL     1      17.291  -1.910   3.207  1.00  0.00    -0.341 N 
ATOM     19  H72 UNL     1      17.603  -2.032   2.244  1.00  0.00     0.177 HD
ATOM     20  H71 UNL     1      17.853  -1.381   3.874  1.00  0.00     0.177 HD
ENDBRANCH  10  18
TORSDOF 3
ENDMDL
MODEL 4
REMARK VINA RESULT: -4.806787303      1.939      5.378
REMARK  3 active torsions:
REMARK  status: ('A' for Active; 'I' for Inactive)
REMARK    1  A    between atoms: N1_1  and  C1_4 
REMARK    2  A    between atoms: C2_7  and  C3_8 
REMARK       I    between atoms: N5_13  and  C4_14 
REMARK       I    between atoms: C4_14  and  N6_16 
REMARK    3  A    between atoms: N6_16  and  N7_18 
ROOT
HETATM    1  C1  UNL     1      14.639  -3.053   3.864  1.00  0.00     0.703 A 
HETATM    2  N2  UNL     1      14.316  -4.041   4.745  1.00  0.00    -0.169 N 
ATOM      3  H2  UNL     1      14.996  -4.595   5.266  1.00  0.00     0.186 HD
HETATM    4  C2  UNL     1      12.987  -4.190   4.838  1.00  0.00     0.202 A 
HETATM    5  N4  UNL     1      12.478  -3.281   4.000  1.00  0.00    -0.255 N 
ATOM      6  H4  UNL     1      11.483  -3.131   3.833  1.00  0.00     0.190 HD
HETATM    7  N5  UNL     1      13.474  -2.593   3.411  1.00  0.00    -0.029 N 
HETATM    8  C4  UNL     1      13.246  -1.558   2.468  1.00  0.00     0.374 C 
HETATM    9  O2  UNL     1      14.175  -0.906   1.909  1.00  0.00    -0.243 OA
HETATM   10  N6  UNL     1      11.922  -1.208   2.108  1.00  0.00    -0.256 N 
ATOM     11  H6  UNL     1      11.135  -1.702   2.528  1.00  0.00     0.191 HD
ENDROOT
BRANCH   1  12
HETATM   12  N1  UNL     1      15.825  -2.680   3.565  1.00  0.00    -0.233 N 
ATOM     13  H12 UNL     1      16.629  -2.542   4.178  1.00  0.00     0.174 HD
ATOM     14  H11 UNL     1      16.159  -2.457   2.628  1.00  0.00     0.174 HD
ENDBRANCH   1  12
BRANCH   4  15
HETATM   15  C3  UNL     1      12.237  -5.140   5.671  1.00  0.00     0.300 C 
HETATM   16  N3  UNL     1      10.951  -5.574   5.294  1.00  0.00    -0.054 NA
HETATM   17  O1  UNL     1      12.715  -5.592   6.740  1.00  0.00    -0.268 OA
ENDBRANCH   4  15
BRANCH  10  18
HETATM   18  N7  UNL     1      11.686  -0.194   1.185  1.00  0.00    -0.341 N 
ATOM     19  H72 UNL     1      12.280   0.635   1.204  1.00  0.00     0.177 HD
ATOM     20  H71 UNL     1      10.932  -0.280   0.503  1.00  0.00     0.177 HD
ENDBRANCH  10  18
TORSDOF 3
ENDMDL
MODEL 5
REMARK VINA RESULT: -4.767181507      1.842      4.773
REMARK  3 active torsions:
REMARK  status: ('A' for Active; 'I' for Inactive)
REMARK    1  A    between atoms: N1_1  and  C1_4 
REMARK    2  A    between atoms: C2_7  and  C3_8 
REMARK       I    between atoms: N5_13  and  C4_14 
REMARK       I    between atoms: C4_14  and  N6_16 
REMARK    3  A    between atoms: N6_16  and  N7_18 
ROOT
HETATM    1  C1  UNL     1      13.080  -2.457   3.191  1.00  0.00     0.703 A 
HETATM    2  N2  UNL     1      12.161  -3.123   3.944  1.00  0.00    -0.169 N 
ATOM      3  H2  UNL     1      11.169  -2.888   3.983  1.00  0.00     0.186 HD
HETATM    4  C2  UNL     1      12.730  -4.126   4.626  1.00  0.00     0.202 A 
HETATM    5  N4  UNL     1      14.024  -4.081   4.292  1.00  0.00    -0.255 N 
ATOM      6  H4  UNL     1      14.742  -4.716   4.641  1.00  0.00     0.190 HD
HETATM    7  N5  UNL     1      14.238  -3.073   3.425  1.00  0.00    -0.029 N 
HETATM    8  C4  UNL     1      15.516  -2.773   2.888  1.00  0.00     0.374 C 
HETATM    9  O2  UNL     1      15.727  -1.828   2.074  1.00  0.00    -0.243 OA
HETATM   10  N6  UNL     1      16.640  -3.550   3.260  1.00  0.00    -0.256 N 
ATOM     11  H6  UNL     1      16.527  -4.324   3.915  1.00  0.00     0.191 HD
ENDROOT
BRANCH   1  12
HETATM   12  N1  UNL     1      12.838  -1.454   2.434  1.00  0.00    -0.233 N 
ATOM     13  H12 UNL     1      12.379  -1.432   1.524  1.00  0.00     0.174 HD
ATOM     14  H11 UNL     1      13.080  -0.485   2.638  1.00  0.00     0.174 HD
ENDBRANCH   1  12
BRANCH   4  15
HETATM   15  C3  UNL     1      12.090  -5.077   5.545  1.00  0.00     0.300 C 
HETATM   16  N3  UNL     1      10.785  -5.549   5.302  1.00  0.00    -0.054 NA
HETATM   17  O1  UNL     1      12.682  -5.497   6.569  1.00  0.00    -0.268 OA
ENDBRANCH   4  15
BRANCH  10  18
HETATM   18  N7  UNL     1      17.899  -3.266   2.740  1.00  0.00    -0.341 N 
ATOM     19  H72 UNL     1      17.965  -2.889   1.795  1.00  0.00     0.177 HD
ATOM     20  H71 UNL     1      18.738  -3.432   3.295  1.00  0.00     0.177 HD
ENDBRANCH  10  18
TORSDOF 3
ENDMDL
