MODEL 1
REMARK VINA RESULT: -5.375033458      0.000      0.000
REMARK  5 active torsions:
REMARK  status: ('A' for Active; 'I' for Inactive)
REMARK    1  A    between atoms: N1_1  and  N2_4 
REMARK    2  A    between atoms: N2_4  and  N3_6 
REMARK    3  A    between atoms: C1_8  and  C2_9 
REMARK    4  A    between atoms: C1_8  and  C3_16 
REMARK       I    between atoms: C2_9  and  N4_11 
REMARK    5  A    between atoms: N4_11  and  N5_13 
ROOT
HETATM    1  N3  UNL     1      14.218  -4.757   5.676  1.00  0.00    -0.280 N 
ATOM      2  H3  UNL     1      15.235  -4.809   5.727  1.00  0.00     0.189 HD
HETATM    3  C1  UNL     1      13.805  -3.963   4.781  1.00  0.00     0.148 C 
ENDROOT
BRANCH   3   4
HETATM    4  C2  UNL     1      14.831  -3.287   4.009  1.00  0.00     0.289 C 
HETATM    5  O1  UNL     1      14.804  -2.094   3.686  1.00  0.00    -0.264 OA
HETATM    6  N4  UNL     1      15.971  -4.031   3.574  1.00  0.00    -0.271 N 
ATOM      7  H4  UNL     1      16.048  -5.021   3.810  1.00  0.00     0.189 HD
BRANCH   6   8
HETATM    8  N5  UNL     1      16.978  -3.421   2.830  1.00  0.00    -0.342 N 
ATOM      9  H52 UNL     1      17.056  -2.405   2.855  1.00  0.00     0.176 HD
ATOM     10  H51 UNL     1      17.624  -3.978   2.271  1.00  0.00     0.176 HD
ENDBRANCH   6   8
ENDBRANCH   3   4
BRANCH   3  11
HETATM   11  C3  UNL     1      12.393  -3.690   4.484  1.00  0.00     0.100 A 
HETATM   12  C4  UNL     1      11.296  -4.252   5.056  1.00  0.00     0.142 A 
HETATM   13  N6  UNL     1      10.196  -3.697   4.471  1.00  0.00    -0.295 N 
HETATM   14  N7  UNL     1      10.634  -2.840   3.588  1.00  0.00    -0.243 N 
ATOM     15  H6  UNL     1       9.222  -3.909   4.682  1.00  0.00     0.187 HD
HETATM   16  N8  UNL     1      11.944  -2.805   3.565  1.00  0.00    -0.283 N 
ATOM     17  H7  UNL     1      10.032  -2.271   2.993  1.00  0.00     0.208 HD
ATOM     18  H8  UNL     1      12.520  -2.217   2.963  1.00  0.00     0.188 HD
ENDBRANCH   3  11
BRANCH   1  19
HETATM   19  N2  UNL     1      13.599  -5.554   6.581  1.00  0.00    -0.249 N 
ATOM     20  H2  UNL     1      12.654  -5.888   6.393  1.00  0.00     0.207 HD
BRANCH  19  21
HETATM   21  N1  UNL     1      14.235  -5.923   7.766  1.00  0.00    -0.331 N 
ATOM     22  H12 UNL     1      13.661  -6.193   8.564  1.00  0.00     0.178 HD
ATOM     23  H11 UNL     1      15.253  -5.923   7.837  1.00  0.00     0.178 HD
ENDBRANCH  19  21
ENDBRANCH   1  19
TORSDOF 5
ENDMDL
MODEL 2
REMARK VINA RESULT: -5.142726553      1.827      3.556
REMARK  5 active torsions:
REMARK  status: ('A' for Active; 'I' for Inactive)
REMARK    1  A    between atoms: N1_1  and  N2_4 
REMARK    2  A    between atoms: N2_4  and  N3_6 
REMARK    3  A    between atoms: C1_8  and  C2_9 
REMARK    4  A    between atoms: C1_8  and  C3_16 
REMARK       I    between atoms: C2_9  and  N4_11 
REMARK    5  A    between atoms: N4_11  and  N5_13 
ROOT
HETATM    1  N3  UNL     1      14.522  -4.270   4.657  1.00  0.00    -0.280 N 
ATOM      2  H3  UNL     1      15.143  -4.807   5.262  1.00  0.00     0.189 HD
HETATM    3  C1  UNL     1      13.311  -4.319   5.020  1.00  0.00     0.148 C 
ENDROOT
BRANCH   3   4
HETATM    4  C2  UNL     1      13.033  -5.110   6.205  1.00  0.00     0.289 C 
HETATM    5  O1  UNL     1      11.905  -5.442   6.587  1.00  0.00    -0.264 OA
HETATM    6  N4  UNL     1      14.127  -5.553   7.011  1.00  0.00    -0.271 N 
ATOM      7  H4  UNL     1      15.081  -5.309   6.745  1.00  0.00     0.189 HD
BRANCH   6   8
HETATM    8  N5  UNL     1      13.905  -6.314   8.156  1.00  0.00    -0.342 N 
ATOM      9  H52 UNL     1      14.130  -5.907   9.064  1.00  0.00     0.176 HD
ATOM     10  H51 UNL     1      13.525  -7.258   8.089  1.00  0.00     0.176 HD
ENDBRANCH   6   8
ENDBRANCH   3   4
BRANCH   3  11
HETATM   11  C3  UNL     1      12.198  -3.644   4.337  1.00  0.00     0.100 A 
HETATM   12  C4  UNL     1      12.265  -2.769   3.299  1.00  0.00     0.142 A 
HETATM   13  N6  UNL     1      10.989  -2.399   2.991  1.00  0.00    -0.295 N 
HETATM   14  N7  UNL     1      10.204  -3.035   3.818  1.00  0.00    -0.243 N 
ATOM     15  H6  UNL     1      10.703  -1.752   2.257  1.00  0.00     0.187 HD
HETATM   16  N8  UNL     1      10.889  -3.791   4.641  1.00  0.00    -0.283 N 
ATOM     17  H7  UNL     1       9.188  -2.953   3.824  1.00  0.00     0.208 HD
ATOM     18  H8  UNL     1      10.504  -4.384   5.376  1.00  0.00     0.188 HD
ENDBRANCH   3  11
BRANCH   1  19
HETATM   19  N2  UNL     1      15.171  -3.659   3.636  1.00  0.00    -0.249 N 
ATOM     20  H2  UNL     1      15.245  -4.130   2.735  1.00  0.00     0.207 HD
BRANCH  19  21
HETATM   21  N1  UNL     1      15.739  -2.396   3.801  1.00  0.00    -0.331 N 
ATOM     22  H12 UNL     1      15.695  -1.959   4.722  1.00  0.00     0.178 HD
ATOM     23  H11 UNL     1      16.190  -1.917   3.021  1.00  0.00     0.178 HD
ENDBRANCH  19  21
ENDBRANCH   1  19
TORSDOF 5
ENDMDL
MODEL 3
REMARK VINA RESULT: -5.084815631      1.090      1.374
REMARK  5 active torsions:
REMARK  status: ('A' for Active; 'I' for Inactive)
REMARK    1  A    between atoms: N1_1  and  N2_4 
REMARK    2  A    between atoms: N2_4  and  N3_6 
REMARK    3  A    between atoms: C1_8  and  C2_9 
REMARK    4  A    between atoms: C1_8  and  C3_16 
REMARK       I    between atoms: C2_9  and  N4_11 
REMARK    5  A    between atoms: N4_11  and  N5_13 
ROOT
HETATM    1  N3  UNL     1      14.197  -4.895   5.637  1.00  0.00    -0.280 N 
ATOM      2  H3  UNL     1      15.200  -5.082   5.648  1.00  0.00     0.189 HD
HETATM    3  C1  UNL     1      13.835  -4.184   4.655  1.00  0.00     0.148 C 
ENDROOT
BRANCH   3   4
HETATM    4  C2  UNL     1      14.887  -3.774   3.744  1.00  0.00     0.289 C 
HETATM    5  O1  UNL     1      15.282  -4.431   2.774  1.00  0.00    -0.264 OA
HETATM    6  N4  UNL     1      15.536  -2.518   3.960  1.00  0.00    -0.271 N 
ATOM      7  H4  UNL     1      15.252  -1.932   4.745  1.00  0.00     0.189 HD
BRANCH   6   8
HETATM    8  N5  UNL     1      16.551  -2.086   3.110  1.00  0.00    -0.342 N 
ATOM      9  H52 UNL     1      17.172  -1.344   3.429  1.00  0.00     0.176 HD
ATOM     10  H51 UNL     1      16.671  -2.503   2.187  1.00  0.00     0.176 HD
ENDBRANCH   6   8
ENDBRANCH   3   4
BRANCH   3  11
HETATM   11  C3  UNL     1      12.454  -3.759   4.387  1.00  0.00     0.100 A 
HETATM   12  C4  UNL     1      12.025  -2.851   3.471  1.00  0.00     0.142 A 
HETATM   13  N6  UNL     1      10.667  -2.775   3.573  1.00  0.00    -0.295 N 
HETATM   14  N7  UNL     1      10.315  -3.609   4.515  1.00  0.00    -0.243 N 
ATOM     15  H6  UNL     1      10.047  -2.183   3.022  1.00  0.00     0.187 HD
HETATM   16  N8  UNL     1      11.356  -4.218   5.027  1.00  0.00    -0.283 N 
ATOM     17  H7  UNL     1       9.352  -3.765   4.813  1.00  0.00     0.208 HD
ATOM     18  H8  UNL     1      11.340  -4.914   5.773  1.00  0.00     0.188 HD
ENDBRANCH   3  11
BRANCH   1  19
HETATM   19  N2  UNL     1      13.540  -5.462   6.678  1.00  0.00    -0.249 N 
ATOM     20  H2  UNL     1      12.526  -5.558   6.639  1.00  0.00     0.207 HD
BRANCH  19  21
HETATM   21  N1  UNL     1      14.231  -5.915   7.802  1.00  0.00    -0.331 N 
ATOM     22  H12 UNL     1      15.241  -6.040   7.735  1.00  0.00     0.178 HD
ATOM     23  H11 UNL     1      13.740  -6.119   8.673  1.00  0.00     0.178 HD
ENDBRANCH  19  21
ENDBRANCH   1  19
TORSDOF 5
ENDMDL
MODEL 4
REMARK VINA RESULT: -4.956736242      2.694      4.450
REMARK  5 active torsions:
REMARK  status: ('A' for Active; 'I' for Inactive)
REMARK    1  A    between atoms: N1_1  and  N2_4 
REMARK    2  A    between atoms: N2_4  and  N3_6 
REMARK    3  A    between atoms: C1_8  and  C2_9 
REMARK    4  A    between atoms: C1_8  and  C3_16 
REMARK       I    between atoms: C2_9  and  N4_11 
REMARK    5  A    between atoms: N4_11  and  N5_13 
ROOT
HETATM    1  N3  UNL     1      14.510  -3.754   4.939  1.00  0.00    -0.280 N 
ATOM      2  H3  UNL     1      14.482  -3.325   5.864  1.00  0.00     0.189 HD
HETATM    3  C1  UNL     1      13.863  -4.840   4.875  1.00  0.00     0.148 C 
ENDROOT
BRANCH   3   4
HETATM    4  C2  UNL     1      13.215  -5.267   6.102  1.00  0.00     0.289 C 
HETATM    5  O1  UNL     1      11.992  -5.300   6.283  1.00  0.00    -0.264 OA
HETATM    6  N4  UNL     1      14.026  -5.687   7.201  1.00  0.00    -0.271 N 
ATOM      7  H4  UNL     1      15.042  -5.682   7.109  1.00  0.00     0.189 HD
BRANCH   6   8
HETATM    8  N5  UNL     1      13.445  -6.104   8.396  1.00  0.00    -0.342 N 
ATOM      9  H52 UNL     1      13.789  -6.958   8.835  1.00  0.00     0.176 HD
ATOM     10  H51 UNL     1      12.690  -5.568   8.823  1.00  0.00     0.176 HD
ENDBRANCH   6   8
ENDBRANCH   3   4
BRANCH   3  11
HETATM   11  C3  UNL     1      13.732  -5.673   3.672  1.00  0.00     0.100 A 
HETATM   12  C4  UNL     1      14.231  -5.431   2.431  1.00  0.00     0.142 A 
HETATM   13  N6  UNL     1      13.865  -6.472   1.631  1.00  0.00    -0.295 N 
HETATM   14  N7  UNL     1      13.176  -7.294   2.375  1.00  0.00    -0.243 N 
ATOM     15  H6  UNL     1      14.086  -6.587   0.642  1.00  0.00     0.187 HD
HETATM   16  N8  UNL     1      13.074  -6.852   3.605  1.00  0.00    -0.283 N 
ATOM     17  H7  UNL     1      12.769  -8.168   2.042  1.00  0.00     0.208 HD
ATOM     18  H8  UNL     1      12.586  -7.315   4.373  1.00  0.00     0.188 HD
ENDBRANCH   3  11
BRANCH   1  19
HETATM   19  N2  UNL     1      15.231  -3.039   4.043  1.00  0.00    -0.249 N 
ATOM     20  H2  UNL     1      16.225  -3.235   3.927  1.00  0.00     0.207 HD
BRANCH  19  21
HETATM   21  N1  UNL     1      14.634  -2.037   3.277  1.00  0.00    -0.331 N 
ATOM     22  H12 UNL     1      13.678  -1.760   3.498  1.00  0.00     0.178 HD
ATOM     23  H11 UNL     1      15.139  -1.590   2.511  1.00  0.00     0.178 HD
ENDBRANCH  19  21
ENDBRANCH   1  19
TORSDOF 5
ENDMDL
MODEL 5
REMARK VINA RESULT: -4.888691598      2.574      4.407
REMARK  5 active torsions:
REMARK  status: ('A' for Active; 'I' for Inactive)
REMARK    1  A    between atoms: N1_1  and  N2_4 
REMARK    2  A    between atoms: N2_4  and  N3_6 
REMARK    3  A    between atoms: C1_8  and  C2_9 
REMARK    4  A    between atoms: C1_8  and  C3_16 
REMARK       I    between atoms: C2_9  and  N4_11 
REMARK    5  A    between atoms: N4_11  and  N5_13 
ROOT
HETATM    1  N3  UNL     1      13.337  -6.402   3.739  1.00  0.00    -0.280 N 
ATOM      2  H3  UNL     1      12.803  -7.111   4.241  1.00  0.00     0.189 HD
HETATM    3  C1  UNL     1      13.618  -5.395   4.453  1.00  0.00     0.148 C 
ENDROOT
BRANCH   3   4
HETATM    4  C2  UNL     1      13.140  -5.433   5.823  1.00  0.00     0.289 C 
HETATM    5  O1  UNL     1      11.967  -5.251   6.169  1.00  0.00    -0.264 OA
HETATM    6  N4  UNL     1      14.073  -5.697   6.872  1.00  0.00    -0.271 N 
ATOM      7  H4  UNL     1      15.055  -5.855   6.647  1.00  0.00     0.189 HD
BRANCH   6   8
HETATM    8  N5  UNL     1      13.656  -5.741   8.200  1.00  0.00    -0.342 N 
ATOM      9  H52 UNL     1      14.252  -5.322   8.914  1.00  0.00     0.176 HD
ATOM     10  H51 UNL     1      12.774  -6.183   8.455  1.00  0.00     0.176 HD
ENDBRANCH   6   8
ENDBRANCH   3   4
BRANCH   3  11
HETATM   11  C3  UNL     1      14.376  -4.223   3.995  1.00  0.00     0.100 A 
HETATM   12  C4  UNL     1      13.904  -2.974   3.736  1.00  0.00     0.142 A 
HETATM   13  N6  UNL     1      14.962  -2.210   3.338  1.00  0.00    -0.295 N 
HETATM   14  N7  UNL     1      16.014  -2.983   3.363  1.00  0.00    -0.243 N 
ATOM     15  H6  UNL     1      14.936  -1.226   3.072  1.00  0.00     0.187 HD
HETATM   16  N8  UNL     1      15.706  -4.196   3.752  1.00  0.00    -0.283 N 
ATOM     17  H7  UNL     1      16.955  -2.681   3.112  1.00  0.00     0.208 HD
ATOM     18  H8  UNL     1      16.352  -4.979   3.853  1.00  0.00     0.188 HD
ENDBRANCH   3  11
BRANCH   1  19
HETATM   19  N2  UNL     1      13.594  -6.740   2.452  1.00  0.00    -0.249 N 
ATOM     20  H2  UNL     1      13.968  -7.664   2.241  1.00  0.00     0.207 HD
BRANCH  19  21
HETATM   21  N1  UNL     1      13.353  -5.842   1.413  1.00  0.00    -0.331 N 
ATOM     22  H12 UNL     1      12.425  -5.823   0.990  1.00  0.00     0.178 HD
ATOM     23  H11 UNL     1      14.086  -5.215   1.080  1.00  0.00     0.178 HD
ENDBRANCH  19  21
ENDBRANCH   1  19
TORSDOF 5
ENDMDL
