MODEL 1
REMARK VINA RESULT: -5.121814561      0.000      0.000
REMARK  5 active torsions:
REMARK  status: ('A' for Active; 'I' for Inactive)
REMARK    1  A    between atoms: N1_1  and  C1_4 
REMARK    2  A    between atoms: C2_7  and  N3_8 
REMARK    3  A    between atoms: N3_8  and  O1_9 
REMARK    4  A    between atoms: N3_8  and  N4_11 
REMARK    5  A    between atoms: N4_11  and  N5_13 
ROOT
HETATM    1  C1  UNL     1      15.004  -3.711   3.666  1.00  0.00     0.692 A 
HETATM    2  N2  UNL     1      14.468  -3.977   4.874  1.00  0.00    -0.166 N 
ATOM      3  H2  UNL     1      14.701  -3.375   5.664  1.00  0.00     0.186 HD
HETATM    4  C2  UNL     1      13.635  -5.015   5.066  1.00  0.00     0.237 A 
HETATM    5  C3  UNL     1      13.358  -5.792   3.954  1.00  0.00     0.309 A 
HETATM    6  O2  UNL     1      12.594  -6.760   4.083  1.00  0.00    -0.262 OA
HETATM    7  N6  UNL     1      13.901  -5.520   2.735  1.00  0.00    -0.249 N 
ATOM      8  H6  UNL     1      13.681  -6.108   1.931  1.00  0.00     0.191 HD
HETATM    9  N7  UNL     1      14.722  -4.479   2.602  1.00  0.00    -0.129 N 
ATOM     10  H7  UNL     1      15.134  -4.265   1.693  1.00  0.00     0.205 HD
ENDROOT
BRANCH   4  11
HETATM   11  N3  UNL     1      13.061  -5.310   6.334  1.00  0.00    -0.126 N 
BRANCH  11  12
HETATM   12  O1  UNL     1      11.837  -5.177   6.518  1.00  0.00    -0.265 OA
ATOM     13  H1  UNL     1      11.423  -5.550   7.287  1.00  0.00     0.247 HD
ENDBRANCH  11  12
BRANCH  11  14
HETATM   14  N4  UNL     1      13.862  -5.749   7.378  1.00  0.00    -0.221 N 
ATOM     15  H4  UNL     1      14.875  -5.677   7.284  1.00  0.00     0.210 HD
BRANCH  14  16
HETATM   16  N5  UNL     1      13.336  -6.282   8.544  1.00  0.00    -0.329 N 
ATOM     17  H52 UNL     1      12.691  -5.704   9.082  1.00  0.00     0.178 HD
ATOM     18  H51 UNL     1      13.573  -7.218   8.873  1.00  0.00     0.178 HD
ENDBRANCH  14  16
ENDBRANCH  11  14
ENDBRANCH   4  11
BRANCH   1  19
HETATM   19  N1  UNL     1      15.815  -2.695   3.497  1.00  0.00    -0.233 N 
ATOM     20  H12 UNL     1      16.809  -2.839   3.675  1.00  0.00     0.174 HD
ATOM     21  H11 UNL     1      15.462  -1.788   3.192  1.00  0.00     0.174 HD
ENDBRANCH   1  19
TORSDOF 5
ENDMDL
MODEL 2
REMARK VINA RESULT: -5.008687349      2.114      3.148
REMARK  5 active torsions:
REMARK  status: ('A' for Active; 'I' for Inactive)
REMARK    1  A    between atoms: N1_1  and  C1_4 
REMARK    2  A    between atoms: C2_7  and  N3_8 
REMARK    3  A    between atoms: N3_8  and  O1_9 
REMARK    4  A    between atoms: N3_8  and  N4_11 
REMARK    5  A    between atoms: N4_11  and  N5_13 
ROOT
HETATM    1  C1  UNL     1      14.508  -4.414   3.734  1.00  0.00     0.692 A 
HETATM    2  N2  UNL     1      13.165  -4.320   3.785  1.00  0.00    -0.166 N 
ATOM      3  H2  UNL     1      12.662  -3.948   2.979  1.00  0.00     0.186 HD
HETATM    4  C2  UNL     1      12.469  -4.703   4.870  1.00  0.00     0.237 A 
HETATM    5  C3  UNL     1      13.210  -5.200   5.929  1.00  0.00     0.309 A 
HETATM    6  O2  UNL     1      12.611  -5.566   6.951  1.00  0.00    -0.262 OA
HETATM    7  N6  UNL     1      14.567  -5.295   5.873  1.00  0.00    -0.249 N 
ATOM      8  H6  UNL     1      15.090  -5.665   6.667  1.00  0.00     0.191 HD
HETATM    9  N7  UNL     1      15.206  -4.900   4.773  1.00  0.00    -0.129 N 
ATOM     10  H7  UNL     1      16.223  -4.966   4.719  1.00  0.00     0.205 HD
ENDROOT
BRANCH   4  11
HETATM   11  N3  UNL     1      11.051  -4.610   4.941  1.00  0.00    -0.126 N 
BRANCH  11  12
HETATM   12  O1  UNL     1      10.373  -5.588   5.305  1.00  0.00    -0.265 OA
ATOM     13  H1  UNL     1       9.607  -5.853   4.810  1.00  0.00     0.247 HD
ENDBRANCH  11  12
BRANCH  11  14
HETATM   14  N4  UNL     1      10.412  -3.426   4.605  1.00  0.00    -0.221 N 
ATOM     15  H4  UNL     1       9.763  -3.010   5.273  1.00  0.00     0.210 HD
BRANCH  14  16
HETATM   16  N5  UNL     1      10.622  -2.786   3.393  1.00  0.00    -0.329 N 
ATOM     17  H52 UNL     1       9.802  -2.497   2.860  1.00  0.00     0.178 HD
ATOM     18  H51 UNL     1      11.556  -2.602   3.027  1.00  0.00     0.178 HD
ENDBRANCH  14  16
ENDBRANCH  11  14
ENDBRANCH   4  11
BRANCH   1  19
HETATM   19  N1  UNL     1      15.171  -4.036   2.668  1.00  0.00    -0.233 N 
ATOM     20  H12 UNL     1      15.420  -3.051   2.581  1.00  0.00     0.174 HD
ATOM     21  H11 UNL     1      15.433  -4.708   1.947  1.00  0.00     0.174 HD
ENDBRANCH   1  19
TORSDOF 5
ENDMDL
MODEL 3
REMARK VINA RESULT: -4.933283416      2.431      2.760
REMARK  5 active torsions:
REMARK  status: ('A' for Active; 'I' for Inactive)
REMARK    1  A    between atoms: N1_1  and  C1_4 
REMARK    2  A    between atoms: C2_7  and  N3_8 
REMARK    3  A    between atoms: N3_8  and  O1_9 
REMARK    4  A    between atoms: N3_8  and  N4_11 
REMARK    5  A    between atoms: N4_11  and  N5_13 
ROOT
HETATM    1  C1  UNL     1      12.229  -2.627   3.364  1.00  0.00     0.692 A 
HETATM    2  N2  UNL     1      13.131  -3.344   4.063  1.00  0.00    -0.166 N 
ATOM      3  H2  UNL     1      14.125  -3.203   3.881  1.00  0.00     0.186 HD
HETATM    4  C2  UNL     1      12.757  -4.239   4.994  1.00  0.00     0.237 A 
HETATM    5  C3  UNL     1      11.394  -4.382   5.193  1.00  0.00     0.309 A 
HETATM    6  O2  UNL     1      11.001  -5.196   6.042  1.00  0.00    -0.262 OA
HETATM    7  N6  UNL     1      10.485  -3.655   4.486  1.00  0.00    -0.249 N 
ATOM      8  H6  UNL     1       9.486  -3.779   4.652  1.00  0.00     0.191 HD
HETATM    9  N7  UNL     1      10.912  -2.781   3.574  1.00  0.00    -0.129 N 
ATOM     10  H7  UNL     1      10.240  -2.231   3.039  1.00  0.00     0.205 HD
ENDROOT
BRANCH   4  11
HETATM   11  N3  UNL     1      13.696  -5.004   5.739  1.00  0.00    -0.126 N 
BRANCH  11  12
HETATM   12  O1  UNL     1      14.851  -5.177   5.308  1.00  0.00    -0.265 OA
ATOM     13  H1  UNL     1      15.462  -5.731   5.780  1.00  0.00     0.247 HD
ENDBRANCH  11  12
BRANCH  11  14
HETATM   14  N4  UNL     1      13.332  -5.565   6.955  1.00  0.00    -0.221 N 
ATOM     15  H4  UNL     1      12.341  -5.692   7.161  1.00  0.00     0.210 HD
BRANCH  14  16
HETATM   16  N5  UNL     1      14.265  -5.958   7.901  1.00  0.00    -0.329 N 
ATOM     17  H52 UNL     1      15.244  -5.728   7.727  1.00  0.00     0.178 HD
ATOM     18  H51 UNL     1      14.005  -6.462   8.748  1.00  0.00     0.178 HD
ENDBRANCH  14  16
ENDBRANCH  11  14
ENDBRANCH   4  11
BRANCH   1  19
HETATM   19  N1  UNL     1      12.611  -1.757   2.460  1.00  0.00    -0.233 N 
ATOM     20  H12 UNL     1      13.062  -2.110   1.616  1.00  0.00     0.174 HD
ATOM     21  H11 UNL     1      12.460  -0.758   2.597  1.00  0.00     0.174 HD
ENDBRANCH   1  19
TORSDOF 5
ENDMDL
MODEL 4
REMARK VINA RESULT: -4.882402024      2.547      3.840
REMARK  5 active torsions:
REMARK  status: ('A' for Active; 'I' for Inactive)
REMARK    1  A    between atoms: N1_1  and  C1_4 
REMARK    2  A    between atoms: C2_7  and  N3_8 
REMARK    3  A    between atoms: N3_8  and  O1_9 
REMARK    4  A    between atoms: N3_8  and  N4_11 
REMARK    5  A    between atoms: N4_11  and  N5_13 
ROOT
HETATM    1  C1  UNL     1      11.109  -2.981   3.693  1.00  0.00     0.692 A 
HETATM    2  N2  UNL     1      12.425  -3.250   3.804  1.00  0.00    -0.166 N 
ATOM      3  H2  UNL     1      13.082  -2.776   3.185  1.00  0.00     0.186 HD
HETATM    4  C2  UNL     1      12.894  -4.127   4.709  1.00  0.00     0.237 A 
HETATM    5  C3  UNL     1      11.950  -4.736   5.519  1.00  0.00     0.309 A 
HETATM    6  O2  UNL     1      12.337  -5.551   6.370  1.00  0.00    -0.262 OA
HETATM    7  N6  UNL     1      10.622  -4.461   5.405  1.00  0.00    -0.249 N 
ATOM      8  H6  UNL     1       9.947  -4.923   6.014  1.00  0.00     0.191 HD
HETATM    9  N7  UNL     1      10.211  -3.583   4.490  1.00  0.00    -0.129 N 
ATOM     10  H7  UNL     1       9.218  -3.369   4.395  1.00  0.00     0.205 HD
ENDROOT
BRANCH   4  11
HETATM   11  N3  UNL     1      14.280  -4.423   4.840  1.00  0.00    -0.126 N 
BRANCH  11  12
HETATM   12  O1  UNL     1      14.689  -5.111   5.793  1.00  0.00    -0.265 OA
ATOM     13  H1  UNL     1      15.404  -4.801   6.337  1.00  0.00     0.247 HD
ENDBRANCH  11  12
BRANCH  11  14
HETATM   14  N4  UNL     1      15.186  -3.947   3.904  1.00  0.00    -0.221 N 
ATOM     15  H4  UNL     1      15.570  -4.595   3.217  1.00  0.00     0.210 HD
BRANCH  14  16
HETATM   16  N5  UNL     1      15.590  -2.621   3.869  1.00  0.00    -0.329 N 
ATOM     17  H52 UNL     1      15.284  -2.052   3.080  1.00  0.00     0.178 HD
ATOM     18  H51 UNL     1      16.174  -2.208   4.596  1.00  0.00     0.178 HD
ENDBRANCH  14  16
ENDBRANCH  11  14
ENDBRANCH   4  11
BRANCH   1  19
HETATM   19  N1  UNL     1      10.668  -2.124   2.805  1.00  0.00    -0.233 N 
ATOM     20  H12 UNL     1      11.304  -1.831   2.063  1.00  0.00     0.174 HD
ATOM     21  H11 UNL     1       9.716  -1.760   2.854  1.00  0.00     0.174 HD
ENDBRANCH   1  19
TORSDOF 5
ENDMDL
MODEL 5
REMARK VINA RESULT: -4.872790809      2.938      3.813
REMARK  5 active torsions:
REMARK  status: ('A' for Active; 'I' for Inactive)
REMARK    1  A    between atoms: N1_1  and  C1_4 
REMARK    2  A    between atoms: C2_7  and  N3_8 
REMARK    3  A    between atoms: N3_8  and  O1_9 
REMARK    4  A    between atoms: N3_8  and  N4_11 
REMARK    5  A    between atoms: N4_11  and  N5_13 
ROOT
HETATM    1  C1  UNL     1      10.959  -2.825   3.503  1.00  0.00     0.692 A 
HETATM    2  N2  UNL     1      12.305  -2.853   3.444  1.00  0.00    -0.166 N 
ATOM      3  H2  UNL     1      12.784  -2.278   2.750  1.00  0.00     0.186 HD
HETATM    4  C2  UNL     1      13.035  -3.618   4.275  1.00  0.00     0.237 A 
HETATM    5  C3  UNL     1      12.325  -4.374   5.193  1.00  0.00     0.309 A 
HETATM    6  O2  UNL     1      12.956  -5.095   5.980  1.00  0.00    -0.262 OA
HETATM    7  N6  UNL     1      10.965  -4.343   5.250  1.00  0.00    -0.249 N 
ATOM      8  H6  UNL     1      10.466  -4.909   5.936  1.00  0.00     0.191 HD
HETATM    9  N7  UNL     1      10.292  -3.567   4.402  1.00  0.00    -0.129 N 
ATOM     10  H7  UNL     1       9.273  -3.535   4.435  1.00  0.00     0.205 HD
ENDROOT
BRANCH   4  11
HETATM   11  N3  UNL     1      14.456  -3.660   4.226  1.00  0.00    -0.126 N 
BRANCH  11  12
HETATM   12  O1  UNL     1      15.121  -2.618   4.372  1.00  0.00    -0.265 OA
ATOM     13  H1  UNL     1      15.040  -1.905   3.749  1.00  0.00     0.247 HD
ENDBRANCH  11  12
BRANCH  11  14
HETATM   14  N4  UNL     1      15.113  -4.863   4.015  1.00  0.00    -0.221 N 
ATOM     15  H4  UNL     1      15.129  -5.256   3.074  1.00  0.00     0.210 HD
BRANCH  14  16
HETATM   16  N5  UNL     1      15.747  -5.552   5.037  1.00  0.00    -0.329 N 
ATOM     17  H52 UNL     1      15.307  -5.550   5.957  1.00  0.00     0.178 HD
ATOM     18  H51 UNL     1      16.626  -6.050   4.896  1.00  0.00     0.178 HD
ENDBRANCH  14  16
ENDBRANCH  11  14
ENDBRANCH   4  11
BRANCH   1  19
HETATM   19  N1  UNL     1      10.263  -2.073   2.685  1.00  0.00    -0.233 N 
ATOM     20  H12 UNL     1      10.563  -2.017   1.711  1.00  0.00     0.174 HD
ATOM     21  H11 UNL     1       9.445  -1.560   3.012  1.00  0.00     0.174 HD
ENDBRANCH   1  19
TORSDOF 5
ENDMDL
