MODEL 1
REMARK VINA RESULT: -7.430635064      0.000      0.000
REMARK  7 active torsions:
REMARK  status: ('A' for Active; 'I' for Inactive)
REMARK    1  A    between atoms: C1_4  and  N2_5 
REMARK    2  A    between atoms: C1_4  and  C3_16 
REMARK       I    between atoms: N2_5  and  C2_7 
REMARK       I    between atoms: C2_7  and  N3_8 
REMARK       I    between atoms: C2_7  and  N4_12 
REMARK    3  A    between atoms: C5_20  and  N6_21 
REMARK    4  A    between atoms: N6_21  and  C6_23 
REMARK    5  A    between atoms: C6_23  and  C7_24 
REMARK    6  A    between atoms: C11_32  and  N9_33 
REMARK    7  A    between atoms: N9_33  and  C12_35 
ROOT
HETATM    1  C3  UNL     1     -20.864 -16.739  11.649  1.00  0.00     0.151 A 
HETATM    2  N5  UNL     1     -20.602 -16.009  12.723  1.00  0.00    -0.336 N 
ATOM      3  H5  UNL     1     -20.771 -15.004  12.682  1.00  0.00     0.168 HD
HETATM    4  C4  UNL     1     -20.123 -16.533  13.866  1.00  0.00     0.091 A 
HETATM    5  C5  UNL     1     -19.855 -15.765  14.975  1.00  0.00     0.059 A 
HETATM    6  C8  UNL     1     -19.368 -16.406  16.093  1.00  0.00     0.048 A 
HETATM    7  C9  UNL     1     -19.150 -17.768  16.125  1.00  0.00     0.091 A 
HETATM    8  N8  UNL     1     -19.417 -18.501  15.036  1.00  0.00    -0.361 N 
ATOM      9  H8  UNL     1     -19.259 -19.509  15.046  1.00  0.00     0.165 HD
HETATM   10  C10 UNL     1     -19.892 -17.906  13.932  1.00  0.00     0.106 A 
HETATM   11  C11 UNL     1     -20.164 -18.665  12.816  1.00  0.00     0.138 A 
HETATM   12  N10 UNL     1     -20.649 -18.057  11.691  1.00  0.00    -0.324 N 
ATOM     13  H10 UNL     1     -20.850 -18.622  10.865  1.00  0.00     0.169 HD
ENDROOT
BRANCH   1  14
HETATM   14  C1  UNL     1     -21.384 -16.167  10.406  1.00  0.00     0.142 C 
HETATM   15  N1  UNL     1     -20.556 -15.786   9.510  1.00  0.00    -0.383 N 
ATOM     16  H12 UNL     1     -20.918 -15.387   8.645  1.00  0.00     0.157 HD
ATOM     17  H11 UNL     1     -19.555 -15.890   9.681  1.00  0.00     0.157 HD
BRANCH  14  18
HETATM   18  N2  UNL     1     -22.773 -16.023  10.169  1.00  0.00    -0.324 N 
HETATM   19  C2  UNL     1     -23.265 -15.242   9.058  1.00  0.00     0.481 C 
HETATM   20  N3  UNL     1     -24.714 -15.270   9.061  1.00  0.00    -0.033 N 
HETATM   21  N4  UNL     1     -22.762 -13.893   9.044  1.00  0.00    -0.033 N 
ATOM     22  H33 UNL     1     -25.083 -16.220   9.061  1.00  0.00     0.278 HD
ATOM     23  H32 UNL     1     -25.106 -14.965   9.952  1.00  0.00     0.278 HD
ATOM     24  H31 UNL     1     -25.061 -14.719   8.277  1.00  0.00     0.278 HD
ATOM     25  H43 UNL     1     -22.955 -13.425   9.929  1.00  0.00     0.278 HD
ATOM     26  H42 UNL     1     -21.743 -13.886   9.068  1.00  0.00     0.278 HD
ATOM     27  H41 UNL     1     -23.109 -13.342   8.259  1.00  0.00     0.278 HD
ATOM     28  H2  UNL     1     -23.437 -16.478  10.794  1.00  0.00     0.165 HD
ENDBRANCH  14  18
ENDBRANCH   1  14
BRANCH  11  29
HETATM   29  N9  UNL     1     -19.963 -19.928  12.842  1.00  0.00    -0.318 N 
ATOM     30  H9  UNL     1     -20.781 -20.520  12.982  1.00  0.00     0.169 HD
BRANCH  29  31
HETATM   31  C12 UNL     1     -18.740 -20.576  12.698  1.00  0.00     0.354 C 
HETATM   32  O2  UNL     1     -18.426 -21.578  13.420  1.00  0.00    -0.283 OA
ENDBRANCH  29  31
ENDBRANCH  11  29
BRANCH   5  33
HETATM   33  N6  UNL     1     -20.081 -14.353  14.945  1.00  0.00    -0.380 N 
ATOM     34  H6  UNL     1     -20.999 -13.973  14.717  1.00  0.00     0.160 HD
BRANCH  33  35
HETATM   35  C6  UNL     1     -18.976 -13.491  15.244  1.00  0.00     0.219 C 
BRANCH  35  36
HETATM   36  C7  UNL     1     -19.249 -12.072  15.062  1.00  0.00     0.248 C 
HETATM   37  N7  UNL     1     -18.235 -11.114  15.273  1.00  0.00    -0.061 NA
HETATM   38  O1  UNL     1     -20.384 -11.689  14.716  1.00  0.00    -0.275 OA
ENDBRANCH  35  36
ENDBRANCH  33  35
ENDBRANCH   5  33
TORSDOF 7
ENDMDL
MODEL 2
REMARK VINA RESULT: -6.901122557      2.081      2.295
REMARK  7 active torsions:
REMARK  status: ('A' for Active; 'I' for Inactive)
REMARK    1  A    between atoms: C1_4  and  N2_5 
REMARK    2  A    between atoms: C1_4  and  C3_16 
REMARK       I    between atoms: N2_5  and  C2_7 
REMARK       I    between atoms: C2_7  and  N3_8 
REMARK       I    between atoms: C2_7  and  N4_12 
REMARK    3  A    between atoms: C5_20  and  N6_21 
REMARK    4  A    between atoms: N6_21  and  C6_23 
REMARK    5  A    between atoms: C6_23  and  C7_24 
REMARK    6  A    between atoms: C11_32  and  N9_33 
REMARK    7  A    between atoms: N9_33  and  C12_35 
ROOT
HETATM    1  C3  UNL     1     -21.288 -16.421  11.313  1.00  0.00     0.151 A 
HETATM    2  N5  UNL     1     -20.422 -16.079  12.256  1.00  0.00    -0.336 N 
ATOM      3  H5  UNL     1     -19.775 -15.312  12.068  1.00  0.00     0.168 HD
HETATM    4  C4  UNL     1     -20.358 -16.695  13.450  1.00  0.00     0.091 A 
HETATM    5  C5  UNL     1     -19.455 -16.330  14.422  1.00  0.00     0.059 A 
HETATM    6  C8  UNL     1     -19.478 -17.030  15.608  1.00  0.00     0.048 A 
HETATM    7  C9  UNL     1     -20.364 -18.061  15.839  1.00  0.00     0.091 A 
HETATM    8  N8  UNL     1     -21.236 -18.403  14.882  1.00  0.00    -0.361 N 
ATOM      9  H8  UNL     1     -21.897 -19.165  15.040  1.00  0.00     0.165 HD
HETATM   10  C10 UNL     1     -21.240 -17.741  13.716  1.00  0.00     0.106 A 
HETATM   11  C11 UNL     1     -22.140 -18.097  12.736  1.00  0.00     0.138 A 
HETATM   12  N10 UNL     1     -22.142 -17.422  11.547  1.00  0.00    -0.324 N 
ATOM     13  H10 UNL     1     -22.810 -17.687  10.823  1.00  0.00     0.169 HD
ENDROOT
BRANCH   1  14
HETATM   14  C1  UNL     1     -21.355 -15.749  10.014  1.00  0.00     0.142 C 
HETATM   15  N1  UNL     1     -20.438 -15.978   9.155  1.00  0.00    -0.383 N 
ATOM     16  H12 UNL     1     -20.485 -15.510   8.250  1.00  0.00     0.157 HD
ATOM     17  H11 UNL     1     -19.682 -16.622   9.392  1.00  0.00     0.157 HD
BRANCH  14  18
HETATM   18  N2  UNL     1     -22.404 -14.856   9.684  1.00  0.00    -0.324 N 
HETATM   19  C2  UNL     1     -23.713 -15.343   9.316  1.00  0.00     0.481 C 
HETATM   20  N3  UNL     1     -24.578 -14.215   9.033  1.00  0.00    -0.033 N 
HETATM   21  N4  UNL     1     -23.685 -16.276   8.221  1.00  0.00    -0.033 N 
ATOM     22  H33 UNL     1     -24.615 -13.552   9.806  1.00  0.00     0.278 HD
ATOM     23  H32 UNL     1     -24.185 -13.592   8.328  1.00  0.00     0.278 HD
ATOM     24  H31 UNL     1     -25.502 -14.559   8.773  1.00  0.00     0.278 HD
ATOM     25  H43 UNL     1     -23.208 -15.874   7.413  1.00  0.00     0.278 HD
ATOM     26  H42 UNL     1     -23.053 -17.052   8.421  1.00  0.00     0.278 HD
ATOM     27  H41 UNL     1     -24.609 -16.620   7.961  1.00  0.00     0.278 HD
ATOM     28  H2  UNL     1     -22.232 -13.852   9.707  1.00  0.00     0.165 HD
ENDBRANCH  14  18
ENDBRANCH   1  14
BRANCH  11  29
HETATM   29  N9  UNL     1     -22.963 -19.054  12.947  1.00  0.00    -0.318 N 
ATOM     30  H9  UNL     1     -22.642 -19.810  13.550  1.00  0.00     0.169 HD
BRANCH  29  31
HETATM   31  C12 UNL     1     -24.252 -19.166  12.435  1.00  0.00     0.354 C 
HETATM   32  O2  UNL     1     -24.516 -18.882  11.222  1.00  0.00    -0.283 OA
ENDBRANCH  29  31
ENDBRANCH  11  29
BRANCH   5  33
HETATM   33  N6  UNL     1     -18.535 -15.262  14.185  1.00  0.00    -0.380 N 
ATOM     34  H6  UNL     1     -17.992 -15.217  13.323  1.00  0.00     0.160 HD
BRANCH  33  35
HETATM   35  C6  UNL     1     -18.402 -14.255  15.196  1.00  0.00     0.219 C 
BRANCH  35  36
HETATM   36  C7  UNL     1     -19.102 -13.011  14.907  1.00  0.00     0.248 C 
HETATM   37  N7  UNL     1     -18.402 -11.787  14.867  1.00  0.00    -0.061 NA
HETATM   38  O1  UNL     1     -20.330 -13.015  14.691  1.00  0.00    -0.275 OA
ENDBRANCH  35  36
ENDBRANCH  33  35
ENDBRANCH   5  33
TORSDOF 7
ENDMDL
MODEL 3
REMARK VINA RESULT: -6.751680294      3.252      6.203
REMARK  7 active torsions:
REMARK  status: ('A' for Active; 'I' for Inactive)
REMARK    1  A    between atoms: C1_4  and  N2_5 
REMARK    2  A    between atoms: C1_4  and  C3_16 
REMARK       I    between atoms: N2_5  and  C2_7 
REMARK       I    between atoms: C2_7  and  N3_8 
REMARK       I    between atoms: C2_7  and  N4_12 
REMARK    3  A    between atoms: C5_20  and  N6_21 
REMARK    4  A    between atoms: N6_21  and  C6_23 
REMARK    5  A    between atoms: C6_23  and  C7_24 
REMARK    6  A    between atoms: C11_32  and  N9_33 
REMARK    7  A    between atoms: N9_33  and  C12_35 
ROOT
HETATM    1  C3  UNL     1     -19.590 -15.472  14.599  1.00  0.00     0.151 A 
HETATM    2  N5  UNL     1     -20.574 -16.217  14.115  1.00  0.00    -0.336 N 
ATOM      3  H5  UNL     1     -21.519 -15.832  14.110  1.00  0.00     0.168 HD
HETATM    4  C4  UNL     1     -20.382 -17.456  13.628  1.00  0.00     0.091 A 
HETATM    5  C5  UNL     1     -21.412 -18.220  13.127  1.00  0.00     0.059 A 
HETATM    6  C8  UNL     1     -21.101 -19.476  12.654  1.00  0.00     0.048 A 
HETATM    7  C9  UNL     1     -19.815 -19.973  12.669  1.00  0.00     0.091 A 
HETATM    8  N8  UNL     1     -18.825 -19.215  13.160  1.00  0.00    -0.361 N 
ATOM      9  H8  UNL     1     -17.869 -19.571  13.178  1.00  0.00     0.165 HD
HETATM   10  C10 UNL     1     -19.094 -17.988  13.628  1.00  0.00     0.106 A 
HETATM   11  C11 UNL     1     -18.072 -17.215  14.131  1.00  0.00     0.138 A 
HETATM   12  N10 UNL     1     -18.348 -15.963  14.609  1.00  0.00    -0.324 N 
ATOM     13  H10 UNL     1     -17.589 -15.392  14.981  1.00  0.00     0.169 HD
ENDROOT
BRANCH   1  14
HETATM   14  C1  UNL     1     -19.801 -14.124  15.129  1.00  0.00     0.142 C 
HETATM   15  N1  UNL     1     -20.859 -13.489  14.793  1.00  0.00    -0.383 N 
ATOM     16  H12 UNL     1     -21.005 -12.550  15.161  1.00  0.00     0.157 HD
ATOM     17  H11 UNL     1     -21.529 -13.935  14.166  1.00  0.00     0.157 HD
BRANCH  14  18
HETATM   18  N2  UNL     1     -18.871 -13.505  15.999  1.00  0.00    -0.324 N 
HETATM   19  C2  UNL     1     -18.886 -12.077  16.216  1.00  0.00     0.481 C 
HETATM   20  N3  UNL     1     -17.831 -11.727  17.147  1.00  0.00    -0.033 N 
HETATM   21  N4  UNL     1     -18.791 -11.316  14.999  1.00  0.00    -0.033 N 
ATOM     22  H33 UNL     1     -17.893 -12.252  18.019  1.00  0.00     0.278 HD
ATOM     23  H32 UNL     1     -16.917 -12.062  16.842  1.00  0.00     0.278 HD
ATOM     24  H31 UNL     1     -17.841 -10.719  17.300  1.00  0.00     0.278 HD
ATOM     25  H43 UNL     1     -17.970 -11.592  14.461  1.00  0.00     0.278 HD
ATOM     26  H42 UNL     1     -19.522 -11.589  14.343  1.00  0.00     0.278 HD
ATOM     27  H41 UNL     1     -18.802 -10.308  15.153  1.00  0.00     0.278 HD
ATOM     28  H2  UNL     1     -18.178 -14.078  16.481  1.00  0.00     0.165 HD
ENDBRANCH  14  18
ENDBRANCH   1  14
BRANCH  11  29
HETATM   29  N9  UNL     1     -16.877 -17.672  14.147  1.00  0.00    -0.318 N 
ATOM     30  H9  UNL     1     -16.683 -18.425  14.806  1.00  0.00     0.169 HD
BRANCH  29  31
HETATM   31  C12 UNL     1     -15.816 -17.246  13.355  1.00  0.00     0.354 C 
HETATM   32  O2  UNL     1     -14.805 -16.653  13.856  1.00  0.00    -0.283 OA
ENDBRANCH  29  31
ENDBRANCH  11  29
BRANCH   5  33
HETATM   33  N6  UNL     1     -22.746 -17.707  13.111  1.00  0.00    -0.380 N 
ATOM     34  H6  UNL     1     -22.925 -16.705  13.163  1.00  0.00     0.160 HD
BRANCH  33  35
HETATM   35  C6  UNL     1     -23.824 -18.646  13.018  1.00  0.00     0.219 C 
BRANCH  35  36
HETATM   36  C7  UNL     1     -24.401 -18.776  11.687  1.00  0.00     0.248 C 
HETATM   37  N7  UNL     1     -25.048 -19.968  11.300  1.00  0.00    -0.061 NA
HETATM   38  O1  UNL     1     -24.330 -17.833  10.876  1.00  0.00    -0.275 OA
ENDBRANCH  35  36
ENDBRANCH  33  35
ENDBRANCH   5  33
TORSDOF 7
ENDMDL
MODEL 4
REMARK VINA RESULT: -6.186014917      2.595      3.010
REMARK  7 active torsions:
REMARK  status: ('A' for Active; 'I' for Inactive)
REMARK    1  A    between atoms: C1_4  and  N2_5 
REMARK    2  A    between atoms: C1_4  and  C3_16 
REMARK       I    between atoms: N2_5  and  C2_7 
REMARK       I    between atoms: C2_7  and  N3_8 
REMARK       I    between atoms: C2_7  and  N4_12 
REMARK    3  A    between atoms: C5_20  and  N6_21 
REMARK    4  A    between atoms: N6_21  and  C6_23 
REMARK    5  A    between atoms: C6_23  and  C7_24 
REMARK    6  A    between atoms: C11_32  and  N9_33 
REMARK    7  A    between atoms: N9_33  and  C12_35 
ROOT
HETATM    1  C3  UNL     1     -22.618 -18.338  12.793  1.00  0.00     0.151 A 
HETATM    2  N5  UNL     1     -21.966 -17.344  13.379  1.00  0.00    -0.336 N 
ATOM      3  H5  UNL     1     -22.488 -16.507  13.640  1.00  0.00     0.168 HD
HETATM    4  C4  UNL     1     -20.649 -17.390  13.646  1.00  0.00     0.091 A 
HETATM    5  C5  UNL     1     -19.983 -16.351  14.256  1.00  0.00     0.059 A 
HETATM    6  C8  UNL     1     -18.633 -16.506  14.482  1.00  0.00     0.048 A 
HETATM    7  C9  UNL     1     -17.950 -17.649  14.122  1.00  0.00     0.091 A 
HETATM    8  N8  UNL     1     -18.615 -18.650  13.530  1.00  0.00    -0.361 N 
ATOM      9  H8  UNL     1     -18.122 -19.501  13.257  1.00  0.00     0.165 HD
HETATM   10  C10 UNL     1     -19.930 -18.531  13.295  1.00  0.00     0.106 A 
HETATM   11  C11 UNL     1     -20.607 -19.564  12.686  1.00  0.00     0.138 A 
HETATM   12  N10 UNL     1     -21.948 -19.441  12.448  1.00  0.00    -0.324 N 
ATOM     13  H10 UNL     1     -22.447 -20.208  11.997  1.00  0.00     0.169 HD
ENDROOT
BRANCH   1  14
HETATM   14  C1  UNL     1     -24.052 -18.286  12.503  1.00  0.00     0.142 C 
HETATM   15  N1  UNL     1     -24.861 -17.989  13.447  1.00  0.00    -0.383 N 
ATOM     16  H12 UNL     1     -25.859 -17.953  13.244  1.00  0.00     0.157 HD
ATOM     17  H11 UNL     1     -24.490 -17.795  14.377  1.00  0.00     0.157 HD
BRANCH  14  18
HETATM   18  N2  UNL     1     -24.567 -18.555  11.211  1.00  0.00    -0.324 N 
HETATM   19  C2  UNL     1     -25.862 -19.169  11.035  1.00  0.00     0.481 C 
HETATM   20  N3  UNL     1     -26.127 -19.323   9.618  1.00  0.00    -0.033 N 
HETATM   21  N4  UNL     1     -25.999 -20.418  11.737  1.00  0.00    -0.033 N 
ATOM     22  H33 UNL     1     -26.044 -18.443   9.111  1.00  0.00     0.278 HD
ATOM     23  H32 UNL     1     -25.387 -19.835   9.138  1.00  0.00     0.278 HD
ATOM     24  H31 UNL     1     -27.042 -19.757   9.494  1.00  0.00     0.278 HD
ATOM     25  H43 UNL     1     -25.253 -21.064  11.477  1.00  0.00     0.278 HD
ATOM     26  H42 UNL     1     -25.784 -20.303  12.727  1.00  0.00     0.278 HD
ATOM     27  H41 UNL     1     -26.913 -20.852  11.613  1.00  0.00     0.278 HD
ATOM     28  H2  UNL     1     -24.013 -18.310  10.390  1.00  0.00     0.165 HD
ENDBRANCH  14  18
ENDBRANCH   1  14
BRANCH  11  29
HETATM   29  N9  UNL     1     -19.977 -20.626  12.351  1.00  0.00    -0.318 N 
ATOM     30  H9  UNL     1     -20.495 -21.311  11.800  1.00  0.00     0.169 HD
BRANCH  29  31
HETATM   31  C12 UNL     1     -18.658 -20.941  12.661  1.00  0.00     0.354 C 
HETATM   32  O2  UNL     1     -18.369 -21.813  13.544  1.00  0.00    -0.283 OA
ENDBRANCH  29  31
ENDBRANCH  11  29
BRANCH   5  33
HETATM   33  N6  UNL     1     -20.688 -15.166  14.630  1.00  0.00    -0.380 N 
ATOM     34  H6  UNL     1     -21.615 -14.965  14.257  1.00  0.00     0.160 HD
BRANCH  33  35
HETATM   35  C6  UNL     1     -20.051 -14.268  15.547  1.00  0.00     0.219 C 
BRANCH  35  36
HETATM   36  C7  UNL     1     -19.461 -13.089  14.929  1.00  0.00     0.248 C 
HETATM   37  N7  UNL     1     -20.214 -11.905  14.780  1.00  0.00    -0.061 NA
HETATM   38  O1  UNL     1     -18.282 -13.113  14.525  1.00  0.00    -0.275 OA
ENDBRANCH  35  36
ENDBRANCH  33  35
ENDBRANCH   5  33
TORSDOF 7
ENDMDL
MODEL 5
REMARK VINA RESULT: -5.919051216      7.009     11.109
REMARK  7 active torsions:
REMARK  status: ('A' for Active; 'I' for Inactive)
REMARK    1  A    between atoms: C1_4  and  N2_5 
REMARK    2  A    between atoms: C1_4  and  C3_16 
REMARK       I    between atoms: N2_5  and  C2_7 
REMARK       I    between atoms: C2_7  and  N3_8 
REMARK       I    between atoms: C2_7  and  N4_12 
REMARK    3  A    between atoms: C5_20  and  N6_21 
REMARK    4  A    between atoms: N6_21  and  C6_23 
REMARK    5  A    between atoms: C6_23  and  C7_24 
REMARK    6  A    between atoms: C11_32  and  N9_33 
REMARK    7  A    between atoms: N9_33  and  C12_35 
ROOT
HETATM    1  C3  UNL     1     -17.656 -10.567  19.333  1.00  0.00     0.151 A 
HETATM    2  N5  UNL     1     -16.905  -9.487  19.496  1.00  0.00    -0.336 N 
ATOM      3  H5  UNL     1     -16.163  -9.304  18.820  1.00  0.00     0.168 HD
HETATM    4  C4  UNL     1     -17.077  -8.622  20.511  1.00  0.00     0.091 A 
HETATM    5  C5  UNL     1     -16.290  -7.504  20.669  1.00  0.00     0.059 A 
HETATM    6  C8  UNL     1     -16.555  -6.685  21.745  1.00  0.00     0.048 A 
HETATM    7  C9  UNL     1     -17.566  -6.954  22.645  1.00  0.00     0.091 A 
HETATM    8  N8  UNL     1     -18.321  -8.047  22.476  1.00  0.00    -0.361 N 
ATOM      9  H8  UNL     1     -19.071  -8.257  23.134  1.00  0.00     0.165 HD
HETATM   10  C10 UNL     1     -18.089  -8.863  21.438  1.00  0.00     0.106 A 
HETATM   11  C11 UNL     1     -18.870  -9.985  21.269  1.00  0.00     0.138 A 
HETATM   12  N10 UNL     1     -18.632 -10.817  20.210  1.00  0.00    -0.324 N 
ATOM     13  H10 UNL     1     -19.212 -11.647  20.087  1.00  0.00     0.169 HD
ENDROOT
BRANCH   1  14
HETATM   14  C1  UNL     1     -17.467 -11.507  18.228  1.00  0.00     0.142 C 
HETATM   15  N1  UNL     1     -16.941 -12.646  18.472  1.00  0.00    -0.383 N 
ATOM     16  H12 UNL     1     -16.809 -13.301  17.702  1.00  0.00     0.157 HD
ATOM     17  H11 UNL     1     -16.667 -12.873  19.428  1.00  0.00     0.157 HD
BRANCH  14  18
HETATM   18  N2  UNL     1     -17.848 -11.192  16.900  1.00  0.00    -0.324 N 
HETATM   19  C2  UNL     1     -18.930 -11.892  16.247  1.00  0.00     0.481 C 
HETATM   20  N3  UNL     1     -19.096 -11.365  14.906  1.00  0.00    -0.033 N 
HETATM   21  N4  UNL     1     -18.759 -13.321  16.236  1.00  0.00    -0.033 N 
ATOM     22  H33 UNL     1     -19.228 -10.355  14.901  1.00  0.00     0.278 HD
ATOM     23  H32 UNL     1     -18.231 -11.399  14.366  1.00  0.00     0.278 HD
ATOM     24  H31 UNL     1     -19.859 -11.859  14.445  1.00  0.00     0.278 HD
ATOM     25  H43 UNL     1     -17.861 -13.576  15.824  1.00  0.00     0.278 HD
ATOM     26  H42 UNL     1     -18.617 -13.676  17.182  1.00  0.00     0.278 HD
ATOM     27  H41 UNL     1     -19.523 -13.814  15.775  1.00  0.00     0.278 HD
ATOM     28  H2  UNL     1     -17.349 -10.459  16.397  1.00  0.00     0.165 HD
ENDBRANCH  14  18
ENDBRANCH   1  14
BRANCH  11  29
HETATM   29  N9  UNL     1     -19.808 -10.237  22.102  1.00  0.00    -0.318 N 
ATOM     30  H9  UNL     1     -19.528 -10.432  23.062  1.00  0.00     0.169 HD
BRANCH  29  31
HETATM   31  C12 UNL     1     -21.171 -10.273  21.828  1.00  0.00     0.354 C 
HETATM   32  O2  UNL     1     -21.856  -9.206  21.703  1.00  0.00    -0.283 OA
ENDBRANCH  29  31
ENDBRANCH  11  29
BRANCH   5  33
HETATM   33  N6  UNL     1     -15.242  -7.223  19.738  1.00  0.00    -0.380 N 
ATOM     34  H6  UNL     1     -15.005  -7.884  18.999  1.00  0.00     0.160 HD
BRANCH  33  35
HETATM   35  C6  UNL     1     -14.537  -5.984  19.876  1.00  0.00     0.219 C 
BRANCH  35  36
HETATM   36  C7  UNL     1     -13.170  -6.117  20.362  1.00  0.00     0.248 C 
HETATM   37  N7  UNL     1     -12.137  -5.323  19.822  1.00  0.00    -0.061 NA
HETATM   38  O1  UNL     1     -12.899  -6.935  21.262  1.00  0.00    -0.275 OA
ENDBRANCH  35  36
ENDBRANCH  33  35
ENDBRANCH   5  33
TORSDOF 7
ENDMDL
