MODEL 1
REMARK VINA RESULT: -7.147018725      0.000      0.000
REMARK  11 active torsions:
REMARK  status: ('A' for Active; 'I' for Inactive)
REMARK    1  A    between atoms: O1_2  and  N1_3 
REMARK    2  A    between atoms: N1_3  and  C2_5 
REMARK    3  A    between atoms: C3_8  and  N3_9 
REMARK    4  A    between atoms: N5_15  and  C5_17 
REMARK    5  A    between atoms: C5_17  and  C6_18 
REMARK    6  A    between atoms: N6_20  and  C8_21 
REMARK    7  A    between atoms: C8_21  and  C9_22 
REMARK    8  A    between atoms: C9_22  and  C10_23 
REMARK    9  A    between atoms: C13_26  and  C14_27 
REMARK   10  A    between atoms: C14_27  and  N8_31 
REMARK   11  A    between atoms: N8_31  and  N9_33 
ROOT
HETATM    1  C6  UNL     1     -23.866 -18.551  12.140  1.00  0.00     0.045 A 
HETATM    2  C7  UNL     1     -24.896 -19.407  11.952  1.00  0.00     0.119 A 
HETATM    3  N6  UNL     1     -25.564 -18.978  10.827  1.00  0.00    -0.338 N 
HETATM    4  C13 UNL     1     -24.987 -17.894  10.315  1.00  0.00     0.153 A 
HETATM    5  N10 UNL     1     -23.924 -17.663  11.173  1.00  0.00    -0.340 N 
ATOM      6  H10 UNL     1     -23.262 -16.894  11.065  1.00  0.00     0.167 HD
ENDROOT
BRANCH   1   7
HETATM    7  C5  UNL     1     -22.815 -18.535  13.203  1.00  0.00     0.196 C 
BRANCH   7   8
HETATM    8  N5  UNL     1     -21.898 -17.467  13.054  1.00  0.00    -0.219 N 
HETATM    9  C4  UNL     1     -20.958 -17.196  13.875  1.00  0.00     0.707 A 
HETATM   10  N4  UNL     1     -20.769 -17.934  14.980  1.00  0.00    -0.022 N 
HETATM   11  N11 UNL     1     -20.130 -16.138  13.630  1.00  0.00    -0.020 N 
HETATM   12  C3  UNL     1     -19.765 -17.598  15.806  1.00  0.00     0.705 A 
ATOM     13  H4  UNL     1     -21.373 -18.729  15.187  1.00  0.00     0.203 HD
HETATM   14  N2  UNL     1     -18.952 -16.556  15.562  1.00  0.00    -0.020 N 
HETATM   15  C2  UNL     1     -19.125 -15.805  14.459  1.00  0.00     0.731 A 
ATOM     16  H2  UNL     1     -18.200 -16.334  16.216  1.00  0.00     0.203 HD
ATOM     17  H11 UNL     1     -20.279 -15.581  12.788  1.00  0.00     0.203 HD
ATOM     18  H5  UNL     1     -21.995 -16.872  12.231  1.00  0.00     0.178 HD
BRANCH  12  19
HETATM   19  N3  UNL     1     -19.608 -18.339  16.876  1.00  0.00    -0.234 N 
ATOM     20  H32 UNL     1     -18.934 -18.011  17.567  1.00  0.00     0.174 HD
ATOM     21  H31 UNL     1     -20.141 -19.201  16.999  1.00  0.00     0.174 HD
ENDBRANCH  12  19
BRANCH  15  22
HETATM   22  N1  UNL     1     -18.326 -14.820  14.265  1.00  0.00    -0.096 N 
ATOM     23  H1  UNL     1     -17.350 -15.028  14.052  1.00  0.00     0.213 HD
BRANCH  22  24
HETATM   24  O1  UNL     1     -18.708 -13.509  14.326  1.00  0.00    -0.271 OA
HETATM   25  C1  UNL     1     -19.378 -12.993  15.474  1.00  0.00     0.238 C 
ENDBRANCH  22  24
ENDBRANCH  15  22
ENDBRANCH   7   8
ENDBRANCH   1   7
BRANCH   3  26
HETATM   26  C8  UNL     1     -26.683 -19.716  10.330  1.00  0.00     0.130 C 
BRANCH  26  27
HETATM   27  C9  UNL     1     -26.671 -21.175  10.683  1.00  0.00     0.025 C 
BRANCH  27  28
HETATM   28  C10 UNL     1     -27.916 -21.625  11.369  1.00  0.00    -0.013 A 
HETATM   29  C11 UNL     1     -27.919 -23.072  11.859  1.00  0.00     0.005 A 
HETATM   30  C12 UNL     1     -27.886 -21.948  12.839  1.00  0.00     0.005 A 
ENDBRANCH  27  28
ENDBRANCH  26  27
ENDBRANCH   3  26
BRANCH   4  31
HETATM   31  C14 UNL     1     -25.271 -17.021   9.207  1.00  0.00     0.158 C 
HETATM   32  N7  UNL     1     -26.347 -16.847   8.644  1.00  0.00    -0.381 N 
ATOM     33  H72 UNL     1     -27.126 -17.390   9.016  1.00  0.00     0.157 HD
ATOM     34  H71 UNL     1     -26.548 -16.228   7.859  1.00  0.00     0.157 HD
BRANCH  31  35
HETATM   35  N8  UNL     1     -24.158 -16.245   8.677  1.00  0.00    -0.289 N 
ATOM     36  H8  UNL     1     -23.515 -16.689   8.021  1.00  0.00     0.188 HD
BRANCH  35  37
HETATM   37  N9  UNL     1     -23.943 -14.920   9.034  1.00  0.00    -0.344 N 
ATOM     38  H92 UNL     1     -23.509 -14.734   9.938  1.00  0.00     0.176 HD
ATOM     39  H91 UNL     1     -24.204 -14.144   8.426  1.00  0.00     0.176 HD
ENDBRANCH  35  37
ENDBRANCH  31  35
ENDBRANCH   4  31
TORSDOF 11
ENDMDL
MODEL 2
REMARK VINA RESULT: -7.080747310      5.332      8.674
REMARK  11 active torsions:
REMARK  status: ('A' for Active; 'I' for Inactive)
REMARK    1  A    between atoms: O1_2  and  N1_3 
REMARK    2  A    between atoms: N1_3  and  C2_5 
REMARK    3  A    between atoms: C3_8  and  N3_9 
REMARK    4  A    between atoms: N5_15  and  C5_17 
REMARK    5  A    between atoms: C5_17  and  C6_18 
REMARK    6  A    between atoms: N6_20  and  C8_21 
REMARK    7  A    between atoms: C8_21  and  C9_22 
REMARK    8  A    between atoms: C9_22  and  C10_23 
REMARK    9  A    between atoms: C13_26  and  C14_27 
REMARK   10  A    between atoms: C14_27  and  N8_31 
REMARK   11  A    between atoms: N8_31  and  N9_33 
ROOT
HETATM    1  C6  UNL     1     -18.770 -13.489  16.147  1.00  0.00     0.045 A 
HETATM    2  C7  UNL     1     -19.599 -13.577  15.081  1.00  0.00     0.119 A 
HETATM    3  N6  UNL     1     -19.873 -14.915  14.905  1.00  0.00    -0.338 N 
HETATM    4  C13 UNL     1     -19.247 -15.653  15.818  1.00  0.00     0.153 A 
HETATM    5  N10 UNL     1     -18.567 -14.714  16.577  1.00  0.00    -0.340 N 
ATOM      6  H10 UNL     1     -17.978 -14.946  17.377  1.00  0.00     0.167 HD
ENDROOT
BRANCH   1   7
HETATM    7  C5  UNL     1     -18.156 -12.285  16.786  1.00  0.00     0.196 C 
BRANCH   7   8
HETATM    8  N5  UNL     1     -17.479 -12.588  17.992  1.00  0.00    -0.219 N 
HETATM    9  C4  UNL     1     -17.322 -11.771  18.961  1.00  0.00     0.707 A 
HETATM   10  N4  UNL     1     -17.805 -10.521  18.900  1.00  0.00    -0.022 N 
HETATM   11  N11 UNL     1     -16.651 -12.172  20.080  1.00  0.00    -0.020 N 
HETATM   12  C3  UNL     1     -17.606  -9.709  19.951  1.00  0.00     0.705 A 
ATOM     13  H4  UNL     1     -18.311 -10.196  18.075  1.00  0.00     0.203 HD
HETATM   14  N2  UNL     1     -16.945 -10.107  21.051  1.00  0.00    -0.020 N 
HETATM   15  C2  UNL     1     -16.453 -11.357  21.131  1.00  0.00     0.731 A 
ATOM     16  H2  UNL     1     -16.814  -9.458  21.828  1.00  0.00     0.203 HD
ATOM     17  H11 UNL     1     -16.286 -13.124  20.121  1.00  0.00     0.203 HD
ATOM     18  H5  UNL     1     -17.090 -13.525  18.093  1.00  0.00     0.178 HD
BRANCH  12  19
HETATM   19  N3  UNL     1     -18.091  -8.494  19.858  1.00  0.00    -0.234 N 
ATOM     20  H32 UNL     1     -17.433  -7.755  19.611  1.00  0.00     0.174 HD
ATOM     21  H31 UNL     1     -19.080  -8.310  20.027  1.00  0.00     0.174 HD
ENDBRANCH  12  19
BRANCH  15  22
HETATM   22  N1  UNL     1     -15.829 -11.695  22.200  1.00  0.00    -0.096 N 
ATOM     23  H1  UNL     1     -14.911 -11.283  22.371  1.00  0.00     0.213 HD
BRANCH  22  24
HETATM   24  O1  UNL     1     -16.324 -12.574  23.123  1.00  0.00    -0.271 OA
HETATM   25  C1  UNL     1     -17.636 -12.416  23.657  1.00  0.00     0.238 C 
ENDBRANCH  22  24
ENDBRANCH  15  22
ENDBRANCH   7   8
ENDBRANCH   1   7
BRANCH   3  26
HETATM   26  C8  UNL     1     -20.775 -15.336  13.879  1.00  0.00     0.130 C 
BRANCH  26  27
HETATM   27  C9  UNL     1     -20.172 -16.261  12.863  1.00  0.00     0.025 C 
BRANCH  27  28
HETATM   28  C10 UNL     1     -21.059 -17.405  12.508  1.00  0.00    -0.013 A 
HETATM   29  C11 UNL     1     -20.523 -18.794  12.853  1.00  0.00     0.005 A 
HETATM   30  C12 UNL     1     -21.687 -18.231  13.600  1.00  0.00     0.005 A 
ENDBRANCH  27  28
ENDBRANCH  26  27
ENDBRANCH   3  26
BRANCH   4  31
HETATM   31  C14 UNL     1     -19.137 -17.064  16.081  1.00  0.00     0.158 C 
HETATM   32  N7  UNL     1     -19.881 -17.760  16.764  1.00  0.00    -0.381 N 
ATOM     33  H72 UNL     1     -20.668 -17.270  17.189  1.00  0.00     0.157 HD
ATOM     34  H71 UNL     1     -19.804 -18.760  16.951  1.00  0.00     0.157 HD
BRANCH  31  35
HETATM   35  N8  UNL     1     -18.013 -17.763  15.473  1.00  0.00    -0.289 N 
ATOM     36  H8  UNL     1     -17.599 -18.553  15.968  1.00  0.00     0.188 HD
BRANCH  35  37
HETATM   37  N9  UNL     1     -17.488 -17.391  14.242  1.00  0.00    -0.344 N 
ATOM     38  H92 UNL     1     -17.744 -16.476  13.871  1.00  0.00     0.176 HD
ATOM     39  H91 UNL     1     -16.864 -17.998  13.712  1.00  0.00     0.176 HD
ENDBRANCH  35  37
ENDBRANCH  31  35
ENDBRANCH   4  31
TORSDOF 11
ENDMDL
MODEL 3
REMARK VINA RESULT: -6.824883215      1.580      4.138
REMARK  11 active torsions:
REMARK  status: ('A' for Active; 'I' for Inactive)
REMARK    1  A    between atoms: O1_2  and  N1_3 
REMARK    2  A    between atoms: N1_3  and  C2_5 
REMARK    3  A    between atoms: C3_8  and  N3_9 
REMARK    4  A    between atoms: N5_15  and  C5_17 
REMARK    5  A    between atoms: C5_17  and  C6_18 
REMARK    6  A    between atoms: N6_20  and  C8_21 
REMARK    7  A    between atoms: C8_21  and  C9_22 
REMARK    8  A    between atoms: C9_22  and  C10_23 
REMARK    9  A    between atoms: C13_26  and  C14_27 
REMARK   10  A    between atoms: C14_27  and  N8_31 
REMARK   11  A    between atoms: N8_31  and  N9_33 
ROOT
HETATM    1  C6  UNL     1     -23.766 -18.328  12.015  1.00  0.00     0.045 A 
HETATM    2  C7  UNL     1     -23.869 -17.491  10.958  1.00  0.00     0.119 A 
HETATM    3  N6  UNL     1     -24.960 -17.912  10.228  1.00  0.00    -0.338 N 
HETATM    4  C13 UNL     1     -25.530 -18.971  10.794  1.00  0.00     0.153 A 
HETATM    5  N10 UNL     1     -24.747 -19.196  11.915  1.00  0.00    -0.340 N 
ATOM      6  H10 UNL     1     -24.913 -19.948  12.584  1.00  0.00     0.167 HD
ENDROOT
BRANCH   1   7
HETATM    7  C5  UNL     1     -22.771 -18.343  13.132  1.00  0.00     0.196 C 
BRANCH   7   8
HETATM    8  N5  UNL     1     -21.830 -17.290  13.042  1.00  0.00    -0.219 N 
HETATM    9  C4  UNL     1     -20.902 -17.071  13.893  1.00  0.00     0.707 A 
HETATM   10  N4  UNL     1     -20.752 -17.855  14.972  1.00  0.00    -0.022 N 
HETATM   11  N11 UNL     1     -20.047 -16.024  13.705  1.00  0.00    -0.020 N 
HETATM   12  C3  UNL     1     -19.759 -17.573  15.830  1.00  0.00     0.705 A 
ATOM     13  H4  UNL     1     -21.377 -18.644  15.135  1.00  0.00     0.203 HD
HETATM   14  N2  UNL     1     -18.919 -16.540  15.643  1.00  0.00    -0.020 N 
HETATM   15  C2  UNL     1     -19.053 -15.744  14.567  1.00  0.00     0.731 A 
ATOM     16  H2  UNL     1     -18.177 -16.360  16.320  1.00  0.00     0.203 HD
ATOM     17  H11 UNL     1     -20.166 -15.432  12.883  1.00  0.00     0.203 HD
ATOM     18  H5  UNL     1     -21.897 -16.662  12.242  1.00  0.00     0.178 HD
BRANCH  12  19
HETATM   19  N3  UNL     1     -19.640 -18.357  16.874  1.00  0.00    -0.234 N 
ATOM     20  H32 UNL     1     -19.989 -17.996  17.762  1.00  0.00     0.174 HD
ATOM     21  H31 UNL     1     -19.218 -19.282  16.789  1.00  0.00     0.174 HD
ENDBRANCH  12  19
BRANCH  15  22
HETATM   22  N1  UNL     1     -18.229 -14.770  14.427  1.00  0.00    -0.096 N 
ATOM     23  H1  UNL     1     -17.234 -14.987  14.364  1.00  0.00     0.213 HD
BRANCH  22  24
HETATM   24  O1  UNL     1     -18.609 -13.458  14.358  1.00  0.00    -0.271 OA
HETATM   25  C1  UNL     1     -19.350 -12.852  15.414  1.00  0.00     0.238 C 
ENDBRANCH  22  24
ENDBRANCH  15  22
ENDBRANCH   7   8
ENDBRANCH   1   7
BRANCH   3  26
HETATM   26  C8  UNL     1     -25.369 -17.189   9.065  1.00  0.00     0.130 C 
BRANCH  26  27
HETATM   27  C9  UNL     1     -24.506 -16.006   8.734  1.00  0.00     0.025 C 
BRANCH  27  28
HETATM   28  C10 UNL     1     -24.906 -14.765   9.458  1.00  0.00    -0.013 A 
HETATM   29  C11 UNL     1     -24.145 -13.497   9.073  1.00  0.00     0.005 A 
HETATM   30  C12 UNL     1     -25.585 -13.648   8.709  1.00  0.00     0.005 A 
ENDBRANCH  27  28
ENDBRANCH  26  27
ENDBRANCH   3  26
BRANCH   4  31
HETATM   31  C14 UNL     1     -26.638 -19.827  10.459  1.00  0.00     0.158 C 
HETATM   32  N7  UNL     1     -27.818 -19.514  10.337  1.00  0.00    -0.381 N 
ATOM     33  H72 UNL     1     -28.026 -18.529  10.494  1.00  0.00     0.157 HD
ATOM     34  H71 UNL     1     -28.604 -20.120  10.100  1.00  0.00     0.157 HD
BRANCH  31  35
HETATM   35  N8  UNL     1     -26.341 -21.235  10.236  1.00  0.00    -0.289 N 
ATOM     36  H8  UNL     1     -25.562 -21.484   9.626  1.00  0.00     0.188 HD
BRANCH  35  37
HETATM   37  N9  UNL     1     -27.083 -22.251  10.825  1.00  0.00    -0.344 N 
ATOM     38  H92 UNL     1     -27.357 -22.138  11.802  1.00  0.00     0.176 HD
ATOM     39  H91 UNL     1     -27.356 -23.091  10.316  1.00  0.00     0.176 HD
ENDBRANCH  35  37
ENDBRANCH  31  35
ENDBRANCH   4  31
TORSDOF 11
ENDMDL
MODEL 4
REMARK VINA RESULT: -6.790050035      2.599      3.691
REMARK  11 active torsions:
REMARK  status: ('A' for Active; 'I' for Inactive)
REMARK    1  A    between atoms: O1_2  and  N1_3 
REMARK    2  A    between atoms: N1_3  and  C2_5 
REMARK    3  A    between atoms: C3_8  and  N3_9 
REMARK    4  A    between atoms: N5_15  and  C5_17 
REMARK    5  A    between atoms: C5_17  and  C6_18 
REMARK    6  A    between atoms: N6_20  and  C8_21 
REMARK    7  A    between atoms: C8_21  and  C9_22 
REMARK    8  A    between atoms: C9_22  and  C10_23 
REMARK    9  A    between atoms: C13_26  and  C14_27 
REMARK   10  A    between atoms: C14_27  and  N8_31 
REMARK   11  A    between atoms: N8_31  and  N9_33 
ROOT
HETATM    1  C6  UNL     1     -25.013 -19.111  12.156  1.00  0.00     0.045 A 
HETATM    2  C7  UNL     1     -25.780 -19.984  11.464  1.00  0.00     0.119 A 
HETATM    3  N6  UNL     1     -27.076 -19.792  11.889  1.00  0.00    -0.338 N 
HETATM    4  C13 UNL     1     -27.138 -18.837  12.812  1.00  0.00     0.153 A 
HETATM    5  N10 UNL     1     -25.818 -18.437  12.947  1.00  0.00    -0.340 N 
ATOM      6  H10 UNL     1     -25.507 -17.705  13.586  1.00  0.00     0.167 HD
ENDROOT
BRANCH   1   7
HETATM    7  C5  UNL     1     -23.537 -18.880  12.101  1.00  0.00     0.196 C 
BRANCH   7   8
HETATM    8  N5  UNL     1     -23.006 -18.427  13.332  1.00  0.00    -0.219 N 
HETATM    9  C4  UNL     1     -21.815 -18.653  13.737  1.00  0.00     0.707 A 
HETATM   10  N4  UNL     1     -20.953 -19.363  12.992  1.00  0.00    -0.022 N 
HETATM   11  N11 UNL     1     -21.408 -18.166  14.945  1.00  0.00    -0.020 N 
HETATM   12  C3  UNL     1     -19.716 -19.568  13.471  1.00  0.00     0.705 A 
ATOM     13  H4  UNL     1     -21.232 -19.738  12.085  1.00  0.00     0.203 HD
HETATM   14  N2  UNL     1     -19.318 -19.088  14.662  1.00  0.00    -0.020 N 
HETATM   15  C2  UNL     1     -20.168 -18.373  15.423  1.00  0.00     0.731 A 
ATOM     16  H2  UNL     1     -18.369 -19.267  14.991  1.00  0.00     0.203 HD
ATOM     17  H11 UNL     1     -22.068 -17.627  15.506  1.00  0.00     0.203 HD
ATOM     18  H5  UNL     1     -23.617 -17.882  13.940  1.00  0.00     0.178 HD
BRANCH  12  19
HETATM   19  N3  UNL     1     -18.900 -20.266  12.720  1.00  0.00    -0.234 N 
ATOM     20  H32 UNL     1     -18.242 -20.878  13.202  1.00  0.00     0.174 HD
ATOM     21  H31 UNL     1     -18.932 -20.192  11.703  1.00  0.00     0.174 HD
ENDBRANCH  12  19
BRANCH  15  22
HETATM   22  N1  UNL     1     -19.747 -17.933  16.552  1.00  0.00    -0.096 N 
ATOM     23  H1  UNL     1     -20.046 -18.417  17.399  1.00  0.00     0.213 HD
BRANCH  22  24
HETATM   24  O1  UNL     1     -18.918 -16.854  16.685  1.00  0.00    -0.271 OA
HETATM   25  C1  UNL     1     -19.267 -15.588  16.128  1.00  0.00     0.238 C 
ENDBRANCH  22  24
ENDBRANCH  15  22
ENDBRANCH   7   8
ENDBRANCH   1   7
BRANCH   3  26
HETATM   26  C8  UNL     1     -28.144 -20.537  11.299  1.00  0.00     0.130 C 
BRANCH  26  27
HETATM   27  C9  UNL     1     -28.737 -21.586  12.193  1.00  0.00     0.025 C 
BRANCH  27  28
HETATM   28  C10 UNL     1     -27.943 -22.847  12.227  1.00  0.00    -0.013 A 
HETATM   29  C11 UNL     1     -28.672 -24.105  11.757  1.00  0.00     0.005 A 
HETATM   30  C12 UNL     1     -27.565 -23.529  10.939  1.00  0.00     0.005 A 
ENDBRANCH  27  28
ENDBRANCH  26  27
ENDBRANCH   3  26
BRANCH   4  31
HETATM   31  C14 UNL     1     -28.188 -18.264  13.613  1.00  0.00     0.158 C 
HETATM   32  N7  UNL     1     -28.940 -17.342  13.315  1.00  0.00    -0.381 N 
ATOM     33  H72 UNL     1     -28.793 -16.941  12.389  1.00  0.00     0.157 HD
ATOM     34  H71 UNL     1     -29.685 -16.936  13.882  1.00  0.00     0.157 HD
BRANCH  31  35
HETATM   35  N8  UNL     1     -28.397 -18.837  14.935  1.00  0.00    -0.289 N 
ATOM     36  H8  UNL     1     -28.810 -19.767  15.010  1.00  0.00     0.188 HD
BRANCH  35  37
HETATM   37  N9  UNL     1     -28.054 -18.159  16.098  1.00  0.00    -0.344 N 
ATOM     38  H92 UNL     1     -28.316 -17.175  16.172  1.00  0.00     0.176 HD
ATOM     39  H91 UNL     1     -27.557 -18.611  16.864  1.00  0.00     0.176 HD
ENDBRANCH  35  37
ENDBRANCH  31  35
ENDBRANCH   4  31
TORSDOF 11
ENDMDL
MODEL 5
REMARK VINA RESULT: -6.725935501      1.750      3.757
REMARK  11 active torsions:
REMARK  status: ('A' for Active; 'I' for Inactive)
REMARK    1  A    between atoms: O1_2  and  N1_3 
REMARK    2  A    between atoms: N1_3  and  C2_5 
REMARK    3  A    between atoms: C3_8  and  N3_9 
REMARK    4  A    between atoms: N5_15  and  C5_17 
REMARK    5  A    between atoms: C5_17  and  C6_18 
REMARK    6  A    between atoms: N6_20  and  C8_21 
REMARK    7  A    between atoms: C8_21  and  C9_22 
REMARK    8  A    between atoms: C9_22  and  C10_23 
REMARK    9  A    between atoms: C13_26  and  C14_27 
REMARK   10  A    between atoms: C14_27  and  N8_31 
REMARK   11  A    between atoms: N8_31  and  N9_33 
ROOT
HETATM    1  C6  UNL     1     -24.069 -18.813  12.194  1.00  0.00     0.045 A 
HETATM    2  C7  UNL     1     -24.265 -18.000  11.131  1.00  0.00     0.119 A 
HETATM    3  N6  UNL     1     -25.340 -18.510  10.438  1.00  0.00    -0.338 N 
HETATM    4  C13 UNL     1     -25.812 -19.603  11.031  1.00  0.00     0.153 A 
HETATM    5  N10 UNL     1     -24.983 -19.755  12.131  1.00  0.00    -0.340 N 
ATOM      6  H10 UNL     1     -25.072 -20.509  12.812  1.00  0.00     0.167 HD
ENDROOT
BRANCH   1   7
HETATM    7  C5  UNL     1     -23.044 -18.739  13.281  1.00  0.00     0.196 C 
BRANCH   7   8
HETATM    8  N5  UNL     1     -22.125 -17.679  13.098  1.00  0.00    -0.219 N 
HETATM    9  C4  UNL     1     -21.158 -17.411  13.889  1.00  0.00     0.707 A 
HETATM   10  N4  UNL     1     -20.939 -18.145  14.990  1.00  0.00    -0.022 N 
HETATM   11  N11 UNL     1     -20.330 -16.361  13.612  1.00  0.00    -0.020 N 
HETATM   12  C3  UNL     1     -19.908 -17.814  15.783  1.00  0.00     0.705 A 
ATOM     13  H4  UNL     1     -21.543 -18.936  15.220  1.00  0.00     0.203 HD
HETATM   14  N2  UNL     1     -19.095 -16.779  15.508  1.00  0.00    -0.020 N 
HETATM   15  C2  UNL     1     -19.297 -16.032  14.408  1.00  0.00     0.731 A 
ATOM     16  H2  UNL     1     -18.321 -16.560  16.137  1.00  0.00     0.203 HD
ATOM     17  H11 UNL     1     -20.501 -15.807  12.773  1.00  0.00     0.203 HD
ATOM     18  H5  UNL     1     -22.243 -17.087  12.276  1.00  0.00     0.178 HD
BRANCH  12  19
HETATM   19  N3  UNL     1     -19.723 -18.551  16.851  1.00  0.00    -0.234 N 
ATOM     20  H32 UNL     1     -19.256 -18.106  17.641  1.00  0.00     0.174 HD
ATOM     21  H31 UNL     1     -20.036 -19.522  16.878  1.00  0.00     0.174 HD
ENDBRANCH  12  19
BRANCH  15  22
HETATM   22  N1  UNL     1     -18.496 -15.054  14.184  1.00  0.00    -0.096 N 
ATOM     23  H1  UNL     1     -17.965 -15.058  13.313  1.00  0.00     0.213 HD
BRANCH  22  24
HETATM   24  O1  UNL     1     -18.316 -14.008  15.046  1.00  0.00    -0.271 OA
HETATM   25  C1  UNL     1     -19.294 -12.977  15.163  1.00  0.00     0.238 C 
ENDBRANCH  22  24
ENDBRANCH  15  22
ENDBRANCH   7   8
ENDBRANCH   1   7
BRANCH   3  26
HETATM   26  C8  UNL     1     -25.836 -17.835   9.280  1.00  0.00     0.130 C 
BRANCH  26  27
HETATM   27  C9  UNL     1     -27.250 -17.348   9.404  1.00  0.00     0.025 C 
BRANCH  27  28
HETATM   28  C10 UNL     1     -27.602 -16.302   8.402  1.00  0.00    -0.013 A 
HETATM   29  C11 UNL     1     -28.699 -15.324   8.819  1.00  0.00     0.005 A 
HETATM   30  C12 UNL     1     -27.288 -14.857   8.686  1.00  0.00     0.005 A 
ENDBRANCH  27  28
ENDBRANCH  26  27
ENDBRANCH   3  26
BRANCH   4  31
HETATM   31  C14 UNL     1     -26.861 -20.545  10.738  1.00  0.00     0.158 C 
HETATM   32  N7  UNL     1     -28.066 -20.408  10.923  1.00  0.00    -0.381 N 
ATOM     33  H72 UNL     1     -28.345 -19.517  11.333  1.00  0.00     0.157 HD
ATOM     34  H71 UNL     1     -28.809 -21.074  10.715  1.00  0.00     0.157 HD
BRANCH  31  35
HETATM   35  N8  UNL     1     -26.462 -21.817  10.151  1.00  0.00    -0.289 N 
ATOM     36  H8  UNL     1     -25.734 -21.822   9.436  1.00  0.00     0.188 HD
BRANCH  35  37
HETATM   37  N9  UNL     1     -27.038 -23.021  10.533  1.00  0.00    -0.344 N 
ATOM     38  H92 UNL     1     -28.034 -23.024  10.757  1.00  0.00     0.176 HD
ATOM     39  H91 UNL     1     -26.502 -23.886  10.592  1.00  0.00     0.176 HD
ENDBRANCH  35  37
ENDBRANCH  31  35
ENDBRANCH   4  31
TORSDOF 11
ENDMDL
