MODEL 1
REMARK VINA RESULT: -6.751246140      0.000      0.000
REMARK  8 active torsions:
REMARK  status: ('A' for Active; 'I' for Inactive)
REMARK       I    between atoms: C1_4  and  N3_6 
REMARK       I    between atoms: N3_6  and  C2_8 
REMARK    1  A    between atoms: C2_8  and  C3_10 
REMARK    2  A    between atoms: C4_11  and  C5_12 
REMARK       I    between atoms: C5_12  and  N4_14 
REMARK    3  A    between atoms: C6_16  and  C7_17 
REMARK    4  A    between atoms: C7_17  and  N5_18 
REMARK    5  A    between atoms: C8_23  and  C9_24 
REMARK    6  A    between atoms: C9_24  and  C10_25 
REMARK    7  A    between atoms: C10_25  and  N7_26 
REMARK    8  A    between atoms: C12_31  and  N8_32 
ROOT
HETATM    1  C3  UNL     1     -21.425 -17.508  12.998  1.00  0.00     0.090 A 
HETATM    2  C4  UNL     1     -20.811 -16.527  12.252  1.00  0.00     0.119 A 
HETATM    3  N6  UNL     1     -19.887 -15.686  12.823  1.00  0.00    -0.354 N 
ATOM      4  H6  UNL     1     -19.455 -14.970  12.239  1.00  0.00     0.166 HD
HETATM    5  C8  UNL     1     -19.531 -15.762  14.096  1.00  0.00     0.013 A 
HETATM    6  C11 UNL     1     -20.101 -16.712  14.887  1.00  0.00     0.055 A 
HETATM    7  C12 UNL     1     -21.053 -17.590  14.335  1.00  0.00     0.045 A 
ENDROOT
BRANCH   1   8
HETATM    8  C2  UNL     1     -22.461 -18.382  12.543  1.00  0.00     0.262 C 
HETATM    9  N3  UNL     1     -23.853 -18.097  12.570  1.00  0.00    -0.297 N 
HETATM   10  C1  UNL     1     -24.808 -19.013  12.109  1.00  0.00     0.188 C 
ATOM     11  H3  UNL     1     -24.166 -17.198  12.937  1.00  0.00     0.171 HD
HETATM   12  N1  UNL     1     -26.059 -18.718  12.150  1.00  0.00    -0.373 N 
HETATM   13  N2  UNL     1     -24.413 -20.264  11.594  1.00  0.00    -0.064 NA
ATOM     14  H12 UNL     1     -26.755 -19.384  11.814  1.00  0.00     0.158 HD
ATOM     15  H11 UNL     1     -26.345 -17.813  12.522  1.00  0.00     0.158 HD
HETATM   16  O1  UNL     1     -22.135 -19.525  12.071  1.00  0.00    -0.267 OA
ENDBRANCH   1   8
BRANCH   2  17
HETATM   17  C5  UNL     1     -21.098 -16.394  10.842  1.00  0.00     0.273 C 
HETATM   18  O2  UNL     1     -20.260 -16.492   9.955  1.00  0.00    -0.266 OA
HETATM   19  N4  UNL     1     -22.441 -16.131  10.432  1.00  0.00    -0.334 N 
HETATM   20  C6  UNL     1     -22.717 -15.110   9.660  1.00  0.00     0.090 C 
ATOM     21  H4  UNL     1     -23.193 -16.745  10.745  1.00  0.00     0.168 HD
BRANCH  20  22
HETATM   22  C7  UNL     1     -24.152 -14.950   9.309  1.00  0.00     0.245 C 
BRANCH  22  23
HETATM   23  N5  UNL     1     -24.425 -13.530   9.269  1.00  0.00    -0.151 N 
HETATM   24  O3  UNL     1     -23.687 -12.771   8.623  1.00  0.00    -0.536 OA
HETATM   25  O4  UNL     1     -25.505 -13.050   9.956  1.00  0.00    -0.536 OA
ENDBRANCH  22  23
ENDBRANCH  20  22
ENDBRANCH   2  17
BRANCH   7  26
HETATM   26  N8  UNL     1     -21.572 -18.432  15.115  1.00  0.00    -0.398 N 
ATOM     27  H82 UNL     1     -22.545 -18.278  15.380  1.00  0.00     0.156 HD
ATOM     28  H81 UNL     1     -21.053 -19.243  15.449  1.00  0.00     0.156 HD
ENDBRANCH   7  26
BRANCH   5  29
HETATM   29  C9  UNL     1     -18.525 -14.844  14.713  1.00  0.00     0.084 C 
BRANCH  29  30
HETATM   30  C10 UNL     1     -19.198 -13.602  15.255  1.00  0.00     0.235 C 
BRANCH  30  31
HETATM   31  N7  UNL     1     -18.544 -12.433  14.748  1.00  0.00    -0.079 N 
ATOM     32  H73 UNL     1     -17.656 -12.257  15.217  1.00  0.00     0.274 HD
ATOM     33  H72 UNL     1     -18.187 -12.573  13.802  1.00  0.00     0.274 HD
ATOM     34  H71 UNL     1     -19.172 -11.631  14.804  1.00  0.00     0.274 HD
ENDBRANCH  30  31
ENDBRANCH  29  30
ENDBRANCH   5  29
TORSDOF 8
ENDMDL
MODEL 2
REMARK VINA RESULT: -6.398124414      4.036      8.697
REMARK  8 active torsions:
REMARK  status: ('A' for Active; 'I' for Inactive)
REMARK       I    between atoms: C1_4  and  N3_6 
REMARK       I    between atoms: N3_6  and  C2_8 
REMARK    1  A    between atoms: C2_8  and  C3_10 
REMARK    2  A    between atoms: C4_11  and  C5_12 
REMARK       I    between atoms: C5_12  and  N4_14 
REMARK    3  A    between atoms: C6_16  and  C7_17 
REMARK    4  A    between atoms: C7_17  and  N5_18 
REMARK    5  A    between atoms: C8_23  and  C9_24 
REMARK    6  A    between atoms: C9_24  and  C10_25 
REMARK    7  A    between atoms: C10_25  and  N7_26 
REMARK    8  A    between atoms: C12_31  and  N8_32 
ROOT
HETATM    1  C3  UNL     1     -28.193 -19.037  10.886  1.00  0.00     0.090 A 
HETATM    2  C4  UNL     1     -27.027 -19.748  11.066  1.00  0.00     0.119 A 
HETATM    3  N6  UNL     1     -27.061 -21.059  11.475  1.00  0.00    -0.354 N 
ATOM      4  H6  UNL     1     -26.176 -21.552  11.599  1.00  0.00     0.166 HD
HETATM    5  C8  UNL     1     -28.187 -21.713  11.713  1.00  0.00     0.013 A 
HETATM    6  C11 UNL     1     -29.374 -21.067  11.553  1.00  0.00     0.055 A 
HETATM    7  C12 UNL     1     -29.377 -19.721  11.137  1.00  0.00     0.045 A 
ENDROOT
BRANCH   1   8
HETATM    8  C2  UNL     1     -28.286 -17.651  10.551  1.00  0.00     0.262 C 
HETATM    9  N3  UNL     1     -28.085 -17.098   9.258  1.00  0.00    -0.297 N 
HETATM   10  C1  UNL     1     -28.190 -15.722   9.013  1.00  0.00     0.188 C 
ATOM     11  H3  UNL     1     -27.856 -17.722   8.484  1.00  0.00     0.171 HD
HETATM   12  N1  UNL     1     -28.000 -15.259   7.829  1.00  0.00    -0.373 N 
HETATM   13  N2  UNL     1     -28.505 -14.829  10.057  1.00  0.00    -0.064 NA
ATOM     14  H12 UNL     1     -28.076 -14.258   7.650  1.00  0.00     0.158 HD
ATOM     15  H11 UNL     1     -27.771 -15.905   7.073  1.00  0.00     0.158 HD
HETATM   16  O1  UNL     1     -28.571 -16.815  11.477  1.00  0.00    -0.267 OA
ENDBRANCH   1   8
BRANCH   2  17
HETATM   17  C5  UNL     1     -25.749 -19.137  10.786  1.00  0.00     0.273 C 
HETATM   18  O2  UNL     1     -25.285 -18.990   9.662  1.00  0.00    -0.266 OA
HETATM   19  N4  UNL     1     -24.955 -18.665  11.875  1.00  0.00    -0.334 N 
HETATM   20  C6  UNL     1     -23.715 -19.060  12.020  1.00  0.00     0.090 C 
ATOM     21  H4  UNL     1     -25.358 -18.012  12.547  1.00  0.00     0.168 HD
BRANCH  20  22
HETATM   22  C7  UNL     1     -23.002 -18.494  13.195  1.00  0.00     0.245 C 
BRANCH  22  23
HETATM   23  N5  UNL     1     -21.744 -19.198  13.309  1.00  0.00    -0.151 N 
HETATM   24  O3  UNL     1     -21.076 -19.118  14.351  1.00  0.00    -0.536 OA
HETATM   25  O4  UNL     1     -21.313 -19.948  12.250  1.00  0.00    -0.536 OA
ENDBRANCH  22  23
ENDBRANCH  20  22
ENDBRANCH   2  17
BRANCH   7  26
HETATM   26  N8  UNL     1     -30.500 -19.160  11.031  1.00  0.00    -0.398 N 
ATOM     27  H82 UNL     1     -30.541 -18.312  10.465  1.00  0.00     0.156 HD
ATOM     28  H81 UNL     1     -31.335 -19.546  11.470  1.00  0.00     0.156 HD
ENDBRANCH   7  26
BRANCH   5  29
HETATM   29  C9  UNL     1     -28.218 -23.139  12.159  1.00  0.00     0.084 C 
BRANCH  29  30
HETATM   30  C10 UNL     1     -27.904 -24.066  11.004  1.00  0.00     0.235 C 
BRANCH  30  31
HETATM   31  N7  UNL     1     -29.106 -24.693  10.541  1.00  0.00    -0.079 N 
ATOM     32  H73 UNL     1     -29.936 -24.310  10.993  1.00  0.00     0.274 HD
ATOM     33  H72 UNL     1     -29.328 -24.434   9.580  1.00  0.00     0.274 HD
ATOM     34  H71 UNL     1     -29.038 -25.704  10.660  1.00  0.00     0.274 HD
ENDBRANCH  30  31
ENDBRANCH  29  30
ENDBRANCH   5  29
TORSDOF 8
ENDMDL
MODEL 3
REMARK VINA RESULT: -6.232172733      8.241     11.861
REMARK  8 active torsions:
REMARK  status: ('A' for Active; 'I' for Inactive)
REMARK       I    between atoms: C1_4  and  N3_6 
REMARK       I    between atoms: N3_6  and  C2_8 
REMARK    1  A    between atoms: C2_8  and  C3_10 
REMARK    2  A    between atoms: C4_11  and  C5_12 
REMARK       I    between atoms: C5_12  and  N4_14 
REMARK    3  A    between atoms: C6_16  and  C7_17 
REMARK    4  A    between atoms: C7_17  and  N5_18 
REMARK    5  A    between atoms: C8_23  and  C9_24 
REMARK    6  A    between atoms: C9_24  and  C10_25 
REMARK    7  A    between atoms: C10_25  and  N7_26 
REMARK    8  A    between atoms: C12_31  and  N8_32 
ROOT
HETATM    1  C3  UNL     1     -17.878  -8.585  21.297  1.00  0.00     0.090 A 
HETATM    2  C4  UNL     1     -17.034  -9.119  20.349  1.00  0.00     0.119 A 
HETATM    3  N6  UNL     1     -15.945  -8.412  19.901  1.00  0.00    -0.354 N 
ATOM      4  H6  UNL     1     -15.343  -8.840  19.196  1.00  0.00     0.166 HD
HETATM    5  C8  UNL     1     -15.638  -7.201  20.341  1.00  0.00     0.013 A 
HETATM    6  C11 UNL     1     -16.433  -6.618  21.279  1.00  0.00     0.055 A 
HETATM    7  C12 UNL     1     -17.559  -7.313  21.760  1.00  0.00     0.045 A 
ENDROOT
BRANCH   1   8
HETATM    8  C2  UNL     1     -19.086  -9.181  21.776  1.00  0.00     0.262 C 
HETATM    9  N3  UNL     1     -19.170 -10.376  22.540  1.00  0.00    -0.297 N 
HETATM   10  C1  UNL     1     -20.397 -10.900  22.968  1.00  0.00     0.188 C 
ATOM     11  H3  UNL     1     -18.310 -10.868  22.784  1.00  0.00     0.171 HD
HETATM   12  N1  UNL     1     -20.433 -11.984  23.658  1.00  0.00    -0.373 N 
HETATM   13  N2  UNL     1     -21.606 -10.247  22.651  1.00  0.00    -0.064 NA
ATOM     14  H12 UNL     1     -21.326 -12.365  23.969  1.00  0.00     0.158 HD
ATOM     15  H11 UNL     1     -19.559 -12.457  23.887  1.00  0.00     0.158 HD
HETATM   16  O1  UNL     1     -20.199  -8.613  21.504  1.00  0.00    -0.267 OA
ENDBRANCH   1   8
BRANCH   2  17
HETATM   17  C5  UNL     1     -17.257 -10.453  19.842  1.00  0.00     0.273 C 
HETATM   18  O2  UNL     1     -16.595 -11.433  20.160  1.00  0.00    -0.266 OA
HETATM   19  N4  UNL     1     -18.313 -10.668  18.905  1.00  0.00    -0.334 N 
HETATM   20  C6  UNL     1     -18.080 -11.246  17.753  1.00  0.00     0.090 C 
ATOM     21  H4  UNL     1     -19.261 -10.369  19.136  1.00  0.00     0.168 HD
BRANCH  20  22
HETATM   22  C7  UNL     1     -19.265 -11.409  16.872  1.00  0.00     0.245 C 
BRANCH  22  23
HETATM   23  N5  UNL     1     -18.773 -11.735  15.553  1.00  0.00    -0.151 N 
HETATM   24  O3  UNL     1     -18.563 -12.917  15.239  1.00  0.00    -0.536 OA
HETATM   25  O4  UNL     1     -18.546 -10.719  14.667  1.00  0.00    -0.536 OA
ENDBRANCH  22  23
ENDBRANCH  20  22
ENDBRANCH   2  17
BRANCH   7  26
HETATM   26  N8  UNL     1     -18.278  -6.718  22.607  1.00  0.00    -0.398 N 
ATOM     27  H82 UNL     1     -17.911  -6.646  23.555  1.00  0.00     0.156 HD
ATOM     28  H81 UNL     1     -19.176  -6.307  22.352  1.00  0.00     0.156 HD
ENDBRANCH   7  26
BRANCH   5  29
HETATM   29  C9  UNL     1     -14.453  -6.436  19.849  1.00  0.00     0.084 C 
BRANCH  29  30
HETATM   30  C10 UNL     1     -14.807  -5.639  18.612  1.00  0.00     0.235 C 
BRANCH  30  31
HETATM   31  N7  UNL     1     -14.057  -6.120  17.491  1.00  0.00    -0.079 N 
ATOM     32  H73 UNL     1     -13.431  -6.884  17.748  1.00  0.00     0.274 HD
ATOM     33  H72 UNL     1     -14.643  -6.626  16.826  1.00  0.00     0.274 HD
ATOM     34  H71 UNL     1     -13.556  -5.348  17.051  1.00  0.00     0.274 HD
ENDBRANCH  30  31
ENDBRANCH  29  30
ENDBRANCH   5  29
TORSDOF 8
ENDMDL
MODEL 4
REMARK VINA RESULT: -6.092952488      3.539      8.380
REMARK  8 active torsions:
REMARK  status: ('A' for Active; 'I' for Inactive)
REMARK       I    between atoms: C1_4  and  N3_6 
REMARK       I    between atoms: N3_6  and  C2_8 
REMARK    1  A    between atoms: C2_8  and  C3_10 
REMARK    2  A    between atoms: C4_11  and  C5_12 
REMARK       I    between atoms: C5_12  and  N4_14 
REMARK    3  A    between atoms: C6_16  and  C7_17 
REMARK    4  A    between atoms: C7_17  and  N5_18 
REMARK    5  A    between atoms: C8_23  and  C9_24 
REMARK    6  A    between atoms: C9_24  and  C10_25 
REMARK    7  A    between atoms: C10_25  and  N7_26 
REMARK    8  A    between atoms: C12_31  and  N8_32 
ROOT
HETATM    1  C3  UNL     1     -26.549 -17.202   9.218  1.00  0.00     0.090 A 
HETATM    2  C4  UNL     1     -26.802 -18.276  10.042  1.00  0.00     0.119 A 
HETATM    3  N6  UNL     1     -28.090 -18.618  10.374  1.00  0.00    -0.354 N 
ATOM      4  H6  UNL     1     -28.237 -19.419  10.989  1.00  0.00     0.166 HD
HETATM    5  C8  UNL     1     -29.150 -17.958   9.934  1.00  0.00     0.013 A 
HETATM    6  C11 UNL     1     -28.968 -16.886   9.114  1.00  0.00     0.055 A 
HETATM    7  C12 UNL     1     -27.660 -16.506   8.755  1.00  0.00     0.045 A 
ENDROOT
BRANCH   1   8
HETATM    8  C2  UNL     1     -25.258 -16.695   8.872  1.00  0.00     0.262 C 
HETATM    9  N3  UNL     1     -24.772 -15.395   9.179  1.00  0.00    -0.297 N 
HETATM   10  C1  UNL     1     -23.491 -14.972   8.799  1.00  0.00     0.188 C 
ATOM     11  H3  UNL     1     -25.374 -14.751   9.691  1.00  0.00     0.171 HD
HETATM   12  N1  UNL     1     -23.087 -13.788   9.094  1.00  0.00    -0.373 N 
HETATM   13  N2  UNL     1     -22.631 -15.836   8.091  1.00  0.00    -0.064 NA
ATOM     14  H12 UNL     1     -22.155 -13.480   8.817  1.00  0.00     0.158 HD
ATOM     15  H11 UNL     1     -23.710 -13.163   9.606  1.00  0.00     0.158 HD
HETATM   16  O1  UNL     1     -24.454 -17.455   8.229  1.00  0.00    -0.267 OA
ENDBRANCH   1   8
BRANCH   2  17
HETATM   17  C5  UNL     1     -25.714 -19.089  10.536  1.00  0.00     0.273 C 
HETATM   18  O2  UNL     1     -25.643 -20.303  10.398  1.00  0.00    -0.266 OA
HETATM   19  N4  UNL     1     -24.641 -18.456  11.233  1.00  0.00    -0.334 N 
HETATM   20  C6  UNL     1     -24.287 -18.861  12.427  1.00  0.00     0.090 C 
ATOM     21  H4  UNL     1     -24.143 -17.680  10.796  1.00  0.00     0.168 HD
BRANCH  20  22
HETATM   22  C7  UNL     1     -23.157 -18.117  13.041  1.00  0.00     0.245 C 
BRANCH  22  23
HETATM   23  N5  UNL     1     -22.075 -19.059  13.219  1.00  0.00    -0.151 N 
HETATM   24  O3  UNL     1     -21.458 -19.105  14.295  1.00  0.00    -0.536 OA
HETATM   25  O4  UNL     1     -21.750 -19.890  12.183  1.00  0.00    -0.536 OA
ENDBRANCH  22  23
ENDBRANCH  20  22
ENDBRANCH   2  17
BRANCH   7  26
HETATM   26  N8  UNL     1     -27.544 -15.490   8.018  1.00  0.00    -0.398 N 
ATOM     27  H82 UNL     1     -27.428 -15.656   7.018  1.00  0.00     0.156 HD
ATOM     28  H81 UNL     1     -27.587 -14.545   8.399  1.00  0.00     0.156 HD
ENDBRANCH   7  26
BRANCH   5  29
HETATM   29  C9  UNL     1     -30.549 -18.334  10.299  1.00  0.00     0.084 C 
BRANCH  29  30
HETATM   30  C10 UNL     1     -30.933 -19.650   9.659  1.00  0.00     0.235 C 
BRANCH  30  31
HETATM   31  N7  UNL     1     -30.914 -20.693  10.641  1.00  0.00    -0.079 N 
ATOM     32  H73 UNL     1     -31.588 -21.429  10.431  1.00  0.00     0.274 HD
ATOM     33  H72 UNL     1     -30.063 -21.253  10.588  1.00  0.00     0.274 HD
ATOM     34  H71 UNL     1     -31.055 -20.297  11.570  1.00  0.00     0.274 HD
ENDBRANCH  30  31
ENDBRANCH  29  30
ENDBRANCH   5  29
TORSDOF 8
ENDMDL
MODEL 5
REMARK VINA RESULT: -6.067631181      4.291      8.043
REMARK  8 active torsions:
REMARK  status: ('A' for Active; 'I' for Inactive)
REMARK       I    between atoms: C1_4  and  N3_6 
REMARK       I    between atoms: N3_6  and  C2_8 
REMARK    1  A    between atoms: C2_8  and  C3_10 
REMARK    2  A    between atoms: C4_11  and  C5_12 
REMARK       I    between atoms: C5_12  and  N4_14 
REMARK    3  A    between atoms: C6_16  and  C7_17 
REMARK    4  A    between atoms: C7_17  and  N5_18 
REMARK    5  A    between atoms: C8_23  and  C9_24 
REMARK    6  A    between atoms: C9_24  and  C10_25 
REMARK    7  A    between atoms: C10_25  and  N7_26 
REMARK    8  A    between atoms: C12_31  and  N8_32 
ROOT
HETATM    1  C3  UNL     1     -28.414 -19.972  11.085  1.00  0.00     0.090 A 
HETATM    2  C4  UNL     1     -27.357 -19.248  10.579  1.00  0.00     0.119 A 
HETATM    3  N6  UNL     1     -27.569 -18.055   9.933  1.00  0.00    -0.354 N 
ATOM      4  H6  UNL     1     -26.761 -17.548   9.570  1.00  0.00     0.166 HD
HETATM    5  C8  UNL     1     -28.773 -17.530   9.761  1.00  0.00     0.013 A 
HETATM    6  C11 UNL     1     -29.859 -18.196  10.239  1.00  0.00     0.055 A 
HETATM    7  C12 UNL     1     -29.679 -19.424  10.905  1.00  0.00     0.045 A 
ENDROOT
BRANCH   1   8
HETATM    8  C2  UNL     1     -28.331 -21.262  11.695  1.00  0.00     0.262 C 
HETATM    9  N3  UNL     1     -28.264 -22.501  11.001  1.00  0.00    -0.297 N 
HETATM   10  C1  UNL     1     -28.189 -23.727  11.676  1.00  0.00     0.188 C 
ATOM     11  H3  UNL     1     -28.270 -22.497   9.982  1.00  0.00     0.171 HD
HETATM   12  N1  UNL     1     -28.131 -24.827  11.013  1.00  0.00    -0.373 N 
HETATM   13  N2  UNL     1     -28.177 -23.772  13.085  1.00  0.00    -0.064 NA
ATOM     14  H12 UNL     1     -28.077 -25.719  11.503  1.00  0.00     0.158 HD
ATOM     15  H11 UNL     1     -28.140 -24.795   9.994  1.00  0.00     0.158 HD
HETATM   16  O1  UNL     1     -28.318 -21.336  12.972  1.00  0.00    -0.267 OA
ENDBRANCH   1   8
BRANCH   2  17
HETATM   17  C5  UNL     1     -26.001 -19.714  10.757  1.00  0.00     0.273 C 
HETATM   18  O2  UNL     1     -25.615 -20.841  10.475  1.00  0.00    -0.266 OA
HETATM   19  N4  UNL     1     -25.029 -18.818  11.298  1.00  0.00    -0.334 N 
HETATM   20  C6  UNL     1     -24.321 -19.152  12.347  1.00  0.00     0.090 C 
ATOM     21  H4  UNL     1     -24.884 -17.907  10.861  1.00  0.00     0.168 HD
BRANCH  20  22
HETATM   22  C7  UNL     1     -23.345 -18.129  12.807  1.00  0.00     0.245 C 
BRANCH  22  23
HETATM   23  N5  UNL     1     -22.123 -18.826  13.138  1.00  0.00    -0.151 N 
HETATM   24  O3  UNL     1     -21.535 -18.584  14.204  1.00  0.00    -0.536 OA
HETATM   25  O4  UNL     1     -21.633 -19.748  12.256  1.00  0.00    -0.536 OA
ENDBRANCH  22  23
ENDBRANCH  20  22
ENDBRANCH   2  17
BRANCH   7  26
HETATM   26  N8  UNL     1     -30.718 -20.015  11.303  1.00  0.00    -0.398 N 
ATOM     27  H82 UNL     1     -30.808 -20.163  12.308  1.00  0.00     0.156 HD
ATOM     28  H81 UNL     1     -31.446 -20.312  10.655  1.00  0.00     0.156 HD
ENDBRANCH   7  26
BRANCH   5  29
HETATM   29  C9  UNL     1     -28.998 -16.231   9.057  1.00  0.00     0.084 C 
BRANCH  29  30
HETATM   30  C10 UNL     1     -27.764 -15.822   8.283  1.00  0.00     0.235 C 
BRANCH  30  31
HETATM   31  N7  UNL     1     -27.355 -14.507   8.676  1.00  0.00    -0.079 N 
ATOM     32  H73 UNL     1     -26.574 -14.165   8.117  1.00  0.00     0.274 HD
ATOM     33  H72 UNL     1     -28.043 -13.799   8.419  1.00  0.00     0.274 HD
ATOM     34  H71 UNL     1     -27.146 -14.493   9.675  1.00  0.00     0.274 HD
ENDBRANCH  30  31
ENDBRANCH  29  30
ENDBRANCH   5  29
TORSDOF 8
ENDMDL
