MODEL 1
REMARK VINA RESULT: -7.292856062      0.000      0.000
REMARK  9 active torsions:
REMARK  status: ('A' for Active; 'I' for Inactive)
REMARK    1  A    between atoms: N1_1  and  N2_4 
REMARK       I    between atoms: N2_4  and  C1_6 
REMARK    2  A    between atoms: C1_6  and  C2_8 
REMARK    3  A    between atoms: C2_8  and  O2_9 
REMARK    4  A    between atoms: C2_8  and  C3_11 
REMARK    5  A    between atoms: C3_11  and  C4_12 
REMARK    6  A    between atoms: C3_11  and  N7_24 
REMARK    7  A    between atoms: N3_13  and  N4_15 
REMARK    8  A    between atoms: N4_15  and  C5_17 
REMARK       I    between atoms: N7_24  and  C8_26 
REMARK    9  A    between atoms: C8_26  and  C9_28 
ROOT
HETATM    1  C3  UNL     1     -21.821 -17.747  13.308  1.00  0.00     0.163 C 
ENDROOT
BRANCH   1   2
HETATM    2  C2  UNL     1     -21.318 -18.859  14.192  1.00  0.00     0.239 C 
BRANCH   2   3
HETATM    3  C1  UNL     1     -19.961 -19.297  13.872  1.00  0.00     0.266 C 
HETATM    4  N2  UNL     1     -19.768 -20.274  12.860  1.00  0.00    -0.274 N 
ATOM      5  H2  UNL     1     -20.585 -20.649  12.378  1.00  0.00     0.189 HD
HETATM    6  O1  UNL     1     -18.924 -18.860  14.443  1.00  0.00    -0.269 OA
BRANCH   4   7
HETATM    7  N1  UNL     1     -18.485 -20.748  12.494  1.00  0.00    -0.343 N 
ATOM      8  H12 UNL     1     -17.770 -20.790  13.221  1.00  0.00     0.176 HD
ATOM      9  H11 UNL     1     -18.259 -21.043  11.544  1.00  0.00     0.176 HD
ENDBRANCH   4   7
ENDBRANCH   2   3
BRANCH   2  10
HETATM   10  O2  UNL     1     -21.372 -18.426  15.506  1.00  0.00    -0.384 OA
ATOM     11  H2  UNL     1     -21.230 -17.487  15.539  1.00  0.00     0.210 HD
ENDBRANCH   2  10
ENDBRANCH   1   2
BRANCH   1  12
HETATM   12  C4  UNL     1     -20.756 -16.982  12.657  1.00  0.00     0.108 C 
HETATM   13  N3  UNL     1     -20.031 -16.107  13.270  1.00  0.00    -0.311 N 
ATOM     14  H3  UNL     1     -19.307 -15.615  12.746  1.00  0.00     0.185 HD
BRANCH  13  15
HETATM   15  N4  UNL     1     -20.201 -15.809  14.622  1.00  0.00    -0.272 N 
ATOM     16  H4  UNL     1     -20.782 -16.412  15.205  1.00  0.00     0.190 HD
BRANCH  15  17
HETATM   17  C5  UNL     1     -19.567 -14.668  15.192  1.00  0.00     0.190 C 
HETATM   18  N5  UNL     1     -18.850 -14.677  16.265  1.00  0.00    -0.360 N 
HETATM   19  C6  UNL     1     -18.351 -13.358  16.576  1.00  0.00     0.142 C 
ATOM     20  H5  UNL     1     -18.660 -15.510  16.823  1.00  0.00     0.162 HD
HETATM   21  C7  UNL     1     -19.304 -12.463  15.806  1.00  0.00     0.142 C 
HETATM   22  N6  UNL     1     -19.623 -13.341  14.669  1.00  0.00    -0.360 N 
ATOM     23  H6  UNL     1     -19.839 -13.062  13.713  1.00  0.00     0.162 HD
ENDBRANCH  15  17
ENDBRANCH  13  15
ENDBRANCH   1  12
BRANCH   1  24
HETATM   24  N7  UNL     1     -22.740 -18.362  12.336  1.00  0.00    -0.345 N 
HETATM   25  C8  UNL     1     -24.127 -18.356  12.511  1.00  0.00     0.252 C 
HETATM   26  O3  UNL     1     -24.644 -17.812  13.534  1.00  0.00    -0.268 OA
ATOM     27  H7  UNL     1     -22.351 -18.808  11.505  1.00  0.00     0.163 HD
BRANCH  25  28
HETATM   28  C9  UNL     1     -25.037 -18.963  11.553  1.00  0.00     0.032 A 
HETATM   29  C10 UNL     1     -25.298 -18.355  10.324  1.00  0.00     0.017 A 
HETATM   30  C11 UNL     1     -26.153 -18.914   9.411  1.00  0.00     0.001 A 
HETATM   31  C12 UNL     1     -26.793 -20.106   9.665  1.00  0.00     0.000 A 
HETATM   32  C13 UNL     1     -26.562 -20.737  10.864  1.00  0.00     0.001 A 
HETATM   33  C14 UNL     1     -25.695 -20.156  11.775  1.00  0.00     0.017 A 
ENDBRANCH  25  28
ENDBRANCH   1  24
TORSDOF 9
ENDMDL
MODEL 2
REMARK VINA RESULT: -6.758839123      1.647      2.005
REMARK  9 active torsions:
REMARK  status: ('A' for Active; 'I' for Inactive)
REMARK    1  A    between atoms: N1_1  and  N2_4 
REMARK       I    between atoms: N2_4  and  C1_6 
REMARK    2  A    between atoms: C1_6  and  C2_8 
REMARK    3  A    between atoms: C2_8  and  O2_9 
REMARK    4  A    between atoms: C2_8  and  C3_11 
REMARK    5  A    between atoms: C3_11  and  C4_12 
REMARK    6  A    between atoms: C3_11  and  N7_24 
REMARK    7  A    between atoms: N3_13  and  N4_15 
REMARK    8  A    between atoms: N4_15  and  C5_17 
REMARK       I    between atoms: N7_24  and  C8_26 
REMARK    9  A    between atoms: C8_26  and  C9_28 
ROOT
HETATM    1  C3  UNL     1     -21.863 -18.061  12.614  1.00  0.00     0.163 C 
ENDROOT
BRANCH   1   2
HETATM    2  C2  UNL     1     -20.794 -19.111  12.778  1.00  0.00     0.239 C 
BRANCH   2   3
HETATM    3  C1  UNL     1     -20.264 -19.203  14.136  1.00  0.00     0.266 C 
HETATM    4  N2  UNL     1     -20.841 -18.408  15.161  1.00  0.00    -0.274 N 
ATOM      5  H2  UNL     1     -21.615 -17.788  14.923  1.00  0.00     0.189 HD
HETATM    6  O1  UNL     1     -19.307 -19.955  14.473  1.00  0.00    -0.269 OA
BRANCH   4   7
HETATM    7  N1  UNL     1     -20.382 -18.441  16.500  1.00  0.00    -0.343 N 
ATOM      8  H12 UNL     1     -20.661 -19.235  17.077  1.00  0.00     0.176 HD
ATOM      9  H11 UNL     1     -19.794 -17.709  16.897  1.00  0.00     0.176 HD
ENDBRANCH   4   7
ENDBRANCH   2   3
BRANCH   2  10
HETATM   10  O2  UNL     1     -21.328 -20.332  12.400  1.00  0.00    -0.384 OA
ATOM     11  H2  UNL     1     -21.676 -20.271  11.519  1.00  0.00     0.210 HD
ENDBRANCH   2  10
ENDBRANCH   1   2
BRANCH   1  12
HETATM   12  C4  UNL     1     -21.455 -16.928  11.781  1.00  0.00     0.108 C 
HETATM   13  N3  UNL     1     -20.423 -16.196  12.032  1.00  0.00    -0.311 N 
ATOM     14  H3  UNL     1     -20.204 -15.424  11.402  1.00  0.00     0.185 HD
BRANCH  13  15
HETATM   15  N4  UNL     1     -19.595 -16.420  13.131  1.00  0.00    -0.272 N 
ATOM     16  H4  UNL     1     -19.134 -17.324  13.244  1.00  0.00     0.190 HD
BRANCH  15  17
HETATM   17  C5  UNL     1     -19.389 -15.394  14.098  1.00  0.00     0.190 C 
HETATM   18  N5  UNL     1     -20.274 -14.983  14.944  1.00  0.00    -0.360 N 
HETATM   19  C6  UNL     1     -19.750 -13.932  15.784  1.00  0.00     0.142 C 
ATOM     20  H5  UNL     1     -21.222 -15.354  15.009  1.00  0.00     0.162 HD
HETATM   21  C7  UNL     1     -18.576 -13.422  14.969  1.00  0.00     0.142 C 
HETATM   22  N6  UNL     1     -18.178 -14.661  14.284  1.00  0.00    -0.360 N 
ATOM     23  H6  UNL     1     -17.239 -14.938  14.001  1.00  0.00     0.162 HD
ENDBRANCH  15  17
ENDBRANCH  13  15
ENDBRANCH   1  12
BRANCH   1  24
HETATM   24  N7  UNL     1     -23.051 -18.747  12.080  1.00  0.00    -0.345 N 
HETATM   25  C8  UNL     1     -24.336 -18.518  12.583  1.00  0.00     0.252 C 
HETATM   26  O3  UNL     1     -24.517 -17.698  13.534  1.00  0.00    -0.268 OA
ATOM     27  H7  UNL     1     -22.933 -19.412  11.316  1.00  0.00     0.163 HD
BRANCH  25  28
HETATM   28  C9  UNL     1     -25.511 -19.195  12.058  1.00  0.00     0.032 A 
HETATM   29  C10 UNL     1     -26.777 -18.955  12.593  1.00  0.00     0.017 A 
HETATM   30  C11 UNL     1     -27.894 -19.585  12.109  1.00  0.00     0.001 A 
HETATM   31  C12 UNL     1     -27.816 -20.484  11.069  1.00  0.00     0.000 A 
HETATM   32  C13 UNL     1     -26.586 -20.747  10.514  1.00  0.00     0.001 A 
HETATM   33  C14 UNL     1     -25.469 -20.101  11.018  1.00  0.00     0.017 A 
ENDBRANCH  25  28
ENDBRANCH   1  24
TORSDOF 9
ENDMDL
MODEL 3
REMARK VINA RESULT: -6.638252682      9.276     13.380
REMARK  9 active torsions:
REMARK  status: ('A' for Active; 'I' for Inactive)
REMARK    1  A    between atoms: N1_1  and  N2_4 
REMARK       I    between atoms: N2_4  and  C1_6 
REMARK    2  A    between atoms: C1_6  and  C2_8 
REMARK    3  A    between atoms: C2_8  and  O2_9 
REMARK    4  A    between atoms: C2_8  and  C3_11 
REMARK    5  A    between atoms: C3_11  and  C4_12 
REMARK    6  A    between atoms: C3_11  and  N7_24 
REMARK    7  A    between atoms: N3_13  and  N4_15 
REMARK    8  A    between atoms: N4_15  and  C5_17 
REMARK       I    between atoms: N7_24  and  C8_26 
REMARK    9  A    between atoms: C8_26  and  C9_28 
ROOT
HETATM    1  C3  UNL     1     -17.568 -10.391  19.914  1.00  0.00     0.163 C 
ENDROOT
BRANCH   1   2
HETATM    2  C2  UNL     1     -17.499 -11.287  18.703  1.00  0.00     0.239 C 
BRANCH   2   3
HETATM    3  C1  UNL     1     -18.639 -11.144  17.801  1.00  0.00     0.266 C 
HETATM    4  N2  UNL     1     -18.523 -11.598  16.461  1.00  0.00    -0.274 N 
ATOM      5  H2  UNL     1     -17.643 -12.015  16.159  1.00  0.00     0.189 HD
HETATM    6  O1  UNL     1     -19.745 -10.634  18.133  1.00  0.00    -0.269 OA
BRANCH   4   7
HETATM    7  N1  UNL     1     -19.583 -11.494  15.527  1.00  0.00    -0.343 N 
ATOM      8  H12 UNL     1     -19.857 -10.559  15.224  1.00  0.00     0.176 HD
ATOM      9  H11 UNL     1     -20.070 -12.309  15.156  1.00  0.00     0.176 HD
ENDBRANCH   4   7
ENDBRANCH   2   3
BRANCH   2  10
HETATM   10  O2  UNL     1     -16.326 -11.006  18.024  1.00  0.00    -0.384 OA
ATOM     11  H2  UNL     1     -15.706 -11.715  18.146  1.00  0.00     0.210 HD
ENDBRANCH   2  10
ENDBRANCH   1   2
BRANCH   1  12
HETATM   12  C4  UNL     1     -17.624 -11.116  21.184  1.00  0.00     0.108 C 
HETATM   13  N3  UNL     1     -18.453 -10.831  22.130  1.00  0.00    -0.311 N 
ATOM     14  H3  UNL     1     -18.431 -11.384  22.987  1.00  0.00     0.185 HD
BRANCH  13  15
HETATM   15  N4  UNL     1     -19.379  -9.793  22.026  1.00  0.00    -0.272 N 
ATOM     16  H4  UNL     1     -19.059  -8.824  22.027  1.00  0.00     0.190 HD
BRANCH  15  17
HETATM   17  C5  UNL     1     -20.771 -10.079  21.917  1.00  0.00     0.190 C 
HETATM   18  N5  UNL     1     -21.304 -10.841  21.022  1.00  0.00    -0.360 N 
HETATM   19  C6  UNL     1     -22.736 -10.924  21.186  1.00  0.00     0.142 C 
ATOM     20  H5  UNL     1     -20.780 -11.323  20.291  1.00  0.00     0.162 HD
HETATM   21  C7  UNL     1     -23.039  -9.684  22.006  1.00  0.00     0.142 C 
HETATM   22  N6  UNL     1     -21.791  -9.572  22.777  1.00  0.00    -0.360 N 
ATOM     23  H6  UNL     1     -21.678  -9.209  23.723  1.00  0.00     0.162 HD
ENDBRANCH  15  17
ENDBRANCH  13  15
ENDBRANCH   1  12
BRANCH   1  24
HETATM   24  N7  UNL     1     -16.407  -9.489  19.837  1.00  0.00    -0.345 N 
HETATM   25  C8  UNL     1     -16.499  -8.125  20.130  1.00  0.00     0.252 C 
HETATM   26  O3  UNL     1     -17.608  -7.615  20.476  1.00  0.00    -0.268 OA
ATOM     27  H7  UNL     1     -15.503  -9.873  19.561  1.00  0.00     0.163 HD
BRANCH  25  28
HETATM   28  C9  UNL     1     -15.354  -7.232  20.055  1.00  0.00     0.032 A 
HETATM   29  C10 UNL     1     -14.506  -7.058  21.150  1.00  0.00     0.017 A 
HETATM   30  C11 UNL     1     -13.422  -6.219  21.094  1.00  0.00     0.001 A 
HETATM   31  C12 UNL     1     -13.122  -5.511  19.953  1.00  0.00     0.000 A 
HETATM   32  C13 UNL     1     -13.934  -5.655  18.853  1.00  0.00     0.001 A 
HETATM   33  C14 UNL     1     -15.024  -6.506  18.929  1.00  0.00     0.017 A 
ENDBRANCH  25  28
ENDBRANCH   1  24
TORSDOF 9
ENDMDL
MODEL 4
REMARK VINA RESULT: -6.627432269      1.184      1.418
REMARK  9 active torsions:
REMARK  status: ('A' for Active; 'I' for Inactive)
REMARK    1  A    between atoms: N1_1  and  N2_4 
REMARK       I    between atoms: N2_4  and  C1_6 
REMARK    2  A    between atoms: C1_6  and  C2_8 
REMARK    3  A    between atoms: C2_8  and  O2_9 
REMARK    4  A    between atoms: C2_8  and  C3_11 
REMARK    5  A    between atoms: C3_11  and  C4_12 
REMARK    6  A    between atoms: C3_11  and  N7_24 
REMARK    7  A    between atoms: N3_13  and  N4_15 
REMARK    8  A    between atoms: N4_15  and  C5_17 
REMARK       I    between atoms: N7_24  and  C8_26 
REMARK    9  A    between atoms: C8_26  and  C9_28 
ROOT
HETATM    1  C3  UNL     1     -21.547 -17.442  13.870  1.00  0.00     0.163 C 
ENDROOT
BRANCH   1   2
HETATM    2  C2  UNL     1     -21.060 -18.695  14.551  1.00  0.00     0.239 C 
BRANCH   2   3
HETATM    3  C1  UNL     1     -19.775 -19.177  14.046  1.00  0.00     0.266 C 
HETATM    4  N2  UNL     1     -19.756 -20.195  13.058  1.00  0.00    -0.274 N 
ATOM      5  H2  UNL     1     -20.644 -20.569  12.722  1.00  0.00     0.189 HD
HETATM    6  O1  UNL     1     -18.655 -18.743  14.435  1.00  0.00    -0.269 OA
BRANCH   4   7
HETATM    7  N1  UNL     1     -18.553 -20.713  12.521  1.00  0.00    -0.343 N 
ATOM      8  H12 UNL     1     -17.715 -20.665  13.102  1.00  0.00     0.176 HD
ATOM      9  H11 UNL     1     -18.500 -21.125  11.590  1.00  0.00     0.176 HD
ENDBRANCH   4   7
ENDBRANCH   2   3
BRANCH   2  10
HETATM   10  O2  UNL     1     -20.964 -18.441  15.908  1.00  0.00    -0.384 OA
ATOM     11  H2  UNL     1     -21.207 -19.218  16.398  1.00  0.00     0.210 HD
ENDBRANCH   2  10
ENDBRANCH   1   2
BRANCH   1  12
HETATM   12  C4  UNL     1     -20.728 -17.032  12.728  1.00  0.00     0.108 C 
HETATM   13  N3  UNL     1     -19.638 -16.351  12.843  1.00  0.00    -0.311 N 
ATOM     14  H3  UNL     1     -19.123 -16.104  11.998  1.00  0.00     0.185 HD
BRANCH  13  15
HETATM   15  N4  UNL     1     -19.139 -15.938  14.077  1.00  0.00    -0.272 N 
ATOM     16  H4  UNL     1     -18.754 -16.627  14.725  1.00  0.00     0.190 HD
BRANCH  15  17
HETATM   17  C5  UNL     1     -19.163 -14.560  14.440  1.00  0.00     0.190 C 
HETATM   18  N5  UNL     1     -18.177 -13.739  14.300  1.00  0.00    -0.360 N 
HETATM   19  C6  UNL     1     -18.524 -12.416  14.763  1.00  0.00     0.142 C 
ATOM     20  H5  UNL     1     -17.268 -13.993  13.912  1.00  0.00     0.162 HD
HETATM   21  C7  UNL     1     -19.703 -12.694  15.678  1.00  0.00     0.142 C 
HETATM   22  N6  UNL     1     -20.276 -13.873  15.011  1.00  0.00    -0.360 N 
ATOM     23  H6  UNL     1     -21.258 -14.143  14.966  1.00  0.00     0.162 HD
ENDBRANCH  15  17
ENDBRANCH  13  15
ENDBRANCH   1  12
BRANCH   1  24
HETATM   24  N7  UNL     1     -22.950 -17.684  13.493  1.00  0.00    -0.345 N 
HETATM   25  C8  UNL     1     -23.328 -18.738  12.655  1.00  0.00     0.252 C 
HETATM   26  O3  UNL     1     -22.455 -19.530  12.185  1.00  0.00    -0.268 OA
ATOM     27  H7  UNL     1     -23.671 -17.061  13.856  1.00  0.00     0.163 HD
BRANCH  25  28
HETATM   28  C9  UNL     1     -24.711 -18.978  12.280  1.00  0.00     0.032 A 
HETATM   29  C10 UNL     1     -25.029 -19.686  11.120  1.00  0.00     0.017 A 
HETATM   30  C11 UNL     1     -26.329 -19.921  10.753  1.00  0.00     0.001 A 
HETATM   31  C12 UNL     1     -27.382 -19.469  11.516  1.00  0.00     0.000 A 
HETATM   32  C13 UNL     1     -27.110 -18.768  12.668  1.00  0.00     0.001 A 
HETATM   33  C14 UNL     1     -25.790 -18.540  13.021  1.00  0.00     0.017 A 
ENDBRANCH  25  28
ENDBRANCH   1  24
TORSDOF 9
ENDMDL
MODEL 5
REMARK VINA RESULT: -6.616977624      4.182      7.840
REMARK  9 active torsions:
REMARK  status: ('A' for Active; 'I' for Inactive)
REMARK    1  A    between atoms: N1_1  and  N2_4 
REMARK       I    between atoms: N2_4  and  C1_6 
REMARK    2  A    between atoms: C1_6  and  C2_8 
REMARK    3  A    between atoms: C2_8  and  O2_9 
REMARK    4  A    between atoms: C2_8  and  C3_11 
REMARK    5  A    between atoms: C3_11  and  C4_12 
REMARK    6  A    between atoms: C3_11  and  N7_24 
REMARK    7  A    between atoms: N3_13  and  N4_15 
REMARK    8  A    between atoms: N4_15  and  C5_17 
REMARK       I    between atoms: N7_24  and  C8_26 
REMARK    9  A    between atoms: C8_26  and  C9_28 
ROOT
HETATM    1  C3  UNL     1     -25.966 -19.347  11.349  1.00  0.00     0.163 C 
ENDROOT
BRANCH   1   2
HETATM    2  C2  UNL     1     -26.112 -19.108   9.868  1.00  0.00     0.239 C 
BRANCH   2   3
HETATM    3  C1  UNL     1     -27.307 -18.346   9.510  1.00  0.00     0.266 C 
HETATM    4  N2  UNL     1     -27.175 -17.192   8.695  1.00  0.00    -0.274 N 
ATOM      5  H2  UNL     1     -26.245 -16.920   8.377  1.00  0.00     0.189 HD
HETATM    6  O1  UNL     1     -28.475 -18.647   9.883  1.00  0.00    -0.269 OA
BRANCH   4   7
HETATM    7  N1  UNL     1     -28.284 -16.403   8.306  1.00  0.00    -0.343 N 
ATOM      8  H12 UNL     1     -29.004 -16.220   9.006  1.00  0.00     0.176 HD
ATOM      9  H11 UNL     1     -28.383 -16.019   7.367  1.00  0.00     0.176 HD
ENDBRANCH   4   7
ENDBRANCH   2   3
BRANCH   2  10
HETATM   10  O2  UNL     1     -24.982 -18.441   9.426  1.00  0.00    -0.384 OA
ATOM     11  H2  UNL     1     -24.374 -18.327  10.146  1.00  0.00     0.210 HD
ENDBRANCH   2  10
ENDBRANCH   1   2
BRANCH   1  12
HETATM   12  C4  UNL     1     -26.609 -20.576  11.816  1.00  0.00     0.108 C 
HETATM   13  N3  UNL     1     -27.724 -20.595  12.464  1.00  0.00    -0.311 N 
ATOM     14  H3  UNL     1     -28.109 -21.493  12.755  1.00  0.00     0.185 HD
BRANCH  13  15
HETATM   15  N4  UNL     1     -28.424 -19.431  12.783  1.00  0.00    -0.272 N 
ATOM     16  H4  UNL     1     -29.046 -19.009  12.093  1.00  0.00     0.190 HD
BRANCH  15  17
HETATM   17  C5  UNL     1     -28.274 -18.830  14.066  1.00  0.00     0.190 C 
HETATM   18  N5  UNL     1     -28.754 -19.304  15.167  1.00  0.00    -0.360 N 
HETATM   19  C6  UNL     1     -28.427 -18.457  16.291  1.00  0.00     0.142 C 
ATOM     20  H5  UNL     1     -29.295 -20.166  15.235  1.00  0.00     0.162 HD
HETATM   21  C7  UNL     1     -28.114 -17.133  15.617  1.00  0.00     0.142 C 
HETATM   22  N6  UNL     1     -27.575 -17.616  14.336  1.00  0.00    -0.360 N 
ATOM     23  H6  UNL     1     -26.854 -17.178  13.763  1.00  0.00     0.162 HD
ENDBRANCH  15  17
ENDBRANCH  13  15
ENDBRANCH   1  12
BRANCH   1  24
HETATM   24  N7  UNL     1     -24.523 -19.326  11.641  1.00  0.00    -0.345 N 
HETATM   25  C8  UNL     1     -23.982 -18.574  12.688  1.00  0.00     0.252 C 
HETATM   26  O3  UNL     1     -24.734 -17.873  13.432  1.00  0.00    -0.268 OA
ATOM     27  H7  UNL     1     -23.896 -19.880  11.058  1.00  0.00     0.163 HD
BRANCH  25  28
HETATM   28  C9  UNL     1     -22.558 -18.552  12.977  1.00  0.00     0.032 A 
HETATM   29  C10 UNL     1     -21.717 -19.571  12.528  1.00  0.00     0.017 A 
HETATM   30  C11 UNL     1     -20.372 -19.565  12.793  1.00  0.00     0.001 A 
HETATM   31  C12 UNL     1     -19.789 -18.548  13.514  1.00  0.00     0.000 A 
HETATM   32  C13 UNL     1     -20.583 -17.525  13.974  1.00  0.00     0.001 A 
HETATM   33  C14 UNL     1     -21.940 -17.549  13.697  1.00  0.00     0.017 A 
ENDBRANCH  25  28
ENDBRANCH   1  24
TORSDOF 9
ENDMDL
