MODEL 1
REMARK VINA RESULT: -7.511012750      0.000      0.000
REMARK  8 active torsions:
REMARK  status: ('A' for Active; 'I' for Inactive)
REMARK    1  A    between atoms: C2_2  and  N1_3 
REMARK    2  A    between atoms: C2_2  and  C8_18 
REMARK       I    between atoms: N1_3  and  C3_5 
REMARK    3  A    between atoms: C3_5  and  C4_7 
REMARK       I    between atoms: C8_18  and  N5_20 
REMARK    4  A    between atoms: N5_20  and  C9_22 
REMARK    5  A    between atoms: C9_22  and  C10_23 
REMARK    6  A    between atoms: C9_22  and  C11_25 
REMARK    7  A    between atoms: C11_25  and  N6_26 
REMARK    8  A    between atoms: C11_25  and  O5_30 
ROOT
HETATM    1  C1  UNL     1     -20.920 -19.824  12.441  1.00  0.00     0.042 C 
HETATM    2  C2  UNL     1     -21.889 -18.710  12.532  1.00  0.00     0.172 C 
ENDROOT
BRANCH   2   3
HETATM    3  N1  UNL     1     -23.230 -19.240  12.816  1.00  0.00    -0.344 N 
HETATM    4  C3  UNL     1     -24.372 -18.762  12.159  1.00  0.00     0.261 C 
HETATM    5  O1  UNL     1     -24.129 -17.828  11.295  1.00  0.00    -0.267 OA
ATOM      6  H1  UNL     1     -23.332 -19.979  13.513  1.00  0.00     0.163 HD
BRANCH   4   7
HETATM    7  C4  UNL     1     -25.746 -19.174  12.327  1.00  0.00     0.141 A 
HETATM    8  C5  UNL     1     -26.187 -20.259  11.552  1.00  0.00     0.139 A 
HETATM    9  N2  UNL     1     -25.332 -20.911  10.609  1.00  0.00    -0.081 NA
HETATM   10  N3  UNL     1     -27.453 -20.655  11.711  1.00  0.00    -0.320 N 
HETATM   11  C6  UNL     1     -28.336 -20.092  12.559  1.00  0.00     0.179 A 
ATOM     12  H3  UNL     1     -27.776 -21.443  11.149  1.00  0.00     0.169 HD
HETATM   13  S1  UNL     1     -29.857 -20.661  12.658  1.00  0.00    -0.040 SA
HETATM   14  N4  UNL     1     -27.886 -19.047  13.296  1.00  0.00    -0.299 N 
HETATM   15  C7  UNL     1     -26.636 -18.597  13.189  1.00  0.00     0.266 A 
ATOM     16  H4  UNL     1     -28.523 -18.593  13.951  1.00  0.00     0.171 HD
HETATM   17  O2  UNL     1     -26.270 -17.596  13.922  1.00  0.00    -0.267 OA
ENDBRANCH   4   7
ENDBRANCH   2   3
BRANCH   2  18
HETATM   18  C8  UNL     1     -21.509 -17.729  13.572  1.00  0.00     0.240 C 
HETATM   19  O3  UNL     1     -22.445 -17.321  14.340  1.00  0.00    -0.271 OA
HETATM   20  N5  UNL     1     -20.212 -17.224  13.771  1.00  0.00    -0.344 N 
ATOM     21  H5  UNL     1     -19.441 -17.546  13.185  1.00  0.00     0.163 HD
BRANCH  20  22
HETATM   22  C9  UNL     1     -19.974 -16.231  14.827  1.00  0.00     0.201 C 
BRANCH  22  23
HETATM   23  C10 UNL     1     -19.293 -15.045  14.289  1.00  0.00     0.260 C 
HETATM   24  O4  UNL     1     -18.186 -14.695  14.714  1.00  0.00    -0.304 OA
ENDBRANCH  22  23
BRANCH  22  25
HETATM   25  C11 UNL     1     -19.211 -16.823  15.995  1.00  0.00     0.346 C 
BRANCH  25  26
HETATM   26  N6  UNL     1     -19.906 -18.002  16.464  1.00  0.00    -0.051 N 
ATOM     27  H63 UNL     1     -20.830 -17.785  16.838  1.00  0.00     0.277 HD
ATOM     28  H62 UNL     1     -20.200 -18.609  15.699  1.00  0.00     0.277 HD
ATOM     29  H61 UNL     1     -19.318 -18.488  17.141  1.00  0.00     0.277 HD
ENDBRANCH  25  26
BRANCH  25  30
HETATM   30  O5  UNL     1     -18.939 -15.933  17.004  1.00  0.00    -0.368 OA
ATOM     31  H5  UNL     1     -19.710 -15.565  17.420  1.00  0.00     0.212 HD
ENDBRANCH  25  30
ENDBRANCH  22  25
ENDBRANCH  20  22
ENDBRANCH   2  18
TORSDOF 8
ENDMDL
MODEL 2
REMARK VINA RESULT: -7.476122052      5.930     10.110
REMARK  8 active torsions:
REMARK  status: ('A' for Active; 'I' for Inactive)
REMARK    1  A    between atoms: C2_2  and  N1_3 
REMARK    2  A    between atoms: C2_2  and  C8_18 
REMARK       I    between atoms: N1_3  and  C3_5 
REMARK    3  A    between atoms: C3_5  and  C4_7 
REMARK       I    between atoms: C8_18  and  N5_20 
REMARK    4  A    between atoms: N5_20  and  C9_22 
REMARK    5  A    between atoms: C9_22  and  C10_23 
REMARK    6  A    between atoms: C9_22  and  C11_25 
REMARK    7  A    between atoms: C11_25  and  N6_26 
REMARK    8  A    between atoms: C11_25  and  O5_30 
ROOT
HETATM    1  C1  UNL     1     -20.283 -13.941  14.703  1.00  0.00     0.042 C 
HETATM    2  C2  UNL     1     -19.005 -14.485  15.213  1.00  0.00     0.172 C 
ENDROOT
BRANCH   2   3
HETATM    3  N1  UNL     1     -18.724 -13.927  16.543  1.00  0.00    -0.344 N 
HETATM    4  C3  UNL     1     -18.309 -12.600  16.718  1.00  0.00     0.261 C 
HETATM    5  O1  UNL     1     -18.203 -11.932  15.613  1.00  0.00    -0.267 OA
ATOM      6  H1  UNL     1     -18.835 -14.524  17.363  1.00  0.00     0.163 HD
BRANCH   4   7
HETATM    7  C4  UNL     1     -17.994 -11.911  17.947  1.00  0.00     0.141 A 
HETATM    8  C5  UNL     1     -17.050 -12.515  18.794  1.00  0.00     0.139 A 
HETATM    9  N2  UNL     1     -16.448 -13.773  18.479  1.00  0.00    -0.081 NA
HETATM   10  N3  UNL     1     -16.742 -11.878  19.928  1.00  0.00    -0.320 N 
HETATM   11  C6  UNL     1     -17.270 -10.700  20.318  1.00  0.00     0.179 A 
ATOM     12  H3  UNL     1     -16.057 -12.314  20.544  1.00  0.00     0.169 HD
HETATM   13  S1  UNL     1     -16.820 -10.026  21.728  1.00  0.00    -0.040 SA
HETATM   14  N4  UNL     1     -18.178 -10.137  19.484  1.00  0.00    -0.299 N 
HETATM   15  C7  UNL     1     -18.533 -10.717  18.336  1.00  0.00     0.266 A 
ATOM     16  H4  UNL     1     -18.601  -9.246  19.741  1.00  0.00     0.171 HD
HETATM   17  O2  UNL     1     -19.406 -10.127  17.586  1.00  0.00    -0.267 OA
ENDBRANCH   4   7
ENDBRANCH   2   3
BRANCH   2  18
HETATM   18  C8  UNL     1     -19.023 -15.963  15.285  1.00  0.00     0.240 C 
HETATM   19  O3  UNL     1     -18.867 -16.480  16.442  1.00  0.00    -0.271 OA
HETATM   20  N5  UNL     1     -19.195 -16.823  14.185  1.00  0.00    -0.344 N 
ATOM     21  H5  UNL     1     -19.339 -16.438  13.251  1.00  0.00     0.163 HD
BRANCH  20  22
HETATM   22  C9  UNL     1     -19.165 -18.277  14.390  1.00  0.00     0.201 C 
BRANCH  22  23
HETATM   23  C10 UNL     1     -18.374 -18.940  13.344  1.00  0.00     0.260 C 
HETATM   24  O4  UNL     1     -18.479 -20.153  13.135  1.00  0.00    -0.304 OA
ENDBRANCH  22  23
BRANCH  22  25
HETATM   25  C11 UNL     1     -20.561 -18.862  14.480  1.00  0.00     0.346 C 
BRANCH  25  26
HETATM   26  N6  UNL     1     -21.227 -18.691  13.207  1.00  0.00    -0.051 N 
ATOM     27  H63 UNL     1     -20.853 -19.309  12.487  1.00  0.00     0.277 HD
ATOM     28  H62 UNL     1     -22.182 -19.047  13.219  1.00  0.00     0.277 HD
ATOM     29  H61 UNL     1     -21.183 -17.709  12.937  1.00  0.00     0.277 HD
ENDBRANCH  25  26
BRANCH  25  30
HETATM   30  O5  UNL     1     -21.305 -18.393  15.534  1.00  0.00    -0.368 OA
ATOM     31  H5  UNL     1     -22.181 -18.755  15.587  1.00  0.00     0.212 HD
ENDBRANCH  25  30
ENDBRANCH  22  25
ENDBRANCH  20  22
ENDBRANCH   2  18
TORSDOF 8
ENDMDL
MODEL 3
REMARK VINA RESULT: -7.474055667      0.945      1.725
REMARK  8 active torsions:
REMARK  status: ('A' for Active; 'I' for Inactive)
REMARK    1  A    between atoms: C2_2  and  N1_3 
REMARK    2  A    between atoms: C2_2  and  C8_18 
REMARK       I    between atoms: N1_3  and  C3_5 
REMARK    3  A    between atoms: C3_5  and  C4_7 
REMARK       I    between atoms: C8_18  and  N5_20 
REMARK    4  A    between atoms: N5_20  and  C9_22 
REMARK    5  A    between atoms: C9_22  and  C10_23 
REMARK    6  A    between atoms: C9_22  and  C11_25 
REMARK    7  A    between atoms: C11_25  and  N6_26 
REMARK    8  A    between atoms: C11_25  and  O5_30 
ROOT
HETATM    1  C1  UNL     1     -20.928 -19.760  12.338  1.00  0.00     0.042 C 
HETATM    2  C2  UNL     1     -21.924 -18.672  12.446  1.00  0.00     0.172 C 
ENDROOT
BRANCH   2   3
HETATM    3  N1  UNL     1     -23.255 -19.242  12.697  1.00  0.00    -0.344 N 
HETATM    4  C3  UNL     1     -24.363 -18.920  11.899  1.00  0.00     0.261 C 
HETATM    5  O1  UNL     1     -24.096 -18.089  10.941  1.00  0.00    -0.267 OA
ATOM      6  H1  UNL     1     -23.377 -19.891  13.474  1.00  0.00     0.163 HD
BRANCH   4   7
HETATM    7  C4  UNL     1     -25.723 -19.389  12.017  1.00  0.00     0.141 A 
HETATM    8  C5  UNL     1     -26.530 -18.771  12.985  1.00  0.00     0.139 A 
HETATM    9  N2  UNL     1     -26.027 -17.744  13.845  1.00  0.00    -0.081 NA
HETATM   10  N3  UNL     1     -27.795 -19.190  13.093  1.00  0.00    -0.320 N 
HETATM   11  C6  UNL     1     -28.351 -20.161  12.342  1.00  0.00     0.179 A 
ATOM     12  H3  UNL     1     -28.383 -18.742  13.795  1.00  0.00     0.169 HD
HETATM   13  S1  UNL     1     -29.904 -20.589  12.572  1.00  0.00    -0.040 SA
HETATM   14  N4  UNL     1     -27.552 -20.742  11.414  1.00  0.00    -0.299 N 
HETATM   15  C7  UNL     1     -26.280 -20.375  11.251  1.00  0.00     0.266 A 
ATOM     16  H4  UNL     1     -27.934 -21.480  10.824  1.00  0.00     0.171 HD
HETATM   17  O2  UNL     1     -25.572 -20.970  10.348  1.00  0.00    -0.267 OA
ENDBRANCH   4   7
ENDBRANCH   2   3
BRANCH   2  18
HETATM   18  C8  UNL     1     -21.582 -17.712  13.519  1.00  0.00     0.240 C 
HETATM   19  O3  UNL     1     -22.537 -17.346  14.283  1.00  0.00    -0.271 OA
HETATM   20  N5  UNL     1     -20.299 -17.185  13.751  1.00  0.00    -0.344 N 
ATOM     21  H5  UNL     1     -19.512 -17.474  13.169  1.00  0.00     0.163 HD
BRANCH  20  22
HETATM   22  C9  UNL     1     -20.099 -16.217  14.838  1.00  0.00     0.201 C 
BRANCH  22  23
HETATM   23  C10 UNL     1     -19.443 -14.998  14.343  1.00  0.00     0.260 C 
HETATM   24  O4  UNL     1     -18.304 -14.690  14.711  1.00  0.00    -0.304 OA
ENDBRANCH  22  23
BRANCH  22  25
HETATM   25  C11 UNL     1     -19.334 -16.822  15.998  1.00  0.00     0.346 C 
BRANCH  25  26
HETATM   26  N6  UNL     1     -19.982 -18.052  16.400  1.00  0.00    -0.051 N 
ATOM     27  H63 UNL     1     -19.704 -18.349  17.336  1.00  0.00     0.277 HD
ATOM     28  H62 UNL     1     -20.978 -17.925  16.580  1.00  0.00     0.277 HD
ATOM     29  H61 UNL     1     -19.803 -18.768  15.697  1.00  0.00     0.277 HD
ENDBRANCH  25  26
BRANCH  25  30
HETATM   30  O5  UNL     1     -19.128 -15.965  17.050  1.00  0.00    -0.368 OA
ATOM     31  H5  UNL     1     -19.866 -15.885  17.641  1.00  0.00     0.212 HD
ENDBRANCH  25  30
ENDBRANCH  22  25
ENDBRANCH  20  22
ENDBRANCH   2  18
TORSDOF 8
ENDMDL
MODEL 4
REMARK VINA RESULT: -7.277412489      5.389      7.748
REMARK  8 active torsions:
REMARK  status: ('A' for Active; 'I' for Inactive)
REMARK    1  A    between atoms: C2_2  and  N1_3 
REMARK    2  A    between atoms: C2_2  and  C8_18 
REMARK       I    between atoms: N1_3  and  C3_5 
REMARK    3  A    between atoms: C3_5  and  C4_7 
REMARK       I    between atoms: C8_18  and  N5_20 
REMARK    4  A    between atoms: N5_20  and  C9_22 
REMARK    5  A    between atoms: C9_22  and  C10_23 
REMARK    6  A    between atoms: C9_22  and  C11_25 
REMARK    7  A    between atoms: C11_25  and  N6_26 
REMARK    8  A    between atoms: C11_25  and  O5_30 
ROOT
HETATM    1  C1  UNL     1     -18.736 -11.471  14.627  1.00  0.00     0.042 C 
HETATM    2  C2  UNL     1     -19.243 -12.508  15.551  1.00  0.00     0.172 C 
ENDROOT
BRANCH   2   3
HETATM    3  N1  UNL     1     -18.890 -13.841  15.043  1.00  0.00    -0.344 N 
HETATM    4  C3  UNL     1     -19.863 -14.813  14.768  1.00  0.00     0.261 C 
HETATM    5  O1  UNL     1     -21.076 -14.422  15.002  1.00  0.00    -0.267 OA
ATOM      6  H1  UNL     1     -17.907 -14.066  14.885  1.00  0.00     0.163 HD
BRANCH   4   7
HETATM    7  C4  UNL     1     -19.678 -16.156  14.272  1.00  0.00     0.141 A 
HETATM    8  C5  UNL     1     -19.179 -17.108  15.177  1.00  0.00     0.139 A 
HETATM    9  N2  UNL     1     -18.833 -16.764  16.521  1.00  0.00    -0.081 NA
HETATM   10  N3  UNL     1     -19.016 -18.357  14.730  1.00  0.00    -0.320 N 
HETATM   11  C6  UNL     1     -19.296 -18.770  13.478  1.00  0.00     0.179 A 
ATOM     12  H3  UNL     1     -18.654 -19.050  15.385  1.00  0.00     0.169 HD
HETATM   13  S1  UNL     1     -19.048 -20.319  13.050  1.00  0.00    -0.040 SA
HETATM   14  N4  UNL     1     -19.777 -17.833  12.624  1.00  0.00    -0.299 N 
HETATM   15  C7  UNL     1     -19.963 -16.567  13.001  1.00  0.00     0.266 A 
ATOM     16  H4  UNL     1     -20.002 -18.104  11.667  1.00  0.00     0.171 HD
HETATM   17  O2  UNL     1     -20.425 -15.723  12.137  1.00  0.00    -0.267 OA
ENDBRANCH   4   7
ENDBRANCH   2   3
BRANCH   2  18
HETATM   18  C8  UNL     1     -18.709 -12.339  16.920  1.00  0.00     0.240 C 
HETATM   19  O3  UNL     1     -18.122 -13.350  17.433  1.00  0.00    -0.271 OA
HETATM   20  N5  UNL     1     -18.803 -11.161  17.683  1.00  0.00    -0.344 N 
ATOM     21  H5  UNL     1     -19.250 -10.331  17.293  1.00  0.00     0.163 HD
BRANCH  20  22
HETATM   22  C9  UNL     1     -18.252 -11.133  19.045  1.00  0.00     0.201 C 
BRANCH  22  23
HETATM   23  C10 UNL     1     -18.408  -9.802  19.649  1.00  0.00     0.260 C 
HETATM   24  O4  UNL     1     -17.532  -8.939  19.531  1.00  0.00    -0.304 OA
ENDBRANCH  22  23
BRANCH  22  25
HETATM   25  C11 UNL     1     -16.806 -11.587  19.077  1.00  0.00     0.346 C 
BRANCH  25  26
HETATM   26  N6  UNL     1     -16.242 -11.278  20.373  1.00  0.00    -0.051 N 
ATOM     27  H63 UNL     1     -16.574 -10.385  20.738  1.00  0.00     0.277 HD
ATOM     28  H62 UNL     1     -16.612 -11.879  21.109  1.00  0.00     0.277 HD
ATOM     29  H61 UNL     1     -15.225 -11.318  20.312  1.00  0.00     0.277 HD
ENDBRANCH  25  26
BRANCH  25  30
HETATM   30  O5  UNL     1     -16.041 -11.113  18.040  1.00  0.00    -0.368 OA
ATOM     31  H5  UNL     1     -15.275 -11.641  17.846  1.00  0.00     0.212 HD
ENDBRANCH  25  30
ENDBRANCH  22  25
ENDBRANCH  20  22
ENDBRANCH   2  18
TORSDOF 8
ENDMDL
MODEL 5
REMARK VINA RESULT: -7.229830366      5.915     10.127
REMARK  8 active torsions:
REMARK  status: ('A' for Active; 'I' for Inactive)
REMARK    1  A    between atoms: C2_2  and  N1_3 
REMARK    2  A    between atoms: C2_2  and  C8_18 
REMARK       I    between atoms: N1_3  and  C3_5 
REMARK    3  A    between atoms: C3_5  and  C4_7 
REMARK       I    between atoms: C8_18  and  N5_20 
REMARK    4  A    between atoms: N5_20  and  C9_22 
REMARK    5  A    between atoms: C9_22  and  C10_23 
REMARK    6  A    between atoms: C9_22  and  C11_25 
REMARK    7  A    between atoms: C11_25  and  N6_26 
REMARK    8  A    between atoms: C11_25  and  O5_30 
ROOT
HETATM    1  C1  UNL     1     -20.337 -14.008  14.695  1.00  0.00     0.042 C 
HETATM    2  C2  UNL     1     -19.038 -14.566  15.128  1.00  0.00     0.172 C 
ENDROOT
BRANCH   2   3
HETATM    3  N1  UNL     1     -18.693 -14.047  16.459  1.00  0.00    -0.344 N 
HETATM    4  C3  UNL     1     -18.281 -12.722  16.655  1.00  0.00     0.261 C 
HETATM    5  O1  UNL     1     -18.238 -12.018  15.568  1.00  0.00    -0.267 OA
ATOM      6  H1  UNL     1     -18.756 -14.671  17.264  1.00  0.00     0.163 HD
BRANCH   4   7
HETATM    7  C4  UNL     1     -17.909 -12.069  17.888  1.00  0.00     0.141 A 
HETATM    8  C5  UNL     1     -18.541 -10.849  18.181  1.00  0.00     0.139 A 
HETATM    9  N2  UNL     1     -19.486 -10.254  17.287  1.00  0.00    -0.081 NA
HETATM   10  N3  UNL     1     -18.212 -10.244  19.326  1.00  0.00    -0.320 N 
HETATM   11  C6  UNL     1     -17.321 -10.717  20.219  1.00  0.00     0.179 A 
ATOM     12  H3  UNL     1     -18.670  -9.358  19.541  1.00  0.00     0.169 HD
HETATM   13  S1  UNL     1     -16.998  -9.883  21.578  1.00  0.00    -0.040 SA
HETATM   14  N4  UNL     1     -16.725 -11.896  19.914  1.00  0.00    -0.299 N 
HETATM   15  C7  UNL     1     -17.004 -12.555  18.789  1.00  0.00     0.266 A 
ATOM     16  H4  UNL     1     -16.045 -12.290  20.564  1.00  0.00     0.171 HD
HETATM   17  O2  UNL     1     -16.400 -13.675  18.558  1.00  0.00    -0.267 OA
ENDBRANCH   4   7
ENDBRANCH   2   3
BRANCH   2  18
HETATM   18  C8  UNL     1     -19.053 -16.045  15.157  1.00  0.00     0.240 C 
HETATM   19  O3  UNL     1     -18.882 -16.595  16.297  1.00  0.00    -0.271 OA
HETATM   20  N5  UNL     1     -19.239 -16.873  14.036  1.00  0.00    -0.344 N 
ATOM     21  H5  UNL     1     -19.395 -16.462  13.115  1.00  0.00     0.163 HD
BRANCH  20  22
HETATM   22  C9  UNL     1     -19.206 -18.333  14.198  1.00  0.00     0.201 C 
BRANCH  22  23
HETATM   23  C10 UNL     1     -18.412 -18.963  13.134  1.00  0.00     0.260 C 
HETATM   24  O4  UNL     1     -18.480 -20.178  12.919  1.00  0.00    -0.304 OA
ENDBRANCH  22  23
BRANCH  22  25
HETATM   25  C11 UNL     1     -20.600 -18.923  14.270  1.00  0.00     0.346 C 
BRANCH  25  26
HETATM   26  N6  UNL     1     -21.246 -18.765  12.985  1.00  0.00    -0.051 N 
ATOM     27  H63 UNL     1     -20.722 -18.154  12.359  1.00  0.00     0.277 HD
ATOM     28  H62 UNL     1     -21.205 -19.615  12.423  1.00  0.00     0.277 HD
ATOM     29  H61 UNL     1     -22.203 -18.443  13.131  1.00  0.00     0.277 HD
ENDBRANCH  25  26
BRANCH  25  30
HETATM   30  O5  UNL     1     -21.363 -18.450  15.308  1.00  0.00    -0.368 OA
ATOM     31  H5  UNL     1     -20.879 -18.295  16.111  1.00  0.00     0.212 HD
ENDBRANCH  25  30
ENDBRANCH  22  25
ENDBRANCH  20  22
ENDBRANCH   2  18
TORSDOF 8
ENDMDL
