MODEL 1
REMARK VINA RESULT: -3.531347507      0.000      0.000
REMARK  1 active torsions:
REMARK  status: ('A' for Active; 'I' for Inactive)
REMARK    1  A    between atoms: C4_4  and  N1_5 
ROOT
HETATM    1  C1  UNL     1      21.922   5.854  -3.544  1.00  0.00     0.015 C 
HETATM    2  C2  UNL     1      20.962   6.800  -3.046  1.00  0.00    -0.041 C 
HETATM    3  C3  UNL     1      19.706   6.354  -2.363  1.00  0.00     0.042 C 
HETATM    4  C4  UNL     1      19.012   7.722  -2.211  1.00  0.00     0.188 C 
HETATM    5  C5  UNL     1      20.150   8.599  -2.618  1.00  0.00     0.017 C 
HETATM    6  C6  UNL     1      20.523   7.955  -3.959  1.00  0.00     0.015 C 
HETATM    7  C7  UNL     1      21.415   7.902  -2.098  1.00  0.00     0.015 C 
ENDROOT
BRANCH   4   8
HETATM    8  N1  UNL     1      18.523   7.936  -0.895  1.00  0.00    -0.075 N 
ATOM      9  H13 UNL     1      17.576   8.313  -0.912  1.00  0.00     0.274 HD
ATOM     10  H12 UNL     1      18.337   7.051  -0.423  1.00  0.00     0.274 HD
ATOM     11  H11 UNL     1      19.145   8.526  -0.341  1.00  0.00     0.274 HD
ENDBRANCH   4   8
TORSDOF 1
ENDMDL
MODEL 2
REMARK VINA RESULT: -3.396991101      2.119      3.068
REMARK  1 active torsions:
REMARK  status: ('A' for Active; 'I' for Inactive)
REMARK    1  A    between atoms: C4_4  and  N1_5 
ROOT
HETATM    1  C1  UNL     1      19.082   7.833  -1.475  1.00  0.00     0.015 C 
HETATM    2  C2  UNL     1      20.112   7.748  -2.473  1.00  0.00    -0.041 C 
HETATM    3  C3  UNL     1      20.077   8.592  -3.709  1.00  0.00     0.042 C 
HETATM    4  C4  UNL     1      21.276   7.979  -4.458  1.00  0.00     0.188 C 
HETATM    5  C5  UNL     1      21.819   7.129  -3.358  1.00  0.00     0.017 C 
HETATM    6  C6  UNL     1      20.554   6.358  -2.959  1.00  0.00     0.015 C 
HETATM    7  C7  UNL     1      21.570   7.918  -2.064  1.00  0.00     0.015 C 
ENDROOT
BRANCH   4   8
HETATM    8  N1  UNL     1      22.165   8.968  -4.955  1.00  0.00    -0.075 N 
ATOM      9  H13 UNL     1      21.782   9.425  -5.782  1.00  0.00     0.274 HD
ATOM     10  H12 UNL     1      22.207   9.773  -4.330  1.00  0.00     0.274 HD
ATOM     11  H11 UNL     1      23.097   8.595  -5.139  1.00  0.00     0.274 HD
ENDBRANCH   4   8
TORSDOF 1
ENDMDL
MODEL 3
REMARK VINA RESULT: -3.325272701      1.048      1.954
REMARK  1 active torsions:
REMARK  status: ('A' for Active; 'I' for Inactive)
REMARK    1  A    between atoms: C4_4  and  N1_5 
ROOT
HETATM    1  C1  UNL     1      21.491   7.592  -5.653  1.00  0.00     0.015 C 
HETATM    2  C2  UNL     1      21.081   7.727  -4.283  1.00  0.00    -0.041 C 
HETATM    3  C3  UNL     1      19.973   8.652  -3.885  1.00  0.00     0.042 C 
HETATM    4  C4  UNL     1      20.087   8.525  -2.353  1.00  0.00     0.188 C 
HETATM    5  C5  UNL     1      21.053   7.388  -2.292  1.00  0.00     0.017 C 
HETATM    6  C6  UNL     1      22.161   7.924  -3.207  1.00  0.00     0.015 C 
HETATM    7  C7  UNL     1      20.705   6.486  -3.485  1.00  0.00     0.015 C 
ENDROOT
BRANCH   4   8
HETATM    8  N1  UNL     1      18.830   8.287  -1.736  1.00  0.00    -0.075 N 
ATOM      9  H13 UNL     1      18.767   7.331  -1.387  1.00  0.00     0.274 HD
ATOM     10  H12 UNL     1      18.753   8.789  -0.852  1.00  0.00     0.274 HD
ATOM     11  H11 UNL     1      18.048   8.505  -2.354  1.00  0.00     0.274 HD
ENDBRANCH   4   8
TORSDOF 1
ENDMDL
MODEL 4
REMARK VINA RESULT: -3.318510372      1.881      2.473
REMARK  1 active torsions:
REMARK  status: ('A' for Active; 'I' for Inactive)
REMARK    1  A    between atoms: C4_4  and  N1_5 
ROOT
HETATM    1  C1  UNL     1      21.104   4.972  -2.947  1.00  0.00     0.015 C 
HETATM    2  C2  UNL     1      21.081   6.391  -3.171  1.00  0.00    -0.041 C 
HETATM    3  C3  UNL     1      21.143   6.966  -4.553  1.00  0.00     0.042 C 
HETATM    4  C4  UNL     1      21.258   8.459  -4.190  1.00  0.00     0.188 C 
HETATM    5  C5  UNL     1      20.984   8.359  -2.726  1.00  0.00     0.017 C 
HETATM    6  C6  UNL     1      22.007   7.285  -2.332  1.00  0.00     0.015 C 
HETATM    7  C7  UNL     1      19.957   7.227  -2.575  1.00  0.00     0.015 C 
ENDROOT
BRANCH   4   8
HETATM    8  N1  UNL     1      20.346   9.264  -4.923  1.00  0.00    -0.075 N 
ATOM      9  H13 UNL     1      19.774   8.696  -5.547  1.00  0.00     0.274 HD
ATOM     10  H12 UNL     1      19.612   9.632  -4.319  1.00  0.00     0.274 HD
ATOM     11  H11 UNL     1      20.814  10.014  -5.433  1.00  0.00     0.274 HD
ENDBRANCH   4   8
TORSDOF 1
ENDMDL
MODEL 5
REMARK VINA RESULT: -3.253205856      2.090      3.025
REMARK  1 active torsions:
REMARK  status: ('A' for Active; 'I' for Inactive)
REMARK    1  A    between atoms: C4_4  and  N1_5 
ROOT
HETATM    1  C1  UNL     1      18.994   7.829  -1.499  1.00  0.00     0.015 C 
HETATM    2  C2  UNL     1      20.107   7.462  -2.332  1.00  0.00    -0.041 C 
HETATM    3  C3  UNL     1      20.335   6.043  -2.752  1.00  0.00     0.042 C 
HETATM    4  C4  UNL     1      21.700   6.212  -3.447  1.00  0.00     0.188 C 
HETATM    5  C5  UNL     1      21.767   7.703  -3.456  1.00  0.00     0.017 C 
HETATM    6  C6  UNL     1      21.502   7.995  -1.973  1.00  0.00     0.015 C 
HETATM    7  C7  UNL     1      20.322   8.180  -3.658  1.00  0.00     0.015 C 
ENDROOT
BRANCH   4   8
HETATM    8  N1  UNL     1      21.734   5.596  -4.727  1.00  0.00    -0.075 N 
ATOM      9  H13 UNL     1      20.954   4.949  -4.844  1.00  0.00     0.274 HD
ATOM     10  H12 UNL     1      21.504   6.264  -5.463  1.00  0.00     0.274 HD
ATOM     11  H11 UNL     1      22.625   5.136  -4.912  1.00  0.00     0.274 HD
ENDBRANCH   4   8
TORSDOF 1
ENDMDL
