MODEL 1
REMARK VINA RESULT: -4.134825419      0.000      0.000
REMARK  3 active torsions:
REMARK  status: ('A' for Active; 'I' for Inactive)
REMARK    1  A    between atoms: C2_2  and  C4_4 
REMARK    2  A    between atoms: C4_4  and  C7_7 
REMARK    3  A    between atoms: C8_8  and  N1_9 
ROOT
HETATM    1  C4  UNL     1      21.202   6.905  -3.371  1.00  0.00     0.040 C 
HETATM    2  C5  UNL     1      22.443   7.158  -2.542  1.00  0.00     0.034 C 
HETATM    3  C6  UNL     1      21.652   6.364  -4.701  1.00  0.00     0.034 C 
ENDROOT
BRANCH   1   4
HETATM    4  C2  UNL     1      20.453   8.184  -3.504  1.00  0.00    -0.073 C 
HETATM    5  C1  UNL     1      20.465   8.909  -4.610  1.00  0.00     0.015 C 
HETATM    6  C3  UNL     1      19.632   8.715  -2.356  1.00  0.00     0.044 C 
ENDBRANCH   1   4
BRANCH   1   7
HETATM    7  C7  UNL     1      20.321   5.934  -2.716  1.00  0.00    -0.070 C 
HETATM    8  C8  UNL     1      19.578   5.146  -2.176  1.00  0.00     0.004 C 
BRANCH   8   9
HETATM    9  N1  UNL     1      18.717   4.253  -1.541  1.00  0.00    -0.359 N 
ATOM     10  H12 UNL     1      18.973   4.673  -2.435  1.00  0.00     0.166 HD
ATOM     11  H11 UNL     1      18.094   3.602  -1.065  1.00  0.00     0.166 HD
ENDBRANCH   8   9
ENDBRANCH   1   7
TORSDOF 3
ENDMDL
MODEL 2
REMARK VINA RESULT: -4.109966630      0.101      1.140
REMARK  3 active torsions:
REMARK  status: ('A' for Active; 'I' for Inactive)
REMARK    1  A    between atoms: C2_2  and  C4_4 
REMARK    2  A    between atoms: C4_4  and  C7_7 
REMARK    3  A    between atoms: C8_8  and  N1_9 
ROOT
HETATM    1  C4  UNL     1      21.180   6.956  -3.347  1.00  0.00     0.040 C 
HETATM    2  C5  UNL     1      22.408   7.238  -2.508  1.00  0.00     0.034 C 
HETATM    3  C6  UNL     1      21.653   6.419  -4.671  1.00  0.00     0.034 C 
ENDROOT
BRANCH   1   4
HETATM    4  C2  UNL     1      20.408   8.220  -3.494  1.00  0.00    -0.073 C 
HETATM    5  C1  UNL     1      19.648   8.712  -2.530  1.00  0.00     0.015 C 
HETATM    6  C3  UNL     1      20.466   9.009  -4.778  1.00  0.00     0.044 C 
ENDBRANCH   1   4
BRANCH   1   7
HETATM    7  C7  UNL     1      20.312   5.971  -2.697  1.00  0.00    -0.070 C 
HETATM    8  C8  UNL     1      19.578   5.171  -2.162  1.00  0.00     0.004 C 
BRANCH   8   9
HETATM    9  N1  UNL     1      18.727   4.263  -1.536  1.00  0.00    -0.359 N 
ATOM     10  H12 UNL     1      19.008   5.242  -1.591  1.00  0.00     0.166 HD
ATOM     11  H11 UNL     1      18.109   3.588  -1.086  1.00  0.00     0.166 HD
ENDBRANCH   8   9
ENDBRANCH   1   7
TORSDOF 3
ENDMDL
MODEL 3
REMARK VINA RESULT: -4.104381895      2.508      3.787
REMARK  3 active torsions:
REMARK  status: ('A' for Active; 'I' for Inactive)
REMARK    1  A    between atoms: C2_2  and  C4_4 
REMARK    2  A    between atoms: C4_4  and  C7_7 
REMARK    3  A    between atoms: C8_8  and  N1_9 
ROOT
HETATM    1  C4  UNL     1      20.600   7.443  -2.676  1.00  0.00     0.040 C 
HETATM    2  C5  UNL     1      21.906   7.804  -2.001  1.00  0.00     0.034 C 
HETATM    3  C6  UNL     1      19.487   7.829  -1.739  1.00  0.00     0.034 C 
ENDROOT
BRANCH   1   4
HETATM    4  C2  UNL     1      20.610   5.985  -2.973  1.00  0.00    -0.073 C 
HETATM    5  C1  UNL     1      21.465   5.431  -3.816  1.00  0.00     0.015 C 
HETATM    6  C3  UNL     1      19.620   5.061  -2.308  1.00  0.00     0.044 C 
ENDBRANCH   1   4
BRANCH   1   7
HETATM    7  C7  UNL     1      20.448   8.161  -3.945  1.00  0.00    -0.070 C 
HETATM    8  C8  UNL     1      20.343   8.761  -4.991  1.00  0.00     0.004 C 
BRANCH   8   9
HETATM    9  N1  UNL     1      20.228   9.467  -6.186  1.00  0.00    -0.359 N 
ATOM     10  H12 UNL     1      20.591   9.493  -5.233  1.00  0.00     0.166 HD
ATOM     11  H11 UNL     1      20.137   9.973  -7.067  1.00  0.00     0.166 HD
ENDBRANCH   8   9
ENDBRANCH   1   7
TORSDOF 3
ENDMDL
MODEL 4
REMARK VINA RESULT: -4.084988758      2.504      3.930
REMARK  3 active torsions:
REMARK  status: ('A' for Active; 'I' for Inactive)
REMARK    1  A    between atoms: C2_2  and  C4_4 
REMARK    2  A    between atoms: C4_4  and  C7_7 
REMARK    3  A    between atoms: C8_8  and  N1_9 
ROOT
HETATM    1  C4  UNL     1      20.622   7.415  -2.703  1.00  0.00     0.040 C 
HETATM    2  C5  UNL     1      21.926   7.781  -2.027  1.00  0.00     0.034 C 
HETATM    3  C6  UNL     1      19.508   7.778  -1.759  1.00  0.00     0.034 C 
ENDROOT
BRANCH   1   4
HETATM    4  C2  UNL     1      20.645   5.960  -3.016  1.00  0.00    -0.073 C 
HETATM    5  C1  UNL     1      19.843   5.088  -2.429  1.00  0.00     0.015 C 
HETATM    6  C3  UNL     1      21.607   5.411  -4.041  1.00  0.00     0.044 C 
ENDBRANCH   1   4
BRANCH   1   7
HETATM    7  C7  UNL     1      20.459   8.145  -3.963  1.00  0.00    -0.070 C 
HETATM    8  C8  UNL     1      20.344   8.755  -5.002  1.00  0.00     0.004 C 
BRANCH   8   9
HETATM    9  N1  UNL     1      20.219   9.473  -6.189  1.00  0.00    -0.359 N 
ATOM     10  H12 UNL     1      20.678   9.439  -5.279  1.00  0.00     0.166 HD
ATOM     11  H11 UNL     1      20.117   9.989  -7.063  1.00  0.00     0.166 HD
ENDBRANCH   8   9
ENDBRANCH   1   7
TORSDOF 3
ENDMDL
MODEL 5
REMARK VINA RESULT: -4.008100768      2.536      3.605
REMARK  3 active torsions:
REMARK  status: ('A' for Active; 'I' for Inactive)
REMARK    1  A    between atoms: C2_2  and  C4_4 
REMARK    2  A    between atoms: C4_4  and  C7_7 
REMARK    3  A    between atoms: C8_8  and  N1_9 
ROOT
HETATM    1  C4  UNL     1      20.773   7.080  -2.866  1.00  0.00     0.040 C 
HETATM    2  C5  UNL     1      21.198   5.691  -3.293  1.00  0.00     0.034 C 
HETATM    3  C6  UNL     1      21.895   7.662  -2.048  1.00  0.00     0.034 C 
ENDROOT
BRANCH   1   4
HETATM    4  C2  UNL     1      19.508   6.968  -2.091  1.00  0.00    -0.073 C 
HETATM    5  C1  UNL     1      18.899   8.015  -1.558  1.00  0.00     0.015 C 
HETATM    6  C3  UNL     1      18.854   5.626  -1.878  1.00  0.00     0.044 C 
ENDBRANCH   1   4
BRANCH   1   7
HETATM    7  C7  UNL     1      20.516   7.933  -4.029  1.00  0.00    -0.070 C 
HETATM    8  C8  UNL     1      20.319   8.627  -5.000  1.00  0.00     0.004 C 
BRANCH   8   9
HETATM    9  N1  UNL     1      20.111   9.430  -6.120  1.00  0.00    -0.359 N 
ATOM     10  H12 UNL     1      20.540   8.570  -5.778  1.00  0.00     0.166 HD
ATOM     11  H11 UNL     1      19.952  10.026  -6.932  1.00  0.00     0.166 HD
ENDBRANCH   8   9
ENDBRANCH   1   7
TORSDOF 3
ENDMDL
