MODEL 1
REMARK VINA RESULT: -4.382683889      0.000      0.000
REMARK  3 active torsions:
REMARK  status: ('A' for Active; 'I' for Inactive)
REMARK    1  A    between atoms: C1_2  and  C2_4 
REMARK    2  A    between atoms: C2_4  and  C3_5 
REMARK       I    between atoms: C3_5  and  N2_7 
REMARK    3  A    between atoms: N2_7  and  C4_9 
ROOT
HETATM    1  C2  UNL     1      22.134   7.850  -4.436  1.00  0.00     0.123 C 
HETATM    2  C8  UNL     1      23.610   7.499  -4.716  1.00  0.00     0.034 C 
HETATM    3  C9  UNL     1      23.454   6.840  -6.047  1.00  0.00    -0.012 C 
HETATM    4  C10 UNL     1      22.179   5.989  -5.945  1.00  0.00     0.011 C 
HETATM    5  C11 UNL     1      21.527   7.346  -5.709  1.00  0.00     0.013 C 
HETATM    6  C12 UNL     1      22.519   7.840  -6.747  1.00  0.00     0.011 C 
ENDROOT
BRANCH   1   7
HETATM    7  C1  UNL     1      21.951   9.293  -4.285  1.00  0.00     0.249 C 
HETATM    8  N1  UNL     1      22.957  10.251  -4.069  1.00  0.00    -0.061 NA
HETATM    9  O1  UNL     1      20.761   9.737  -4.354  1.00  0.00    -0.275 OA
ENDBRANCH   1   7
BRANCH   1  10
HETATM   10  C3  UNL     1      21.661   7.145  -3.237  1.00  0.00     0.236 C 
HETATM   11  O2  UNL     1      22.464   6.634  -2.448  1.00  0.00    -0.272 OA
HETATM   12  N2  UNL     1      20.265   7.057  -2.995  1.00  0.00    -0.355 N 
ATOM     13  H2  UNL     1      19.607   7.481  -3.648  1.00  0.00     0.162 HD
BRANCH  12  14
HETATM   14  C4  UNL     1      19.774   6.365  -1.819  1.00  0.00     0.084 C 
HETATM   15  C5  UNL     1      19.287   4.965  -2.098  1.00  0.00     0.025 C 
HETATM   16  C6  UNL     1      18.135   5.237  -1.141  1.00  0.00     0.004 C 
HETATM   17  C7  UNL     1      18.336   6.721  -1.444  1.00  0.00     0.025 C 
ENDBRANCH  12  14
ENDBRANCH   1  10
TORSDOF 3
ENDMDL
MODEL 2
REMARK VINA RESULT: -4.367105919      1.464      2.121
REMARK  3 active torsions:
REMARK  status: ('A' for Active; 'I' for Inactive)
REMARK    1  A    between atoms: C1_2  and  C2_4 
REMARK    2  A    between atoms: C2_4  and  C3_5 
REMARK       I    between atoms: C3_5  and  N2_7 
REMARK    3  A    between atoms: N2_7  and  C4_9 
ROOT
HETATM    1  C2  UNL     1      21.551   8.269  -3.615  1.00  0.00     0.123 C 
HETATM    2  C8  UNL     1      21.618   7.100  -4.620  1.00  0.00     0.034 C 
HETATM    3  C9  UNL     1      21.257   7.834  -5.870  1.00  0.00    -0.012 C 
HETATM    4  C10 UNL     1      20.137   8.809  -5.473  1.00  0.00     0.011 C 
HETATM    5  C11 UNL     1      21.221   9.378  -4.566  1.00  0.00     0.013 C 
HETATM    6  C12 UNL     1      22.148   9.078  -5.731  1.00  0.00     0.011 C 
ENDROOT
BRANCH   1   7
HETATM    7  C1  UNL     1      22.842   8.483  -2.964  1.00  0.00     0.249 C 
HETATM    8  N1  UNL     1      23.298   9.671  -2.366  1.00  0.00    -0.061 NA
HETATM    9  O1  UNL     1      23.645   7.496  -2.929  1.00  0.00    -0.275 OA
ENDBRANCH   1   7
BRANCH   1  10
HETATM   10  C3  UNL     1      20.506   8.022  -2.613  1.00  0.00     0.236 C 
HETATM   11  O2  UNL     1      20.023   8.955  -1.961  1.00  0.00    -0.272 OA
HETATM   12  N2  UNL     1      20.055   6.693  -2.400  1.00  0.00    -0.355 N 
ATOM     13  H2  UNL     1      20.456   5.927  -2.941  1.00  0.00     0.162 HD
BRANCH  12  14
HETATM   14  C4  UNL     1      19.025   6.424  -1.415  1.00  0.00     0.084 C 
HETATM   15  C5  UNL     1      18.481   5.019  -1.475  1.00  0.00     0.025 C 
HETATM   16  C6  UNL     1      17.098   5.607  -1.236  1.00  0.00     0.004 C 
HETATM   17  C7  UNL     1      17.634   6.911  -1.823  1.00  0.00     0.025 C 
ENDBRANCH  12  14
ENDBRANCH   1  10
TORSDOF 3
ENDMDL
MODEL 3
REMARK VINA RESULT: -4.173815744      1.845      2.458
REMARK  3 active torsions:
REMARK  status: ('A' for Active; 'I' for Inactive)
REMARK    1  A    between atoms: C1_2  and  C2_4 
REMARK    2  A    between atoms: C2_4  and  C3_5 
REMARK       I    between atoms: C3_5  and  N2_7 
REMARK    3  A    between atoms: N2_7  and  C4_9 
ROOT
HETATM    1  C2  UNL     1      21.492   8.264  -3.776  1.00  0.00     0.123 C 
HETATM    2  C8  UNL     1      22.033   9.703  -3.648  1.00  0.00     0.034 C 
HETATM    3  C9  UNL     1      23.473   9.398  -3.394  1.00  0.00    -0.012 C 
HETATM    4  C10 UNL     1      23.483   8.190  -2.445  1.00  0.00     0.011 C 
HETATM    5  C11 UNL     1      22.778   7.514  -3.614  1.00  0.00     0.013 C 
HETATM    6  C12 UNL     1      23.728   8.332  -4.470  1.00  0.00     0.011 C 
ENDROOT
BRANCH   1   7
HETATM    7  C1  UNL     1      20.896   8.036  -5.092  1.00  0.00     0.249 C 
HETATM    8  N1  UNL     1      20.307   9.001  -5.928  1.00  0.00    -0.061 NA
HETATM    9  O1  UNL     1      20.907   6.843  -5.536  1.00  0.00    -0.275 OA
ENDBRANCH   1   7
BRANCH   1  10
HETATM   10  C3  UNL     1      20.512   7.991  -2.716  1.00  0.00     0.236 C 
HETATM   11  O2  UNL     1      20.063   8.909  -2.020  1.00  0.00    -0.272 OA
HETATM   12  N2  UNL     1      20.086   6.655  -2.498  1.00  0.00    -0.355 N 
ATOM     13  H2  UNL     1      20.459   5.901  -3.075  1.00  0.00     0.162 HD
BRANCH  12  14
HETATM   14  C4  UNL     1      19.122   6.361  -1.456  1.00  0.00     0.084 C 
HETATM   15  C5  UNL     1      18.586   4.951  -1.505  1.00  0.00     0.025 C 
HETATM   16  C6  UNL     1      17.215   5.523  -1.172  1.00  0.00     0.004 C 
HETATM   17  C7  UNL     1      17.704   6.841  -1.769  1.00  0.00     0.025 C 
ENDBRANCH  12  14
ENDBRANCH   1  10
TORSDOF 3
ENDMDL
MODEL 4
REMARK VINA RESULT: -4.117944972      2.265      5.040
REMARK  3 active torsions:
REMARK  status: ('A' for Active; 'I' for Inactive)
REMARK    1  A    between atoms: C1_2  and  C2_4 
REMARK    2  A    between atoms: C2_4  and  C3_5 
REMARK       I    between atoms: C3_5  and  N2_7 
REMARK    3  A    between atoms: N2_7  and  C4_9 
ROOT
HETATM    1  C2  UNL     1      21.630   8.248  -3.953  1.00  0.00     0.123 C 
HETATM    2  C8  UNL     1      20.452   7.667  -3.143  1.00  0.00     0.034 C 
HETATM    3  C9  UNL     1      20.914   6.252  -3.024  1.00  0.00    -0.012 C 
HETATM    4  C10 UNL     1      21.521   5.894  -4.389  1.00  0.00     0.011 C 
HETATM    5  C11 UNL     1      22.485   7.021  -4.037  1.00  0.00     0.013 C 
HETATM    6  C12 UNL     1      22.383   6.470  -2.626  1.00  0.00     0.011 C 
ENDROOT
BRANCH   1   7
HETATM    7  C1  UNL     1      22.299   9.322  -3.220  1.00  0.00     0.249 C 
HETATM    8  N1  UNL     1      23.612   9.784  -3.416  1.00  0.00    -0.061 NA
HETATM    9  O1  UNL     1      21.630   9.906  -2.308  1.00  0.00    -0.275 OA
ENDBRANCH   1   7
BRANCH   1  10
HETATM   10  C3  UNL     1      21.163   8.732  -5.259  1.00  0.00     0.236 C 
HETATM   11  O2  UNL     1      19.956   8.762  -5.525  1.00  0.00    -0.272 OA
HETATM   12  N2  UNL     1      22.117   9.166  -6.215  1.00  0.00    -0.355 N 
ATOM     13  H2  UNL     1      23.112   9.140  -5.990  1.00  0.00     0.162 HD
BRANCH  12  14
HETATM   14  C4  UNL     1      21.680   9.646  -7.511  1.00  0.00     0.084 C 
HETATM   15  C5  UNL     1      21.983   8.697  -8.644  1.00  0.00     0.025 C 
HETATM   16  C6  UNL     1      22.363   9.910  -9.481  1.00  0.00     0.004 C 
HETATM   17  C7  UNL     1      22.646  10.634  -8.166  1.00  0.00     0.025 C 
ENDBRANCH  12  14
ENDBRANCH   1  10
TORSDOF 3
ENDMDL
MODEL 5
REMARK VINA RESULT: -4.036076267      2.825      4.175
REMARK  3 active torsions:
REMARK  status: ('A' for Active; 'I' for Inactive)
REMARK    1  A    between atoms: C1_2  and  C2_4 
REMARK    2  A    between atoms: C2_4  and  C3_5 
REMARK       I    between atoms: C3_5  and  N2_7 
REMARK    3  A    between atoms: N2_7  and  C4_9 
ROOT
HETATM    1  C2  UNL     1      21.541   8.311  -3.047  1.00  0.00     0.123 C 
HETATM    2  C8  UNL     1      21.004   9.716  -3.392  1.00  0.00     0.034 C 
HETATM    3  C9  UNL     1      21.182   9.687  -4.874  1.00  0.00    -0.012 C 
HETATM    4  C10 UNL     1      22.532   8.995  -5.119  1.00  0.00     0.011 C 
HETATM    5  C11 UNL     1      21.836   7.826  -4.433  1.00  0.00     0.013 C 
HETATM    6  C12 UNL     1      20.612   8.297  -5.198  1.00  0.00     0.011 C 
ENDROOT
BRANCH   1   7
HETATM    7  C1  UNL     1      20.516   7.496  -2.397  1.00  0.00     0.249 C 
HETATM    8  N1  UNL     1      19.400   7.961  -1.679  1.00  0.00    -0.061 NA
HETATM    9  O1  UNL     1      20.638   6.232  -2.484  1.00  0.00    -0.275 OA
ENDBRANCH   1   7
BRANCH   1  10
HETATM   10  C3  UNL     1      22.731   8.415  -2.193  1.00  0.00     0.236 C 
HETATM   11  O2  UNL     1      23.209   9.520  -1.908  1.00  0.00    -0.272 OA
HETATM   12  N2  UNL     1      23.330   7.228  -1.696  1.00  0.00    -0.355 N 
ATOM     13  H2  UNL     1      22.931   6.320  -1.932  1.00  0.00     0.162 HD
BRANCH  12  14
HETATM   14  C4  UNL     1      24.506   7.306  -0.852  1.00  0.00     0.084 C 
HETATM   15  C5  UNL     1      25.062   5.960  -0.459  1.00  0.00     0.025 C 
HETATM   16  C6  UNL     1      25.303   6.531   0.931  1.00  0.00     0.004 C 
HETATM   17  C7  UNL     1      24.195   7.538   0.627  1.00  0.00     0.025 C 
ENDBRANCH  12  14
ENDBRANCH   1  10
TORSDOF 3
ENDMDL
