MODEL 1
REMARK VINA RESULT: -4.016409018      0.000      0.000
REMARK  5 active torsions:
REMARK  status: ('A' for Active; 'I' for Inactive)
REMARK    1  A    between atoms: C2_2  and  N1_3 
REMARK    2  A    between atoms: N1_3  and  C3_5 
REMARK    3  A    between atoms: C3_5  and  N2_7 
REMARK    4  A    between atoms: C7_11  and  C8_12 
REMARK    5  A    between atoms: C8_12  and  N3_13 
ROOT
HETATM    1  N2  UNL     1      21.499   9.091  -5.170  1.00  0.00    -0.358 N 
HETATM    2  C4  UNL     1      21.209   7.700  -5.116  1.00  0.00     0.130 C 
HETATM    3  C5  UNL     1      21.634   7.314  -3.708  1.00  0.00     0.007 C 
HETATM    4  C6  UNL     1      21.086   5.976  -3.307  1.00  0.00     0.012 C 
HETATM    5  C7  UNL     1      21.114   8.473  -2.911  1.00  0.00     0.034 C 
HETATM    6  C10 UNL     1      21.600   9.605  -3.782  1.00  0.00     0.132 C 
ENDROOT
BRANCH   1   7
HETATM    7  C3  UNL     1      21.633   9.953  -6.266  1.00  0.00     0.169 C 
HETATM    8  S1  UNL     1      22.207  11.482  -5.954  1.00  0.00    -0.041 SA
BRANCH   7   9
HETATM    9  N1  UNL     1      21.330   9.620  -7.584  1.00  0.00    -0.367 N 
ATOM     10  H1  UNL     1      20.395   9.855  -7.918  1.00  0.00     0.161 HD
BRANCH   9  11
HETATM   11  C2  UNL     1      22.199   8.986  -8.501  1.00  0.00     0.117 C 
HETATM   12  C1  UNL     1      21.831   9.469  -9.923  1.00  0.00     0.026 C 
ENDBRANCH   9  11
ENDBRANCH   7   9
ENDBRANCH   1   7
BRANCH   5  13
HETATM   13  C8  UNL     1      19.616   8.502  -2.803  1.00  0.00     0.238 C 
BRANCH  13  14
HETATM   14  N3  UNL     1      19.143   8.323  -1.465  1.00  0.00    -0.079 N 
HETATM   15  C9  UNL     1      18.125   7.290  -1.370  1.00  0.00     0.267 C 
ATOM     16  H32 UNL     1      19.915   8.138  -0.823  1.00  0.00     0.276 HD
ATOM     17  H31 UNL     1      18.811   9.204  -1.071  1.00  0.00     0.276 HD
ENDBRANCH  13  14
ENDBRANCH   5  13
TORSDOF 5
ENDMDL
MODEL 2
REMARK VINA RESULT: -4.015476799      1.540      2.127
REMARK  5 active torsions:
REMARK  status: ('A' for Active; 'I' for Inactive)
REMARK    1  A    between atoms: C2_2  and  N1_3 
REMARK    2  A    between atoms: N1_3  and  C3_5 
REMARK    3  A    between atoms: C3_5  and  N2_7 
REMARK    4  A    between atoms: C7_11  and  C8_12 
REMARK    5  A    between atoms: C8_12  and  N3_13 
ROOT
HETATM    1  N2  UNL     1      21.474   9.111  -5.188  1.00  0.00    -0.358 N 
HETATM    2  C4  UNL     1      21.191   7.718  -5.131  1.00  0.00     0.130 C 
HETATM    3  C5  UNL     1      21.616   7.340  -3.720  1.00  0.00     0.007 C 
HETATM    4  C6  UNL     1      21.074   6.000  -3.315  1.00  0.00     0.012 C 
HETATM    5  C7  UNL     1      21.088   8.498  -2.928  1.00  0.00     0.034 C 
HETATM    6  C10 UNL     1      21.569   9.630  -3.802  1.00  0.00     0.132 C 
ENDROOT
BRANCH   1   7
HETATM    7  C3  UNL     1      21.605   9.969  -6.287  1.00  0.00     0.169 C 
HETATM    8  S1  UNL     1      21.779   9.257  -7.780  1.00  0.00    -0.041 SA
BRANCH   7   9
HETATM    9  N1  UNL     1      21.594  11.360  -6.219  1.00  0.00    -0.367 N 
ATOM     10  H1  UNL     1      20.733  11.801  -5.894  1.00  0.00     0.161 HD
BRANCH   9  11
HETATM   11  C2  UNL     1      22.666  12.217  -6.558  1.00  0.00     0.117 C 
HETATM   12  C1  UNL     1      22.759  13.319  -5.477  1.00  0.00     0.026 C 
ENDBRANCH   9  11
ENDBRANCH   7   9
ENDBRANCH   1   7
BRANCH   5  13
HETATM   13  C8  UNL     1      19.590   8.520  -2.822  1.00  0.00     0.238 C 
BRANCH  13  14
HETATM   14  N3  UNL     1      19.116   8.352  -1.483  1.00  0.00    -0.079 N 
HETATM   15  C9  UNL     1      18.130   7.290  -1.373  1.00  0.00     0.267 C 
ATOM     16  H32 UNL     1      19.889   8.204  -0.835  1.00  0.00     0.276 HD
ATOM     17  H31 UNL     1      18.754   9.230  -1.109  1.00  0.00     0.276 HD
ENDBRANCH  13  14
ENDBRANCH   5  13
TORSDOF 5
ENDMDL
MODEL 3
REMARK VINA RESULT: -3.950987634      2.351      5.481
REMARK  5 active torsions:
REMARK  status: ('A' for Active; 'I' for Inactive)
REMARK    1  A    between atoms: C2_2  and  N1_3 
REMARK    2  A    between atoms: N1_3  and  C3_5 
REMARK    3  A    between atoms: C3_5  and  N2_7 
REMARK    4  A    between atoms: C7_11  and  C8_12 
REMARK    5  A    between atoms: C8_12  and  N3_13 
ROOT
HETATM    1  N2  UNL     1      21.460   7.856  -4.309  1.00  0.00    -0.358 N 
HETATM    2  C4  UNL     1      22.354   7.751  -5.409  1.00  0.00     0.130 C 
HETATM    3  C5  UNL     1      21.571   8.381  -6.551  1.00  0.00     0.007 C 
HETATM    4  C6  UNL     1      22.453   8.707  -7.720  1.00  0.00     0.012 C 
HETATM    5  C7  UNL     1      20.959   9.571  -5.873  1.00  0.00     0.034 C 
HETATM    6  C10 UNL     1      20.454   8.902  -4.618  1.00  0.00     0.132 C 
ENDROOT
BRANCH   1   7
HETATM    7  C3  UNL     1      21.451   7.194  -3.075  1.00  0.00     0.169 C 
HETATM    8  S1  UNL     1      22.841   7.282  -2.166  1.00  0.00    -0.041 SA
BRANCH   7   9
HETATM    9  N1  UNL     1      20.371   6.482  -2.559  1.00  0.00    -0.367 N 
ATOM     10  H1  UNL     1      19.601   7.026  -2.169  1.00  0.00     0.161 HD
BRANCH   9  11
HETATM   11  C2  UNL     1      20.245   5.074  -2.526  1.00  0.00     0.117 C 
HETATM   12  C1  UNL     1      18.930   4.727  -1.790  1.00  0.00     0.026 C 
ENDBRANCH   9  11
ENDBRANCH   7   9
ENDBRANCH   1   7
BRANCH   5  13
HETATM   13  C8  UNL     1      21.954  10.642  -5.529  1.00  0.00     0.238 C 
BRANCH  13  14
HETATM   14  N3  UNL     1      21.634  11.914  -6.100  1.00  0.00    -0.079 N 
HETATM   15  C9  UNL     1      22.543  12.962  -5.666  1.00  0.00     0.267 C 
ATOM     16  H32 UNL     1      21.594  11.861  -7.118  1.00  0.00     0.276 HD
ATOM     17  H31 UNL     1      20.664  12.168  -5.912  1.00  0.00     0.276 HD
ENDBRANCH  13  14
ENDBRANCH   5  13
TORSDOF 5
ENDMDL
MODEL 4
REMARK VINA RESULT: -3.914817431      2.287      5.325
REMARK  5 active torsions:
REMARK  status: ('A' for Active; 'I' for Inactive)
REMARK    1  A    between atoms: C2_2  and  N1_3 
REMARK    2  A    between atoms: N1_3  and  C3_5 
REMARK    3  A    between atoms: C3_5  and  N2_7 
REMARK    4  A    between atoms: C7_11  and  C8_12 
REMARK    5  A    between atoms: C8_12  and  N3_13 
ROOT
HETATM    1  N2  UNL     1      21.201   7.990  -4.637  1.00  0.00    -0.358 N 
HETATM    2  C4  UNL     1      22.303   7.619  -5.454  1.00  0.00     0.130 C 
HETATM    3  C5  UNL     1      21.839   8.001  -6.851  1.00  0.00     0.007 C 
HETATM    4  C6  UNL     1      22.978   8.035  -7.828  1.00  0.00     0.012 C 
HETATM    5  C7  UNL     1      21.187   9.328  -6.598  1.00  0.00     0.034 C 
HETATM    6  C10 UNL     1      20.370   8.968  -5.381  1.00  0.00     0.132 C 
ENDROOT
BRANCH   1   7
HETATM    7  C3  UNL     1      20.872   7.619  -3.327  1.00  0.00     0.169 C 
HETATM    8  S1  UNL     1      19.849   8.632  -2.494  1.00  0.00    -0.041 SA
BRANCH   7   9
HETATM    9  N1  UNL     1      21.330   6.472  -2.684  1.00  0.00    -0.367 N 
ATOM     10  H1  UNL     1      22.017   6.601  -1.940  1.00  0.00     0.161 HD
BRANCH   9  11
HETATM   11  C2  UNL     1      20.931   5.146  -2.968  1.00  0.00     0.117 C 
HETATM   12  C1  UNL     1      19.623   4.862  -2.193  1.00  0.00     0.026 C 
ENDBRANCH   9  11
ENDBRANCH   7   9
ENDBRANCH   1   7
BRANCH   5  13
HETATM   13  C8  UNL     1      22.162  10.421  -6.268  1.00  0.00     0.238 C 
BRANCH  13  14
HETATM   14  N3  UNL     1      21.571  11.724  -6.267  1.00  0.00    -0.079 N 
HETATM   15  C9  UNL     1      22.445  12.730  -5.687  1.00  0.00     0.267 C 
ATOM     16  H32 UNL     1      21.272  11.993  -7.205  1.00  0.00     0.276 HD
ATOM     17  H31 UNL     1      20.662  11.715  -5.803  1.00  0.00     0.276 HD
ENDBRANCH  13  14
ENDBRANCH   5  13
TORSDOF 5
ENDMDL
MODEL 5
REMARK VINA RESULT: -3.914760117      2.214      5.503
REMARK  5 active torsions:
REMARK  status: ('A' for Active; 'I' for Inactive)
REMARK    1  A    between atoms: C2_2  and  N1_3 
REMARK    2  A    between atoms: N1_3  and  C3_5 
REMARK    3  A    between atoms: C3_5  and  N2_7 
REMARK    4  A    between atoms: C7_11  and  C8_12 
REMARK    5  A    between atoms: C8_12  and  N3_13 
ROOT
HETATM    1  N2  UNL     1      21.153   8.092  -4.869  1.00  0.00    -0.358 N 
HETATM    2  C4  UNL     1      22.298   7.751  -5.639  1.00  0.00     0.130 C 
HETATM    3  C5  UNL     1      21.910   8.188  -7.043  1.00  0.00     0.007 C 
HETATM    4  C6  UNL     1      23.099   8.258  -7.955  1.00  0.00     0.012 C 
HETATM    5  C7  UNL     1      21.245   9.505  -6.774  1.00  0.00     0.034 C 
HETATM    6  C10 UNL     1      20.363   9.100  -5.618  1.00  0.00     0.132 C 
ENDROOT
BRANCH   1   7
HETATM    7  C3  UNL     1      20.754   7.672  -3.593  1.00  0.00     0.169 C 
HETATM    8  S1  UNL     1      21.552   6.362  -2.951  1.00  0.00    -0.041 SA
BRANCH   7   9
HETATM    9  N1  UNL     1      19.754   8.270  -2.832  1.00  0.00    -0.367 N 
ATOM     10  H1  UNL     1      19.200   8.998  -3.285  1.00  0.00     0.161 HD
BRANCH   9  11
HETATM   11  C2  UNL     1      19.435   7.963  -1.490  1.00  0.00     0.117 C 
HETATM   12  C1  UNL     1      18.051   7.272  -1.471  1.00  0.00     0.026 C 
ENDBRANCH   9  11
ENDBRANCH   7   9
ENDBRANCH   1   7
BRANCH   5  13
HETATM   13  C8  UNL     1      22.200  10.583  -6.350  1.00  0.00     0.238 C 
BRANCH  13  14
HETATM   14  N3  UNL     1      21.582  11.868  -6.225  1.00  0.00    -0.079 N 
HETATM   15  C9  UNL     1      22.479  12.862  -5.661  1.00  0.00     0.267 C 
ATOM     16  H32 UNL     1      21.201  12.181  -7.119  1.00  0.00     0.276 HD
ATOM     17  H31 UNL     1      20.715  11.808  -5.690  1.00  0.00     0.276 HD
ENDBRANCH  13  14
ENDBRANCH   5  13
TORSDOF 5
ENDMDL
