MODEL 1
REMARK VINA RESULT: -5.083631307      0.000      0.000
REMARK  3 active torsions:
REMARK  status: ('A' for Active; 'I' for Inactive)
REMARK    1  A    between atoms: C3_3  and  C4_4 
REMARK    2  A    between atoms: C8_8  and  C9_9 
REMARK    3  A    between atoms: C11_13  and  C12_14 
ROOT
HETATM    1  C1  UNL     1      18.153   5.255  -1.124  1.00  0.00     0.096 C 
HETATM    2  C2  UNL     1      18.408   6.478  -1.539  1.00  0.00    -0.187 C 
HETATM    3  C3  UNL     1      18.750   7.682  -1.901  1.00  0.00     0.084 C 
ENDROOT
BRANCH   3   4
HETATM    4  C4  UNL     1      20.166   8.004  -1.876  1.00  0.00     0.002 C 
HETATM    5  C5  UNL     1      20.408   9.493  -2.179  1.00  0.00     0.011 C 
HETATM    6  C6  UNL     1      20.868   9.548  -3.591  1.00  0.00     0.001 C 
HETATM    7  C7  UNL     1      22.343   9.170  -3.656  1.00  0.00     0.021 C 
HETATM    8  C11 UNL     1      20.318   8.211  -4.143  1.00  0.00     0.096 C 
HETATM    9  C8  UNL     1      22.325   7.825  -2.909  1.00  0.00     0.092 C 
HETATM   10  C10 UNL     1      20.936   7.349  -3.066  1.00  0.00     0.019 C 
BRANCH   9  11
HETATM   11  C9  UNL     1      23.400   6.921  -3.290  1.00  0.00     0.177 C 
HETATM   12  O1  UNL     1      24.124   7.144  -4.262  1.00  0.00    -0.648 OA
HETATM   13  O2  UNL     1      23.643   5.760  -2.560  1.00  0.00    -0.648 OA
ENDBRANCH   9  11
BRANCH   8  14
HETATM   14  C12 UNL     1      20.787   8.057  -5.492  1.00  0.00     0.177 C 
HETATM   15  O3  UNL     1      21.212   6.998  -5.975  1.00  0.00    -0.648 OA
HETATM   16  O4  UNL     1      20.765   9.172  -6.332  1.00  0.00    -0.648 OA
ENDBRANCH   8  14
ENDBRANCH   3   4
TORSDOF 3
ENDMDL
MODEL 2
REMARK VINA RESULT: -4.892281804      1.804      3.802
REMARK  3 active torsions:
REMARK  status: ('A' for Active; 'I' for Inactive)
REMARK    1  A    between atoms: C3_3  and  C4_4 
REMARK    2  A    between atoms: C8_8  and  C9_9 
REMARK    3  A    between atoms: C11_13  and  C12_14 
ROOT
HETATM    1  C1  UNL     1      18.515   7.319  -1.150  1.00  0.00     0.096 C 
HETATM    2  C2  UNL     1      19.250   8.205  -1.787  1.00  0.00    -0.187 C 
HETATM    3  C3  UNL     1      19.998   9.010  -2.486  1.00  0.00     0.084 C 
ENDROOT
BRANCH   3   4
HETATM    4  C4  UNL     1      20.253   8.645  -3.868  1.00  0.00     0.002 C 
HETATM    5  C5  UNL     1      21.090   7.358  -3.964  1.00  0.00     0.011 C 
HETATM    6  C6  UNL     1      22.473   7.798  -4.284  1.00  0.00     0.001 C 
HETATM    7  C7  UNL     1      22.570   8.117  -5.772  1.00  0.00     0.021 C 
HETATM    8  C11 UNL     1      22.448   9.265  -3.791  1.00  0.00     0.096 C 
HETATM    9  C8  UNL     1      21.397   9.100  -5.929  1.00  0.00     0.092 C 
HETATM   10  C10 UNL     1      21.213   9.656  -4.572  1.00  0.00     0.019 C 
BRANCH   9  11
HETATM   11  C9  UNL     1      21.555  10.038  -7.031  1.00  0.00     0.177 C 
HETATM   12  O1  UNL     1      21.835  11.223  -6.843  1.00  0.00    -0.648 OA
HETATM   13  O2  UNL     1      21.390   9.618  -8.348  1.00  0.00    -0.648 OA
ENDBRANCH   9  11
BRANCH   8  14
HETATM   14  C12 UNL     1      23.698   9.877  -4.141  1.00  0.00     0.177 C 
HETATM   15  O3  UNL     1      23.839  11.068  -4.450  1.00  0.00    -0.648 OA
HETATM   16  O4  UNL     1      24.848   9.085  -4.136  1.00  0.00    -0.648 OA
ENDBRANCH   8  14
ENDBRANCH   3   4
TORSDOF 3
ENDMDL
MODEL 3
REMARK VINA RESULT: -4.880394502      1.814      3.389
REMARK  3 active torsions:
REMARK  status: ('A' for Active; 'I' for Inactive)
REMARK    1  A    between atoms: C3_3  and  C4_4 
REMARK    2  A    between atoms: C8_8  and  C9_9 
REMARK    3  A    between atoms: C11_13  and  C12_14 
ROOT
HETATM    1  C1  UNL     1      17.351   6.361  -1.472  1.00  0.00     0.096 C 
HETATM    2  C2  UNL     1      18.383   7.178  -1.493  1.00  0.00    -0.187 C 
HETATM    3  C3  UNL     1      19.440   7.932  -1.592  1.00  0.00     0.084 C 
ENDROOT
BRANCH   3   4
HETATM    4  C4  UNL     1      20.151   7.913  -2.858  1.00  0.00     0.002 C 
HETATM    5  C5  UNL     1      20.835   6.556  -3.098  1.00  0.00     0.011 C 
HETATM    6  C6  UNL     1      22.274   6.770  -2.795  1.00  0.00     0.001 C 
HETATM    7  C7  UNL     1      22.944   7.454  -3.980  1.00  0.00     0.021 C 
HETATM    8  C11 UNL     1      22.211   8.018  -1.882  1.00  0.00     0.096 C 
HETATM    9  C8  UNL     1      22.014   8.665  -4.172  1.00  0.00     0.092 C 
HETATM   10  C10 UNL     1      21.397   8.854  -2.843  1.00  0.00     0.019 C 
BRANCH   9  11
HETATM   11  C9  UNL     1      22.658   9.813  -4.792  1.00  0.00     0.177 C 
HETATM   12  O1  UNL     1      22.422  10.967  -4.430  1.00  0.00    -0.648 OA
HETATM   13  O2  UNL     1      23.572   9.640  -5.829  1.00  0.00    -0.648 OA
ENDBRANCH   9  11
BRANCH   8  14
HETATM   14  C12 UNL     1      23.556   8.429  -1.591  1.00  0.00     0.177 C 
HETATM   15  O3  UNL     1      24.502   7.656  -1.388  1.00  0.00    -0.648 OA
HETATM   16  O4  UNL     1      23.832   9.796  -1.531  1.00  0.00    -0.648 OA
ENDBRANCH   8  14
ENDBRANCH   3   4
TORSDOF 3
ENDMDL
MODEL 4
REMARK VINA RESULT: -4.877995668      1.411      1.941
REMARK  3 active torsions:
REMARK  status: ('A' for Active; 'I' for Inactive)
REMARK    1  A    between atoms: C3_3  and  C4_4 
REMARK    2  A    between atoms: C8_8  and  C9_9 
REMARK    3  A    between atoms: C11_13  and  C12_14 
ROOT
HETATM    1  C1  UNL     1      18.644   4.841  -1.551  1.00  0.00     0.096 C 
HETATM    2  C2  UNL     1      19.702   5.156  -2.268  1.00  0.00    -0.187 C 
HETATM    3  C3  UNL     1      20.732   5.565  -2.952  1.00  0.00     0.084 C 
ENDROOT
BRANCH   3   4
HETATM    4  C4  UNL     1      21.268   6.874  -2.624  1.00  0.00     0.002 C 
HETATM    5  C5  UNL     1      20.150   7.922  -2.490  1.00  0.00     0.011 C 
HETATM    6  C6  UNL     1      20.182   8.710  -3.749  1.00  0.00     0.001 C 
HETATM    7  C7  UNL     1      21.312   9.729  -3.679  1.00  0.00     0.021 C 
HETATM    8  C11 UNL     1      20.893   7.724  -4.707  1.00  0.00     0.096 C 
HETATM    9  C8  UNL     1      22.496   8.816  -3.316  1.00  0.00     0.092 C 
HETATM   10  C10 UNL     1      22.083   7.485  -3.807  1.00  0.00     0.019 C 
BRANCH   9  11
HETATM   11  C9  UNL     1      23.790   9.327  -3.746  1.00  0.00     0.177 C 
HETATM   12  O1  UNL     1      24.147  10.481  -3.506  1.00  0.00    -0.648 OA
HETATM   13  O2  UNL     1      24.673   8.514  -4.454  1.00  0.00    -0.648 OA
ENDBRANCH   9  11
BRANCH   8  14
HETATM   14  C12 UNL     1      21.108   8.392  -5.960  1.00  0.00     0.177 C 
HETATM   15  O3  UNL     1      22.143   8.309  -6.636  1.00  0.00    -0.648 OA
HETATM   16  O4  UNL     1      20.085   9.197  -6.465  1.00  0.00    -0.648 OA
ENDBRANCH   8  14
ENDBRANCH   3   4
TORSDOF 3
ENDMDL
MODEL 5
REMARK VINA RESULT: -4.796290986      2.354      4.576
REMARK  3 active torsions:
REMARK  status: ('A' for Active; 'I' for Inactive)
REMARK    1  A    between atoms: C3_3  and  C4_4 
REMARK    2  A    between atoms: C8_8  and  C9_9 
REMARK    3  A    between atoms: C11_13  and  C12_14 
ROOT
HETATM    1  C1  UNL     1      22.014   8.995  -8.398  1.00  0.00     0.096 C 
HETATM    2  C2  UNL     1      21.960   8.263  -7.305  1.00  0.00    -0.187 C 
HETATM    3  C3  UNL     1      21.856   7.614  -6.181  1.00  0.00     0.084 C 
ENDROOT
BRANCH   3   4
HETATM    4  C4  UNL     1      20.810   8.039  -5.266  1.00  0.00     0.002 C 
HETATM    5  C5  UNL     1      20.841   9.561  -5.045  1.00  0.00     0.011 C 
HETATM    6  C6  UNL     1      21.477   9.763  -3.717  1.00  0.00     0.001 C 
HETATM    7  C7  UNL     1      20.451   9.502  -2.621  1.00  0.00     0.021 C 
HETATM    8  C11 UNL     1      22.257   8.437  -3.548  1.00  0.00     0.096 C 
HETATM    9  C8  UNL     1      19.952   8.104  -3.025  1.00  0.00     0.092 C 
HETATM   10  C10 UNL     1      21.069   7.540  -3.810  1.00  0.00     0.019 C 
BRANCH   9  11
HETATM   11  C9  UNL     1      19.434   7.317  -1.916  1.00  0.00     0.177 C 
HETATM   12  O1  UNL     1      18.952   7.843  -0.912  1.00  0.00    -0.648 OA
HETATM   13  O2  UNL     1      19.472   5.925  -1.957  1.00  0.00    -0.648 OA
ENDBRANCH   9  11
BRANCH   8  14
HETATM   14  C12 UNL     1      22.845   8.426  -2.238  1.00  0.00     0.177 C 
HETATM   15  O3  UNL     1      22.904   7.434  -1.499  1.00  0.00    -0.648 OA
HETATM   16  O4  UNL     1      23.395   9.613  -1.749  1.00  0.00    -0.648 OA
ENDBRANCH   8  14
ENDBRANCH   3   4
TORSDOF 3
ENDMDL
