MODEL 1
REMARK VINA RESULT: -4.283363239      0.000      0.000
REMARK  3 active torsions:
REMARK  status: ('A' for Active; 'I' for Inactive)
REMARK    1  A    between atoms: N1_1  and  S1_4 
REMARK    2  A    between atoms: S1_4  and  N2_7 
REMARK    3  A    between atoms: N2_7  and  C1_9 
ROOT
HETATM    1  C1  UNL     1      21.856   7.513  -4.472  1.00  0.00     0.102 C 
HETATM    2  C2  UNL     1      22.827   7.824  -5.597  1.00  0.00     0.010 C 
HETATM    3  C3  UNL     1      22.139   8.077  -6.899  1.00  0.00     0.011 C 
HETATM    4  C4  UNL     1      21.186   9.229  -6.756  1.00  0.00    -0.013 C 
HETATM    5  C5  UNL     1      21.938  10.456  -6.330  1.00  0.00     0.009 C 
HETATM    6  C6  UNL     1      22.594  10.194  -4.973  1.00  0.00    -0.013 C 
HETATM    7  C7  UNL     1      23.580   9.079  -5.168  1.00  0.00     0.011 C 
HETATM    8  C8  UNL     1      21.495   9.868  -4.009  1.00  0.00     0.011 C 
HETATM    9  C9  UNL     1      20.804   8.575  -4.410  1.00  0.00     0.010 C 
HETATM   10  C10 UNL     1      20.137   8.826  -5.738  1.00  0.00     0.011 C 
ENDROOT
BRANCH   1  11
HETATM   11  N2  UNL     1      21.323   6.176  -4.571  1.00  0.00    -0.297 N 
ATOM     12  H2  UNL     1      20.800   5.825  -5.374  1.00  0.00     0.174 HD
BRANCH  11  13
HETATM   13  S1  UNL     1      21.678   5.246  -3.165  1.00  0.00     0.313 S 
HETATM   14  O1  UNL     1      20.431   4.753  -2.536  1.00  0.00    -0.183 OA
HETATM   15  O2  UNL     1      22.430   6.143  -2.203  1.00  0.00    -0.183 OA
BRANCH  13  16
HETATM   16  N1  UNL     1      22.742   3.943  -3.575  1.00  0.00    -0.312 N 
ATOM     17  H12 UNL     1      22.429   2.980  -3.696  1.00  0.00     0.170 HD
ATOM     18  H11 UNL     1      23.705   4.263  -3.677  1.00  0.00     0.170 HD
ENDBRANCH  13  16
ENDBRANCH  11  13
ENDBRANCH   1  11
TORSDOF 3
ENDMDL
MODEL 2
REMARK VINA RESULT: -4.206642388      2.617      3.333
REMARK  3 active torsions:
REMARK  status: ('A' for Active; 'I' for Inactive)
REMARK    1  A    between atoms: N1_1  and  S1_4 
REMARK    2  A    between atoms: S1_4  and  N2_7 
REMARK    3  A    between atoms: N2_7  and  C1_9 
ROOT
HETATM    1  C1  UNL     1      22.349   7.046  -2.122  1.00  0.00     0.102 C 
HETATM    2  C2  UNL     1      22.797   8.230  -2.960  1.00  0.00     0.010 C 
HETATM    3  C3  UNL     1      22.800   7.933  -4.424  1.00  0.00     0.011 C 
HETATM    4  C4  UNL     1      21.421   7.528  -4.864  1.00  0.00    -0.013 C 
HETATM    5  C5  UNL     1      20.453   8.636  -4.570  1.00  0.00     0.009 C 
HETATM    6  C6  UNL     1      20.428   8.892  -3.062  1.00  0.00    -0.013 C 
HETATM    7  C7  UNL     1      21.803   9.350  -2.670  1.00  0.00     0.011 C 
HETATM    8  C8  UNL     1      20.007   7.613  -2.407  1.00  0.00     0.011 C 
HETATM    9  C9  UNL     1      21.045   6.529  -2.642  1.00  0.00     0.010 C 
HETATM   10  C10 UNL     1      21.065   6.254  -4.124  1.00  0.00     0.011 C 
ENDROOT
BRANCH   1  11
HETATM   11  N2  UNL     1      23.373   6.034  -2.023  1.00  0.00    -0.297 N 
ATOM     12  H2  UNL     1      23.392   5.181  -2.582  1.00  0.00     0.174 HD
BRANCH  11  13
HETATM   13  S1  UNL     1      24.559   6.447  -0.844  1.00  0.00     0.313 S 
HETATM   14  O1  UNL     1      24.046   7.496   0.068  1.00  0.00    -0.183 OA
HETATM   15  O2  UNL     1      25.783   6.948  -1.582  1.00  0.00    -0.183 OA
BRANCH  13  16
HETATM   16  N1  UNL     1      25.042   5.030   0.026  1.00  0.00    -0.312 N 
ATOM     17  H12 UNL     1      24.441   4.214   0.148  1.00  0.00     0.170 HD
ATOM     18  H11 UNL     1      25.989   5.119   0.393  1.00  0.00     0.170 HD
ENDBRANCH  13  16
ENDBRANCH  11  13
ENDBRANCH   1  11
TORSDOF 3
ENDMDL
MODEL 3
REMARK VINA RESULT: -4.171054470      3.942      5.002
REMARK  3 active torsions:
REMARK  status: ('A' for Active; 'I' for Inactive)
REMARK    1  A    between atoms: N1_1  and  S1_4 
REMARK    2  A    between atoms: S1_4  and  N2_7 
REMARK    3  A    between atoms: N2_7  and  C1_9 
ROOT
HETATM    1  C1  UNL     1      22.227   9.211  -4.072  1.00  0.00     0.102 C 
HETATM    2  C2  UNL     1      21.611   8.911  -2.718  1.00  0.00     0.010 C 
HETATM    3  C3  UNL     1      20.436   7.993  -2.808  1.00  0.00     0.011 C 
HETATM    4  C4  UNL     1      20.850   6.697  -3.444  1.00  0.00    -0.013 C 
HETATM    5  C5  UNL     1      21.935   6.058  -2.626  1.00  0.00     0.009 C 
HETATM    6  C6  UNL     1      23.146   6.992  -2.585  1.00  0.00    -0.013 C 
HETATM    7  C7  UNL     1      22.710   8.250  -1.893  1.00  0.00     0.011 C 
HETATM    8  C8  UNL     1      23.585   7.201  -4.002  1.00  0.00     0.011 C 
HETATM    9  C9  UNL     1      22.509   7.928  -4.789  1.00  0.00     0.010 C 
HETATM   10  C10 UNL     1      21.314   7.010  -4.852  1.00  0.00     0.011 C 
ENDROOT
BRANCH   1  11
HETATM   11  N2  UNL     1      21.427  10.137  -4.837  1.00  0.00    -0.297 N 
ATOM     12  H2  UNL     1      20.407  10.125  -4.869  1.00  0.00     0.174 HD
BRANCH  11  13
HETATM   13  S1  UNL     1      22.409  11.266  -5.692  1.00  0.00     0.313 S 
HETATM   14  O1  UNL     1      22.922  10.667  -6.946  1.00  0.00    -0.183 OA
HETATM   15  O2  UNL     1      23.561  11.647  -4.785  1.00  0.00    -0.183 OA
BRANCH  13  16
HETATM   16  N1  UNL     1      21.510  12.713  -5.999  1.00  0.00    -0.312 N 
ATOM     17  H12 UNL     1      20.836  12.805  -6.759  1.00  0.00     0.170 HD
ATOM     18  H11 UNL     1      21.741  13.447  -5.330  1.00  0.00     0.170 HD
ENDBRANCH  13  16
ENDBRANCH  11  13
ENDBRANCH   1  11
TORSDOF 3
ENDMDL
MODEL 4
REMARK VINA RESULT: -4.170784272      3.673      4.843
REMARK  3 active torsions:
REMARK  status: ('A' for Active; 'I' for Inactive)
REMARK    1  A    between atoms: N1_1  and  S1_4 
REMARK    2  A    between atoms: S1_4  and  N2_7 
REMARK    3  A    between atoms: N2_7  and  C1_9 
ROOT
HETATM    1  C1  UNL     1      21.567   8.608  -4.361  1.00  0.00     0.102 C 
HETATM    2  C2  UNL     1      22.347   7.421  -4.895  1.00  0.00     0.010 C 
HETATM    3  C3  UNL     1      23.579   7.135  -4.101  1.00  0.00     0.011 C 
HETATM    4  C4  UNL     1      23.210   6.862  -2.670  1.00  0.00    -0.013 C 
HETATM    5  C5  UNL     1      22.278   5.687  -2.605  1.00  0.00     0.009 C 
HETATM    6  C6  UNL     1      21.003   6.018  -3.384  1.00  0.00    -0.013 C 
HETATM    7  C7  UNL     1      21.402   6.226  -4.816  1.00  0.00     0.011 C 
HETATM    8  C8  UNL     1      20.398   7.229  -2.742  1.00  0.00     0.011 C 
HETATM    9  C9  UNL     1      21.319   8.427  -2.897  1.00  0.00     0.010 C 
HETATM   10  C10 UNL     1      22.573   8.121  -2.117  1.00  0.00     0.011 C 
ENDROOT
BRANCH   1  11
HETATM   11  N2  UNL     1      22.198   9.863  -4.690  1.00  0.00    -0.297 N 
ATOM     12  H2  UNL     1      22.810  10.381  -4.057  1.00  0.00     0.174 HD
BRANCH  11  13
HETATM   13  S1  UNL     1      21.792  10.379  -6.283  1.00  0.00     0.313 S 
HETATM   14  O1  UNL     1      20.586   9.670  -6.769  1.00  0.00    -0.183 OA
HETATM   15  O2  UNL     1      22.975  10.073  -7.177  1.00  0.00    -0.183 OA
BRANCH  13  16
HETATM   16  N1  UNL     1      21.574  12.096  -6.307  1.00  0.00    -0.312 N 
ATOM     17  H12 UNL     1      21.329  12.642  -5.481  1.00  0.00     0.170 HD
ATOM     18  H11 UNL     1      21.719  12.479  -7.240  1.00  0.00     0.170 HD
ENDBRANCH  13  16
ENDBRANCH  11  13
ENDBRANCH   1  11
TORSDOF 3
ENDMDL
MODEL 5
REMARK VINA RESULT: -4.161863512      3.829      4.838
REMARK  3 active torsions:
REMARK  status: ('A' for Active; 'I' for Inactive)
REMARK    1  A    between atoms: N1_1  and  S1_4 
REMARK    2  A    between atoms: S1_4  and  N2_7 
REMARK    3  A    between atoms: N2_7  and  C1_9 
ROOT
HETATM    1  C1  UNL     1      22.179   9.240  -4.828  1.00  0.00     0.102 C 
HETATM    2  C2  UNL     1      20.908   8.418  -4.938  1.00  0.00     0.010 C 
HETATM    3  C3  UNL     1      21.170   6.947  -4.943  1.00  0.00     0.011 C 
HETATM    4  C4  UNL     1      21.888   6.554  -3.683  1.00  0.00    -0.013 C 
HETATM    5  C5  UNL     1      21.052   6.919  -2.491  1.00  0.00     0.009 C 
HETATM    6  C6  UNL     1      20.835   8.434  -2.478  1.00  0.00    -0.013 C 
HETATM    7  C7  UNL     1      20.066   8.780  -3.719  1.00  0.00     0.011 C 
HETATM    8  C8  UNL     1      22.189   9.070  -2.407  1.00  0.00     0.011 C 
HETATM    9  C9  UNL     1      22.986   8.761  -3.663  1.00  0.00     0.010 C 
HETATM   10  C10 UNL     1      23.223   7.272  -3.679  1.00  0.00     0.011 C 
ENDROOT
BRANCH   1  11
HETATM   11  N2  UNL     1      22.915   9.267  -6.069  1.00  0.00    -0.297 N 
ATOM     12  H2  UNL     1      23.743   8.701  -6.258  1.00  0.00     0.174 HD
BRANCH  11  13
HETATM   13  S1  UNL     1      22.223  10.376  -7.191  1.00  0.00     0.313 S 
HETATM   14  O1  UNL     1      21.185   9.709  -8.012  1.00  0.00    -0.183 OA
HETATM   15  O2  UNL     1      23.341  10.888  -8.076  1.00  0.00    -0.183 OA
BRANCH  13  16
HETATM   16  N1  UNL     1      21.584  11.746  -6.347  1.00  0.00    -0.312 N 
ATOM     17  H12 UNL     1      21.484  12.669  -6.769  1.00  0.00     0.170 HD
ATOM     18  H11 UNL     1      21.326  11.509  -5.389  1.00  0.00     0.170 HD
ENDBRANCH  13  16
ENDBRANCH  11  13
ENDBRANCH   1  11
TORSDOF 3
ENDMDL
