MODEL 1
REMARK VINA RESULT: -4.366373721      0.000      0.000
REMARK  1 active torsions:
REMARK  status: ('A' for Active; 'I' for Inactive)
REMARK    1  A    between atoms: N1_1  and  C1_5 
ROOT
HETATM    1  C1  UNL     1      18.377   6.284  -1.295  1.00  0.00     0.183 C 
HETATM    2  C2  UNL     1      19.094   7.588  -1.341  1.00  0.00     0.033 C 
HETATM    3  C3  UNL     1      19.972   7.768  -2.545  1.00  0.00     0.011 C 
HETATM    4  C4  UNL     1      20.918   6.636  -2.771  1.00  0.00    -0.040 C 
HETATM    5  C5  UNL     1      22.345   7.027  -2.396  1.00  0.00     0.009 C 
HETATM    6  C6  UNL     1      22.447   7.609  -3.812  1.00  0.00     0.002 C 
HETATM    7  C7  UNL     1      21.418   6.537  -4.205  1.00  0.00     0.009 C 
HETATM    8  C8  UNL     1      20.462   5.325  -2.219  1.00  0.00     0.011 C 
HETATM    9  C9  UNL     1      18.973   5.215  -2.156  1.00  0.00     0.033 C 
ENDROOT
BRANCH   1  10
HETATM   10  N1  UNL     1      16.958   6.430  -1.619  1.00  0.00    -0.075 N 
ATOM     11  H13 UNL     1      16.818   6.552  -2.622  1.00  0.00     0.274 HD
ATOM     12  H12 UNL     1      16.457   5.550  -1.492  1.00  0.00     0.274 HD
ATOM     13  H11 UNL     1      16.522   7.185  -1.089  1.00  0.00     0.274 HD
ENDBRANCH   1  10
TORSDOF 1
ENDMDL
MODEL 2
REMARK VINA RESULT: -4.301420643      1.172      1.603
REMARK  1 active torsions:
REMARK  status: ('A' for Active; 'I' for Inactive)
REMARK    1  A    between atoms: N1_1  and  C1_5 
ROOT
HETATM    1  C1  UNL     1      19.466   7.697  -1.580  1.00  0.00     0.183 C 
HETATM    2  C2  UNL     1      20.036   8.833  -2.354  1.00  0.00     0.033 C 
HETATM    3  C3  UNL     1      20.426   8.487  -3.762  1.00  0.00     0.011 C 
HETATM    4  C4  UNL     1      21.305   7.286  -3.862  1.00  0.00    -0.040 C 
HETATM    5  C5  UNL     1      22.745   7.681  -4.179  1.00  0.00     0.009 C 
HETATM    6  C6  UNL     1      22.309   7.686  -5.650  1.00  0.00     0.002 C 
HETATM    7  C7  UNL     1      21.280   6.625  -5.232  1.00  0.00     0.009 C 
HETATM    8  C8  UNL     1      21.156   6.311  -2.739  1.00  0.00     0.011 C 
HETATM    9  C9  UNL     1      19.793   6.343  -2.128  1.00  0.00     0.033 C 
ENDROOT
BRANCH   1  10
HETATM   10  N1  UNL     1      18.017   7.817  -1.421  1.00  0.00    -0.075 N 
ATOM     11  H13 UNL     1      17.745   8.780  -1.224  1.00  0.00     0.274 HD
ATOM     12  H12 UNL     1      17.536   7.692  -2.312  1.00  0.00     0.274 HD
ATOM     13  H11 UNL     1      17.658   7.178  -0.712  1.00  0.00     0.274 HD
ENDBRANCH   1  10
TORSDOF 1
ENDMDL
MODEL 3
REMARK VINA RESULT: -4.204438917      1.046      2.151
REMARK  1 active torsions:
REMARK  status: ('A' for Active; 'I' for Inactive)
REMARK    1  A    between atoms: N1_1  and  C1_5 
ROOT
HETATM    1  C1  UNL     1      18.993   5.771  -1.950  1.00  0.00     0.183 C 
HETATM    2  C2  UNL     1      20.148   5.134  -2.640  1.00  0.00     0.033 C 
HETATM    3  C3  UNL     1      21.466   5.807  -2.389  1.00  0.00     0.011 C 
HETATM    4  C4  UNL     1      21.445   7.277  -2.641  1.00  0.00    -0.040 C 
HETATM    5  C5  UNL     1      22.176   7.624  -3.936  1.00  0.00     0.009 C 
HETATM    6  C6  UNL     1      23.457   7.622  -3.091  1.00  0.00     0.002 C 
HETATM    7  C7  UNL     1      22.551   8.034  -1.921  1.00  0.00     0.009 C 
HETATM    8  C8  UNL     1      20.103   7.916  -2.489  1.00  0.00     0.011 C 
HETATM    9  C9  UNL     1      19.227   7.186  -1.523  1.00  0.00     0.033 C 
ENDROOT
BRANCH   1  10
HETATM   10  N1  UNL     1      18.545   4.988  -0.799  1.00  0.00    -0.075 N 
ATOM     11  H13 UNL     1      18.678   3.988  -0.957  1.00  0.00     0.274 HD
ATOM     12  H12 UNL     1      19.170   5.109  -0.002  1.00  0.00     0.274 HD
ATOM     13  H11 UNL     1      17.578   5.198  -0.549  1.00  0.00     0.274 HD
ENDBRANCH   1  10
TORSDOF 1
ENDMDL
MODEL 4
REMARK VINA RESULT: -4.078592338      2.764      3.978
REMARK  1 active torsions:
REMARK  status: ('A' for Active; 'I' for Inactive)
REMARK    1  A    between atoms: N1_1  and  C1_5 
ROOT
HETATM    1  C1  UNL     1      23.602   5.953  -2.952  1.00  0.00     0.183 C 
HETATM    2  C2  UNL     1      23.549   7.424  -2.732  1.00  0.00     0.033 C 
HETATM    3  C3  UNL     1      22.269   7.911  -2.116  1.00  0.00     0.011 C 
HETATM    4  C4  UNL     1      21.045   7.438  -2.826  1.00  0.00    -0.040 C 
HETATM    5  C5  UNL     1      20.406   8.566  -3.631  1.00  0.00     0.009 C 
HETATM    6  C6  UNL     1      19.697   8.955  -2.326  1.00  0.00     0.002 C 
HETATM    7  C7  UNL     1      19.792   7.465  -1.963  1.00  0.00     0.009 C 
HETATM    8  C8  UNL     1      21.215   6.155  -3.571  1.00  0.00     0.011 C 
HETATM    9  C9  UNL     1      22.267   5.278  -2.972  1.00  0.00     0.033 C 
ENDROOT
BRANCH   1  10
HETATM   10  N1  UNL     1      24.466   5.286  -1.978  1.00  0.00    -0.075 N 
ATOM     11  H13 UNL     1      24.070   5.332  -1.039  1.00  0.00     0.274 HD
ATOM     12  H12 UNL     1      24.457   4.274  -2.107  1.00  0.00     0.274 HD
ATOM     13  H11 UNL     1      25.417   5.654  -1.998  1.00  0.00     0.274 HD
ENDBRANCH   1  10
TORSDOF 1
ENDMDL
MODEL 5
REMARK VINA RESULT: -4.017386392      1.286      2.365
REMARK  1 active torsions:
REMARK  status: ('A' for Active; 'I' for Inactive)
REMARK    1  A    between atoms: N1_1  and  C1_5 
ROOT
HETATM    1  C1  UNL     1      19.011   7.683  -2.049  1.00  0.00     0.183 C 
HETATM    2  C2  UNL     1      19.541   6.310  -2.272  1.00  0.00     0.033 C 
HETATM    3  C3  UNL     1      21.013   6.256  -2.561  1.00  0.00     0.011 C 
HETATM    4  C4  UNL     1      21.442   7.172  -3.658  1.00  0.00    -0.040 C 
HETATM    5  C5  UNL     1      21.754   6.396  -4.935  1.00  0.00     0.009 C 
HETATM    6  C6  UNL     1      23.153   6.186  -4.341  1.00  0.00     0.002 C 
HETATM    7  C7  UNL     1      22.923   7.520  -3.615  1.00  0.00     0.009 C 
HETATM    8  C8  UNL     1      20.565   8.366  -3.849  1.00  0.00     0.011 C 
HETATM    9  C9  UNL     1      19.875   8.779  -2.589  1.00  0.00     0.033 C 
ENDROOT
BRANCH   1  10
HETATM   10  N1  UNL     1      18.735   7.939  -0.636  1.00  0.00    -0.075 N 
ATOM     11  H13 UNL     1      18.227   8.815  -0.510  1.00  0.00     0.274 HD
ATOM     12  H12 UNL     1      18.034   7.293  -0.273  1.00  0.00     0.274 HD
ATOM     13  H11 UNL     1      19.585   7.919  -0.072  1.00  0.00     0.274 HD
ENDBRANCH   1  10
TORSDOF 1
ENDMDL
