MODEL 1
REMARK VINA RESULT: -4.439377114      0.000      0.000
REMARK  2 active torsions:
REMARK  status: ('A' for Active; 'I' for Inactive)
REMARK    1  A    between atoms: N1_1  and  C1_5 
REMARK    2  A    between atoms: C1_5  and  C2_6 
ROOT
HETATM    1  C1  UNL     1      21.742   6.752  -2.711  1.00  0.00     0.127 A 
HETATM    2  C8  UNL     1      22.323   6.662  -4.115  1.00  0.00     0.041 A 
HETATM    3  C9  UNL     1      22.706   5.721  -3.046  1.00  0.00     0.041 A 
ENDROOT
BRANCH   1   4
HETATM    4  N1  UNL     1      22.157   7.920  -1.941  1.00  0.00    -0.070 N 
ATOM      5  H13 UNL     1      22.127   8.765  -2.511  1.00  0.00     0.275 HD
ATOM      6  H12 UNL     1      21.453   8.167  -1.243  1.00  0.00     0.275 HD
ATOM      7  H11 UNL     1      23.073   7.801  -1.510  1.00  0.00     0.275 HD
ENDBRANCH   1   4
BRANCH   1   8
HETATM    8  C2  UNL     1      20.250   6.512  -2.649  1.00  0.00     0.021 C 
HETATM    9  C3  UNL     1      19.745   7.493  -1.581  1.00  0.00     0.007 C 
HETATM   10  C4  UNL     1      18.259   7.500  -1.558  1.00  0.00     0.000 C 
HETATM   11  C5  UNL     1      17.686   6.122  -1.515  1.00  0.00     0.000 C 
HETATM   12  C6  UNL     1      18.678   5.030  -1.364  1.00  0.00     0.000 C 
HETATM   13  C7  UNL     1      19.896   5.133  -2.200  1.00  0.00     0.007 C 
ENDBRANCH   1   8
TORSDOF 2
ENDMDL
MODEL 2
REMARK VINA RESULT: -4.156361423      1.424      3.778
REMARK  2 active torsions:
REMARK  status: ('A' for Active; 'I' for Inactive)
REMARK    1  A    between atoms: N1_1  and  C1_5 
REMARK    2  A    between atoms: C1_5  and  C2_6 
ROOT
HETATM    1  C1  UNL     1      19.503   7.722  -1.930  1.00  0.00     0.127 A 
HETATM    2  C8  UNL     1      18.765   7.649  -0.601  1.00  0.00     0.041 A 
HETATM    3  C9  UNL     1      18.182   7.129  -1.851  1.00  0.00     0.041 A 
ENDROOT
BRANCH   1   4
HETATM    4  N1  UNL     1      19.672   9.065  -2.474  1.00  0.00    -0.070 N 
ATOM      5  H13 UNL     1      19.302   9.768  -1.835  1.00  0.00     0.275 HD
ATOM      6  H12 UNL     1      20.655   9.340  -2.472  1.00  0.00     0.275 HD
ATOM      7  H11 UNL     1      19.266   9.166  -3.404  1.00  0.00     0.275 HD
ENDBRANCH   1   4
BRANCH   1   8
HETATM    8  C2  UNL     1      20.781   6.913  -1.967  1.00  0.00     0.021 C 
HETATM    9  C3  UNL     1      21.755   7.766  -2.792  1.00  0.00     0.007 C 
HETATM   10  C4  UNL     1      23.118   7.175  -2.742  1.00  0.00     0.000 C 
HETATM   11  C5  UNL     1      23.112   5.711  -3.030  1.00  0.00     0.000 C 
HETATM   12  C6  UNL     1      21.802   5.153  -3.443  1.00  0.00     0.000 C 
HETATM   13  C7  UNL     1      20.625   5.602  -2.664  1.00  0.00     0.007 C 
ENDBRANCH   1   8
TORSDOF 2
ENDMDL
MODEL 3
REMARK VINA RESULT: -4.096957576      1.720      4.140
REMARK  2 active torsions:
REMARK  status: ('A' for Active; 'I' for Inactive)
REMARK    1  A    between atoms: N1_1  and  C1_5 
REMARK    2  A    between atoms: C1_5  and  C2_6 
ROOT
HETATM    1  C1  UNL     1      19.047   6.258  -1.545  1.00  0.00     0.127 A 
HETATM    2  C8  UNL     1      17.775   7.056  -1.787  1.00  0.00     0.041 A 
HETATM    3  C9  UNL     1      18.613   7.261  -0.592  1.00  0.00     0.041 A 
ENDROOT
BRANCH   1   4
HETATM    4  N1  UNL     1      18.847   4.841  -1.258  1.00  0.00    -0.070 N 
ATOM      5  H13 UNL     1      17.951   4.517  -1.621  1.00  0.00     0.275 HD
ATOM      6  H12 UNL     1      19.473   4.262  -1.820  1.00  0.00     0.275 HD
ATOM      7  H11 UNL     1      18.941   4.623  -0.266  1.00  0.00     0.275 HD
ENDBRANCH   1   4
BRANCH   1   8
HETATM    8  C2  UNL     1      20.127   6.497  -2.577  1.00  0.00     0.021 C 
HETATM    9  C3  UNL     1      20.914   5.179  -2.626  1.00  0.00     0.007 C 
HETATM   10  C4  UNL     1      21.889   5.209  -3.747  1.00  0.00     0.000 C 
HETATM   11  C5  UNL     1      22.697   6.465  -3.762  1.00  0.00     0.000 C 
HETATM   12  C6  UNL     1      22.485   7.366  -2.603  1.00  0.00     0.000 C 
HETATM   13  C7  UNL     1      21.080   7.579  -2.188  1.00  0.00     0.007 C 
ENDBRANCH   1   8
TORSDOF 2
ENDMDL
MODEL 4
REMARK VINA RESULT: -4.093047430      1.090      1.309
REMARK  2 active torsions:
REMARK  status: ('A' for Active; 'I' for Inactive)
REMARK    1  A    between atoms: N1_1  and  C1_5 
REMARK    2  A    between atoms: C1_5  and  C2_6 
ROOT
HETATM    1  C1  UNL     1      22.211   5.533  -3.030  1.00  0.00     0.127 A 
HETATM    2  C8  UNL     1      22.736   5.520  -4.458  1.00  0.00     0.041 A 
HETATM    3  C9  UNL     1      22.525   4.280  -3.689  1.00  0.00     0.041 A 
ENDROOT
BRANCH   1   4
HETATM    4  N1  UNL     1      23.125   6.087  -2.036  1.00  0.00    -0.070 N 
ATOM      5  H13 UNL     1      22.618   6.410  -1.212  1.00  0.00     0.275 HD
ATOM      6  H12 UNL     1      23.688   5.353  -1.607  1.00  0.00     0.275 HD
ATOM      7  H11 UNL     1      23.716   6.827  -2.415  1.00  0.00     0.275 HD
ENDBRANCH   1   4
BRANCH   1   8
HETATM    8  C2  UNL     1      20.806   6.078  -2.897  1.00  0.00     0.021 C 
HETATM    9  C3  UNL     1      20.950   7.299  -1.977  1.00  0.00     0.007 C 
HETATM   10  C4  UNL     1      19.668   8.048  -1.921  1.00  0.00     0.000 C 
HETATM   11  C5  UNL     1      18.501   7.155  -1.659  1.00  0.00     0.000 C 
HETATM   12  C6  UNL     1      18.839   5.741  -1.369  1.00  0.00     0.000 C 
HETATM   13  C7  UNL     1      19.866   5.123  -2.238  1.00  0.00     0.007 C 
ENDBRANCH   1   8
TORSDOF 2
ENDMDL
MODEL 5
REMARK VINA RESULT: -3.998364019      1.447      2.222
REMARK  2 active torsions:
REMARK  status: ('A' for Active; 'I' for Inactive)
REMARK    1  A    between atoms: N1_1  and  C1_5 
REMARK    2  A    between atoms: C1_5  and  C2_6 
ROOT
HETATM    1  C1  UNL     1      22.273   5.857  -2.760  1.00  0.00     0.127 A 
HETATM    2  C8  UNL     1      23.579   6.254  -2.088  1.00  0.00     0.041 A 
HETATM    3  C9  UNL     1      23.124   6.874  -3.346  1.00  0.00     0.041 A 
ENDROOT
BRANCH   1   4
HETATM    4  N1  UNL     1      22.247   4.510  -3.323  1.00  0.00    -0.070 N 
ATOM      5  H13 UNL     1      22.603   3.827  -2.654  1.00  0.00     0.275 HD
ATOM      6  H12 UNL     1      21.289   4.169  -3.413  1.00  0.00     0.275 HD
ATOM      7  H11 UNL     1      22.744   4.446  -4.211  1.00  0.00     0.275 HD
ENDBRANCH   1   4
BRANCH   1   8
HETATM    8  C2  UNL     1      21.041   6.169  -1.939  1.00  0.00     0.021 C 
HETATM    9  C3  UNL     1      19.998   5.141  -2.401  1.00  0.00     0.007 C 
HETATM   10  C4  UNL     1      18.795   5.210  -1.531  1.00  0.00     0.000 C 
HETATM   11  C5  UNL     1      18.309   6.609  -1.344  1.00  0.00     0.000 C 
HETATM   12  C6  UNL     1      19.010   7.634  -2.155  1.00  0.00     0.000 C 
HETATM   13  C7  UNL     1      20.486   7.529  -2.208  1.00  0.00     0.007 C 
ENDBRANCH   1   8
TORSDOF 2
ENDMDL
