MODEL 1
REMARK VINA RESULT: -4.503598874      0.000      0.000
REMARK  1 active torsions:
REMARK  status: ('A' for Active; 'I' for Inactive)
REMARK    1  A    between atoms: C2_2  and  C3_3 
ROOT
HETATM    1  C3  UNL     1      19.402   6.944  -1.596  1.00  0.00     0.014 C 
HETATM    2  C4  UNL     1      19.493   5.480  -1.859  1.00  0.00     0.052 C 
HETATM    3  C5  UNL     1      20.617   5.065  -2.749  1.00  0.00     0.057 C 
HETATM    4  N1  UNL     1      21.718   5.943  -2.818  1.00  0.00    -0.394 N 
ATOM      5  H1  UNL     1      22.670   5.580  -2.780  1.00  0.00     0.159 HD
HETATM    6  C6  UNL     1      21.487   7.329  -2.940  1.00  0.00     0.022 C 
HETATM    7  C7  UNL     1      21.832   7.884  -4.316  1.00  0.00     0.038 C 
HETATM    8  C8  UNL     1      22.472   8.018  -1.979  1.00  0.00     0.038 C 
HETATM    9  C9  UNL     1      20.125   7.799  -2.593  1.00  0.00     0.039 C 
ENDROOT
BRANCH   1  10
HETATM   10  C2  UNL     1      17.972   7.331  -1.463  1.00  0.00    -0.032 C 
HETATM   11  C1  UNL     1      16.959   6.491  -1.608  1.00  0.00     0.007 C 
ENDBRANCH   1  10
TORSDOF 1
ENDMDL
MODEL 2
REMARK VINA RESULT: -3.924391710      1.448      2.508
REMARK  1 active torsions:
REMARK  status: ('A' for Active; 'I' for Inactive)
REMARK    1  A    between atoms: C2_2  and  C3_3 
ROOT
HETATM    1  C3  UNL     1      19.915   6.798  -2.495  1.00  0.00     0.014 C 
HETATM    2  C4  UNL     1      20.711   7.953  -1.993  1.00  0.00     0.052 C 
HETATM    3  C5  UNL     1      22.158   7.935  -2.358  1.00  0.00     0.057 C 
HETATM    4  N1  UNL     1      22.505   7.182  -3.497  1.00  0.00    -0.394 N 
ATOM      5  H1  UNL     1      23.157   7.559  -4.185  1.00  0.00     0.159 HD
HETATM    6  C6  UNL     1      21.941   5.901  -3.676  1.00  0.00     0.022 C 
HETATM    7  C7  UNL     1      22.933   4.765  -3.467  1.00  0.00     0.038 C 
HETATM    8  C8  UNL     1      21.542   5.807  -5.160  1.00  0.00     0.038 C 
HETATM    9  C9  UNL     1      20.734   5.599  -2.871  1.00  0.00     0.039 C 
ENDROOT
BRANCH   1  10
HETATM   10  C2  UNL     1      18.858   6.462  -1.506  1.00  0.00    -0.032 C 
HETATM   11  C1  UNL     1      18.382   5.242  -1.312  1.00  0.00     0.007 C 
ENDBRANCH   1  10
TORSDOF 1
ENDMDL
MODEL 3
REMARK VINA RESULT: -3.880941325      1.287      1.767
REMARK  1 active torsions:
REMARK  status: ('A' for Active; 'I' for Inactive)
REMARK    1  A    between atoms: C2_2  and  C3_3 
ROOT
HETATM    1  C3  UNL     1      20.703   7.451  -2.496  1.00  0.00     0.014 C 
HETATM    2  C4  UNL     1      20.546   5.992  -2.237  1.00  0.00     0.052 C 
HETATM    3  C5  UNL     1      21.105   5.096  -3.293  1.00  0.00     0.057 C 
HETATM    4  N1  UNL     1      22.120   5.642  -4.103  1.00  0.00    -0.394 N 
ATOM      5  H1  UNL     1      22.953   5.096  -4.324  1.00  0.00     0.159 HD
HETATM    6  C6  UNL     1      21.972   6.953  -4.604  1.00  0.00     0.022 C 
HETATM    7  C7  UNL     1      21.698   7.004  -6.101  1.00  0.00     0.038 C 
HETATM    8  C8  UNL     1      23.339   7.640  -4.431  1.00  0.00     0.038 C 
HETATM    9  C9  UNL     1      20.960   7.801  -3.931  1.00  0.00     0.039 C 
ENDROOT
BRANCH   1  10
HETATM   10  C2  UNL     1      19.527   8.176  -1.947  1.00  0.00    -0.032 C 
HETATM   11  C1  UNL     1      18.679   7.660  -1.071  1.00  0.00     0.007 C 
ENDBRANCH   1  10
TORSDOF 1
ENDMDL
MODEL 4
REMARK VINA RESULT: -3.867573065      1.585      2.682
REMARK  1 active torsions:
REMARK  status: ('A' for Active; 'I' for Inactive)
REMARK    1  A    between atoms: C2_2  and  C3_3 
ROOT
HETATM    1  C3  UNL     1      20.294   7.573  -2.894  1.00  0.00     0.014 C 
HETATM    2  C4  UNL     1      20.389   8.461  -4.087  1.00  0.00     0.052 C 
HETATM    3  C5  UNL     1      21.654   8.337  -4.870  1.00  0.00     0.057 C 
HETATM    4  N1  UNL     1      22.352   7.120  -4.743  1.00  0.00    -0.394 N 
ATOM      5  H1  UNL     1      22.736   6.657  -5.567  1.00  0.00     0.159 HD
HETATM    6  C6  UNL     1      22.514   6.548  -3.463  1.00  0.00     0.022 C 
HETATM    7  C7  UNL     1      23.940   6.631  -2.936  1.00  0.00     0.038 C 
HETATM    8  C8  UNL     1      22.240   5.042  -3.624  1.00  0.00     0.038 C 
HETATM    9  C9  UNL     1      21.611   7.053  -2.402  1.00  0.00     0.039 C 
ENDROOT
BRANCH   1  10
HETATM   10  C2  UNL     1      19.534   8.269  -1.823  1.00  0.00    -0.032 C 
HETATM   11  C1  UNL     1      18.725   7.660  -0.969  1.00  0.00     0.007 C 
ENDBRANCH   1  10
TORSDOF 1
ENDMDL
MODEL 5
REMARK VINA RESULT: -3.834485203      1.655      2.690
REMARK  1 active torsions:
REMARK  status: ('A' for Active; 'I' for Inactive)
REMARK    1  A    between atoms: C2_2  and  C3_3 
ROOT
HETATM    1  C3  UNL     1      20.721   8.488  -2.765  1.00  0.00     0.014 C 
HETATM    2  C4  UNL     1      21.966   8.073  -2.058  1.00  0.00     0.052 C 
HETATM    3  C5  UNL     1      23.004   7.436  -2.921  1.00  0.00     0.057 C 
HETATM    4  N1  UNL     1      22.950   7.745  -4.295  1.00  0.00    -0.394 N 
ATOM      5  H1  UNL     1      23.804   7.966  -4.808  1.00  0.00     0.159 HD
HETATM    6  C6  UNL     1      21.702   7.746  -4.953  1.00  0.00     0.022 C 
HETATM    7  C7  UNL     1      21.518   6.575  -5.910  1.00  0.00     0.038 C 
HETATM    8  C8  UNL     1      21.687   8.995  -5.853  1.00  0.00     0.038 C 
HETATM    9  C9  UNL     1      20.503   7.810  -4.084  1.00  0.00     0.039 C 
ENDROOT
BRANCH   1  10
HETATM   10  C2  UNL     1      19.559   8.319  -1.853  1.00  0.00    -0.032 C 
HETATM   11  C1  UNL     1      18.963   7.161  -1.615  1.00  0.00     0.007 C 
ENDBRANCH   1  10
TORSDOF 1
ENDMDL
