MODEL 1
REMARK VINA RESULT: -4.115534215      0.000      0.000
REMARK  0 active torsions:
REMARK  status: ('A' for Active; 'I' for Inactive)
ROOT
HETATM    1  C1  UNL     1      16.974   5.535  -0.996  1.00  0.00     0.010 C 
HETATM    2  C2  UNL     1      18.180   5.916  -1.828  1.00  0.00    -0.018 C 
HETATM    3  C3  UNL     1      19.299   4.928  -1.679  1.00  0.00     0.005 C 
HETATM    4  C4  UNL     1      20.369   5.306  -2.707  1.00  0.00     0.017 C 
HETATM    5  C5  UNL     1      20.879   6.679  -2.248  1.00  0.00     0.062 C 
HETATM    6  S1  UNL     1      22.365   7.052  -3.178  1.00  0.00    -0.092 SA
HETATM    7  C6  UNL     1      19.764   7.649  -2.466  1.00  0.00    -0.004 C 
HETATM    8  C7  UNL     1      20.177   9.085  -2.346  1.00  0.00     0.011 C 
HETATM    9  C8  UNL     1      18.676   7.301  -1.439  1.00  0.00     0.009 C 
ENDROOT
TORSDOF 0
ENDMDL
MODEL 2
REMARK VINA RESULT: -3.971671253      0.899      2.379
REMARK  0 active torsions:
REMARK  status: ('A' for Active; 'I' for Inactive)
ROOT
HETATM    1  C1  UNL     1      17.410   5.648  -1.192  1.00  0.00     0.010 C 
HETATM    2  C2  UNL     1      18.823   6.128  -1.448  1.00  0.00    -0.018 C 
HETATM    3  C3  UNL     1      18.853   7.536  -1.962  1.00  0.00     0.005 C 
HETATM    4  C4  UNL     1      20.321   7.971  -1.992  1.00  0.00     0.017 C 
HETATM    5  C5  UNL     1      20.972   7.064  -3.046  1.00  0.00     0.062 C 
HETATM    6  S1  UNL     1      22.601   7.719  -3.403  1.00  0.00    -0.092 SA
HETATM    7  C6  UNL     1      20.982   5.682  -2.479  1.00  0.00    -0.004 C 
HETATM    8  C7  UNL     1      21.838   4.719  -3.245  1.00  0.00     0.011 C 
HETATM    9  C8  UNL     1      19.520   5.213  -2.446  1.00  0.00     0.009 C 
ENDROOT
TORSDOF 0
ENDMDL
MODEL 3
REMARK VINA RESULT: -3.970110464      1.625      3.066
REMARK  0 active torsions:
REMARK  status: ('A' for Active; 'I' for Inactive)
ROOT
HETATM    1  C1  UNL     1      18.800   7.660  -1.006  1.00  0.00     0.010 C 
HETATM    2  C2  UNL     1      19.999   7.579  -1.928  1.00  0.00    -0.018 C 
HETATM    3  C3  UNL     1      19.828   8.434  -3.148  1.00  0.00     0.005 C 
HETATM    4  C4  UNL     1      21.166   8.426  -3.891  1.00  0.00     0.017 C 
HETATM    5  C5  UNL     1      21.346   6.973  -4.349  1.00  0.00     0.062 C 
HETATM    6  S1  UNL     1      22.705   6.928  -5.517  1.00  0.00    -0.092 SA
HETATM    7  C6  UNL     1      21.575   6.158  -3.118  1.00  0.00    -0.004 C 
HETATM    8  C7  UNL     1      22.057   4.765  -3.393  1.00  0.00     0.011 C 
HETATM    9  C8  UNL     1      20.243   6.138  -2.354  1.00  0.00     0.009 C 
ENDROOT
TORSDOF 0
ENDMDL
MODEL 4
REMARK VINA RESULT: -3.740159119      2.128      2.904
REMARK  0 active torsions:
REMARK  status: ('A' for Active; 'I' for Inactive)
ROOT
HETATM    1  C1  UNL     1      19.195   7.812  -1.378  1.00  0.00     0.010 C 
HETATM    2  C2  UNL     1      20.101   7.487  -2.547  1.00  0.00    -0.018 C 
HETATM    3  C3  UNL     1      21.501   7.180  -2.105  1.00  0.00     0.005 C 
HETATM    4  C4  UNL     1      22.260   6.679  -3.336  1.00  0.00     0.017 C 
HETATM    5  C5  UNL     1      22.312   7.889  -4.278  1.00  0.00     0.062 C 
HETATM    6  S1  UNL     1      23.471   7.513  -5.593  1.00  0.00    -0.092 SA
HETATM    7  C6  UNL     1      20.915   8.130  -4.749  1.00  0.00    -0.004 C 
HETATM    8  C7  UNL     1      20.818   9.088  -5.898  1.00  0.00     0.011 C 
HETATM    9  C8  UNL     1      20.129   8.646  -3.534  1.00  0.00     0.009 C 
ENDROOT
TORSDOF 0
ENDMDL
MODEL 5
REMARK VINA RESULT: -3.717525781      1.335      2.848
REMARK  0 active torsions:
REMARK  status: ('A' for Active; 'I' for Inactive)
ROOT
HETATM    1  C1  UNL     1      18.215   7.500  -1.284  1.00  0.00     0.010 C 
HETATM    2  C2  UNL     1      19.687   7.360  -1.607  1.00  0.00    -0.018 C 
HETATM    3  C3  UNL     1      20.227   8.573  -2.304  1.00  0.00     0.005 C 
HETATM    4  C4  UNL     1      21.745   8.397  -2.397  1.00  0.00     0.017 C 
HETATM    5  C5  UNL     1      21.940   7.189  -3.322  1.00  0.00     0.062 C 
HETATM    6  S1  UNL     1      23.674   7.112  -3.769  1.00  0.00    -0.092 SA
HETATM    7  C6  UNL     1      21.450   5.991  -2.576  1.00  0.00    -0.004 C 
HETATM    8  C7  UNL     1      21.828   4.686  -3.210  1.00  0.00     0.011 C 
HETATM    9  C8  UNL     1      19.924   6.133  -2.477  1.00  0.00     0.009 C 
ENDROOT
TORSDOF 0
ENDMDL
