MODEL 1
REMARK VINA RESULT: -3.450530896      0.000      0.000
REMARK  0 active torsions:
REMARK  status: ('A' for Active; 'I' for Inactive)
ROOT
HETATM    1  C1  UNL     1      21.523   6.758  -4.532  1.00  0.00     0.016 C 
HETATM    2  C2  UNL     1      21.305   7.077  -3.046  1.00  0.00    -0.032 C 
HETATM    3  C3  UNL     1      22.716   7.352  -2.496  1.00  0.00     0.016 C 
HETATM    4  C4  UNL     1      20.520   8.319  -2.883  1.00  0.00     0.012 C 
HETATM    5  C5  UNL     1      19.120   8.188  -2.437  1.00  0.00     0.030 C 
HETATM    6  C6  UNL     1      18.800   6.986  -1.626  1.00  0.00     0.018 C 
HETATM    7  C7  UNL     1      19.137   7.185  -0.148  1.00  0.00     0.037 C 
HETATM    8  C8  UNL     1      17.280   6.783  -1.687  1.00  0.00     0.037 C 
HETATM    9  N1  UNL     1      19.392   5.803  -2.163  1.00  0.00    -0.413 N 
ATOM     10  H1  UNL     1      18.846   4.972  -2.391  1.00  0.00     0.154 HD
HETATM   11  C9  UNL     1      20.797   5.869  -2.355  1.00  0.00     0.123 C 
ENDROOT
TORSDOF 0
ENDMDL
MODEL 2
REMARK VINA RESULT: -3.405767200      2.539      4.126
REMARK  0 active torsions:
REMARK  status: ('A' for Active; 'I' for Inactive)
ROOT
HETATM    1  C1  UNL     1      20.561   5.128  -2.697  1.00  0.00     0.016 C 
HETATM    2  C2  UNL     1      21.699   5.976  -3.283  1.00  0.00    -0.032 C 
HETATM    3  C3  UNL     1      21.536   5.843  -4.808  1.00  0.00     0.016 C 
HETATM    4  C4  UNL     1      21.520   7.404  -2.946  1.00  0.00     0.012 C 
HETATM    5  C5  UNL     1      22.423   7.984  -1.934  1.00  0.00     0.030 C 
HETATM    6  C6  UNL     1      23.755   7.341  -1.799  1.00  0.00     0.018 C 
HETATM    7  C7  UNL     1      24.753   7.866  -2.832  1.00  0.00     0.037 C 
HETATM    8  C8  UNL     1      24.320   7.740  -0.429  1.00  0.00     0.037 C 
HETATM    9  N1  UNL     1      23.667   5.917  -1.806  1.00  0.00    -0.413 N 
ATOM     10  H1  UNL     1      24.055   5.340  -1.060  1.00  0.00     0.154 HD
HETATM   11  C9  UNL     1      22.999   5.362  -2.929  1.00  0.00     0.123 C 
ENDROOT
TORSDOF 0
ENDMDL
MODEL 3
REMARK VINA RESULT: -3.378010330      1.450      2.195
REMARK  0 active torsions:
REMARK  status: ('A' for Active; 'I' for Inactive)
ROOT
HETATM    1  C1  UNL     1      21.585   6.126  -6.145  1.00  0.00     0.016 C 
HETATM    2  C2  UNL     1      22.060   6.956  -4.943  1.00  0.00    -0.032 C 
HETATM    3  C3  UNL     1      23.566   7.164  -5.187  1.00  0.00     0.016 C 
HETATM    4  C4  UNL     1      21.428   8.292  -4.943  1.00  0.00     0.012 C 
HETATM    5  C5  UNL     1      20.381   8.550  -3.936  1.00  0.00     0.030 C 
HETATM    6  C6  UNL     1      20.469   7.759  -2.682  1.00  0.00     0.018 C 
HETATM    7  C7  UNL     1      21.436   8.384  -1.676  1.00  0.00     0.037 C 
HETATM    8  C8  UNL     1      19.087   7.801  -2.016  1.00  0.00     0.037 C 
HETATM    9  N1  UNL     1      20.760   6.385  -2.933  1.00  0.00    -0.413 N 
ATOM     10  H1  UNL     1      20.175   5.627  -2.582  1.00  0.00     0.154 HD
HETATM   11  C9  UNL     1      21.926   6.150  -3.708  1.00  0.00     0.123 C 
ENDROOT
TORSDOF 0
ENDMDL
MODEL 4
REMARK VINA RESULT: -3.342811974      1.707      3.041
REMARK  0 active torsions:
REMARK  status: ('A' for Active; 'I' for Inactive)
ROOT
HETATM    1  C1  UNL     1      24.130   5.892  -1.672  1.00  0.00     0.016 C 
HETATM    2  C2  UNL     1      23.334   6.552  -2.807  1.00  0.00    -0.032 C 
HETATM    3  C3  UNL     1      24.290   6.532  -4.014  1.00  0.00     0.016 C 
HETATM    4  C4  UNL     1      22.156   5.735  -3.168  1.00  0.00     0.012 C 
HETATM    5  C5  UNL     1      20.829   6.236  -2.763  1.00  0.00     0.030 C 
HETATM    6  C6  UNL     1      20.704   7.708  -2.606  1.00  0.00     0.018 C 
HETATM    7  C7  UNL     1      20.438   8.406  -3.940  1.00  0.00     0.037 C 
HETATM    8  C8  UNL     1      19.465   7.974  -1.740  1.00  0.00     0.037 C 
HETATM    9  N1  UNL     1      21.816   8.270  -1.911  1.00  0.00    -0.413 N 
ATOM     10  H1  UNL     1      21.707   8.844  -1.075  1.00  0.00     0.154 HD
HETATM   11  C9  UNL     1      23.087   7.973  -2.471  1.00  0.00     0.123 C 
ENDROOT
TORSDOF 0
ENDMDL
MODEL 5
REMARK VINA RESULT: -3.329986955      1.719      4.080
REMARK  0 active torsions:
REMARK  status: ('A' for Active; 'I' for Inactive)
ROOT
HETATM    1  C1  UNL     1      19.670   7.195  -1.936  1.00  0.00     0.016 C 
HETATM    2  C2  UNL     1      20.923   7.473  -2.779  1.00  0.00    -0.032 C 
HETATM    3  C3  UNL     1      20.400   8.236  -4.009  1.00  0.00     0.016 C 
HETATM    4  C4  UNL     1      21.850   8.375  -2.064  1.00  0.00     0.012 C 
HETATM    5  C5  UNL     1      23.088   7.788  -1.518  1.00  0.00     0.030 C 
HETATM    6  C6  UNL     1      23.601   6.579  -2.212  1.00  0.00     0.018 C 
HETATM    7  C7  UNL     1      24.442   6.935  -3.439  1.00  0.00     0.037 C 
HETATM    8  C8  UNL     1      24.554   5.864  -1.244  1.00  0.00     0.037 C 
HETATM    9  N1  UNL     1      22.559   5.652  -2.519  1.00  0.00    -0.413 N 
ATOM     10  H1  UNL     1      22.588   4.677  -2.222  1.00  0.00     0.154 HD
HETATM   11  C9  UNL     1      21.479   6.190  -3.267  1.00  0.00     0.123 C 
ENDROOT
TORSDOF 0
ENDMDL
