MODEL 1
REMARK VINA RESULT: -3.857787005      0.000      0.000
REMARK  1 active torsions:
REMARK  status: ('A' for Active; 'I' for Inactive)
REMARK    1  A    between atoms: C9_9  and  N1_10 
ROOT
HETATM    1  C1  UNL     1      18.954   7.816  -1.420  1.00  0.00     0.012 C 
HETATM    2  C2  UNL     1      20.234   8.208  -2.176  1.00  0.00     0.013 C 
HETATM    3  C3  UNL     1      19.798   8.596  -3.554  1.00  0.00     0.006 C 
HETATM    4  C4  UNL     1      20.867   8.666  -4.565  1.00  0.00     0.001 C 
HETATM    5  C5  UNL     1      22.192   8.142  -4.185  1.00  0.00     0.011 C 
HETATM    6  C6  UNL     1      22.234   7.068  -3.172  1.00  0.00    -0.019 C 
HETATM    7  C7  UNL     1      23.489   7.302  -2.313  1.00  0.00     0.017 C 
HETATM    8  C8  UNL     1      22.477   5.691  -3.808  1.00  0.00     0.017 C 
HETATM    9  C9  UNL     1      21.068   6.966  -2.267  1.00  0.00     0.195 C 
ENDROOT
BRANCH   9  10
HETATM   10  N1  UNL     1      20.159   5.865  -2.619  1.00  0.00    -0.074 N 
ATOM     11  H13 UNL     1      19.851   5.326  -1.810  1.00  0.00     0.274 HD
ATOM     12  H12 UNL     1      19.238   6.186  -2.920  1.00  0.00     0.274 HD
ATOM     13  H11 UNL     1      20.636   5.299  -3.321  1.00  0.00     0.274 HD
ENDBRANCH   9  10
TORSDOF 1
ENDMDL
MODEL 2
REMARK VINA RESULT: -3.706797293      1.733      3.056
REMARK  1 active torsions:
REMARK  status: ('A' for Active; 'I' for Inactive)
REMARK    1  A    between atoms: C9_9  and  N1_10 
ROOT
HETATM    1  C1  UNL     1      21.831   8.017  -6.565  1.00  0.00     0.012 C 
HETATM    2  C2  UNL     1      21.089   7.536  -5.307  1.00  0.00     0.013 C 
HETATM    3  C3  UNL     1      20.462   8.754  -4.706  1.00  0.00     0.006 C 
HETATM    4  C4  UNL     1      20.002   8.614  -3.314  1.00  0.00     0.001 C 
HETATM    5  C5  UNL     1      20.396   7.390  -2.591  1.00  0.00     0.011 C 
HETATM    6  C6  UNL     1      21.657   6.737  -2.998  1.00  0.00    -0.019 C 
HETATM    7  C7  UNL     1      21.444   5.218  -2.871  1.00  0.00     0.017 C 
HETATM    8  C8  UNL     1      22.797   7.031  -2.012  1.00  0.00     0.017 C 
HETATM    9  C9  UNL     1      22.137   7.022  -4.368  1.00  0.00     0.195 C 
ENDROOT
BRANCH   9  10
HETATM   10  N1  UNL     1      23.250   7.983  -4.401  1.00  0.00    -0.074 N 
ATOM     11  H13 UNL     1      23.083   8.768  -5.030  1.00  0.00     0.274 HD
ATOM     12  H12 UNL     1      23.339   8.523  -3.540  1.00  0.00     0.274 HD
ATOM     13  H11 UNL     1      24.092   7.455  -4.633  1.00  0.00     0.274 HD
ENDBRANCH   9  10
TORSDOF 1
ENDMDL
MODEL 3
REMARK VINA RESULT: -3.681867769      1.613      2.597
REMARK  1 active torsions:
REMARK  status: ('A' for Active; 'I' for Inactive)
REMARK    1  A    between atoms: C9_9  and  N1_10 
ROOT
HETATM    1  C1  UNL     1      19.693   9.059  -2.238  1.00  0.00     0.012 C 
HETATM    2  C2  UNL     1      19.766   7.660  -2.870  1.00  0.00     0.013 C 
HETATM    3  C3  UNL     1      19.279   6.709  -1.823  1.00  0.00     0.006 C 
HETATM    4  C4  UNL     1      19.588   5.288  -2.058  1.00  0.00     0.001 C 
HETATM    5  C5  UNL     1      20.519   4.972  -3.158  1.00  0.00     0.011 C 
HETATM    6  C6  UNL     1      21.528   5.993  -3.510  1.00  0.00    -0.019 C 
HETATM    7  C7  UNL     1      21.712   5.942  -5.036  1.00  0.00     0.017 C 
HETATM    8  C8  UNL     1      22.917   5.637  -2.960  1.00  0.00     0.017 C 
HETATM    9  C9  UNL     1      21.217   7.388  -3.129  1.00  0.00     0.195 C 
ENDROOT
BRANCH   9  10
HETATM   10  N1  UNL     1      21.956   7.839  -1.940  1.00  0.00    -0.074 N 
ATOM     11  H13 UNL     1      21.890   8.846  -1.785  1.00  0.00     0.274 HD
ATOM     12  H12 UNL     1      21.525   7.545  -1.064  1.00  0.00     0.274 HD
ATOM     13  H11 UNL     1      22.916   7.512  -2.045  1.00  0.00     0.274 HD
ENDBRANCH   9  10
TORSDOF 1
ENDMDL
MODEL 4
REMARK VINA RESULT: -3.646130727      1.043      3.420
REMARK  1 active torsions:
REMARK  status: ('A' for Active; 'I' for Inactive)
REMARK    1  A    between atoms: C9_9  and  N1_10 
ROOT
HETATM    1  C1  UNL     1      22.579   4.384  -3.973  1.00  0.00     0.012 C 
HETATM    2  C2  UNL     1      22.488   5.884  -3.650  1.00  0.00     0.013 C 
HETATM    3  C3  UNL     1      23.230   6.076  -2.365  1.00  0.00     0.006 C 
HETATM    4  C4  UNL     1      22.984   7.351  -1.669  1.00  0.00     0.001 C 
HETATM    5  C5  UNL     1      21.887   8.196  -2.176  1.00  0.00     0.011 C 
HETATM    6  C6  UNL     1      20.760   7.517  -2.849  1.00  0.00    -0.019 C 
HETATM    7  C7  UNL     1      20.294   8.434  -3.993  1.00  0.00     0.017 C 
HETATM    8  C8  UNL     1      19.528   7.414  -1.937  1.00  0.00     0.017 C 
HETATM    9  C9  UNL     1      21.037   6.179  -3.414  1.00  0.00     0.195 C 
ENDROOT
BRANCH   9  10
HETATM   10  N1  UNL     1      20.506   5.083  -2.590  1.00  0.00    -0.074 N 
ATOM     11  H13 UNL     1      20.241   4.263  -3.136  1.00  0.00     0.274 HD
ATOM     12  H12 UNL     1      21.218   4.632  -2.016  1.00  0.00     0.274 HD
ATOM     13  H11 UNL     1      19.735   5.468  -2.045  1.00  0.00     0.274 HD
ENDBRANCH   9  10
TORSDOF 1
ENDMDL
MODEL 5
REMARK VINA RESULT: -3.597856840      1.849      3.399
REMARK  1 active torsions:
REMARK  status: ('A' for Active; 'I' for Inactive)
REMARK    1  A    between atoms: C9_9  and  N1_10 
ROOT
HETATM    1  C1  UNL     1      22.176   8.823  -6.516  1.00  0.00     0.012 C 
HETATM    2  C2  UNL     1      22.285   7.826  -5.351  1.00  0.00     0.013 C 
HETATM    3  C3  UNL     1      21.596   6.579  -5.809  1.00  0.00     0.006 C 
HETATM    4  C4  UNL     1      21.257   5.613  -4.750  1.00  0.00     0.001 C 
HETATM    5  C5  UNL     1      21.421   6.055  -3.353  1.00  0.00     0.011 C 
HETATM    6  C6  UNL     1      21.281   7.500  -3.076  1.00  0.00    -0.019 C 
HETATM    7  C7  UNL     1      22.291   7.851  -1.970  1.00  0.00     0.017 C 
HETATM    8  C8  UNL     1      19.919   7.832  -2.447  1.00  0.00     0.017 C 
HETATM    9  C9  UNL     1      21.506   8.416  -4.215  1.00  0.00     0.195 C 
ENDROOT
BRANCH   9  10
HETATM   10  N1  UNL     1      20.259   8.950  -4.782  1.00  0.00    -0.074 N 
ATOM     11  H13 UNL     1      20.109   8.673  -5.752  1.00  0.00     0.274 HD
ATOM     12  H12 UNL     1      19.423   8.515  -4.392  1.00  0.00     0.274 HD
ATOM     13  H11 UNL     1      20.283   9.961  -4.653  1.00  0.00     0.274 HD
ENDBRANCH   9  10
TORSDOF 1
ENDMDL
