MODEL 1
REMARK VINA RESULT: -4.414667539      0.000      0.000
REMARK  0 active torsions:
REMARK  status: ('A' for Active; 'I' for Inactive)
ROOT
HETATM    1  C1  UNL     1      18.339   6.490  -1.648  1.00  0.00     0.000 C 
HETATM    2  C2  UNL     1      18.842   7.818  -1.160  1.00  0.00     0.002 C 
HETATM    3  C3  UNL     1      19.507   8.652  -2.279  1.00  0.00     0.033 C 
HETATM    4  C4  UNL     1      20.235   7.682  -3.034  1.00  0.00     0.186 C 
HETATM    5  C5  UNL     1      21.277   7.947  -4.044  1.00  0.00     0.035 C 
HETATM    6  C6  UNL     1      21.602   6.438  -4.265  1.00  0.00     0.035 C 
HETATM    7  C7  UNL     1      21.318   5.774  -2.935  1.00  0.00     0.186 C 
HETATM    8  C8  UNL     1      20.031   5.012  -2.840  1.00  0.00     0.033 C 
HETATM    9  C9  UNL     1      19.256   5.332  -1.550  1.00  0.00     0.002 C 
HETATM   10  N1  UNL     1      21.076   6.941  -2.066  1.00  0.00    -0.067 N 
ATOM     11  H11 UNL     1      20.684   6.765  -1.141  1.00  0.00     0.278 HD
ATOM     12  H12 UNL     1      21.891   7.422  -1.686  1.00  0.00     0.278 HD
ENDROOT
TORSDOF 0
ENDMDL
MODEL 2
REMARK VINA RESULT: -4.325772105      0.847      3.599
REMARK  0 active torsions:
REMARK  status: ('A' for Active; 'I' for Inactive)
ROOT
HETATM    1  C1  UNL     1      21.446   6.393  -4.787  1.00  0.00     0.000 C 
HETATM    2  C2  UNL     1      21.844   5.435  -3.703  1.00  0.00     0.002 C 
HETATM    3  C3  UNL     1      20.682   5.108  -2.739  1.00  0.00     0.033 C 
HETATM    4  C4  UNL     1      20.017   6.361  -2.576  1.00  0.00     0.186 C 
HETATM    5  C5  UNL     1      19.012   6.705  -1.551  1.00  0.00     0.035 C 
HETATM    6  C6  UNL     1      18.912   8.196  -1.991  1.00  0.00     0.035 C 
HETATM    7  C7  UNL     1      20.280   8.541  -2.536  1.00  0.00     0.186 C 
HETATM    8  C8  UNL     1      20.404   8.586  -4.029  1.00  0.00     0.033 C 
HETATM    9  C9  UNL     1      21.650   7.837  -4.535  1.00  0.00     0.002 C 
HETATM   10  N1  UNL     1      21.055   7.339  -2.176  1.00  0.00    -0.067 N 
ATOM     11  H11 UNL     1      21.982   7.236  -2.589  1.00  0.00     0.278 HD
ATOM     12  H12 UNL     1      21.416   7.279  -1.224  1.00  0.00     0.278 HD
ENDROOT
TORSDOF 0
ENDMDL
MODEL 3
REMARK VINA RESULT: -4.306049587      0.820      1.648
REMARK  0 active torsions:
REMARK  status: ('A' for Active; 'I' for Inactive)
ROOT
HETATM    1  C1  UNL     1      18.894   5.078  -2.198  1.00  0.00     0.000 C 
HETATM    2  C2  UNL     1      18.492   5.944  -1.040  1.00  0.00     0.002 C 
HETATM    3  C3  UNL     1      18.266   7.418  -1.446  1.00  0.00     0.033 C 
HETATM    4  C4  UNL     1      19.311   7.671  -2.386  1.00  0.00     0.186 C 
HETATM    5  C5  UNL     1      19.753   8.988  -2.887  1.00  0.00     0.035 C 
HETATM    6  C6  UNL     1      20.932   8.399  -3.717  1.00  0.00     0.035 C 
HETATM    7  C7  UNL     1      21.367   7.161  -2.965  1.00  0.00     0.186 C 
HETATM    8  C8  UNL     1      20.915   5.850  -3.535  1.00  0.00     0.033 C 
HETATM    9  C9  UNL     1      20.342   4.912  -2.458  1.00  0.00     0.002 C 
HETATM   10  N1  UNL     1      20.576   7.273  -1.726  1.00  0.00    -0.067 N 
ATOM     11  H11 UNL     1      20.549   6.460  -1.110  1.00  0.00     0.278 HD
ATOM     12  H12 UNL     1      20.935   7.882  -0.991  1.00  0.00     0.278 HD
ENDROOT
TORSDOF 0
ENDMDL
MODEL 4
REMARK VINA RESULT: -4.193716067      0.945      2.490
REMARK  0 active torsions:
REMARK  status: ('A' for Active; 'I' for Inactive)
ROOT
HETATM    1  C1  UNL     1      18.915   7.564  -1.125  1.00  0.00     0.000 C 
HETATM    2  C2  UNL     1      18.151   6.399  -1.682  1.00  0.00     0.002 C 
HETATM    3  C3  UNL     1      19.028   5.138  -1.856  1.00  0.00     0.033 C 
HETATM    4  C4  UNL     1      20.272   5.657  -2.330  1.00  0.00     0.186 C 
HETATM    5  C5  UNL     1      21.380   4.889  -2.931  1.00  0.00     0.035 C 
HETATM    6  C6  UNL     1      22.229   6.156  -3.251  1.00  0.00     0.035 C 
HETATM    7  C7  UNL     1      21.221   7.257  -3.497  1.00  0.00     0.186 C 
HETATM    8  C8  UNL     1      21.024   8.234  -2.378  1.00  0.00     0.033 C 
HETATM    9  C9  UNL     1      19.537   8.500  -2.089  1.00  0.00     0.002 C 
HETATM   10  N1  UNL     1      19.954   6.502  -3.504  1.00  0.00    -0.067 N 
ATOM     11  H11 UNL     1      19.087   7.039  -3.476  1.00  0.00     0.278 HD
ATOM     12  H12 UNL     1      19.692   6.029  -4.369  1.00  0.00     0.278 HD
ENDROOT
TORSDOF 0
ENDMDL
MODEL 5
REMARK VINA RESULT: -4.031697380      1.018      1.337
REMARK  0 active torsions:
REMARK  status: ('A' for Active; 'I' for Inactive)
ROOT
HETATM    1  C1  UNL     1      19.418   6.199  -2.157  1.00  0.00     0.000 C 
HETATM    2  C2  UNL     1      19.570   7.565  -1.554  1.00  0.00     0.002 C 
HETATM    3  C3  UNL     1      19.571   8.689  -2.615  1.00  0.00     0.033 C 
HETATM    4  C4  UNL     1      20.330   8.136  -3.690  1.00  0.00     0.186 C 
HETATM    5  C5  UNL     1      20.891   8.863  -4.846  1.00  0.00     0.035 C 
HETATM    6  C6  UNL     1      21.618   7.611  -5.421  1.00  0.00     0.035 C 
HETATM    7  C7  UNL     1      21.964   6.765  -4.215  1.00  0.00     0.186 C 
HETATM    8  C8  UNL     1      21.087   5.575  -3.971  1.00  0.00     0.033 C 
HETATM    9  C9  UNL     1      20.654   5.460  -2.499  1.00  0.00     0.002 C 
HETATM   10  N1  UNL     1      21.609   7.670  -3.106  1.00  0.00    -0.067 N 
ATOM     11  H11 UNL     1      21.580   7.274  -2.167  1.00  0.00     0.278 HD
ATOM     12  H12 UNL     1      22.292   8.380  -2.841  1.00  0.00     0.278 HD
ENDROOT
TORSDOF 0
ENDMDL
