MODEL 1
REMARK VINA RESULT: -3.765458406      0.000      0.000
REMARK  0 active torsions:
REMARK  status: ('A' for Active; 'I' for Inactive)
ROOT
HETATM    1  C1  UNL     1      20.384   5.258  -2.771  1.00  0.00     0.046 C 
HETATM    2  C2  UNL     1      21.526   5.800  -3.574  1.00  0.00     0.058 C 
HETATM    3  C3  UNL     1      22.510   4.637  -3.778  1.00  0.00     0.046 C 
HETATM    4  O1  UNL     1      21.181   6.249  -4.825  1.00  0.00    -0.375 OA
HETATM    5  C4  UNL     1      21.419   7.618  -4.875  1.00  0.00     0.123 C 
HETATM    6  C5  UNL     1      20.299   8.320  -4.204  1.00  0.00     0.032 C 
HETATM    7  C6  UNL     1      20.441   8.560  -2.754  1.00  0.00     0.003 C 
HETATM    8  C7  UNL     1      21.468   7.786  -2.037  1.00  0.00     0.008 C 
HETATM    9  C8  UNL     1      22.303   6.875  -2.877  1.00  0.00     0.022 C 
HETATM   10  C9  UNL     1      22.735   7.710  -4.095  1.00  0.00     0.039 C 
ENDROOT
TORSDOF 0
ENDMDL
MODEL 2
REMARK VINA RESULT: -3.669535227      1.236      2.654
REMARK  0 active torsions:
REMARK  status: ('A' for Active; 'I' for Inactive)
ROOT
HETATM    1  C1  UNL     1      21.307   7.051  -5.511  1.00  0.00     0.046 C 
HETATM    2  C2  UNL     1      22.060   7.639  -4.358  1.00  0.00     0.058 C 
HETATM    3  C3  UNL     1      23.266   8.383  -4.954  1.00  0.00     0.046 C 
HETATM    4  O1  UNL     1      21.353   8.559  -3.624  1.00  0.00    -0.375 OA
HETATM    5  C4  UNL     1      21.182   8.052  -2.340  1.00  0.00     0.123 C 
HETATM    6  C5  UNL     1      20.075   7.067  -2.361  1.00  0.00     0.032 C 
HETATM    7  C6  UNL     1      20.441   5.664  -2.642  1.00  0.00     0.003 C 
HETATM    8  C7  UNL     1      21.769   5.415  -3.228  1.00  0.00     0.008 C 
HETATM    9  C8  UNL     1      22.633   6.619  -3.421  1.00  0.00     0.022 C 
HETATM   10  C9  UNL     1      22.552   7.407  -2.103  1.00  0.00     0.039 C 
ENDROOT
TORSDOF 0
ENDMDL
MODEL 3
REMARK VINA RESULT: -3.622709704      1.389      2.959
REMARK  0 active torsions:
REMARK  status: ('A' for Active; 'I' for Inactive)
ROOT
HETATM    1  C1  UNL     1      20.066   8.516  -3.234  1.00  0.00     0.046 C 
HETATM    2  C2  UNL     1      21.017   8.248  -4.360  1.00  0.00     0.058 C 
HETATM    3  C3  UNL     1      20.370   8.828  -5.628  1.00  0.00     0.046 C 
HETATM    4  O1  UNL     1      22.241   8.856  -4.229  1.00  0.00    -0.375 OA
HETATM    5  C4  UNL     1      23.208   7.864  -4.113  1.00  0.00     0.123 C 
HETATM    6  C5  UNL     1      23.200   7.353  -2.721  1.00  0.00     0.032 C 
HETATM    7  C6  UNL     1      22.299   6.218  -2.437  1.00  0.00     0.003 C 
HETATM    8  C7  UNL     1      21.241   5.930  -3.420  1.00  0.00     0.008 C 
HETATM    9  C8  UNL     1      21.233   6.792  -4.640  1.00  0.00     0.022 C 
HETATM   10  C9  UNL     1      22.691   6.839  -5.128  1.00  0.00     0.039 C 
ENDROOT
TORSDOF 0
ENDMDL
MODEL 4
REMARK VINA RESULT: -3.587057898      0.933      3.019
REMARK  0 active torsions:
REMARK  status: ('A' for Active; 'I' for Inactive)
ROOT
HETATM    1  C1  UNL     1      22.804   8.282  -4.829  1.00  0.00     0.046 C 
HETATM    2  C2  UNL     1      21.477   7.813  -4.316  1.00  0.00     0.058 C 
HETATM    3  C3  UNL     1      20.420   8.762  -4.904  1.00  0.00     0.046 C 
HETATM    4  O1  UNL     1      21.130   6.545  -4.707  1.00  0.00    -0.375 OA
HETATM    5  C4  UNL     1      21.057   5.745  -3.571  1.00  0.00     0.123 C 
HETATM    6  C5  UNL     1      22.431   5.355  -3.174  1.00  0.00     0.032 C 
HETATM    7  C6  UNL     1      23.132   6.258  -2.240  1.00  0.00     0.003 C 
HETATM    8  C7  UNL     1      22.585   7.615  -2.070  1.00  0.00     0.008 C 
HETATM    9  C8  UNL     1      21.332   7.912  -2.828  1.00  0.00     0.022 C 
HETATM   10  C9  UNL     1      20.401   6.713  -2.581  1.00  0.00     0.039 C 
ENDROOT
TORSDOF 0
ENDMDL
MODEL 5
REMARK VINA RESULT: -3.532777228      1.448      2.772
REMARK  0 active torsions:
REMARK  status: ('A' for Active; 'I' for Inactive)
ROOT
HETATM    1  C1  UNL     1      23.825   7.876  -3.917  1.00  0.00     0.046 C 
HETATM    2  C2  UNL     1      22.749   7.429  -2.975  1.00  0.00     0.058 C 
HETATM    3  C3  UNL     1      23.460   6.841  -1.745  1.00  0.00     0.046 C 
HETATM    4  O1  UNL     1      21.938   8.436  -2.516  1.00  0.00    -0.375 OA
HETATM    5  C4  UNL     1      20.648   8.200  -2.982  1.00  0.00     0.123 C 
HETATM    6  C5  UNL     1      20.564   8.638  -4.395  1.00  0.00     0.032 C 
HETATM    7  C6  UNL     1      20.896   7.631  -5.423  1.00  0.00     0.003 C 
HETATM    8  C7  UNL     1      21.619   6.426  -4.981  1.00  0.00     0.008 C 
HETATM    9  C8  UNL     1      21.888   6.328  -3.515  1.00  0.00     0.022 C 
HETATM   10  C9  UNL     1      20.560   6.678  -2.822  1.00  0.00     0.039 C 
ENDROOT
TORSDOF 0
ENDMDL
