MODEL 1
REMARK VINA RESULT: -3.561909416      0.000      0.000
REMARK  1 active torsions:
REMARK  status: ('A' for Active; 'I' for Inactive)
REMARK    1  A    between atoms: C2_2  and  C3_3 
ROOT
HETATM    1  C3  UNL     1      20.795   7.019  -2.876  1.00  0.00     0.123 C 
HETATM    2  C4  UNL     1      20.172   5.685  -2.491  1.00  0.00     0.046 C 
HETATM    3  C5  UNL     1      22.187   7.137  -2.350  1.00  0.00     0.041 C 
HETATM    4  C6  UNL     1      22.959   7.806  -3.465  1.00  0.00     0.040 C 
HETATM    5  C7  UNL     1      22.095   7.706  -4.679  1.00  0.00     0.119 C 
HETATM    6  C8  UNL     1      22.854   6.901  -5.741  1.00  0.00     0.046 C 
HETATM    7  C9  UNL     1      21.861   9.081  -5.315  1.00  0.00     0.046 C 
HETATM    8  N1  UNL     1      20.872   7.066  -4.304  1.00  0.00    -0.059 N 
ATOM      9  H11 UNL     1      20.056   7.509  -4.724  1.00  0.00     0.279 HD
ATOM     10  H12 UNL     1      20.768   6.145  -4.731  1.00  0.00     0.279 HD
ENDROOT
BRANCH   1  11
HETATM   11  C2  UNL     1      19.913   8.110  -2.305  1.00  0.00     0.034 C 
HETATM   12  C1  UNL     1      18.842   7.581  -1.412  1.00  0.00     0.007 C 
ENDBRANCH   1  11
TORSDOF 1
ENDMDL
MODEL 2
REMARK VINA RESULT: -3.560702671      1.461      2.455
REMARK  1 active torsions:
REMARK  status: ('A' for Active; 'I' for Inactive)
REMARK    1  A    between atoms: C2_2  and  C3_3 
ROOT
HETATM    1  C3  UNL     1      20.946   7.870  -3.374  1.00  0.00     0.123 C 
HETATM    2  C4  UNL     1      20.408   8.437  -4.680  1.00  0.00     0.046 C 
HETATM    3  C5  UNL     1      20.743   6.393  -3.300  1.00  0.00     0.041 C 
HETATM    4  C6  UNL     1      22.013   5.866  -2.672  1.00  0.00     0.040 C 
HETATM    5  C7  UNL     1      23.004   6.980  -2.753  1.00  0.00     0.119 C 
HETATM    6  C8  UNL     1      24.193   6.502  -3.597  1.00  0.00     0.046 C 
HETATM    7  C9  UNL     1      23.598   7.303  -1.378  1.00  0.00     0.046 C 
HETATM    8  N1  UNL     1      22.357   8.110  -3.345  1.00  0.00    -0.059 N 
ATOM      9  H11 UNL     1      22.594   8.984  -2.876  1.00  0.00     0.279 HD
ATOM     10  H12 UNL     1      22.733   8.337  -4.266  1.00  0.00     0.279 HD
ENDROOT
BRANCH   1  11
HETATM   11  C2  UNL     1      20.215   8.568  -2.245  1.00  0.00     0.034 C 
HETATM   12  C1  UNL     1      19.035   7.798  -1.757  1.00  0.00     0.007 C 
ENDBRANCH   1  11
TORSDOF 1
ENDMDL
MODEL 3
REMARK VINA RESULT: -3.503234708      0.991      1.123
REMARK  1 active torsions:
REMARK  status: ('A' for Active; 'I' for Inactive)
REMARK    1  A    between atoms: C2_2  and  C3_3 
ROOT
HETATM    1  C3  UNL     1      21.560   7.077  -3.320  1.00  0.00     0.123 C 
HETATM    2  C4  UNL     1      21.119   5.703  -2.835  1.00  0.00     0.046 C 
HETATM    3  C5  UNL     1      23.045   7.157  -3.443  1.00  0.00     0.041 C 
HETATM    4  C6  UNL     1      23.280   7.946  -4.711  1.00  0.00     0.040 C 
HETATM    5  C7  UNL     1      21.973   7.962  -5.432  1.00  0.00     0.119 C 
HETATM    6  C8  UNL     1      22.168   7.280  -6.792  1.00  0.00     0.046 C 
HETATM    7  C9  UNL     1      21.534   9.392  -5.765  1.00  0.00     0.046 C 
HETATM    8  N1  UNL     1      21.012   7.272  -4.628  1.00  0.00    -0.059 N 
ATOM      9  H11 UNL     1      20.110   7.747  -4.605  1.00  0.00     0.279 HD
ATOM     10  H12 UNL     1      20.701   6.399  -5.055  1.00  0.00     0.279 HD
ENDROOT
BRANCH   1  11
HETATM   11  C2  UNL     1      21.050   8.093  -2.319  1.00  0.00     0.034 C 
HETATM   12  C1  UNL     1      19.654   8.533  -2.599  1.00  0.00     0.007 C 
ENDBRANCH   1  11
TORSDOF 1
ENDMDL
MODEL 4
REMARK VINA RESULT: -3.489927369      1.389      2.413
REMARK  1 active torsions:
REMARK  status: ('A' for Active; 'I' for Inactive)
REMARK    1  A    between atoms: C2_2  and  C3_3 
ROOT
HETATM    1  C3  UNL     1      21.859   7.375  -3.214  1.00  0.00     0.123 C 
HETATM    2  C4  UNL     1      22.577   7.668  -1.905  1.00  0.00     0.046 C 
HETATM    3  C5  UNL     1      20.574   8.128  -3.307  1.00  0.00     0.041 C 
HETATM    4  C6  UNL     1      20.503   8.583  -4.747  1.00  0.00     0.040 C 
HETATM    5  C7  UNL     1      21.876   8.398  -5.304  1.00  0.00     0.119 C 
HETATM    6  C8  UNL     1      22.399   9.768  -5.752  1.00  0.00     0.046 C 
HETATM    7  C9  UNL     1      21.854   7.546  -6.577  1.00  0.00     0.046 C 
HETATM    8  N1  UNL     1      22.698   7.827  -4.281  1.00  0.00    -0.059 N 
ATOM      9  H11 UNL     1      23.307   7.091  -4.637  1.00  0.00     0.279 HD
ATOM     10  H12 UNL     1      23.424   8.469  -3.962  1.00  0.00     0.279 HD
ENDROOT
BRANCH   1  11
HETATM   11  C2  UNL     1      21.608   5.881  -3.265  1.00  0.00     0.034 C 
HETATM   12  C1  UNL     1      20.338   5.484  -2.593  1.00  0.00     0.007 C 
ENDBRANCH   1  11
TORSDOF 1
ENDMDL
MODEL 5
REMARK VINA RESULT: -3.363421538      1.608      3.124
REMARK  1 active torsions:
REMARK  status: ('A' for Active; 'I' for Inactive)
REMARK    1  A    between atoms: C2_2  and  C3_3 
ROOT
HETATM    1  C3  UNL     1      21.583   7.897  -4.656  1.00  0.00     0.123 C 
HETATM    2  C4  UNL     1      22.545   9.027  -4.995  1.00  0.00     0.046 C 
HETATM    3  C5  UNL     1      21.419   6.963  -5.809  1.00  0.00     0.041 C 
HETATM    4  C6  UNL     1      21.381   5.588  -5.181  1.00  0.00     0.040 C 
HETATM    5  C7  UNL     1      21.881   5.760  -3.785  1.00  0.00     0.119 C 
HETATM    6  C8  UNL     1      23.143   4.905  -3.619  1.00  0.00     0.046 C 
HETATM    7  C9  UNL     1      20.887   5.203  -2.761  1.00  0.00     0.046 C 
HETATM    8  N1  UNL     1      22.153   7.149  -3.577  1.00  0.00    -0.059 N 
ATOM      9  H11 UNL     1      21.836   7.477  -2.666  1.00  0.00     0.279 HD
ATOM     10  H12 UNL     1      23.149   7.337  -3.456  1.00  0.00     0.279 HD
ENDROOT
BRANCH   1  11
HETATM   11  C2  UNL     1      20.257   8.530  -4.288  1.00  0.00     0.034 C 
HETATM   12  C1  UNL     1      20.100   8.734  -2.819  1.00  0.00     0.007 C 
ENDBRANCH   1  11
TORSDOF 1
ENDMDL
