MODEL 1
REMARK VINA RESULT: -4.142908020      0.000      0.000
REMARK  1 active torsions:
REMARK  status: ('A' for Active; 'I' for Inactive)
REMARK    1  A    between atoms: C8_8  and  N1_9 
ROOT
HETATM    1  C1  UNL     1      21.593   8.463  -2.221  1.00  0.00     0.018 C 
HETATM    2  C2  UNL     1      20.403   7.821  -2.950  1.00  0.00    -0.001 C 
HETATM    3  C3  UNL     1      20.486   8.391  -4.376  1.00  0.00     0.018 C 
HETATM    4  C4  UNL     1      19.167   8.370  -2.345  1.00  0.00     0.012 C 
HETATM    5  C5  UNL     1      18.630   7.614  -1.181  1.00  0.00     0.001 C 
HETATM    6  C6  UNL     1      18.421   6.187  -1.641  1.00  0.00     0.004 C 
HETATM    7  C7  UNL     1      19.674   5.549  -2.118  1.00  0.00     0.055 C 
HETATM    8  C8  UNL     1      20.541   6.359  -2.990  1.00  0.00     0.217 C 
HETATM    9  C9  UNL     1      21.952   6.021  -2.678  1.00  0.00     0.099 C 
HETATM   10  N2  UNL     1      23.051   5.770  -2.420  1.00  0.00    -0.195 NA
ENDROOT
BRANCH   8  11
HETATM   11  N1  UNL     1      20.356   5.889  -4.374  1.00  0.00    -0.057 N 
ATOM     12  H13 UNL     1      19.374   5.880  -4.650  1.00  0.00     0.276 HD
ATOM     13  H12 UNL     1      20.693   6.565  -5.061  1.00  0.00     0.276 HD
ATOM     14  H11 UNL     1      20.795   4.975  -4.483  1.00  0.00     0.276 HD
ENDBRANCH   8  11
TORSDOF 1
ENDMDL
MODEL 2
REMARK VINA RESULT: -4.029877962      1.561      3.026
REMARK  1 active torsions:
REMARK  status: ('A' for Active; 'I' for Inactive)
REMARK    1  A    between atoms: C8_8  and  N1_9 
ROOT
HETATM    1  C1  UNL     1      20.875   6.112  -4.663  1.00  0.00     0.018 C 
HETATM    2  C2  UNL     1      20.935   6.213  -3.131  1.00  0.00    -0.001 C 
HETATM    3  C3  UNL     1      22.440   6.209  -2.814  1.00  0.00     0.018 C 
HETATM    4  C4  UNL     1      20.383   4.951  -2.584  1.00  0.00     0.012 C 
HETATM    5  C5  UNL     1      18.914   4.941  -2.347  1.00  0.00     0.001 C 
HETATM    6  C6  UNL     1      18.608   6.108  -1.432  1.00  0.00     0.004 C 
HETATM    7  C7  UNL     1      19.013   7.413  -2.013  1.00  0.00     0.055 C 
HETATM    8  C8  UNL     1      20.332   7.469  -2.666  1.00  0.00     0.217 C 
HETATM    9  C9  UNL     1      20.232   8.390  -3.825  1.00  0.00     0.099 C 
HETATM   10  N2  UNL     1      20.147   9.093  -4.740  1.00  0.00    -0.195 NA
ENDROOT
BRANCH   8  11
HETATM   11  N1  UNL     1      21.263   8.146  -1.747  1.00  0.00    -0.057 N 
ATOM     12  H13 UNL     1      21.225   9.161  -1.837  1.00  0.00     0.276 HD
ATOM     13  H12 UNL     1      20.965   8.076  -0.773  1.00  0.00     0.276 HD
ATOM     14  H11 UNL     1      22.205   7.781  -1.890  1.00  0.00     0.276 HD
ENDBRANCH   8  11
TORSDOF 1
ENDMDL
MODEL 3
REMARK VINA RESULT: -3.866203864      1.122      1.548
REMARK  1 active torsions:
REMARK  status: ('A' for Active; 'I' for Inactive)
REMARK    1  A    between atoms: C8_8  and  N1_9 
ROOT
HETATM    1  C1  UNL     1      22.570   8.575  -3.853  1.00  0.00     0.018 C 
HETATM    2  C2  UNL     1      21.180   7.962  -4.079  1.00  0.00    -0.001 C 
HETATM    3  C3  UNL     1      21.214   7.484  -5.541  1.00  0.00     0.018 C 
HETATM    4  C4  UNL     1      20.195   9.067  -4.017  1.00  0.00     0.012 C 
HETATM    5  C5  UNL     1      19.647   9.363  -2.665  1.00  0.00     0.001 C 
HETATM    6  C6  UNL     1      19.050   8.075  -2.139  1.00  0.00     0.004 C 
HETATM    7  C7  UNL     1      20.047   6.978  -2.046  1.00  0.00     0.055 C 
HETATM    8  C8  UNL     1      20.964   6.815  -3.187  1.00  0.00     0.217 C 
HETATM    9  C9  UNL     1      22.282   6.386  -2.659  1.00  0.00     0.099 C 
HETATM   10  N2  UNL     1      23.315   6.070  -2.244  1.00  0.00    -0.195 NA
ENDROOT
BRANCH   8  11
HETATM   11  N1  UNL     1      20.499   5.662  -3.978  1.00  0.00    -0.057 N 
ATOM     12  H13 UNL     1      19.539   5.402  -3.755  1.00  0.00     0.276 HD
ATOM     13  H12 UNL     1      20.361   5.898  -4.961  1.00  0.00     0.276 HD
ATOM     14  H11 UNL     1      21.148   4.884  -3.855  1.00  0.00     0.276 HD
ENDBRANCH   8  11
TORSDOF 1
ENDMDL
MODEL 4
REMARK VINA RESULT: -3.749094209      1.667      3.399
REMARK  1 active torsions:
REMARK  status: ('A' for Active; 'I' for Inactive)
REMARK    1  A    between atoms: C8_8  and  N1_9 
ROOT
HETATM    1  C1  UNL     1      20.098   7.706  -2.814  1.00  0.00     0.018 C 
HETATM    2  C2  UNL     1      21.560   7.363  -3.139  1.00  0.00    -0.001 C 
HETATM    3  C3  UNL     1      22.340   7.834  -1.899  1.00  0.00     0.018 C 
HETATM    4  C4  UNL     1      21.979   8.236  -4.260  1.00  0.00     0.012 C 
HETATM    5  C5  UNL     1      21.736   7.692  -5.624  1.00  0.00     0.001 C 
HETATM    6  C6  UNL     1      22.432   6.349  -5.694  1.00  0.00     0.004 C 
HETATM    7  C7  UNL     1      21.932   5.391  -4.675  1.00  0.00     0.055 C 
HETATM    8  C8  UNL     1      21.731   5.914  -3.313  1.00  0.00     0.217 C 
HETATM    9  C9  UNL     1      20.546   5.237  -2.731  1.00  0.00     0.099 C 
HETATM   10  N2  UNL     1      19.610   4.722  -2.286  1.00  0.00    -0.195 NA
ENDROOT
BRANCH   8  11
HETATM   11  N1  UNL     1      22.855   5.452  -2.481  1.00  0.00    -0.057 N 
ATOM     12  H13 UNL     1      23.681   5.231  -3.036  1.00  0.00     0.276 HD
ATOM     13  H12 UNL     1      23.255   6.204  -1.919  1.00  0.00     0.276 HD
ATOM     14  H11 UNL     1      22.552   4.663  -1.911  1.00  0.00     0.276 HD
ENDBRANCH   8  11
TORSDOF 1
ENDMDL
MODEL 5
REMARK VINA RESULT: -3.518206280      1.715      2.550
REMARK  1 active torsions:
REMARK  status: ('A' for Active; 'I' for Inactive)
REMARK    1  A    between atoms: C8_8  and  N1_9 
ROOT
HETATM    1  C1  UNL     1      23.142   7.982  -4.515  1.00  0.00     0.018 C 
HETATM    2  C2  UNL     1      21.784   7.297  -4.299  1.00  0.00    -0.001 C 
HETATM    3  C3  UNL     1      21.928   5.946  -5.020  1.00  0.00     0.018 C 
HETATM    4  C4  UNL     1      20.773   8.075  -5.052  1.00  0.00     0.012 C 
HETATM    5  C5  UNL     1      20.129   9.187  -4.303  1.00  0.00     0.001 C 
HETATM    6  C6  UNL     1      19.527   8.585  -3.051  1.00  0.00     0.004 C 
HETATM    7  C7  UNL     1      20.539   7.921  -2.190  1.00  0.00     0.055 C 
HETATM    8  C8  UNL     1      21.534   7.073  -2.869  1.00  0.00     0.217 C 
HETATM    9  C9  UNL     1      22.823   7.211  -2.148  1.00  0.00     0.099 C 
HETATM   10  N2  UNL     1      23.833   7.334  -1.596  1.00  0.00    -0.195 NA
ENDROOT
BRANCH   8  11
HETATM   11  N1  UNL     1      21.150   5.667  -2.655  1.00  0.00    -0.057 N 
ATOM     12  H13 UNL     1      20.808   5.500  -1.709  1.00  0.00     0.276 HD
ATOM     13  H12 UNL     1      20.301   5.417  -3.163  1.00  0.00     0.276 HD
ATOM     14  H11 UNL     1      21.936   5.062  -2.894  1.00  0.00     0.276 HD
ENDBRANCH   8  11
TORSDOF 1
ENDMDL
