MODEL 1
REMARK VINA RESULT: -3.530995318      0.000      0.000
REMARK  1 active torsions:
REMARK  status: ('A' for Active; 'I' for Inactive)
REMARK    1  A    between atoms: N1_8  and  O1_9 
ROOT
HETATM    1  C1  UNL     1      17.786   7.631  -1.453  1.00  0.00     0.029 C 
HETATM    2  C2  UNL     1      19.231   7.264  -1.815  1.00  0.00     0.093 C 
HETATM    3  C3  UNL     1      19.322   5.846  -2.271  1.00  0.00     0.097 C 
HETATM    4  S1  UNL     1      20.933   5.919  -3.153  1.00  0.00    -0.140 SA
HETATM    5  C4  UNL     1      20.838   7.729  -3.463  1.00  0.00     0.079 C 
HETATM    6  C5  UNL     1      22.051   8.435  -2.966  1.00  0.00     0.046 C 
HETATM    7  C6  UNL     1      20.682   7.842  -4.986  1.00  0.00     0.046 C 
HETATM    8  N1  UNL     1      19.614   8.130  -2.878  1.00  0.00    -0.176 NA
ENDROOT
BRANCH   8   9
HETATM    9  O1  UNL     1      19.667   9.390  -2.361  1.00  0.00    -0.311 OA
ATOM     10  H1  UNL     1      20.577   9.663  -2.395  1.00  0.00     0.237 HD
ENDBRANCH   8   9
TORSDOF 1
ENDMDL
MODEL 2
REMARK VINA RESULT: -3.460713604      2.069      2.597
REMARK  1 active torsions:
REMARK  status: ('A' for Active; 'I' for Inactive)
REMARK    1  A    between atoms: N1_8  and  O1_9 
ROOT
HETATM    1  C1  UNL     1      18.522   4.983  -1.420  1.00  0.00     0.029 C 
HETATM    2  C2  UNL     1      18.841   6.251  -2.222  1.00  0.00     0.093 C 
HETATM    3  C3  UNL     1      18.580   7.475  -1.409  1.00  0.00     0.097 C 
HETATM    4  S1  UNL     1      19.582   8.685  -2.364  1.00  0.00    -0.140 SA
HETATM    5  C4  UNL     1      20.695   7.409  -3.079  1.00  0.00     0.079 C 
HETATM    6  C5  UNL     1      20.743   7.493  -4.565  1.00  0.00     0.046 C 
HETATM    7  C6  UNL     1      22.059   7.698  -2.436  1.00  0.00     0.046 C 
HETATM    8  N1  UNL     1      20.225   6.184  -2.551  1.00  0.00    -0.176 NA
ENDROOT
BRANCH   8   9
HETATM    9  O1  UNL     1      20.375   5.145  -3.420  1.00  0.00    -0.311 OA
ATOM     10  H1  UNL     1      20.891   4.484  -2.973  1.00  0.00     0.237 HD
ENDBRANCH   8   9
TORSDOF 1
ENDMDL
MODEL 3
REMARK VINA RESULT: -3.324421421      2.041      2.533
REMARK  1 active torsions:
REMARK  status: ('A' for Active; 'I' for Inactive)
REMARK    1  A    between atoms: N1_8  and  O1_9 
ROOT
HETATM    1  C1  UNL     1      18.423   7.810  -1.161  1.00  0.00     0.029 C 
HETATM    2  C2  UNL     1      19.260   7.840  -2.446  1.00  0.00     0.093 C 
HETATM    3  C3  UNL     1      19.880   9.182  -2.647  1.00  0.00     0.097 C 
HETATM    4  S1  UNL     1      21.208   8.723  -3.830  1.00  0.00    -0.140 SA
HETATM    5  C4  UNL     1      21.265   6.964  -3.300  1.00  0.00     0.079 C 
HETATM    6  C5  UNL     1      21.096   6.037  -4.452  1.00  0.00     0.046 C 
HETATM    7  C6  UNL     1      22.639   6.817  -2.630  1.00  0.00     0.046 C 
HETATM    8  N1  UNL     1      20.283   6.863  -2.285  1.00  0.00    -0.176 NA
ENDROOT
BRANCH   8   9
HETATM    9  O1  UNL     1      19.669   5.647  -2.269  1.00  0.00    -0.311 OA
ATOM     10  H1  UNL     1      19.071   5.650  -1.530  1.00  0.00     0.237 HD
ENDBRANCH   8   9
TORSDOF 1
ENDMDL
MODEL 4
REMARK VINA RESULT: -3.262843681      1.078      1.133
REMARK  1 active torsions:
REMARK  status: ('A' for Active; 'I' for Inactive)
REMARK    1  A    between atoms: N1_8  and  O1_9 
ROOT
HETATM    1  C1  UNL     1      17.727   5.880  -1.501  1.00  0.00     0.029 C 
HETATM    2  C2  UNL     1      19.233   5.945  -1.786  1.00  0.00     0.093 C 
HETATM    3  C3  UNL     1      19.662   4.802  -2.644  1.00  0.00     0.097 C 
HETATM    4  S1  UNL     1      21.255   5.478  -3.264  1.00  0.00    -0.140 SA
HETATM    5  C4  UNL     1      20.771   7.233  -3.008  1.00  0.00     0.079 C 
HETATM    6  C5  UNL     1      21.768   7.961  -2.178  1.00  0.00     0.046 C 
HETATM    7  C6  UNL     1      20.666   7.805  -4.429  1.00  0.00     0.046 C 
HETATM    8  N1  UNL     1      19.461   7.170  -2.476  1.00  0.00    -0.176 NA
ENDROOT
BRANCH   8   9
HETATM    9  O1  UNL     1      19.205   8.175  -1.592  1.00  0.00    -0.311 OA
ATOM     10  H1  UNL     1      20.015   8.343  -1.125  1.00  0.00     0.237 HD
ENDBRANCH   8   9
TORSDOF 1
ENDMDL
MODEL 5
REMARK VINA RESULT: -3.227616249      2.837      3.337
REMARK  1 active torsions:
REMARK  status: ('A' for Active; 'I' for Inactive)
REMARK    1  A    between atoms: N1_8  and  O1_9 
ROOT
HETATM    1  C1  UNL     1      19.344   4.820  -2.302  1.00  0.00     0.029 C 
HETATM    2  C2  UNL     1      20.298   5.804  -2.991  1.00  0.00     0.093 C 
HETATM    3  C3  UNL     1      20.049   7.200  -2.529  1.00  0.00     0.097 C 
HETATM    4  S1  UNL     1      21.643   7.968  -3.027  1.00  0.00    -0.140 SA
HETATM    5  C4  UNL     1      22.574   6.383  -3.001  1.00  0.00     0.079 C 
HETATM    6  C5  UNL     1      23.272   6.136  -4.292  1.00  0.00     0.046 C 
HETATM    7  C6  UNL     1      23.554   6.543  -1.830  1.00  0.00     0.046 C 
HETATM    8  N1  UNL     1      21.617   5.410  -2.626  1.00  0.00    -0.176 NA
ENDROOT
BRANCH   8   9
HETATM    9  O1  UNL     1      21.844   4.200  -3.210  1.00  0.00    -0.311 OA
ATOM     10  H1  UNL     1      21.898   3.562  -2.508  1.00  0.00     0.237 HD
ENDBRANCH   8   9
TORSDOF 1
ENDMDL
