MODEL 1
REMARK VINA RESULT: -4.049195312      0.000      0.000
REMARK  0 active torsions:
REMARK  status: ('A' for Active; 'I' for Inactive)
ROOT
HETATM    1  C1  UNL     1      22.030   5.423  -4.347  1.00  0.00     0.046 C 
HETATM    2  C2  UNL     1      21.195   6.289  -3.389  1.00  0.00     0.064 C 
HETATM    3  C3  UNL     1      20.172   5.361  -2.712  1.00  0.00     0.046 C 
HETATM    4  C4  UNL     1      22.144   6.845  -2.385  1.00  0.00     0.121 C 
HETATM    5  C5  UNL     1      22.726   8.121  -2.859  1.00  0.00     0.117 C 
HETATM    6  N1  UNL     1      23.925   8.466  -2.562  1.00  0.00    -0.383 N 
ATOM      7  H11 UNL     1      24.327   9.344  -2.889  1.00  0.00     0.157 HD
ATOM      8  H12 UNL     1      24.524   7.873  -1.987  1.00  0.00     0.157 HD
HETATM    9  O1  UNL     1      21.914   8.924  -3.640  1.00  0.00    -0.303 OA
HETATM   10  C6  UNL     1      20.573   8.483  -3.919  1.00  0.00     0.165 C 
HETATM   11  C7  UNL     1      19.671   9.007  -2.824  1.00  0.00     0.079 C 
HETATM   12  C8  UNL     1      20.115   9.195  -5.183  1.00  0.00     0.079 C 
HETATM   13  O2  UNL     1      20.486   7.156  -4.139  1.00  0.00    -0.345 OA
ENDROOT
TORSDOF 0
ENDMDL
MODEL 2
REMARK VINA RESULT: -4.042928280      1.966      3.652
REMARK  0 active torsions:
REMARK  status: ('A' for Active; 'I' for Inactive)
ROOT
HETATM    1  C1  UNL     1      19.682   8.707  -5.306  1.00  0.00     0.046 C 
HETATM    2  C2  UNL     1      20.784   8.531  -4.246  1.00  0.00     0.064 C 
HETATM    3  C3  UNL     1      21.999   9.348  -4.715  1.00  0.00     0.046 C 
HETATM    4  C4  UNL     1      20.239   9.082  -2.975  1.00  0.00     0.121 C 
HETATM    5  C5  UNL     1      19.499   8.044  -2.223  1.00  0.00     0.117 C 
HETATM    6  N1  UNL     1      18.476   8.332  -1.506  1.00  0.00    -0.383 N 
ATOM      7  H11 UNL     1      17.965   7.616  -0.988  1.00  0.00     0.157 HD
ATOM      8  H12 UNL     1      18.132   9.290  -1.426  1.00  0.00     0.157 HD
HETATM    9  O1  UNL     1      19.965   6.746  -2.331  1.00  0.00    -0.303 OA
HETATM   10  C6  UNL     1      21.130   6.498  -3.140  1.00  0.00     0.165 C 
HETATM   11  C7  UNL     1      22.349   6.631  -2.256  1.00  0.00     0.079 C 
HETATM   12  C8  UNL     1      21.096   5.032  -3.548  1.00  0.00     0.079 C 
HETATM   13  O2  UNL     1      21.162   7.238  -4.266  1.00  0.00    -0.345 OA
ENDROOT
TORSDOF 0
ENDMDL
MODEL 3
REMARK VINA RESULT: -4.037935965      1.697      3.052
REMARK  0 active torsions:
REMARK  status: ('A' for Active; 'I' for Inactive)
ROOT
HETATM    1  C1  UNL     1      23.452   7.806  -1.384  1.00  0.00     0.046 C 
HETATM    2  C2  UNL     1      22.876   7.960  -2.802  1.00  0.00     0.064 C 
HETATM    3  C3  UNL     1      23.923   8.714  -3.639  1.00  0.00     0.046 C 
HETATM    4  C4  UNL     1      22.674   6.583  -3.329  1.00  0.00     0.121 C 
HETATM    5  C5  UNL     1      21.338   6.065  -2.958  1.00  0.00     0.117 C 
HETATM    6  N1  UNL     1      21.141   4.820  -2.718  1.00  0.00    -0.383 N 
ATOM      7  H11 UNL     1      20.220   4.463  -2.461  1.00  0.00     0.157 HD
ATOM      8  H12 UNL     1      21.898   4.139  -2.774  1.00  0.00     0.157 HD
HETATM    9  O1  UNL     1      20.311   6.989  -2.881  1.00  0.00    -0.303 OA
HETATM   10  C6  UNL     1      20.602   8.366  -3.180  1.00  0.00     0.165 C 
HETATM   11  C7  UNL     1      20.389   8.577  -4.662  1.00  0.00     0.079 C 
HETATM   12  C8  UNL     1      19.533   9.213  -2.504  1.00  0.00     0.079 C 
HETATM   13  O2  UNL     1      21.801   8.769  -2.717  1.00  0.00    -0.345 OA
ENDROOT
TORSDOF 0
ENDMDL
MODEL 4
REMARK VINA RESULT: -3.975381570      0.983      3.145
REMARK  0 active torsions:
REMARK  status: ('A' for Active; 'I' for Inactive)
ROOT
HETATM    1  C1  UNL     1      19.744   9.146  -2.620  1.00  0.00     0.046 C 
HETATM    2  C2  UNL     1      20.553   8.325  -3.639  1.00  0.00     0.064 C 
HETATM    3  C3  UNL     1      20.126   8.792  -5.041  1.00  0.00     0.046 C 
HETATM    4  C4  UNL     1      21.987   8.642  -3.394  1.00  0.00     0.121 C 
HETATM    5  C5  UNL     1      22.561   7.739  -2.372  1.00  0.00     0.117 C 
HETATM    6  N1  UNL     1      23.470   8.134  -1.557  1.00  0.00    -0.383 N 
ATOM      7  H11 UNL     1      23.866   7.512  -0.852  1.00  0.00     0.157 HD
ATOM      8  H12 UNL     1      23.833   9.088  -1.584  1.00  0.00     0.157 HD
HETATM    9  O1  UNL     1      22.069   6.447  -2.336  1.00  0.00    -0.303 OA
HETATM   10  C6  UNL     1      21.062   6.067  -3.291  1.00  0.00     0.165 C 
HETATM   11  C7  UNL     1      21.762   5.535  -4.522  1.00  0.00     0.079 C 
HETATM   12  C8  UNL     1      20.316   4.873  -2.714  1.00  0.00     0.079 C 
HETATM   13  O2  UNL     1      20.161   7.041  -3.528  1.00  0.00    -0.345 OA
ENDROOT
TORSDOF 0
ENDMDL
MODEL 5
REMARK VINA RESULT: -3.921630548      2.027      2.770
REMARK  0 active torsions:
REMARK  status: ('A' for Active; 'I' for Inactive)
ROOT
HETATM    1  C1  UNL     1      22.960   7.957  -1.593  1.00  0.00     0.046 C 
HETATM    2  C2  UNL     1      22.208   7.422  -2.824  1.00  0.00     0.064 C 
HETATM    3  C3  UNL     1      22.606   5.947  -2.994  1.00  0.00     0.046 C 
HETATM    4  C4  UNL     1      20.756   7.543  -2.517  1.00  0.00     0.121 C 
HETATM    5  C5  UNL     1      20.241   8.873  -2.913  1.00  0.00     0.117 C 
HETATM    6  N1  UNL     1      19.307   9.457  -2.256  1.00  0.00    -0.383 N 
ATOM      7  H11 UNL     1      18.952  10.374  -2.529  1.00  0.00     0.157 HD
ATOM      8  H12 UNL     1      18.883   9.026  -1.434  1.00  0.00     0.157 HD
HETATM    9  O1  UNL     1      20.817   9.457  -4.027  1.00  0.00    -0.303 OA
HETATM   10  C6  UNL     1      21.848   8.737  -4.726  1.00  0.00     0.165 C 
HETATM   11  C7  UNL     1      21.187   7.883  -5.785  1.00  0.00     0.079 C 
HETATM   12  C8  UNL     1      22.670   9.758  -5.500  1.00  0.00     0.079 C 
HETATM   13  O2  UNL     1      22.684   8.073  -3.903  1.00  0.00    -0.345 OA
ENDROOT
TORSDOF 0
ENDMDL
