MODEL 1
REMARK VINA RESULT: -3.112715767      0.000      0.000
REMARK  0 active torsions:
REMARK  status: ('A' for Active; 'I' for Inactive)
ROOT
HETATM    1  N1  UNL     1      18.651   4.572  -1.518  1.00  0.00    -0.197 NA
HETATM    2  C1  UNL     1      18.912   5.572  -2.021  1.00  0.00     0.066 C 
HETATM    3  C2  UNL     1      19.264   6.818  -2.658  1.00  0.00     0.118 C 
HETATM    4  C3  UNL     1      19.563   7.893  -1.643  1.00  0.00     0.031 C 
HETATM    5  C4  UNL     1      19.738   9.135  -2.530  1.00  0.00     0.076 C 
HETATM    6  S1  UNL     1      21.001   8.443  -3.675  1.00  0.00    -0.151 SA
HETATM    7  C5  UNL     1      20.498   6.680  -3.525  1.00  0.00     0.137 C 
HETATM    8  S2  UNL     1      21.782   5.689  -2.770  1.00  0.00    -0.080 SA
ENDROOT
TORSDOF 0
ENDMDL
MODEL 2
REMARK VINA RESULT: -3.092931127      2.012      2.372
REMARK  0 active torsions:
REMARK  status: ('A' for Active; 'I' for Inactive)
ROOT
HETATM    1  N1  UNL     1      18.626   7.845  -1.167  1.00  0.00    -0.197 NA
HETATM    2  C1  UNL     1      19.497   7.867  -1.916  1.00  0.00     0.066 C 
HETATM    3  C2  UNL     1      20.589   7.871  -2.860  1.00  0.00     0.118 C 
HETATM    4  C3  UNL     1      21.924   7.945  -2.161  1.00  0.00     0.031 C 
HETATM    5  C4  UNL     1      22.896   8.105  -3.339  1.00  0.00     0.076 C 
HETATM    6  S1  UNL     1      22.343   6.646  -4.313  1.00  0.00    -0.151 SA
HETATM    7  C5  UNL     1      20.608   6.613  -3.705  1.00  0.00     0.137 C 
HETATM    8  S2  UNL     1      20.264   5.129  -2.767  1.00  0.00    -0.080 SA
ENDROOT
TORSDOF 0
ENDMDL
MODEL 3
REMARK VINA RESULT: -3.013108604      1.554      2.481
REMARK  0 active torsions:
REMARK  status: ('A' for Active; 'I' for Inactive)
ROOT
HETATM    1  N1  UNL     1      18.590   4.602  -1.866  1.00  0.00    -0.197 NA
HETATM    2  C1  UNL     1      19.542   5.107  -2.267  1.00  0.00     0.066 C 
HETATM    3  C2  UNL     1      20.728   5.763  -2.763  1.00  0.00     0.118 C 
HETATM    4  C3  UNL     1      20.722   5.851  -4.269  1.00  0.00     0.031 C 
HETATM    5  C4  UNL     1      22.119   6.415  -4.565  1.00  0.00     0.076 C 
HETATM    6  S1  UNL     1      22.029   7.886  -3.464  1.00  0.00    -0.151 SA
HETATM    7  C5  UNL     1      20.847   7.181  -2.243  1.00  0.00     0.137 C 
HETATM    8  S2  UNL     1      19.292   8.065  -2.242  1.00  0.00    -0.080 SA
ENDROOT
TORSDOF 0
ENDMDL
MODEL 4
REMARK VINA RESULT: -2.970086549      1.859      2.885
REMARK  0 active torsions:
REMARK  status: ('A' for Active; 'I' for Inactive)
ROOT
HETATM    1  N1  UNL     1      18.212   7.896  -1.655  1.00  0.00    -0.197 NA
HETATM    2  C1  UNL     1      19.297   7.641  -1.939  1.00  0.00     0.066 C 
HETATM    3  C2  UNL     1      20.657   7.338  -2.315  1.00  0.00     0.118 C 
HETATM    4  C3  UNL     1      20.741   6.048  -3.092  1.00  0.00     0.031 C 
HETATM    5  C4  UNL     1      22.259   5.852  -3.228  1.00  0.00     0.076 C 
HETATM    6  S1  UNL     1      22.654   7.497  -3.951  1.00  0.00    -0.151 SA
HETATM    7  C5  UNL     1      21.252   8.418  -3.195  1.00  0.00     0.137 C 
HETATM    8  S2  UNL     1      20.114   9.023  -4.436  1.00  0.00    -0.080 SA
ENDROOT
TORSDOF 0
ENDMDL
MODEL 5
REMARK VINA RESULT: -2.933735123      2.735      3.191
REMARK  0 active torsions:
REMARK  status: ('A' for Active; 'I' for Inactive)
ROOT
HETATM    1  N1  UNL     1      22.596   8.832  -3.414  1.00  0.00    -0.197 NA
HETATM    2  C1  UNL     1      21.723   8.369  -2.826  1.00  0.00     0.066 C 
HETATM    3  C2  UNL     1      20.629   7.768  -2.103  1.00  0.00     0.118 C 
HETATM    4  C3  UNL     1      19.307   8.384  -2.490  1.00  0.00     0.031 C 
HETATM    5  C4  UNL     1      18.341   7.723  -1.495  1.00  0.00     0.076 C 
HETATM    6  S1  UNL     1      18.784   5.973  -1.847  1.00  0.00    -0.151 SA
HETATM    7  C5  UNL     1      20.517   6.283  -2.381  1.00  0.00     0.137 C 
HETATM    8  S2  UNL     1      20.762   5.868  -4.104  1.00  0.00    -0.080 SA
ENDROOT
TORSDOF 0
ENDMDL
