MODEL 1
REMARK VINA RESULT: -4.504279836      0.000      0.000
REMARK  2 active torsions:
REMARK  status: ('A' for Active; 'I' for Inactive)
REMARK    1  A    between atoms: C10_11  and  C11_12 
REMARK    2  A    between atoms: C11_12  and  O1_13 
ROOT
HETATM    1  C1  UNL     1      19.524   8.834  -2.569  1.00  0.00     0.032 C 
HETATM    2  C2  UNL     1      20.887   8.587  -3.182  1.00  0.00     0.055 C 
HETATM    3  C3  UNL     1      21.728   9.745  -2.927  1.00  0.00     0.069 C 
HETATM    4  N1  UNL     1      22.384  10.672  -2.710  1.00  0.00    -0.196 NA
HETATM    5  C4  UNL     1      21.495   7.392  -2.436  1.00  0.00     0.008 C 
HETATM    6  C5  UNL     1      22.970   7.392  -2.784  1.00  0.00     0.007 C 
HETATM    7  C6  UNL     1      23.187   7.524  -4.267  1.00  0.00     0.005 C 
HETATM    8  C7  UNL     1      21.862   7.143  -4.941  1.00  0.00    -0.007 C 
HETATM    9  C8  UNL     1      21.474   5.814  -4.307  1.00  0.00     0.005 C 
HETATM   10  C9  UNL     1      20.799   6.153  -2.984  1.00  0.00     0.007 C 
HETATM   11  C10 UNL     1      20.830   8.205  -4.620  1.00  0.00     0.036 C 
ENDROOT
BRANCH  11  12
HETATM   12  C11 UNL     1      20.961   9.376  -5.560  1.00  0.00     0.170 C 
BRANCH  12  13
HETATM   13  O1  UNL     1      19.811   9.488  -6.342  1.00  0.00    -0.400 OA
ATOM     14  H1  UNL     1      19.949  10.128  -7.030  1.00  0.00     0.209 HD
ENDBRANCH  12  13
ENDBRANCH  11  12
TORSDOF 2
ENDMDL
MODEL 2
REMARK VINA RESULT: -4.338108540      1.934      3.156
REMARK  2 active torsions:
REMARK  status: ('A' for Active; 'I' for Inactive)
REMARK    1  A    between atoms: C10_11  and  C11_12 
REMARK    2  A    between atoms: C11_12  and  O1_13 
ROOT
HETATM    1  C1  UNL     1      21.409   5.666  -3.471  1.00  0.00     0.032 C 
HETATM    2  C2  UNL     1      21.526   7.167  -3.303  1.00  0.00     0.055 C 
HETATM    3  C3  UNL     1      22.418   7.442  -2.189  1.00  0.00     0.069 C 
HETATM    4  N1  UNL     1      23.135   7.641  -1.303  1.00  0.00    -0.196 NA
HETATM    5  C4  UNL     1      22.191   7.701  -4.579  1.00  0.00     0.008 C 
HETATM    6  C5  UNL     1      22.642   9.111  -4.254  1.00  0.00     0.007 C 
HETATM    7  C6  UNL     1      21.540   9.906  -3.606  1.00  0.00     0.005 C 
HETATM    8  C7  UNL     1      20.226   9.179  -3.926  1.00  0.00    -0.007 C 
HETATM    9  C8  UNL     1      20.267   8.952  -5.431  1.00  0.00     0.005 C 
HETATM   10  C9  UNL     1      21.109   7.701  -5.651  1.00  0.00     0.007 C 
HETATM   11  C10 UNL     1      20.211   7.856  -3.189  1.00  0.00     0.036 C 
ENDROOT
BRANCH  11  12
HETATM   12  C11 UNL     1      19.750   8.043  -1.767  1.00  0.00     0.170 C 
BRANCH  12  13
HETATM   13  O1  UNL     1      18.362   8.165  -1.729  1.00  0.00    -0.400 OA
ATOM     14  H1  UNL     1      18.066   8.723  -2.439  1.00  0.00     0.209 HD
ENDBRANCH  12  13
ENDBRANCH  11  12
TORSDOF 2
ENDMDL
MODEL 3
REMARK VINA RESULT: -4.236393359      1.814      3.274
REMARK  2 active torsions:
REMARK  status: ('A' for Active; 'I' for Inactive)
REMARK    1  A    between atoms: C10_11  and  C11_12 
REMARK    2  A    between atoms: C11_12  and  O1_13 
ROOT
HETATM    1  C1  UNL     1      23.473   8.045  -5.109  1.00  0.00     0.032 C 
HETATM    2  C2  UNL     1      22.116   7.950  -4.442  1.00  0.00     0.055 C 
HETATM    3  C3  UNL     1      21.560   6.633  -4.705  1.00  0.00     0.069 C 
HETATM    4  N1  UNL     1      21.136   5.579  -4.920  1.00  0.00    -0.196 NA
HETATM    5  C4  UNL     1      22.360   8.063  -2.931  1.00  0.00     0.008 C 
HETATM    6  C5  UNL     1      21.080   7.597  -2.267  1.00  0.00     0.007 C 
HETATM    7  C6  UNL     1      19.872   8.260  -2.872  1.00  0.00     0.005 C 
HETATM    8  C7  UNL     1      20.378   9.505  -3.613  1.00  0.00    -0.007 C 
HETATM    9  C8  UNL     1      21.260  10.225  -2.600  1.00  0.00     0.005 C 
HETATM   10  C9  UNL     1      22.620   9.538  -2.654  1.00  0.00     0.007 C 
HETATM   11  C10 UNL     1      21.196   9.062  -4.807  1.00  0.00     0.036 C 
ENDROOT
BRANCH  11  12
HETATM   12  C11 UNL     1      20.300   8.743  -5.977  1.00  0.00     0.170 C 
BRANCH  12  13
HETATM   13  O1  UNL     1      20.051   9.900  -6.714  1.00  0.00    -0.400 OA
ATOM     14  H1  UNL     1      19.817   9.672  -7.606  1.00  0.00     0.209 HD
ENDBRANCH  12  13
ENDBRANCH  11  12
TORSDOF 2
ENDMDL
MODEL 4
REMARK VINA RESULT: -4.211542760      1.988      2.943
REMARK  2 active torsions:
REMARK  status: ('A' for Active; 'I' for Inactive)
REMARK    1  A    between atoms: C10_11  and  C11_12 
REMARK    2  A    between atoms: C11_12  and  O1_13 
ROOT
HETATM    1  C1  UNL     1      21.904  10.181  -3.089  1.00  0.00     0.032 C 
HETATM    2  C2  UNL     1      21.491   8.811  -3.588  1.00  0.00     0.055 C 
HETATM    3  C3  UNL     1      20.705   8.976  -4.799  1.00  0.00     0.069 C 
HETATM    4  N1  UNL     1      20.087   9.125  -5.765  1.00  0.00    -0.196 NA
HETATM    5  C4  UNL     1      22.784   8.074  -3.964  1.00  0.00     0.008 C 
HETATM    6  C5  UNL     1      22.356   6.883  -4.798  1.00  0.00     0.007 C 
HETATM    7  C6  UNL     1      21.236   6.123  -4.139  1.00  0.00     0.005 C 
HETATM    8  C7  UNL     1      21.238   6.531  -2.659  1.00  0.00    -0.007 C 
HETATM    9  C8  UNL     1      22.686   6.365  -2.215  1.00  0.00     0.005 C 
HETATM   10  C9  UNL     1      23.415   7.630  -2.650  1.00  0.00     0.007 C 
HETATM   11  C10 UNL     1      20.815   7.981  -2.554  1.00  0.00     0.036 C 
ENDROOT
BRANCH  11  12
HETATM   12  C11 UNL     1      19.313   8.100  -2.574  1.00  0.00     0.170 C 
BRANCH  12  13
HETATM   13  O1  UNL     1      18.827   8.209  -1.272  1.00  0.00    -0.400 OA
ATOM     14  H1  UNL     1      18.141   8.865  -1.236  1.00  0.00     0.209 HD
ENDBRANCH  12  13
ENDBRANCH  11  12
TORSDOF 2
ENDMDL
MODEL 5
REMARK VINA RESULT: -4.206340481      2.449      3.689
REMARK  2 active torsions:
REMARK  status: ('A' for Active; 'I' for Inactive)
REMARK    1  A    between atoms: C10_11  and  C11_12 
REMARK    2  A    between atoms: C11_12  and  O1_13 
ROOT
HETATM    1  C1  UNL     1      21.222   6.883  -5.968  1.00  0.00     0.032 C 
HETATM    2  C2  UNL     1      21.686   7.097  -4.542  1.00  0.00     0.055 C 
HETATM    3  C3  UNL     1      23.026   6.553  -4.403  1.00  0.00     0.069 C 
HETATM    4  N1  UNL     1      24.095   6.121  -4.312  1.00  0.00    -0.196 NA
HETATM    5  C4  UNL     1      21.771   8.615  -4.331  1.00  0.00     0.008 C 
HETATM    6  C5  UNL     1      22.578   8.813  -3.064  1.00  0.00     0.007 C 
HETATM    7  C6  UNL     1      22.075   7.939  -1.947  1.00  0.00     0.005 C 
HETATM    8  C7  UNL     1      20.653   7.509  -2.331  1.00  0.00    -0.007 C 
HETATM    9  C8  UNL     1      19.946   8.805  -2.709  1.00  0.00     0.005 C 
HETATM   10  C9  UNL     1      20.337   9.097  -4.153  1.00  0.00     0.007 C 
HETATM   11  C10 UNL     1      20.731   6.580  -3.524  1.00  0.00     0.036 C 
ENDROOT
BRANCH  11  12
HETATM   12  C11 UNL     1      21.027   5.169  -3.082  1.00  0.00     0.170 C 
BRANCH  12  13
HETATM   13  O1  UNL     1      19.962   4.673  -2.331  1.00  0.00    -0.400 OA
ATOM     14  H1  UNL     1      19.956   5.077  -1.471  1.00  0.00     0.209 HD
ENDBRANCH  12  13
ENDBRANCH  11  12
TORSDOF 2
ENDMDL
