MODEL 1
REMARK VINA RESULT: -4.286527976      0.000      0.000
REMARK  2 active torsions:
REMARK  status: ('A' for Active; 'I' for Inactive)
REMARK    1  A    between atoms: O1_1  and  C1_3 
REMARK    2  A    between atoms: C6_8  and  N1_9 
ROOT
HETATM    1  C1  UNL     1      19.912   7.879  -2.167  1.00  0.00     0.151 C 
HETATM    2  C2  UNL     1      18.783   7.630  -1.218  1.00  0.00     0.034 C 
HETATM    3  C3  UNL     1      17.904   6.491  -1.689  1.00  0.00     0.003 C 
HETATM    4  C4  UNL     1      18.774   5.254  -1.722  1.00  0.00     0.002 C 
HETATM    5  C5  UNL     1      19.876   5.421  -2.709  1.00  0.00     0.038 C 
HETATM    6  C6  UNL     1      20.706   6.663  -2.513  1.00  0.00     0.251 C 
ENDROOT
BRANCH   6   7
HETATM    7  N1  UNL     1      21.427   6.867  -3.754  1.00  0.00     0.095 N 
HETATM    8  C7  UNL     1      22.866   6.871  -3.579  1.00  0.00     0.273 C 
HETATM    9  C8  UNL     1      23.290   6.741  -5.051  1.00  0.00     0.032 C 
HETATM   10  C9  UNL     1      22.439   5.532  -5.449  1.00  0.00     0.032 C 
HETATM   11  C10 UNL     1      21.205   5.679  -4.574  1.00  0.00     0.273 C 
ENDBRANCH   6   7
BRANCH   1  12
HETATM   12  O1  UNL     1      19.464   8.584  -3.285  1.00  0.00    -0.393 OA
ATOM     13  H1  UNL     1      20.069   8.477  -4.009  1.00  0.00     0.210 HD
ENDBRANCH   1  12
TORSDOF 2
ENDMDL
MODEL 2
REMARK VINA RESULT: -4.217309245      1.800      2.556
REMARK  2 active torsions:
REMARK  status: ('A' for Active; 'I' for Inactive)
REMARK    1  A    between atoms: O1_1  and  C1_3 
REMARK    2  A    between atoms: C6_8  and  N1_9 
ROOT
HETATM    1  C1  UNL     1      19.025   5.309  -2.337  1.00  0.00     0.151 C 
HETATM    2  C2  UNL     1      17.941   6.245  -1.905  1.00  0.00     0.034 C 
HETATM    3  C3  UNL     1      18.492   7.389  -1.082  1.00  0.00     0.003 C 
HETATM    4  C4  UNL     1      19.444   8.151  -1.977  1.00  0.00     0.002 C 
HETATM    5  C5  UNL     1      20.586   7.284  -2.379  1.00  0.00     0.038 C 
HETATM    6  C6  UNL     1      20.184   5.974  -3.003  1.00  0.00     0.251 C 
ENDROOT
BRANCH   6   7
HETATM    7  N1  UNL     1      21.355   5.121  -2.947  1.00  0.00     0.095 N 
HETATM    8  C7  UNL     1      21.834   4.728  -4.257  1.00  0.00     0.273 C 
HETATM    9  C8  UNL     1      23.213   4.180  -3.857  1.00  0.00     0.032 C 
HETATM   10  C9  UNL     1      23.723   5.368  -3.037  1.00  0.00     0.032 C 
HETATM   11  C10 UNL     1      22.451   5.941  -2.436  1.00  0.00     0.273 C 
ENDBRANCH   6   7
BRANCH   1  12
HETATM   12  O1  UNL     1      19.397   4.474  -1.283  1.00  0.00    -0.393 OA
ATOM     13  H1  UNL     1      20.283   4.669  -1.002  1.00  0.00     0.210 HD
ENDBRANCH   1  12
TORSDOF 2
ENDMDL
MODEL 3
REMARK VINA RESULT: -4.204286024      2.670      4.798
REMARK  2 active torsions:
REMARK  status: ('A' for Active; 'I' for Inactive)
REMARK    1  A    between atoms: O1_1  and  C1_3 
REMARK    2  A    between atoms: C6_8  and  N1_9 
ROOT
HETATM    1  C1  UNL     1      21.224   8.905  -5.438  1.00  0.00     0.151 C 
HETATM    2  C2  UNL     1      22.125   9.972  -5.972  1.00  0.00     0.034 C 
HETATM    3  C3  UNL     1      22.041  11.236  -5.143  1.00  0.00     0.003 C 
HETATM    4  C4  UNL     1      22.510  10.876  -3.751  1.00  0.00     0.002 C 
HETATM    5  C5  UNL     1      21.602   9.866  -3.142  1.00  0.00     0.038 C 
HETATM    6  C6  UNL     1      21.389   8.632  -3.979  1.00  0.00     0.251 C 
ENDROOT
BRANCH   6   7
HETATM    7  N1  UNL     1      20.207   7.982  -3.450  1.00  0.00     0.095 N 
HETATM    8  C7  UNL     1      20.500   6.735  -2.773  1.00  0.00     0.273 C 
HETATM    9  C8  UNL     1      19.156   6.524  -2.058  1.00  0.00     0.032 C 
HETATM   10  C9  UNL     1      19.013   7.894  -1.389  1.00  0.00     0.032 C 
HETATM   11  C10 UNL     1      19.708   8.827  -2.368  1.00  0.00     0.273 C 
ENDBRANCH   6   7
BRANCH   1  12
HETATM   12  O1  UNL     1      19.901   9.152  -5.807  1.00  0.00    -0.393 OA
ATOM     13  H1  UNL     1      19.860   9.461  -6.704  1.00  0.00     0.210 HD
ENDBRANCH   1  12
TORSDOF 2
ENDMDL
MODEL 4
REMARK VINA RESULT: -3.973116288      1.887      2.493
REMARK  2 active torsions:
REMARK  status: ('A' for Active; 'I' for Inactive)
REMARK    1  A    between atoms: O1_1  and  C1_3 
REMARK    2  A    between atoms: C6_8  and  N1_9 
ROOT
HETATM    1  C1  UNL     1      20.853   9.160  -4.572  1.00  0.00     0.151 C 
HETATM    2  C2  UNL     1      20.352   9.671  -3.258  1.00  0.00     0.034 C 
HETATM    3  C3  UNL     1      19.554   8.617  -2.520  1.00  0.00     0.003 C 
HETATM    4  C4  UNL     1      20.498   7.466  -2.250  1.00  0.00     0.002 C 
HETATM    5  C5  UNL     1      20.972   6.871  -3.529  1.00  0.00     0.038 C 
HETATM    6  C6  UNL     1      21.581   7.859  -4.489  1.00  0.00     0.251 C 
ENDROOT
BRANCH   6   7
HETATM    7  N1  UNL     1      21.599   7.208  -5.784  1.00  0.00     0.095 N 
HETATM    8  C7  UNL     1      22.776   7.531  -6.565  1.00  0.00     0.273 C 
HETATM    9  C8  UNL     1      22.656   6.445  -7.646  1.00  0.00     0.032 C 
HETATM   10  C9  UNL     1      22.488   5.217  -6.747  1.00  0.00     0.032 C 
HETATM   11  C10 UNL     1      21.760   5.777  -5.536  1.00  0.00     0.273 C 
ENDBRANCH   6   7
BRANCH   1  12
HETATM   12  O1  UNL     1      19.828   9.161  -5.519  1.00  0.00    -0.393 OA
ATOM     13  H1  UNL     1      19.141   9.764  -5.264  1.00  0.00     0.210 HD
ENDBRANCH   1  12
TORSDOF 2
ENDMDL
MODEL 5
REMARK VINA RESULT: -3.948003471      1.986      2.388
REMARK  2 active torsions:
REMARK  status: ('A' for Active; 'I' for Inactive)
REMARK    1  A    between atoms: O1_1  and  C1_3 
REMARK    2  A    between atoms: C6_8  and  N1_9 
ROOT
HETATM    1  C1  UNL     1      19.196   7.550  -1.527  1.00  0.00     0.151 C 
HETATM    2  C2  UNL     1      18.775   6.194  -1.056  1.00  0.00     0.034 C 
HETATM    3  C3  UNL     1      18.803   5.183  -2.183  1.00  0.00     0.003 C 
HETATM    4  C4  UNL     1      20.239   5.095  -2.653  1.00  0.00     0.002 C 
HETATM    5  C5  UNL     1      20.688   6.404  -3.201  1.00  0.00     0.038 C 
HETATM    6  C6  UNL     1      20.493   7.570  -2.268  1.00  0.00     0.251 C 
ENDROOT
BRANCH   6   7
HETATM    7  N1  UNL     1      20.588   8.763  -3.085  1.00  0.00     0.095 N 
HETATM    8  C7  UNL     1      21.794   9.528  -2.834  1.00  0.00     0.273 C 
HETATM    9  C8  UNL     1      21.751  10.457  -4.058  1.00  0.00     0.032 C 
HETATM   10  C9  UNL     1      21.568   9.409  -5.159  1.00  0.00     0.032 C 
HETATM   11  C10 UNL     1      20.770   8.318  -4.464  1.00  0.00     0.273 C 
ENDBRANCH   6   7
BRANCH   1  12
HETATM   12  O1  UNL     1      18.156   8.173  -2.217  1.00  0.00    -0.393 OA
ATOM     13  H1  UNL     1      18.125   9.098  -2.007  1.00  0.00     0.210 HD
ENDBRANCH   1  12
TORSDOF 2
ENDMDL
