MODEL 1
REMARK VINA RESULT: -3.458416883      0.000      0.000
REMARK  1 active torsions:
REMARK  status: ('A' for Active; 'I' for Inactive)
REMARK    1  A    between atoms: C6_6  and  N1_7 
ROOT
HETATM    1  C1  UNL     1      11.190  13.875  20.083  1.00  0.00     0.010 C 
HETATM    2  C2  UNL     1      10.160  15.009  20.111  1.00  0.00    -0.019 C 
HETATM    3  C3  UNL     1       9.077  14.727  21.121  1.00  0.00     0.004 C 
HETATM    4  C4  UNL     1       9.570  14.541  22.512  1.00  0.00     0.002 C 
HETATM    5  C5  UNL     1       9.382  15.872  23.248  1.00  0.00     0.033 C 
HETATM    6  C6  UNL     1      10.460  16.793  22.708  1.00  0.00     0.183 C 
HETATM    7  C7  UNL     1      10.217  17.219  21.309  1.00  0.00     0.033 C 
HETATM    8  C8  UNL     1      10.801  16.342  20.255  1.00  0.00     0.006 C 
ENDROOT
BRANCH   6   9
HETATM    9  N1  UNL     1      11.742  16.200  22.927  1.00  0.00    -0.075 N 
ATOM     10  H13 UNL     1      12.424  16.873  23.277  1.00  0.00     0.274 HD
ATOM     11  H12 UNL     1      11.743  15.565  23.725  1.00  0.00     0.274 HD
ATOM     12  H11 UNL     1      12.054  15.743  22.070  1.00  0.00     0.274 HD
ENDBRANCH   6   9
TORSDOF 1
ENDMDL
MODEL 2
REMARK VINA RESULT: -3.394136451      1.671      3.506
REMARK  1 active torsions:
REMARK  status: ('A' for Active; 'I' for Inactive)
REMARK    1  A    between atoms: C6_6  and  N1_7 
ROOT
HETATM    1  C1  UNL     1      11.412  16.171  22.667  1.00  0.00     0.010 C 
HETATM    2  C2  UNL     1      10.118  16.112  21.848  1.00  0.00    -0.019 C 
HETATM    3  C3  UNL     1      10.245  16.921  20.583  1.00  0.00     0.004 C 
HETATM    4  C4  UNL     1      11.355  16.493  19.691  1.00  0.00     0.002 C 
HETATM    5  C5  UNL     1      10.752  15.597  18.603  1.00  0.00     0.033 C 
HETATM    6  C6  UNL     1      10.442  14.279  19.288  1.00  0.00     0.183 C 
HETATM    7  C7  UNL     1       9.303  14.365  20.232  1.00  0.00     0.033 C 
HETATM    8  C8  UNL     1       9.653  14.716  21.638  1.00  0.00     0.006 C 
ENDROOT
BRANCH   6   9
HETATM    9  N1  UNL     1      11.640  13.749  19.859  1.00  0.00    -0.075 N 
ATOM     10  H13 UNL     1      11.484  13.355  20.787  1.00  0.00     0.274 HD
ATOM     11  H12 UNL     1      11.948  12.897  19.390  1.00  0.00     0.274 HD
ATOM     12  H11 UNL     1      12.361  14.471  19.861  1.00  0.00     0.274 HD
ENDBRANCH   6   9
TORSDOF 1
ENDMDL
MODEL 3
REMARK VINA RESULT: -3.388367188      1.918      3.022
REMARK  1 active torsions:
REMARK  status: ('A' for Active; 'I' for Inactive)
REMARK    1  A    between atoms: C6_6  and  N1_7 
ROOT
HETATM    1  C1  UNL     1      10.303  15.061  20.765  1.00  0.00     0.010 C 
HETATM    2  C2  UNL     1      10.685  15.773  22.068  1.00  0.00    -0.019 C 
HETATM    3  C3  UNL     1      10.804  17.259  21.854  1.00  0.00     0.004 C 
HETATM    4  C4  UNL     1       9.566  17.906  21.341  1.00  0.00     0.002 C 
HETATM    5  C5  UNL     1       8.839  18.523  22.541  1.00  0.00     0.033 C 
HETATM    6  C6  UNL     1       8.232  17.354  23.294  1.00  0.00     0.183 C 
HETATM    7  C7  UNL     1       9.242  16.519  23.988  1.00  0.00     0.033 C 
HETATM    8  C8  UNL     1       9.798  15.386  23.196  1.00  0.00     0.006 C 
ENDROOT
BRANCH   6   9
HETATM    9  N1  UNL     1       7.367  16.625  22.420  1.00  0.00    -0.075 N 
ATOM     10  H13 UNL     1       7.639  16.719  21.441  1.00  0.00     0.274 HD
ATOM     11  H12 UNL     1       7.490  15.616  22.508  1.00  0.00     0.274 HD
ATOM     12  H11 UNL     1       6.402  16.913  22.584  1.00  0.00     0.274 HD
ENDBRANCH   6   9
TORSDOF 1
ENDMDL
MODEL 4
REMARK VINA RESULT: -3.322165206      1.761      2.604
REMARK  1 active torsions:
REMARK  status: ('A' for Active; 'I' for Inactive)
REMARK    1  A    between atoms: C6_6  and  N1_7 
ROOT
HETATM    1  C1  UNL     1       9.575  14.484  21.110  1.00  0.00     0.010 C 
HETATM    2  C2  UNL     1       9.103  15.066  22.447  1.00  0.00    -0.019 C 
HETATM    3  C3  UNL     1      10.275  15.435  23.318  1.00  0.00     0.004 C 
HETATM    4  C4  UNL     1      11.204  16.424  22.708  1.00  0.00     0.002 C 
HETATM    5  C5  UNL     1      10.841  17.804  23.269  1.00  0.00     0.033 C 
HETATM    6  C6  UNL     1       9.548  18.197  22.579  1.00  0.00     0.183 C 
HETATM    7  C7  UNL     1       8.381  17.403  23.031  1.00  0.00     0.033 C 
HETATM    8  C8  UNL     1       8.110  16.156  22.261  1.00  0.00     0.006 C 
ENDROOT
BRANCH   6   9
HETATM    9  N1  UNL     1       9.748  18.195  21.164  1.00  0.00    -0.075 N 
ATOM     10  H13 UNL     1      10.110  19.086  20.824  1.00  0.00     0.274 HD
ATOM     11  H12 UNL     1      10.532  17.605  20.885  1.00  0.00     0.274 HD
ATOM     12  H11 UNL     1       8.879  17.928  20.701  1.00  0.00     0.274 HD
ENDBRANCH   6   9
TORSDOF 1
ENDMDL
MODEL 5
REMARK VINA RESULT: -3.296574561      1.728      2.760
REMARK  1 active torsions:
REMARK  status: ('A' for Active; 'I' for Inactive)
REMARK    1  A    between atoms: C6_6  and  N1_7 
ROOT
HETATM    1  C1  UNL     1      10.841  17.334  20.175  1.00  0.00     0.010 C 
HETATM    2  C2  UNL     1      11.005  16.149  21.134  1.00  0.00    -0.019 C 
HETATM    3  C3  UNL     1      11.337  16.625  22.525  1.00  0.00     0.004 C 
HETATM    4  C4  UNL     1      10.323  17.538  23.118  1.00  0.00     0.002 C 
HETATM    5  C5  UNL     1       9.425  16.697  24.031  1.00  0.00     0.033 C 
HETATM    6  C6  UNL     1       8.539  15.890  23.100  1.00  0.00     0.183 C 
HETATM    7  C7  UNL     1       9.270  14.821  22.379  1.00  0.00     0.033 C 
HETATM    8  C8  UNL     1       9.854  15.211  21.065  1.00  0.00     0.006 C 
ENDROOT
BRANCH   6   9
HETATM    9  N1  UNL     1       7.810  16.780  22.252  1.00  0.00    -0.075 N 
ATOM     10  H13 UNL     1       7.110  17.316  22.764  1.00  0.00     0.274 HD
ATOM     11  H12 UNL     1       8.382  17.560  21.928  1.00  0.00     0.274 HD
ATOM     12  H11 UNL     1       7.404  16.252  21.479  1.00  0.00     0.274 HD
ENDBRANCH   6   9
TORSDOF 1
ENDMDL
