MODEL 1
REMARK VINA RESULT: -3.777298255      0.000      0.000
REMARK  1 active torsions:
REMARK  status: ('A' for Active; 'I' for Inactive)
REMARK    1  A    between atoms: N1_1  and  C1_5 
ROOT
HETATM    1  C1  UNL     1       8.301  16.326  22.209  1.00  0.00     0.188 C 
HETATM    2  C2  UNL     1       9.265  17.435  21.874  1.00  0.00     0.037 C 
HETATM    3  C3  UNL     1      10.596  16.860  21.499  1.00  0.00    -0.013 C 
HETATM    4  C4  UNL     1      11.266  16.412  22.805  1.00  0.00     0.005 C 
HETATM    5  C5  UNL     1      10.295  15.490  23.486  1.00  0.00     0.007 C 
HETATM    6  C6  UNL     1       9.119  15.124  22.609  1.00  0.00     0.016 C 
HETATM    7  C7  UNL     1       9.625  14.554  21.274  1.00  0.00     0.007 C 
HETATM    8  C8  UNL     1      10.491  15.612  20.656  1.00  0.00     0.005 C 
ENDROOT
BRANCH   1   9
HETATM    9  N1  UNL     1       7.303  16.692  23.161  1.00  0.00    -0.075 N 
ATOM     10  H13 UNL     1       7.256  17.706  23.260  1.00  0.00     0.274 HD
ATOM     11  H12 UNL     1       6.370  16.511  22.788  1.00  0.00     0.274 HD
ATOM     12  H11 UNL     1       7.416  16.248  24.072  1.00  0.00     0.274 HD
ENDBRANCH   1   9
TORSDOF 1
ENDMDL
MODEL 2
REMARK VINA RESULT: -3.710350645      1.533      2.534
REMARK  1 active torsions:
REMARK  status: ('A' for Active; 'I' for Inactive)
REMARK    1  A    between atoms: N1_1  and  C1_5 
ROOT
HETATM    1  C1  UNL     1      10.095  14.820  21.279  1.00  0.00     0.188 C 
HETATM    2  C2  UNL     1      10.437  16.147  20.651  1.00  0.00     0.037 C 
HETATM    3  C3  UNL     1      10.438  17.220  21.695  1.00  0.00    -0.013 C 
HETATM    4  C4  UNL     1       8.969  17.531  22.009  1.00  0.00     0.005 C 
HETATM    5  C5  UNL     1       8.328  16.223  22.381  1.00  0.00     0.007 C 
HETATM    6  C6  UNL     1       9.331  15.104  22.547  1.00  0.00     0.016 C 
HETATM    7  C7  UNL     1      10.417  15.526  23.551  1.00  0.00     0.007 C 
HETATM    8  C8  UNL     1      11.042  16.777  23.007  1.00  0.00     0.005 C 
ENDROOT
BRANCH   1   9
HETATM    9  N1  UNL     1       9.434  13.913  20.395  1.00  0.00    -0.075 N 
ATOM     10  H13 UNL     1       9.334  14.325  19.467  1.00  0.00     0.274 HD
ATOM     11  H12 UNL     1      10.044  13.126  20.170  1.00  0.00     0.274 HD
ATOM     12  H11 UNL     1       8.533  13.581  20.739  1.00  0.00     0.274 HD
ENDBRANCH   1   9
TORSDOF 1
ENDMDL
MODEL 3
REMARK VINA RESULT: -3.564435530      1.863      2.873
REMARK  1 active torsions:
REMARK  status: ('A' for Active; 'I' for Inactive)
REMARK    1  A    between atoms: N1_1  and  C1_5 
ROOT
HETATM    1  C1  UNL     1      10.042  15.235  20.784  1.00  0.00     0.188 C 
HETATM    2  C2  UNL     1       9.096  14.757  21.856  1.00  0.00     0.037 C 
HETATM    3  C3  UNL     1       8.875  15.843  22.863  1.00  0.00    -0.013 C 
HETATM    4  C4  UNL     1      10.139  15.901  23.733  1.00  0.00     0.005 C 
HETATM    5  C5  UNL     1      11.296  16.074  22.790  1.00  0.00     0.007 C 
HETATM    6  C6  UNL     1      10.859  16.357  21.370  1.00  0.00     0.016 C 
HETATM    7  C7  UNL     1       9.908  17.564  21.351  1.00  0.00     0.007 C 
HETATM    8  C8  UNL     1       8.754  17.215  22.244  1.00  0.00     0.005 C 
ENDROOT
BRANCH   1   9
HETATM    9  N1  UNL     1      10.822  14.196  20.192  1.00  0.00    -0.075 N 
ATOM     10  H13 UNL     1      11.775  14.517  20.019  1.00  0.00     0.274 HD
ATOM     11  H12 UNL     1      11.009  13.458  20.872  1.00  0.00     0.274 HD
ATOM     12  H11 UNL     1      10.416  13.804  19.342  1.00  0.00     0.274 HD
ENDBRANCH   1   9
TORSDOF 1
ENDMDL
MODEL 4
REMARK VINA RESULT: -3.484448472      1.902      2.928
REMARK  1 active torsions:
REMARK  status: ('A' for Active; 'I' for Inactive)
REMARK    1  A    between atoms: N1_1  and  C1_5 
ROOT
HETATM    1  C1  UNL     1      10.308  16.685  20.544  1.00  0.00     0.188 C 
HETATM    2  C2  UNL     1      10.312  15.248  20.999  1.00  0.00     0.037 C 
HETATM    3  C3  UNL     1       9.656  15.135  22.341  1.00  0.00    -0.013 C 
HETATM    4  C4  UNL     1      10.665  15.665  23.370  1.00  0.00     0.005 C 
HETATM    5  C5  UNL     1      11.050  17.045  22.916  1.00  0.00     0.007 C 
HETATM    6  C6  UNL     1      10.194  17.548  21.775  1.00  0.00     0.016 C 
HETATM    7  C7  UNL     1       8.709  17.456  22.161  1.00  0.00     0.007 C 
HETATM    8  C8  UNL     1       8.438  16.016  22.486  1.00  0.00     0.005 C 
ENDROOT
BRANCH   1   9
HETATM    9  N1  UNL     1      11.403  17.028  19.694  1.00  0.00    -0.075 N 
ATOM     10  H13 UNL     1      11.573  16.287  19.013  1.00  0.00     0.274 HD
ATOM     11  H12 UNL     1      11.142  17.786  19.063  1.00  0.00     0.274 HD
ATOM     12  H11 UNL     1      12.261  17.258  20.195  1.00  0.00     0.274 HD
ENDBRANCH   1   9
TORSDOF 1
ENDMDL
MODEL 5
REMARK VINA RESULT: -3.483169851      1.584      2.428
REMARK  1 active torsions:
REMARK  status: ('A' for Active; 'I' for Inactive)
REMARK    1  A    between atoms: N1_1  and  C1_5 
ROOT
HETATM    1  C1  UNL     1       9.434  15.311  21.487  1.00  0.00     0.188 C 
HETATM    2  C2  UNL     1       8.322  15.883  22.329  1.00  0.00     0.037 C 
HETATM    3  C3  UNL     1       8.770  17.162  22.966  1.00  0.00    -0.013 C 
HETATM    4  C4  UNL     1       9.705  16.776  24.120  1.00  0.00     0.005 C 
HETATM    5  C5  UNL     1      10.774  15.903  23.526  1.00  0.00     0.007 C 
HETATM    6  C6  UNL     1      10.732  15.868  22.015  1.00  0.00     0.016 C 
HETATM    7  C7  UNL     1      10.778  17.301  21.462  1.00  0.00     0.007 C 
HETATM    8  C8  UNL     1       9.603  18.026  22.049  1.00  0.00     0.005 C 
ENDROOT
BRANCH   1   9
HETATM    9  N1  UNL     1       9.413  13.887  21.384  1.00  0.00    -0.075 N 
ATOM     10  H13 UNL     1       8.480  13.560  21.129  1.00  0.00     0.274 HD
ATOM     11  H12 UNL     1       9.934  13.580  20.564  1.00  0.00     0.274 HD
ATOM     12  H11 UNL     1       9.744  13.406  22.220  1.00  0.00     0.274 HD
ENDBRANCH   1   9
TORSDOF 1
ENDMDL
