MODEL 1
REMARK VINA RESULT: -4.016487137      0.000      0.000
REMARK  1 active torsions:
REMARK  status: ('A' for Active; 'I' for Inactive)
REMARK    1  A    between atoms: C6_6  and  N1_8 
ROOT
HETATM    1  C1  UNL     1       9.674  15.440  23.064  1.00  0.00     0.010 C 
HETATM    2  C2  UNL     1      10.279  15.458  21.686  1.00  0.00    -0.016 C 
HETATM    3  C3  UNL     1      10.336  16.869  21.107  1.00  0.00     0.004 C 
HETATM    4  C4  UNL     1      11.178  16.813  19.872  1.00  0.00     0.003 C 
HETATM    5  C5  UNL     1      10.791  15.781  18.888  1.00  0.00     0.038 C 
HETATM    6  C6  UNL     1      10.361  14.473  19.455  1.00  0.00     0.120 C 
HETATM    7  C7  UNL     1      11.507  13.514  19.683  1.00  0.00     0.046 C 
HETATM    8  C8  UNL     1       9.506  14.632  20.691  1.00  0.00     0.042 C 
ENDROOT
BRANCH   6   9
HETATM    9  N1  UNL     1       9.494  13.835  18.452  1.00  0.00    -0.071 N 
ATOM     10  H13 UNL     1       8.593  14.302  18.346  1.00  0.00     0.275 HD
ATOM     11  H12 UNL     1       9.823  13.968  17.495  1.00  0.00     0.275 HD
ATOM     12  H11 UNL     1       9.409  12.853  18.714  1.00  0.00     0.275 HD
ENDBRANCH   6   9
TORSDOF 1
ENDMDL
MODEL 2
REMARK VINA RESULT: -4.016260959      1.982      3.428
REMARK  1 active torsions:
REMARK  status: ('A' for Active; 'I' for Inactive)
REMARK    1  A    between atoms: C6_6  and  N1_8 
ROOT
HETATM    1  C1  UNL     1      11.566  18.286  20.536  1.00  0.00     0.010 C 
HETATM    2  C2  UNL     1      10.978  16.981  20.999  1.00  0.00    -0.016 C 
HETATM    3  C3  UNL     1      10.740  16.018  19.838  1.00  0.00     0.004 C 
HETATM    4  C4  UNL     1      10.412  14.682  20.423  1.00  0.00     0.003 C 
HETATM    5  C5  UNL     1       9.329  14.680  21.429  1.00  0.00     0.038 C 
HETATM    6  C6  UNL     1       9.314  15.835  22.368  1.00  0.00     0.120 C 
HETATM    7  C7  UNL     1      10.161  15.615  23.600  1.00  0.00     0.046 C 
HETATM    8  C8  UNL     1       9.646  17.142  21.683  1.00  0.00     0.042 C 
ENDROOT
BRANCH   6   9
HETATM    9  N1  UNL     1       7.931  15.980  22.849  1.00  0.00    -0.071 N 
ATOM     10  H13 UNL     1       7.813  16.755  23.501  1.00  0.00     0.275 HD
ATOM     11  H12 UNL     1       7.290  16.316  22.130  1.00  0.00     0.275 HD
ATOM     12  H11 UNL     1       7.656  15.079  23.241  1.00  0.00     0.275 HD
ENDBRANCH   6   9
TORSDOF 1
ENDMDL
MODEL 3
REMARK VINA RESULT: -3.809523973      2.043      3.344
REMARK  1 active torsions:
REMARK  status: ('A' for Active; 'I' for Inactive)
REMARK    1  A    between atoms: C6_6  and  N1_8 
ROOT
HETATM    1  C1  UNL     1       9.742  13.571  19.166  1.00  0.00     0.010 C 
HETATM    2  C2  UNL     1       9.816  14.818  20.003  1.00  0.00    -0.016 C 
HETATM    3  C3  UNL     1      10.936  15.749  19.543  1.00  0.00     0.004 C 
HETATM    4  C4  UNL     1      10.758  17.051  20.255  1.00  0.00     0.003 C 
HETATM    5  C5  UNL     1      10.628  16.957  21.724  1.00  0.00     0.038 C 
HETATM    6  C6  UNL     1       9.827  15.811  22.233  1.00  0.00     0.120 C 
HETATM    7  C7  UNL     1       8.350  16.115  22.341  1.00  0.00     0.046 C 
HETATM    8  C8  UNL     1      10.083  14.537  21.459  1.00  0.00     0.042 C 
ENDROOT
BRANCH   6   9
HETATM    9  N1  UNL     1      10.285  15.541  23.604  1.00  0.00    -0.071 N 
ATOM     10  H13 UNL     1       9.606  15.019  24.159  1.00  0.00     0.275 HD
ATOM     11  H12 UNL     1      11.041  14.856  23.647  1.00  0.00     0.275 HD
ATOM     12  H11 UNL     1      10.535  16.440  24.017  1.00  0.00     0.275 HD
ENDBRANCH   6   9
TORSDOF 1
ENDMDL
MODEL 4
REMARK VINA RESULT: -3.788420010      2.159      3.660
REMARK  1 active torsions:
REMARK  status: ('A' for Active; 'I' for Inactive)
REMARK    1  A    between atoms: C6_6  and  N1_8 
ROOT
HETATM    1  C1  UNL     1      10.808  13.876  19.959  1.00  0.00     0.010 C 
HETATM    2  C2  UNL     1      10.477  14.918  20.992  1.00  0.00    -0.016 C 
HETATM    3  C3  UNL     1       9.057  14.755  21.532  1.00  0.00     0.004 C 
HETATM    4  C4  UNL     1       8.923  15.654  22.718  1.00  0.00     0.003 C 
HETATM    5  C5  UNL     1       9.316  17.061  22.495  1.00  0.00     0.038 C 
HETATM    6  C6  UNL     1      10.515  17.271  21.639  1.00  0.00     0.120 C 
HETATM    7  C7  UNL     1      11.813  17.261  22.415  1.00  0.00     0.046 C 
HETATM    8  C8  UNL     1      10.558  16.325  20.460  1.00  0.00     0.042 C 
ENDROOT
BRANCH   6   9
HETATM    9  N1  UNL     1      10.400  18.619  21.061  1.00  0.00    -0.071 N 
ATOM     10  H13 UNL     1       9.433  18.914  20.921  1.00  0.00     0.275 HD
ATOM     11  H12 UNL     1      10.668  19.358  21.712  1.00  0.00     0.275 HD
ATOM     12  H11 UNL     1      10.950  18.623  20.202  1.00  0.00     0.275 HD
ENDBRANCH   6   9
TORSDOF 1
ENDMDL
MODEL 5
REMARK VINA RESULT: -3.771739389      2.181      3.208
REMARK  1 active torsions:
REMARK  status: ('A' for Active; 'I' for Inactive)
REMARK    1  A    between atoms: C6_6  and  N1_8 
ROOT
HETATM    1  C1  UNL     1       9.366  14.373  22.486  1.00  0.00     0.010 C 
HETATM    2  C2  UNL     1       9.854  15.350  21.453  1.00  0.00    -0.016 C 
HETATM    3  C3  UNL     1      10.505  14.646  20.264  1.00  0.00     0.004 C 
HETATM    4  C4  UNL     1      10.712  15.669  19.194  1.00  0.00     0.003 C 
HETATM    5  C5  UNL     1      11.419  16.895  19.619  1.00  0.00     0.038 C 
HETATM    6  C6  UNL     1      11.067  17.413  20.970  1.00  0.00     0.120 C 
HETATM    7  C7  UNL     1       9.888  18.359  20.959  1.00  0.00     0.046 C 
HETATM    8  C8  UNL     1      10.890  16.306  21.985  1.00  0.00     0.042 C 
ENDROOT
BRANCH   6   9
HETATM    9  N1  UNL     1      12.215  18.203  21.440  1.00  0.00    -0.071 N 
ATOM     10  H13 UNL     1      12.601  17.863  22.321  1.00  0.00     0.275 HD
ATOM     11  H12 UNL     1      13.052  18.071  20.872  1.00  0.00     0.275 HD
ATOM     12  H11 UNL     1      11.909  19.175  21.485  1.00  0.00     0.275 HD
ENDBRANCH   6   9
TORSDOF 1
ENDMDL
