MODEL 1
REMARK VINA RESULT: -4.941420010      0.000      0.000
REMARK  1 active torsions:
REMARK  status: ('A' for Active; 'I' for Inactive)
REMARK    1  A    between atoms: C8_8  and  N1_9 
ROOT
HETATM    1  C1  UNL     1       9.919  13.915  19.336  1.00  0.00     0.011 C 
HETATM    2  C2  UNL     1      10.601  14.971  20.171  1.00  0.00    -0.008 C 
HETATM    3  C3  UNL     1      10.993  16.067  19.208  1.00  0.00     0.005 C 
HETATM    4  C4  UNL     1      11.033  17.259  20.077  1.00  0.00     0.001 C 
HETATM    5  C5  UNL     1      10.780  16.664  21.473  1.00  0.00     0.012 C 
HETATM    6  C6  UNL     1       9.893  15.539  21.285  1.00  0.00    -0.013 A 
HETATM    7  C7  UNL     1       9.375  14.330  21.905  1.00  0.00     0.039 A 
HETATM    8  C8  UNL     1       9.110  15.527  22.473  1.00  0.00     0.108 A 
ENDROOT
BRANCH   8   9
HETATM    9  N1  UNL     1       7.852  16.278  22.384  1.00  0.00    -0.337 N 
HETATM   10  N2  UNL     1       7.249  16.671  23.368  1.00  0.00    -0.349 N 
ATOM     11  H22 UNL     1       7.648  16.460  24.282  1.00  0.00     0.176 HD
ATOM     12  H21 UNL     1       6.375  17.193  23.307  1.00  0.00     0.176 HD
ATOM     13  H1  UNL     1       7.468  16.481  21.461  1.00  0.00     0.180 HD
ENDBRANCH   8   9
TORSDOF 1
ENDMDL
MODEL 2
REMARK VINA RESULT: -4.791086832      2.659      4.131
REMARK  1 active torsions:
REMARK  status: ('A' for Active; 'I' for Inactive)
REMARK    1  A    between atoms: C8_8  and  N1_9 
ROOT
HETATM    1  C1  UNL     1       8.512  18.342  22.096  1.00  0.00     0.011 C 
HETATM    2  C2  UNL     1       9.376  17.114  22.248  1.00  0.00    -0.008 C 
HETATM    3  C3  UNL     1       8.420  15.965  22.474  1.00  0.00     0.005 C 
HETATM    4  C4  UNL     1       9.189  14.806  21.979  1.00  0.00     0.001 C 
HETATM    5  C5  UNL     1      10.556  15.429  21.646  1.00  0.00     0.012 C 
HETATM    6  C6  UNL     1      10.293  16.777  21.195  1.00  0.00    -0.013 A 
HETATM    7  C7  UNL     1      10.898  18.077  20.954  1.00  0.00     0.039 A 
HETATM    8  C8  UNL     1      11.315  17.013  20.233  1.00  0.00     0.108 A 
ENDROOT
BRANCH   8   9
HETATM    9  N1  UNL     1      10.940  16.691  18.852  1.00  0.00    -0.337 N 
HETATM   10  N2  UNL     1      11.529  15.857  18.187  1.00  0.00    -0.349 N 
ATOM     11  H22 UNL     1      12.313  15.372  18.623  1.00  0.00     0.176 HD
ATOM     12  H21 UNL     1      11.269  15.633  17.226  1.00  0.00     0.176 HD
ATOM     13  H1  UNL     1      10.154  17.186  18.430  1.00  0.00     0.180 HD
ENDBRANCH   8   9
TORSDOF 1
ENDMDL
MODEL 3
REMARK VINA RESULT: -4.608450663      2.426      3.413
REMARK  1 active torsions:
REMARK  status: ('A' for Active; 'I' for Inactive)
REMARK    1  A    between atoms: C8_8  and  N1_9 
ROOT
HETATM    1  C1  UNL     1      10.838  13.992  19.980  1.00  0.00     0.011 C 
HETATM    2  C2  UNL     1       9.946  15.016  20.639  1.00  0.00    -0.008 C 
HETATM    3  C3  UNL     1       9.520  14.404  21.953  1.00  0.00     0.005 C 
HETATM    4  C4  UNL     1       9.241  15.591  22.785  1.00  0.00     0.001 C 
HETATM    5  C5  UNL     1       9.422  16.748  21.786  1.00  0.00     0.012 C 
HETATM    6  C6  UNL     1      10.459  16.338  20.867  1.00  0.00    -0.013 A 
HETATM    7  C7  UNL     1      11.059  16.610  19.571  1.00  0.00     0.039 A 
HETATM    8  C8  UNL     1      11.112  17.557  20.532  1.00  0.00     0.108 A 
ENDROOT
BRANCH   8   9
HETATM    9  N1  UNL     1      12.266  17.885  21.376  1.00  0.00    -0.337 N 
HETATM   10  N2  UNL     1      12.597  19.032  21.623  1.00  0.00    -0.349 N 
ATOM     11  H22 UNL     1      12.038  19.782  21.219  1.00  0.00     0.176 HD
ATOM     12  H21 UNL     1      13.400  19.260  22.210  1.00  0.00     0.176 HD
ATOM     13  H1  UNL     1      12.815  17.122  21.772  1.00  0.00     0.180 HD
ENDBRANCH   8   9
TORSDOF 1
ENDMDL
MODEL 4
REMARK VINA RESULT: -4.595980658      2.473      3.588
REMARK  1 active torsions:
REMARK  status: ('A' for Active; 'I' for Inactive)
REMARK    1  A    between atoms: C8_8  and  N1_9 
ROOT
HETATM    1  C1  UNL     1      11.103  17.140  20.073  1.00  0.00     0.011 C 
HETATM    2  C2  UNL     1      10.594  16.155  21.096  1.00  0.00    -0.008 C 
HETATM    3  C3  UNL     1       9.423  16.831  21.771  1.00  0.00     0.005 C 
HETATM    4  C4  UNL     1       8.613  15.687  22.232  1.00  0.00     0.001 C 
HETATM    5  C5  UNL     1       9.500  14.482  21.870  1.00  0.00     0.012 C 
HETATM    6  C6  UNL     1      10.206  14.841  20.661  1.00  0.00    -0.013 A 
HETATM    7  C7  UNL     1      11.340  14.505  19.814  1.00  0.00     0.039 A 
HETATM    8  C8  UNL     1      10.346  13.603  19.974  1.00  0.00     0.108 A 
ENDROOT
BRANCH   8   9
HETATM    9  N1  UNL     1       9.270  13.308  19.020  1.00  0.00    -0.337 N 
HETATM   10  N2  UNL     1       9.234  13.786  17.900  1.00  0.00    -0.349 N 
ATOM     11  H22 UNL     1       9.989  14.415  17.630  1.00  0.00     0.176 HD
ATOM     12  H21 UNL     1       8.486  13.581  17.237  1.00  0.00     0.176 HD
ATOM     13  H1  UNL     1       8.522  12.677  19.307  1.00  0.00     0.180 HD
ENDBRANCH   8   9
TORSDOF 1
ENDMDL
MODEL 5
REMARK VINA RESULT: -4.313080472      1.803      2.721
REMARK  1 active torsions:
REMARK  status: ('A' for Active; 'I' for Inactive)
REMARK    1  A    between atoms: C8_8  and  N1_9 
ROOT
HETATM    1  C1  UNL     1       9.384  14.125  21.411  1.00  0.00     0.011 C 
HETATM    2  C2  UNL     1      10.389  14.539  20.364  1.00  0.00    -0.008 C 
HETATM    3  C3  UNL     1       9.836  14.048  19.046  1.00  0.00     0.005 C 
HETATM    4  C4  UNL     1      10.444  14.979  18.076  1.00  0.00     0.001 C 
HETATM    5  C5  UNL     1      11.383  15.818  18.961  1.00  0.00     0.012 C 
HETATM    6  C6  UNL     1      10.741  15.927  20.251  1.00  0.00    -0.013 A 
HETATM    7  C7  UNL     1      10.960  16.253  21.652  1.00  0.00     0.039 A 
HETATM    8  C8  UNL     1      11.141  17.211  20.717  1.00  0.00     0.108 A 
ENDROOT
BRANCH   8   9
HETATM    9  N1  UNL     1      10.212  18.298  20.386  1.00  0.00    -0.337 N 
HETATM   10  N2  UNL     1       9.566  18.892  21.231  1.00  0.00    -0.349 N 
ATOM     11  H22 UNL     1       9.688  18.611  22.203  1.00  0.00     0.176 HD
ATOM     12  H21 UNL     1       8.921  19.648  21.001  1.00  0.00     0.176 HD
ATOM     13  H1  UNL     1      10.103  18.567  19.408  1.00  0.00     0.180 HD
ENDBRANCH   8   9
TORSDOF 1
ENDMDL
