MODEL 1
REMARK VINA RESULT: -4.220704482      0.000      0.000
REMARK  2 active torsions:
REMARK  status: ('A' for Active; 'I' for Inactive)
REMARK    1  A    between atoms: C2_2  and  C4_4 
REMARK    2  A    between atoms: C8_8  and  N1_9 
ROOT
HETATM    1  C4  UNL     1      11.163  15.087  20.159  1.00  0.00     0.019 C 
HETATM    2  C5  UNL     1      11.458  15.290  18.690  1.00  0.00     0.007 C 
HETATM    3  C6  UNL     1      10.288  14.766  17.917  1.00  0.00     0.002 C 
HETATM    4  C7  UNL     1       9.535  13.859  18.840  1.00  0.00     0.033 C 
HETATM    5  C8  UNL     1      10.237  13.955  20.188  1.00  0.00     0.188 C 
ENDROOT
BRANCH   5   6
HETATM    6  N1  UNL     1       9.271  13.924  21.229  1.00  0.00    -0.075 N 
ATOM      7  H13 UNL     1       9.609  14.472  22.020  1.00  0.00     0.274 HD
ATOM      8  H12 UNL     1       8.458  14.472  20.950  1.00  0.00     0.274 HD
ATOM      9  H11 UNL     1       8.963  13.010  21.560  1.00  0.00     0.274 HD
ENDBRANCH   5   6
BRANCH   1  10
HETATM   10  C2  UNL     1      10.690  16.381  20.737  1.00  0.00    -0.017 C 
HETATM   11  C1  UNL     1      10.941  16.516  22.212  1.00  0.00     0.010 C 
HETATM   12  C3  UNL     1      11.155  17.596  19.975  1.00  0.00     0.010 C 
ENDBRANCH   1  10
TORSDOF 2
ENDMDL
MODEL 2
REMARK VINA RESULT: -3.926418292      1.875      3.638
REMARK  2 active torsions:
REMARK  status: ('A' for Active; 'I' for Inactive)
REMARK    1  A    between atoms: C2_2  and  C4_4 
REMARK    2  A    between atoms: C8_8  and  N1_9 
ROOT
HETATM    1  C4  UNL     1      10.617  15.147  20.843  1.00  0.00     0.019 C 
HETATM    2  C5  UNL     1       9.578  14.497  21.726  1.00  0.00     0.007 C 
HETATM    3  C6  UNL     1       8.628  15.565  22.170  1.00  0.00     0.002 C 
HETATM    4  C7  UNL     1       9.325  16.873  21.959  1.00  0.00     0.033 C 
HETATM    5  C8  UNL     1      10.651  16.539  21.290  1.00  0.00     0.188 C 
ENDROOT
BRANCH   5   6
HETATM    6  N1  UNL     1      10.957  17.533  20.322  1.00  0.00    -0.075 N 
ATOM      7  H13 UNL     1      10.739  18.454  20.703  1.00  0.00     0.274 HD
ATOM      8  H12 UNL     1      11.968  17.603  20.219  1.00  0.00     0.274 HD
ATOM      9  H11 UNL     1      10.530  17.441  19.400  1.00  0.00     0.274 HD
ENDBRANCH   5   6
BRANCH   1  10
HETATM   10  C2  UNL     1      10.263  14.889  19.415  1.00  0.00    -0.017 C 
HETATM   11  C1  UNL     1      11.412  15.064  18.463  1.00  0.00     0.010 C 
HETATM   12  C3  UNL     1       9.542  13.584  19.191  1.00  0.00     0.010 C 
ENDBRANCH   1  10
TORSDOF 2
ENDMDL
MODEL 3
REMARK VINA RESULT: -3.859527040      1.838      3.670
REMARK  2 active torsions:
REMARK  status: ('A' for Active; 'I' for Inactive)
REMARK    1  A    between atoms: C2_2  and  C4_4 
REMARK    2  A    between atoms: C8_8  and  N1_9 
ROOT
HETATM    1  C4  UNL     1      11.108  15.767  20.850  1.00  0.00     0.019 C 
HETATM    2  C5  UNL     1      10.909  16.518  22.146  1.00  0.00     0.007 C 
HETATM    3  C6  UNL     1      10.366  17.870  21.806  1.00  0.00     0.002 C 
HETATM    4  C7  UNL     1      10.669  18.103  20.359  1.00  0.00     0.033 C 
HETATM    5  C8  UNL     1      11.303  16.816  19.850  1.00  0.00     0.188 C 
ENDROOT
BRANCH   5   6
HETATM    6  N1  UNL     1      10.854  16.555  18.528  1.00  0.00    -0.075 N 
ATOM      7  H13 UNL     1      10.166  15.803  18.548  1.00  0.00     0.274 HD
ATOM      8  H12 UNL     1      10.278  17.333  18.209  1.00  0.00     0.274 HD
ATOM      9  H11 UNL     1      11.560  16.347  17.822  1.00  0.00     0.274 HD
ENDBRANCH   5   6
BRANCH   1  10
HETATM   10  C2  UNL     1       9.959  14.832  20.655  1.00  0.00    -0.017 C 
HETATM   11  C1  UNL     1      10.327  13.552  19.960  1.00  0.00     0.010 C 
HETATM   12  C3  UNL     1       9.157  14.581  21.907  1.00  0.00     0.010 C 
ENDBRANCH   1  10
TORSDOF 2
ENDMDL
MODEL 4
REMARK VINA RESULT: -3.848910618      1.529      2.239
REMARK  2 active torsions:
REMARK  status: ('A' for Active; 'I' for Inactive)
REMARK    1  A    between atoms: C2_2  and  C4_4 
REMARK    2  A    between atoms: C8_8  and  N1_9 
ROOT
HETATM    1  C4  UNL     1      10.457  16.057  21.742  1.00  0.00     0.019 C 
HETATM    2  C5  UNL     1      11.218  17.103  20.961  1.00  0.00     0.007 C 
HETATM    3  C6  UNL     1      11.100  16.758  19.510  1.00  0.00     0.002 C 
HETATM    4  C7  UNL     1      10.695  15.319  19.441  1.00  0.00     0.033 C 
HETATM    5  C8  UNL     1      10.481  14.874  20.882  1.00  0.00     0.188 C 
ENDROOT
BRANCH   5   6
HETATM    6  N1  UNL     1       9.370  13.992  20.946  1.00  0.00    -0.075 N 
ATOM      7  H13 UNL     1       9.707  13.032  21.026  1.00  0.00     0.274 HD
ATOM      8  H12 UNL     1       8.901  14.106  21.844  1.00  0.00     0.274 HD
ATOM      9  H11 UNL     1       8.681  14.046  20.197  1.00  0.00     0.274 HD
ENDBRANCH   5   6
BRANCH   1  10
HETATM   10  C2  UNL     1       9.121  16.613  22.114  1.00  0.00    -0.017 C 
HETATM   11  C1  UNL     1       8.628  16.163  23.460  1.00  0.00     0.010 C 
HETATM   12  C3  UNL     1       9.014  18.107  21.947  1.00  0.00     0.010 C 
ENDBRANCH   1  10
TORSDOF 2
ENDMDL
MODEL 5
REMARK VINA RESULT: -3.828490451      1.769      2.616
REMARK  2 active torsions:
REMARK  status: ('A' for Active; 'I' for Inactive)
REMARK    1  A    between atoms: C2_2  and  C4_4 
REMARK    2  A    between atoms: C8_8  and  N1_9 
ROOT
HETATM    1  C4  UNL     1      10.294  16.384  20.354  1.00  0.00     0.019 C 
HETATM    2  C5  UNL     1       9.690  15.381  21.310  1.00  0.00     0.007 C 
HETATM    3  C6  UNL     1      10.223  14.031  20.945  1.00  0.00     0.002 C 
HETATM    4  C7  UNL     1      10.746  14.139  19.548  1.00  0.00     0.033 C 
HETATM    5  C8  UNL     1      10.598  15.603  19.156  1.00  0.00     0.188 C 
ENDROOT
BRANCH   5   6
HETATM    6  N1  UNL     1      11.718  16.002  18.378  1.00  0.00    -0.075 N 
ATOM      7  H13 UNL     1      11.506  15.870  17.389  1.00  0.00     0.274 HD
ATOM      8  H12 UNL     1      11.813  17.016  18.420  1.00  0.00     0.274 HD
ATOM      9  H11 UNL     1      12.617  15.570  18.591  1.00  0.00     0.274 HD
ENDBRANCH   5   6
BRANCH   1  10
HETATM   10  C2  UNL     1      11.430  17.073  21.036  1.00  0.00    -0.017 C 
HETATM   11  C1  UNL     1      11.537  18.536  20.712  1.00  0.00     0.010 C 
HETATM   12  C3  UNL     1      11.494  16.821  22.521  1.00  0.00     0.010 C 
ENDBRANCH   1  10
TORSDOF 2
ENDMDL
