MODEL 1
REMARK VINA RESULT: -5.006959641      0.000      0.000
REMARK  0 active torsions:
REMARK  status: ('A' for Active; 'I' for Inactive)
ROOT
HETATM    1  C1  UNL     1       4.234   5.796  -1.200  1.00  0.00     0.000 C 
HETATM    2  C2  UNL     1       3.851   4.429  -1.658  1.00  0.00     0.000 C 
HETATM    3  C3  UNL     1       5.014   3.690  -2.317  1.00  0.00     0.005 C 
HETATM    4  C4  UNL     1       6.114   3.691  -1.316  1.00  0.00    -0.010 C 
HETATM    5  C5  UNL     1       7.349   2.986  -1.690  1.00  0.00     0.005 C 
HETATM    6  C6  UNL     1       8.498   3.791  -1.125  1.00  0.00     0.001 C 
HETATM    7  C7  UNL     1       7.913   5.075  -0.590  1.00  0.00     0.005 C 
HETATM    8  C8  UNL     1       6.579   5.151  -1.215  1.00  0.00    -0.010 C 
HETATM    9  C9  UNL     1       5.520   5.827  -0.404  1.00  0.00     0.005 C 
ENDROOT
TORSDOF 0
ENDMDL
MODEL 2
REMARK VINA RESULT: -4.958729360      0.105      2.055
REMARK  0 active torsions:
REMARK  status: ('A' for Active; 'I' for Inactive)
ROOT
HETATM    1  C1  UNL     1       3.779   4.473  -1.699  1.00  0.00     0.000 C 
HETATM    2  C2  UNL     1       4.148   5.846  -1.250  1.00  0.00     0.000 C 
HETATM    3  C3  UNL     1       5.411   5.858  -0.394  1.00  0.00     0.005 C 
HETATM    4  C4  UNL     1       6.464   5.204  -1.216  1.00  0.00    -0.010 C 
HETATM    5  C5  UNL     1       7.812   5.134  -0.632  1.00  0.00     0.005 C 
HETATM    6  C6  UNL     1       8.398   3.804  -1.049  1.00  0.00     0.001 C 
HETATM    7  C7  UNL     1       7.291   3.027  -1.717  1.00  0.00     0.005 C 
HETATM    8  C8  UNL     1       6.060   3.726  -1.304  1.00  0.00    -0.010 C 
HETATM    9  C9  UNL     1       4.937   3.701  -2.292  1.00  0.00     0.005 C 
ENDROOT
TORSDOF 0
ENDMDL
MODEL 3
REMARK VINA RESULT: -4.897718788      0.606      3.176
REMARK  0 active torsions:
REMARK  status: ('A' for Active; 'I' for Inactive)
ROOT
HETATM    1  C1  UNL     1       8.182   4.823  -0.453  1.00  0.00     0.000 C 
HETATM    2  C2  UNL     1       8.221   3.589  -1.289  1.00  0.00     0.000 C 
HETATM    3  C3  UNL     1       6.855   2.914  -1.391  1.00  0.00     0.005 C 
HETATM    4  C4  UNL     1       5.928   3.952  -1.916  1.00  0.00    -0.010 C 
HETATM    5  C5  UNL     1       4.539   3.537  -2.159  1.00  0.00     0.005 C 
HETATM    6  C6  UNL     1       3.661   4.709  -1.778  1.00  0.00     0.001 C 
HETATM    7  C7  UNL     1       4.557   5.733  -1.126  1.00  0.00     0.005 C 
HETATM    8  C8  UNL     1       5.778   4.980  -0.785  1.00  0.00    -0.010 C 
HETATM    9  C9  UNL     1       7.052   5.762  -0.815  1.00  0.00     0.005 C 
ENDROOT
TORSDOF 0
ENDMDL
MODEL 4
REMARK VINA RESULT: -4.830670672      0.670      3.730
REMARK  0 active torsions:
REMARK  status: ('A' for Active; 'I' for Inactive)
ROOT
HETATM    1  C1  UNL     1       8.270   3.422  -1.541  1.00  0.00     0.000 C 
HETATM    2  C2  UNL     1       8.323   4.559  -0.578  1.00  0.00     0.000 C 
HETATM    3  C3  UNL     1       7.222   5.586  -0.830  1.00  0.00     0.005 C 
HETATM    4  C4  UNL     1       5.942   4.829  -0.779  1.00  0.00    -0.010 C 
HETATM    5  C5  UNL     1       4.706   5.607  -0.943  1.00  0.00     0.005 C 
HETATM    6  C6  UNL     1       3.752   4.747  -1.742  1.00  0.00     0.001 C 
HETATM    7  C7  UNL     1       4.532   3.542  -2.204  1.00  0.00     0.005 C 
HETATM    8  C8  UNL     1       5.942   3.934  -2.027  1.00  0.00    -0.010 C 
HETATM    9  C9  UNL     1       6.888   2.824  -1.694  1.00  0.00     0.005 C 
ENDROOT
TORSDOF 0
ENDMDL
MODEL 5
REMARK VINA RESULT: -4.513069944      0.817      3.607
REMARK  0 active torsions:
REMARK  status: ('A' for Active; 'I' for Inactive)
ROOT
HETATM    1  C1  UNL     1       7.367   2.895  -1.819  1.00  0.00     0.000 C 
HETATM    2  C2  UNL     1       8.412   3.632  -1.051  1.00  0.00     0.000 C 
HETATM    3  C3  UNL     1       8.163   5.138  -1.030  1.00  0.00     0.005 C 
HETATM    4  C4  UNL     1       6.793   5.314  -0.478  1.00  0.00    -0.010 C 
HETATM    5  C5  UNL     1       6.323   6.696  -0.303  1.00  0.00     0.005 C 
HETATM    6  C6  UNL     1       4.850   6.703  -0.646  1.00  0.00     0.001 C 
HETATM    7  C7  UNL     1       4.527   5.342  -1.213  1.00  0.00     0.005 C 
HETATM    8  C8  UNL     1       5.842   4.772  -1.555  1.00  0.00    -0.010 C 
HETATM    9  C9  UNL     1       5.954   3.285  -1.442  1.00  0.00     0.005 C 
ENDROOT
TORSDOF 0
ENDMDL
