MODEL 1
REMARK VINA RESULT: -4.995991279      0.000      0.000
REMARK  0 active torsions:
REMARK  status: ('A' for Active; 'I' for Inactive)
ROOT
HETATM    1  N1  UNL     1       8.618   4.756  -0.191  1.00  0.00    -0.389 N 
ATOM      2  H11 UNL     1       8.732   5.576   0.405  1.00  0.00     0.157 HD
ATOM      3  H12 UNL     1       9.479   4.214  -0.111  1.00  0.00     0.157 HD
HETATM    4  C1  UNL     1       7.568   4.503  -0.889  1.00  0.00     0.073 C 
HETATM    5  C2  UNL     1       7.403   3.311  -1.755  1.00  0.00     0.078 C 
HETATM    6  C3  UNL     1       5.904   3.102  -1.664  1.00  0.00     0.033 C 
HETATM    7  C4  UNL     1       5.396   4.522  -1.797  1.00  0.00     0.086 C 
HETATM    8  C5  UNL     1       3.998   4.625  -1.300  1.00  0.00     0.025 C 
HETATM    9  C6  UNL     1       3.788   5.783  -0.357  1.00  0.00     0.004 C 
HETATM   10  C7  UNL     1       4.674   6.946  -0.770  1.00  0.00     0.020 C 
HETATM   11  C8  UNL     1       6.091   6.567  -0.429  1.00  0.00     0.124 C 
HETATM   12  N2  UNL     1       6.370   5.258  -0.999  1.00  0.00    -0.366 N 
ENDROOT
TORSDOF 0
ENDMDL
MODEL 2
REMARK VINA RESULT: -4.813065320      1.395      3.325
REMARK  0 active torsions:
REMARK  status: ('A' for Active; 'I' for Inactive)
ROOT
HETATM    1  N1  UNL     1       5.107   7.195  -1.957  1.00  0.00    -0.389 N 
ATOM      2  H11 UNL     1       5.880   7.832  -1.764  1.00  0.00     0.157 HD
ATOM      3  H12 UNL     1       4.340   7.764  -2.318  1.00  0.00     0.157 HD
HETATM    4  C1  UNL     1       5.145   5.924  -1.764  1.00  0.00     0.073 C 
HETATM    5  C2  UNL     1       4.022   4.997  -2.045  1.00  0.00     0.078 C 
HETATM    6  C3  UNL     1       4.781   3.736  -2.406  1.00  0.00     0.033 C 
HETATM    7  C4  UNL     1       5.858   3.720  -1.341  1.00  0.00     0.086 C 
HETATM    8  C5  UNL     1       6.979   2.832  -1.745  1.00  0.00     0.025 C 
HETATM    9  C6  UNL     1       8.333   3.473  -1.578  1.00  0.00     0.004 C 
HETATM   10  C7  UNL     1       8.318   4.392  -0.369  1.00  0.00     0.020 C 
HETATM   11  C8  UNL     1       7.488   5.595  -0.737  1.00  0.00     0.124 C 
HETATM   12  N2  UNL     1       6.213   5.133  -1.262  1.00  0.00    -0.366 N 
ENDROOT
TORSDOF 0
ENDMDL
MODEL 3
REMARK VINA RESULT: -4.483320488      1.481      2.428
REMARK  0 active torsions:
REMARK  status: ('A' for Active; 'I' for Inactive)
ROOT
HETATM    1  N1  UNL     1       7.236   2.324  -2.039  1.00  0.00    -0.389 N 
ATOM      2  H11 UNL     1       6.584   1.825  -2.644  1.00  0.00     0.157 HD
ATOM      3  H12 UNL     1       8.088   1.763  -1.998  1.00  0.00     0.157 HD
HETATM    4  C1  UNL     1       6.982   3.445  -1.461  1.00  0.00     0.073 C 
HETATM    5  C2  UNL     1       7.929   4.171  -0.581  1.00  0.00     0.078 C 
HETATM    6  C3  UNL     1       7.514   5.605  -0.842  1.00  0.00     0.033 C 
HETATM    7  C4  UNL     1       6.004   5.488  -0.818  1.00  0.00     0.086 C 
HETATM    8  C5  UNL     1       5.378   6.663  -1.479  1.00  0.00     0.025 C 
HETATM    9  C6  UNL     1       4.315   6.284  -2.478  1.00  0.00     0.004 C 
HETATM   10  C7  UNL     1       3.587   5.039  -2.003  1.00  0.00     0.020 C 
HETATM   11  C8  UNL     1       4.537   3.881  -2.161  1.00  0.00     0.124 C 
HETATM   12  N2  UNL     1       5.796   4.226  -1.519  1.00  0.00    -0.366 N 
ENDROOT
TORSDOF 0
ENDMDL
MODEL 4
REMARK VINA RESULT: -4.455196636      1.241      3.927
REMARK  0 active torsions:
REMARK  status: ('A' for Active; 'I' for Inactive)
ROOT
HETATM    1  N1  UNL     1       3.299   4.851  -0.686  1.00  0.00    -0.389 N 
ATOM      2  H11 UNL     1       3.070   3.866  -0.825  1.00  0.00     0.157 HD
ATOM      3  H12 UNL     1       2.434   5.319  -0.415  1.00  0.00     0.157 HD
HETATM    4  C1  UNL     1       4.473   5.354  -0.839  1.00  0.00     0.073 C 
HETATM    5  C2  UNL     1       4.806   6.785  -0.637  1.00  0.00     0.078 C 
HETATM    6  C3  UNL     1       6.244   6.676  -0.170  1.00  0.00     0.033 C 
HETATM    7  C4  UNL     1       6.792   5.640  -1.129  1.00  0.00     0.086 C 
HETATM    8  C5  UNL     1       8.047   5.047  -0.597  1.00  0.00     0.025 C 
HETATM    9  C6  UNL     1       8.063   3.541  -0.656  1.00  0.00     0.004 C 
HETATM   10  C7  UNL     1       7.309   3.069  -1.887  1.00  0.00     0.020 C 
HETATM   11  C8  UNL     1       5.845   3.319  -1.634  1.00  0.00     0.124 C 
HETATM   12  N2  UNL     1       5.677   4.703  -1.216  1.00  0.00    -0.366 N 
ENDROOT
TORSDOF 0
ENDMDL
MODEL 5
REMARK VINA RESULT: -4.166577213      1.219      1.833
REMARK  0 active torsions:
REMARK  status: ('A' for Active; 'I' for Inactive)
ROOT
HETATM    1  N1  UNL     1       7.144   3.354  -1.240  1.00  0.00    -0.389 N 
ATOM      2  H11 UNL     1       7.936   3.682  -0.687  1.00  0.00     0.157 HD
ATOM      3  H12 UNL     1       7.358   2.397  -1.522  1.00  0.00     0.157 HD
HETATM    4  C1  UNL     1       6.098   4.057  -1.502  1.00  0.00     0.073 C 
HETATM    5  C2  UNL     1       4.947   3.581  -2.306  1.00  0.00     0.078 C 
HETATM    6  C3  UNL     1       3.816   4.361  -1.667  1.00  0.00     0.033 C 
HETATM    7  C4  UNL     1       4.444   5.731  -1.519  1.00  0.00     0.086 C 
HETATM    8  C5  UNL     1       3.694   6.545  -0.526  1.00  0.00     0.025 C 
HETATM    9  C6  UNL     1       4.588   7.212   0.489  1.00  0.00     0.004 C 
HETATM   10  C7  UNL     1       5.904   7.596  -0.163  1.00  0.00     0.020 C 
HETATM   11  C8  UNL     1       6.668   6.321  -0.405  1.00  0.00     0.124 C 
HETATM   12  N2  UNL     1       5.801   5.389  -1.109  1.00  0.00    -0.366 N 
ENDROOT
TORSDOF 0
ENDMDL
