MODEL 1
REMARK VINA RESULT: -3.957309252      0.000      0.000
REMARK  0 active torsions:
REMARK  status: ('A' for Active; 'I' for Inactive)
ROOT
HETATM    1  C1  UNL     1       6.282   4.068  -1.308  1.00  0.00     0.001 C 
HETATM    2  C2  UNL     1       5.305   3.823  -2.391  1.00  0.00     0.004 C 
HETATM    3  C3  UNL     1       4.045   4.620  -2.306  1.00  0.00    -0.014 C 
HETATM    4  C4  UNL     1       3.646   4.755  -0.881  1.00  0.00     0.005 C 
HETATM    5  C5  UNL     1       4.173   6.025  -0.277  1.00  0.00     0.005 C 
HETATM    6  C6  UNL     1       5.432   6.429  -0.960  1.00  0.00    -0.014 C 
HETATM    7  C7  UNL     1       6.541   5.445  -0.897  1.00  0.00     0.004 C 
HETATM    8  C8  UNL     1       5.117   6.892  -2.357  1.00  0.00     0.005 C 
HETATM    9  C9  UNL     1       4.229   5.917  -3.032  1.00  0.00     0.005 C 
ENDROOT
TORSDOF 0
ENDMDL
MODEL 2
REMARK VINA RESULT: -3.875392089      0.522      2.810
REMARK  0 active torsions:
REMARK  status: ('A' for Active; 'I' for Inactive)
ROOT
HETATM    1  C1  UNL     1       4.804   6.969  -2.663  1.00  0.00     0.001 C 
HETATM    2  C2  UNL     1       5.867   6.795  -1.650  1.00  0.00     0.004 C 
HETATM    3  C3  UNL     1       5.641   5.689  -0.672  1.00  0.00    -0.014 C 
HETATM    4  C4  UNL     1       4.195   5.618  -0.337  1.00  0.00     0.005 C 
HETATM    5  C5  UNL     1       3.474   4.631  -1.211  1.00  0.00     0.005 C 
HETATM    6  C6  UNL     1       4.157   4.523  -2.529  1.00  0.00    -0.014 C 
HETATM    7  C7  UNL     1       4.250   5.782  -3.308  1.00  0.00     0.004 C 
HETATM    8  C8  UNL     1       5.479   3.826  -2.351  1.00  0.00     0.005 C 
HETATM    9  C9  UNL     1       6.223   4.420  -1.216  1.00  0.00     0.005 C 
ENDROOT
TORSDOF 0
ENDMDL
MODEL 3
REMARK VINA RESULT: -3.803118602      0.783      2.080
REMARK  0 active torsions:
REMARK  status: ('A' for Active; 'I' for Inactive)
ROOT
HETATM    1  C1  UNL     1       6.026   6.808  -1.120  1.00  0.00     0.001 C 
HETATM    2  C2  UNL     1       6.355   5.371  -0.997  1.00  0.00     0.004 C 
HETATM    3  C3  UNL     1       5.193   4.439  -1.110  1.00  0.00    -0.014 C 
HETATM    4  C4  UNL     1       4.009   5.050  -0.451  1.00  0.00     0.005 C 
HETATM    5  C5  UNL     1       3.157   5.801  -1.434  1.00  0.00     0.005 C 
HETATM    6  C6  UNL     1       3.998   6.308  -2.553  1.00  0.00    -0.014 C 
HETATM    7  C7  UNL     1       5.096   7.226  -2.165  1.00  0.00     0.004 C 
HETATM    8  C8  UNL     1       4.451   5.151  -3.402  1.00  0.00     0.005 C 
HETATM    9  C9  UNL     1       4.992   4.069  -2.547  1.00  0.00     0.005 C 
ENDROOT
TORSDOF 0
ENDMDL
MODEL 4
REMARK VINA RESULT: -3.769524331      0.580      2.363
REMARK  0 active torsions:
REMARK  status: ('A' for Active; 'I' for Inactive)
ROOT
HETATM    1  C1  UNL     1       4.354   6.290  -3.276  1.00  0.00     0.001 C 
HETATM    2  C2  UNL     1       3.342   5.304  -2.843  1.00  0.00     0.004 C 
HETATM    3  C3  UNL     1       3.783   4.369  -1.765  1.00  0.00    -0.014 C 
HETATM    4  C4  UNL     1       5.209   4.012  -1.979  1.00  0.00     0.005 C 
HETATM    5  C5  UNL     1       6.127   4.913  -1.202  1.00  0.00     0.005 C 
HETATM    6  C6  UNL     1       5.492   6.246  -1.013  1.00  0.00    -0.014 C 
HETATM    7  C7  UNL     1       5.147   6.974  -2.259  1.00  0.00     0.004 C 
HETATM    8  C8  UNL     1       4.342   6.120  -0.051  1.00  0.00     0.005 C 
HETATM    9  C9  UNL     1       3.480   4.975  -0.429  1.00  0.00     0.005 C 
ENDROOT
TORSDOF 0
ENDMDL
MODEL 5
REMARK VINA RESULT: -3.700935328      0.609      2.588
REMARK  0 active torsions:
REMARK  status: ('A' for Active; 'I' for Inactive)
ROOT
HETATM    1  C1  UNL     1       6.617   4.778  -1.202  1.00  0.00     0.001 C 
HETATM    2  C2  UNL     1       6.183   6.022  -0.530  1.00  0.00     0.004 C 
HETATM    3  C3  UNL     1       4.967   6.668  -1.109  1.00  0.00    -0.014 C 
HETATM    4  C4  UNL     1       4.991   6.522  -2.587  1.00  0.00     0.005 C 
HETATM    5  C5  UNL     1       4.229   5.307  -3.034  1.00  0.00     0.005 C 
HETATM    6  C6  UNL     1       4.257   4.268  -1.969  1.00  0.00    -0.014 C 
HETATM    7  C7  UNL     1       5.606   3.793  -1.573  1.00  0.00     0.004 C 
HETATM    8  C8  UNL     1       3.412   4.718  -0.808  1.00  0.00     0.005 C 
HETATM    9  C9  UNL     1       3.746   6.114  -0.441  1.00  0.00     0.005 C 
ENDROOT
TORSDOF 0
ENDMDL
