MODEL 1
REMARK VINA RESULT: -6.362996568      0.000      0.000
REMARK  7 active torsions:
REMARK  status: ('A' for Active; 'I' for Inactive)
REMARK       I    between atoms: C2_2  and  N1_4 
REMARK    1  A    between atoms: N1_4  and  C3_6 
REMARK    2  A    between atoms: C3_6  and  C4_7 
REMARK    3  A    between atoms: C4_7  and  S1_8 
REMARK    4  A    between atoms: S1_8  and  N2_11 
REMARK    5  A    between atoms: N2_11  and  C5_13 
REMARK    6  A    between atoms: C5_13  and  C6_14 
REMARK    7  A    between atoms: C6_14  and  C7_15 
ROOT
HETATM    1  S1  UNL     1      15.896  26.545  18.842  1.00  0.00     0.228 S 
HETATM    2  O2  UNL     1      14.490  26.994  18.556  1.00  0.00    -0.206 OA
HETATM    3  O3  UNL     1      16.877  27.672  18.742  1.00  0.00    -0.206 OA
ENDROOT
BRANCH   1   4
HETATM    4  C4  UNL     1      15.982  25.841  20.489  1.00  0.00     0.182 C 
BRANCH   4   5
HETATM    5  C3  UNL     1      16.190  26.910  21.513  1.00  0.00     0.139 C 
BRANCH   5   6
HETATM    6  N1  UNL     1      15.568  28.162  21.183  1.00  0.00    -0.360 N 
HETATM    7  C2  UNL     1      14.404  28.600  21.842  1.00  0.00     0.213 C 
HETATM    8  C1  UNL     1      13.758  29.915  21.483  1.00  0.00     0.117 C 
HETATM    9  O1  UNL     1      13.841  27.942  22.747  1.00  0.00    -0.274 OA
ATOM     10  H1  UNL     1      15.978  28.746  20.455  1.00  0.00     0.162 HD
ENDBRANCH   5   6
ENDBRANCH   4   5
ENDBRANCH   1   4
BRANCH   1  11
HETATM   11  N2  UNL     1      16.287  25.313  17.711  1.00  0.00    -0.319 N 
ATOM     12  H2  UNL     1      16.668  24.398  17.955  1.00  0.00     0.172 HD
BRANCH  11  13
HETATM   13  C5  UNL     1      16.000  25.754  16.367  1.00  0.00     0.132 C 
BRANCH  13  14
HETATM   14  C6  UNL     1      17.253  25.804  15.541  1.00  0.00     0.028 C 
BRANCH  14  15
HETATM   15  C7  UNL     1      17.517  27.138  14.899  1.00  0.00    -0.050 C 
HETATM   16  C8  UNL     1      18.171  26.826  13.545  1.00  0.00     0.014 C 
HETATM   17  C9  UNL     1      16.198  27.845  14.659  1.00  0.00     0.014 C 
HETATM   18  C10 UNL     1      18.472  28.006  15.650  1.00  0.00     0.014 C 
ENDBRANCH  14  15
ENDBRANCH  13  14
ENDBRANCH  11  13
ENDBRANCH   1  11
TORSDOF 7
ENDMDL
MODEL 2
REMARK VINA RESULT: -6.324469599      1.362      1.785
REMARK  7 active torsions:
REMARK  status: ('A' for Active; 'I' for Inactive)
REMARK       I    between atoms: C2_2  and  N1_4 
REMARK    1  A    between atoms: N1_4  and  C3_6 
REMARK    2  A    between atoms: C3_6  and  C4_7 
REMARK    3  A    between atoms: C4_7  and  S1_8 
REMARK    4  A    between atoms: S1_8  and  N2_11 
REMARK    5  A    between atoms: N2_11  and  C5_13 
REMARK    6  A    between atoms: C5_13  and  C6_14 
REMARK    7  A    between atoms: C6_14  and  C7_15 
ROOT
HETATM    1  S1  UNL     1      15.960  26.451  19.493  1.00  0.00     0.228 S 
HETATM    2  O2  UNL     1      17.091  27.428  19.336  1.00  0.00    -0.206 OA
HETATM    3  O3  UNL     1      16.117  25.603  20.718  1.00  0.00    -0.206 OA
ENDROOT
BRANCH   1   4
HETATM    4  C4  UNL     1      14.404  27.336  19.593  1.00  0.00     0.182 C 
BRANCH   4   5
HETATM    5  C3  UNL     1      14.421  28.316  20.722  1.00  0.00     0.139 C 
BRANCH   5   6
HETATM    6  N1  UNL     1      15.595  28.234  21.546  1.00  0.00    -0.360 N 
HETATM    7  C2  UNL     1      15.516  28.332  22.947  1.00  0.00     0.213 C 
HETATM    8  C1  UNL     1      16.756  28.248  23.802  1.00  0.00     0.117 C 
HETATM    9  O1  UNL     1      14.437  28.493  23.563  1.00  0.00    -0.274 OA
ATOM     10  H1  UNL     1      16.506  28.102  21.106  1.00  0.00     0.162 HD
ENDBRANCH   5   6
ENDBRANCH   4   5
ENDBRANCH   1   4
BRANCH   1  11
HETATM   11  N2  UNL     1      15.927  25.465  18.087  1.00  0.00    -0.319 N 
ATOM     12  H2  UNL     1      16.032  24.450  18.085  1.00  0.00     0.172 HD
BRANCH  11  13
HETATM   13  C5  UNL     1      15.733  26.275  16.909  1.00  0.00     0.132 C 
BRANCH  13  14
HETATM   14  C6  UNL     1      16.746  25.938  15.854  1.00  0.00     0.028 C 
BRANCH  14  15
HETATM   15  C7  UNL     1      17.269  27.127  15.096  1.00  0.00    -0.050 C 
HETATM   16  C8  UNL     1      18.099  26.552  13.940  1.00  0.00     0.014 C 
HETATM   17  C9  UNL     1      16.101  27.907  14.526  1.00  0.00     0.014 C 
HETATM   18  C10 UNL     1      18.180  28.009  15.884  1.00  0.00     0.014 C 
ENDBRANCH  14  15
ENDBRANCH  13  14
ENDBRANCH  11  13
ENDBRANCH   1  11
TORSDOF 7
ENDMDL
MODEL 3
REMARK VINA RESULT: -6.315494195      0.062      1.073
REMARK  7 active torsions:
REMARK  status: ('A' for Active; 'I' for Inactive)
REMARK       I    between atoms: C2_2  and  N1_4 
REMARK    1  A    between atoms: N1_4  and  C3_6 
REMARK    2  A    between atoms: C3_6  and  C4_7 
REMARK    3  A    between atoms: C4_7  and  S1_8 
REMARK    4  A    between atoms: S1_8  and  N2_11 
REMARK    5  A    between atoms: N2_11  and  C5_13 
REMARK    6  A    between atoms: C5_13  and  C6_14 
REMARK    7  A    between atoms: C6_14  and  C7_15 
ROOT
HETATM    1  S1  UNL     1      15.873  26.533  18.882  1.00  0.00     0.228 S 
HETATM    2  O2  UNL     1      14.471  26.992  18.596  1.00  0.00    -0.206 OA
HETATM    3  O3  UNL     1      16.865  27.649  18.767  1.00  0.00    -0.206 OA
ENDROOT
BRANCH   1   4
HETATM    4  C4  UNL     1      15.960  25.843  20.534  1.00  0.00     0.182 C 
BRANCH   4   5
HETATM    5  C3  UNL     1      16.208  26.917  21.545  1.00  0.00     0.139 C 
BRANCH   5   6
HETATM    6  N1  UNL     1      15.600  28.177  21.217  1.00  0.00    -0.360 N 
HETATM    7  C2  UNL     1      14.430  28.617  21.862  1.00  0.00     0.213 C 
HETATM    8  C1  UNL     1      13.799  29.940  21.507  1.00  0.00     0.117 C 
HETATM    9  O1  UNL     1      13.847  27.955  22.752  1.00  0.00    -0.274 OA
ATOM     10  H1  UNL     1      16.027  28.765  20.502  1.00  0.00     0.162 HD
ENDBRANCH   5   6
ENDBRANCH   4   5
ENDBRANCH   1   4
BRANCH   1  11
HETATM   11  N2  UNL     1      16.249  25.286  17.761  1.00  0.00    -0.319 N 
ATOM     12  H2  UNL     1      16.599  24.362  18.013  1.00  0.00     0.172 HD
BRANCH  11  13
HETATM   13  C5  UNL     1      15.999  25.731  16.411  1.00  0.00     0.132 C 
BRANCH  13  14
HETATM   14  C6  UNL     1      17.279  25.824  15.631  1.00  0.00     0.028 C 
BRANCH  14  15
HETATM   15  C7  UNL     1      17.440  27.102  14.855  1.00  0.00    -0.050 C 
HETATM   16  C8  UNL     1      18.365  27.989  15.701  1.00  0.00     0.014 C 
HETATM   17  C9  UNL     1      18.116  26.800  13.533  1.00  0.00     0.014 C 
HETATM   18  C10 UNL     1      16.173  27.866  14.657  1.00  0.00     0.014 C 
ENDBRANCH  14  15
ENDBRANCH  13  14
ENDBRANCH  11  13
ENDBRANCH   1  11
TORSDOF 7
ENDMDL
MODEL 4
REMARK VINA RESULT: -6.304941463      1.377      2.106
REMARK  7 active torsions:
REMARK  status: ('A' for Active; 'I' for Inactive)
REMARK       I    between atoms: C2_2  and  N1_4 
REMARK    1  A    between atoms: N1_4  and  C3_6 
REMARK    2  A    between atoms: C3_6  and  C4_7 
REMARK    3  A    between atoms: C4_7  and  S1_8 
REMARK    4  A    between atoms: S1_8  and  N2_11 
REMARK    5  A    between atoms: N2_11  and  C5_13 
REMARK    6  A    between atoms: C5_13  and  C6_14 
REMARK    7  A    between atoms: C6_14  and  C7_15 
ROOT
HETATM    1  S1  UNL     1      15.951  26.446  19.519  1.00  0.00     0.228 S 
HETATM    2  O2  UNL     1      17.100  27.405  19.385  1.00  0.00    -0.206 OA
HETATM    3  O3  UNL     1      16.072  25.592  20.744  1.00  0.00    -0.206 OA
ENDROOT
BRANCH   1   4
HETATM    4  C4  UNL     1      14.408  27.356  19.593  1.00  0.00     0.182 C 
BRANCH   4   5
HETATM    5  C3  UNL     1      14.406  28.305  20.748  1.00  0.00     0.139 C 
BRANCH   5   6
HETATM    6  N1  UNL     1      15.589  28.236  21.561  1.00  0.00    -0.360 N 
HETATM    7  C2  UNL     1      15.523  28.344  22.963  1.00  0.00     0.213 C 
HETATM    8  C1  UNL     1      16.773  28.273  23.805  1.00  0.00     0.117 C 
HETATM    9  O1  UNL     1      14.450  28.503  23.588  1.00  0.00    -0.274 OA
ATOM     10  H1  UNL     1      16.495  28.106  21.113  1.00  0.00     0.162 HD
ENDBRANCH   5   6
ENDBRANCH   4   5
ENDBRANCH   1   4
BRANCH   1  11
HETATM   11  N2  UNL     1      15.927  25.464  18.110  1.00  0.00    -0.319 N 
ATOM     12  H2  UNL     1      16.020  24.448  18.107  1.00  0.00     0.172 HD
BRANCH  11  13
HETATM   13  C5  UNL     1      15.759  26.279  16.931  1.00  0.00     0.132 C 
BRANCH  13  14
HETATM   14  C6  UNL     1      16.769  25.919  15.881  1.00  0.00     0.028 C 
BRANCH  14  15
HETATM   15  C7  UNL     1      17.214  27.075  15.028  1.00  0.00    -0.050 C 
HETATM   16  C8  UNL     1      18.056  27.971  15.947  1.00  0.00     0.014 C 
HETATM   17  C9  UNL     1      18.090  26.557  13.905  1.00  0.00     0.014 C 
HETATM   18  C10 UNL     1      16.100  27.919  14.505  1.00  0.00     0.014 C 
ENDBRANCH  14  15
ENDBRANCH  13  14
ENDBRANCH  11  13
ENDBRANCH   1  11
TORSDOF 7
ENDMDL
MODEL 5
REMARK VINA RESULT: -6.296916838      1.165      1.348
REMARK  7 active torsions:
REMARK  status: ('A' for Active; 'I' for Inactive)
REMARK       I    between atoms: C2_2  and  N1_4 
REMARK    1  A    between atoms: N1_4  and  C3_6 
REMARK    2  A    between atoms: C3_6  and  C4_7 
REMARK    3  A    between atoms: C4_7  and  S1_8 
REMARK    4  A    between atoms: S1_8  and  N2_11 
REMARK    5  A    between atoms: N2_11  and  C5_13 
REMARK    6  A    between atoms: C5_13  and  C6_14 
REMARK    7  A    between atoms: C6_14  and  C7_15 
ROOT
HETATM    1  S1  UNL     1      15.450  25.958  19.264  1.00  0.00     0.228 S 
HETATM    2  O2  UNL     1      15.024  24.780  20.095  1.00  0.00    -0.206 OA
HETATM    3  O3  UNL     1      14.284  26.801  18.846  1.00  0.00    -0.206 OA
ENDROOT
BRANCH   1   4
HETATM    4  C4  UNL     1      16.599  26.972  20.194  1.00  0.00     0.182 C 
BRANCH   4   5
HETATM    5  C3  UNL     1      16.031  27.330  21.530  1.00  0.00     0.139 C 
BRANCH   5   6
HETATM    6  N1  UNL     1      14.704  27.877  21.471  1.00  0.00    -0.360 N 
HETATM    7  C2  UNL     1      14.484  29.266  21.442  1.00  0.00     0.213 C 
HETATM    8  C1  UNL     1      13.085  29.829  21.384  1.00  0.00     0.117 C 
HETATM    9  O1  UNL     1      15.411  30.108  21.463  1.00  0.00    -0.274 OA
ATOM     10  H1  UNL     1      13.904  27.245  21.450  1.00  0.00     0.162 HD
ENDBRANCH   5   6
ENDBRANCH   4   5
ENDBRANCH   1   4
BRANCH   1  11
HETATM   11  N2  UNL     1      16.269  25.349  17.883  1.00  0.00    -0.319 N 
ATOM     12  H2  UNL     1      16.900  24.547  17.887  1.00  0.00     0.172 HD
BRANCH  11  13
HETATM   13  C5  UNL     1      15.938  26.130  16.716  1.00  0.00     0.132 C 
BRANCH  13  14
HETATM   14  C6  UNL     1      16.933  25.899  15.616  1.00  0.00     0.028 C 
BRANCH  14  15
HETATM   15  C7  UNL     1      17.391  27.151  14.921  1.00  0.00    -0.050 C 
HETATM   16  C8  UNL     1      18.162  26.681  13.679  1.00  0.00     0.014 C 
HETATM   17  C9  UNL     1      16.180  27.948  14.480  1.00  0.00     0.014 C 
HETATM   18  C10 UNL     1      18.333  27.990  15.721  1.00  0.00     0.014 C 
ENDBRANCH  14  15
ENDBRANCH  13  14
ENDBRANCH  11  13
ENDBRANCH   1  11
TORSDOF 7
ENDMDL
