MODEL 1
REMARK VINA RESULT: -4.056712067      0.000      0.000
REMARK  1 active torsions:
REMARK  status: ('A' for Active; 'I' for Inactive)
REMARK    1  A    between atoms: N2_3  and  C2_5 
ROOT
HETATM    1  N1  UNL     1     -46.002 -30.380 -19.315  1.00  0.00    -0.097 NA
HETATM    2  C1  UNL     1     -46.090 -29.611 -18.120  1.00  0.00     0.185 C 
HETATM    3  N2  UNL     1     -45.516 -28.490 -17.973  1.00  0.00    -0.383 N 
ATOM      4  H2  UNL     1     -44.964 -28.118 -18.745  1.00  0.00     0.160 HD
ENDROOT
BRANCH   3   5
HETATM    5  C2  UNL     1     -45.611 -27.727 -16.771  1.00  0.00     0.082 A 
HETATM    6  C3  UNL     1     -44.444 -27.522 -15.887  1.00  0.00     0.027 A 
HETATM    7  C4  UNL     1     -44.959 -26.390 -16.780  1.00  0.00     0.027 A 
ENDBRANCH   3   5
TORSDOF 1
ENDMDL
MODEL 2
REMARK VINA RESULT: -3.922749756      1.146      1.149
REMARK  1 active torsions:
REMARK  status: ('A' for Active; 'I' for Inactive)
REMARK    1  A    between atoms: N2_3  and  C2_5 
ROOT
HETATM    1  N1  UNL     1     -46.542 -31.526 -18.356  1.00  0.00    -0.097 NA
HETATM    2  C1  UNL     1     -46.380 -30.132 -18.119  1.00  0.00     0.185 C 
HETATM    3  N2  UNL     1     -45.624 -29.665 -17.215  1.00  0.00    -0.383 N 
ATOM      4  H2  UNL     1     -45.105 -30.317 -16.627  1.00  0.00     0.160 HD
ENDROOT
BRANCH   3   5
HETATM    5  C2  UNL     1     -45.468 -28.265 -16.986  1.00  0.00     0.082 A 
HETATM    6  C3  UNL     1     -44.447 -27.739 -16.057  1.00  0.00     0.027 A 
HETATM    7  C4  UNL     1     -44.259 -27.627 -17.572  1.00  0.00     0.027 A 
ENDBRANCH   3   5
TORSDOF 1
ENDMDL
MODEL 3
REMARK VINA RESULT: -3.912985137      3.191      3.813
REMARK  1 active torsions:
REMARK  status: ('A' for Active; 'I' for Inactive)
REMARK    1  A    between atoms: N2_3  and  C2_5 
ROOT
HETATM    1  N1  UNL     1     -45.895 -30.293 -19.407  1.00  0.00    -0.097 NA
HETATM    2  C1  UNL     1     -46.692 -30.578 -18.263  1.00  0.00     0.185 C 
HETATM    3  N2  UNL     1     -47.960 -30.589 -18.286  1.00  0.00    -0.383 N 
ATOM      4  H2  UNL     1     -48.435 -30.384 -19.165  1.00  0.00     0.160 HD
ENDROOT
BRANCH   3   5
HETATM    5  C2  UNL     1     -48.750 -30.876 -17.133  1.00  0.00     0.082 A 
HETATM    6  C3  UNL     1     -48.151 -31.418 -15.895  1.00  0.00     0.027 A 
HETATM    7  C4  UNL     1     -48.596 -29.955 -15.975  1.00  0.00     0.027 A 
ENDBRANCH   3   5
TORSDOF 1
ENDMDL
MODEL 4
REMARK VINA RESULT: -3.892814004      1.722      2.268
REMARK  1 active torsions:
REMARK  status: ('A' for Active; 'I' for Inactive)
REMARK    1  A    between atoms: N2_3  and  C2_5 
ROOT
HETATM    1  N1  UNL     1     -46.053 -30.476 -19.299  1.00  0.00    -0.097 NA
HETATM    2  C1  UNL     1     -46.069 -29.494 -18.269  1.00  0.00     0.185 C 
HETATM    3  N2  UNL     1     -46.959 -28.596 -18.179  1.00  0.00    -0.383 N 
ATOM      4  H2  UNL     1     -47.702 -28.573 -18.878  1.00  0.00     0.160 HD
ENDROOT
BRANCH   3   5
HETATM    5  C2  UNL     1     -46.967 -27.616 -17.142  1.00  0.00     0.082 A 
HETATM    6  C3  UNL     1     -47.958 -26.521 -17.115  1.00  0.00     0.027 A 
HETATM    7  C4  UNL     1     -48.073 -27.705 -16.152  1.00  0.00     0.027 A 
ENDBRANCH   3   5
TORSDOF 1
ENDMDL
MODEL 5
REMARK VINA RESULT: -3.892780569      1.517      1.989
REMARK  1 active torsions:
REMARK  status: ('A' for Active; 'I' for Inactive)
REMARK    1  A    between atoms: N2_3  and  C2_5 
ROOT
HETATM    1  N1  UNL     1     -46.867 -32.229 -18.355  1.00  0.00    -0.097 NA
HETATM    2  C1  UNL     1     -46.443 -30.963 -17.861  1.00  0.00     0.185 C 
HETATM    3  N2  UNL     1     -46.348 -29.930 -18.589  1.00  0.00    -0.383 N 
ATOM      4  H2  UNL     1     -46.585 -30.005 -19.578  1.00  0.00     0.160 HD
ENDROOT
BRANCH   3   5
HETATM    5  C2  UNL     1     -45.922 -28.665 -18.083  1.00  0.00     0.082 A 
HETATM    6  C3  UNL     1     -46.503 -28.085 -16.854  1.00  0.00     0.027 A 
HETATM    7  C4  UNL     1     -45.096 -28.689 -16.846  1.00  0.00     0.027 A 
ENDBRANCH   3   5
TORSDOF 1
ENDMDL
