MODEL 1
REMARK VINA RESULT: -4.008147985      0.000      0.000
REMARK  1 active torsions:
REMARK  status: ('A' for Active; 'I' for Inactive)
REMARK    1  A    between atoms: C2_3  and  C3_4 
ROOT
HETATM    1  N1  UNL     1     -46.993 -32.616 -18.282  1.00  0.00    -0.197 NA
HETATM    2  C1  UNL     1     -46.578 -31.731 -17.688  1.00  0.00     0.061 C 
HETATM    3  C2  UNL     1     -46.052 -30.625 -16.916  1.00  0.00     0.158 C 
ENDROOT
BRANCH   3   4
HETATM    4  C3  UNL     1     -46.413 -29.277 -17.481  1.00  0.00     0.224 A 
HETATM    5  C4  UNL     1     -45.248 -28.301 -17.505  1.00  0.00     0.266 A 
HETATM    6  N2  UNL     1     -45.887 -28.821 -18.718  1.00  0.00    -0.066 N 
ATOM      7  H22 UNL     1     -45.527 -29.305 -19.542  1.00  0.00     0.277 HD
ATOM      8  H21 UNL     1     -46.309 -28.371 -19.530  1.00  0.00     0.277 HD
ENDBRANCH   3   4
TORSDOF 1
ENDMDL
MODEL 2
REMARK VINA RESULT: -3.983939803      2.646      2.865
REMARK  1 active torsions:
REMARK  status: ('A' for Active; 'I' for Inactive)
REMARK    1  A    between atoms: C2_3  and  C3_4 
ROOT
HETATM    1  N1  UNL     1     -46.671 -32.407 -18.362  1.00  0.00    -0.197 NA
HETATM    2  C1  UNL     1     -47.176 -32.010 -17.417  1.00  0.00     0.061 C 
HETATM    3  C2  UNL     1     -47.814 -31.529 -16.209  1.00  0.00     0.158 C 
ENDROOT
BRANCH   3   4
HETATM    4  C3  UNL     1     -48.712 -30.343 -16.439  1.00  0.00     0.224 A 
HETATM    5  C4  UNL     1     -49.245 -29.733 -15.153  1.00  0.00     0.266 A 
HETATM    6  N2  UNL     1     -48.327 -29.031 -16.057  1.00  0.00    -0.066 N 
ATOM      7  H22 UNL     1     -47.420 -28.584 -15.918  1.00  0.00     0.277 HD
ATOM      8  H21 UNL     1     -48.370 -28.128 -16.529  1.00  0.00     0.277 HD
ENDBRANCH   3   4
TORSDOF 1
ENDMDL
MODEL 3
REMARK VINA RESULT: -3.816345609      1.607      1.622
REMARK  1 active torsions:
REMARK  status: ('A' for Active; 'I' for Inactive)
REMARK    1  A    between atoms: C2_3  and  C3_4 
ROOT
HETATM    1  N1  UNL     1     -49.064 -31.247 -19.082  1.00  0.00    -0.197 NA
HETATM    2  C1  UNL     1     -48.469 -30.783 -18.223  1.00  0.00     0.061 C 
HETATM    3  C2  UNL     1     -47.730 -30.206 -17.120  1.00  0.00     0.158 C 
ENDROOT
BRANCH   3   4
HETATM    4  C3  UNL     1     -47.016 -28.931 -17.480  1.00  0.00     0.224 A 
HETATM    5  C4  UNL     1     -45.536 -28.949 -17.131  1.00  0.00     0.266 A 
HETATM    6  N2  UNL     1     -46.038 -28.889 -18.509  1.00  0.00    -0.066 N 
ATOM      7  H22 UNL     1     -45.872 -29.464 -19.335  1.00  0.00     0.277 HD
ATOM      8  H21 UNL     1     -45.870 -28.247 -19.283  1.00  0.00     0.277 HD
ENDBRANCH   3   4
TORSDOF 1
ENDMDL
MODEL 4
REMARK VINA RESULT: -3.714416860      1.327      1.513
REMARK  1 active torsions:
REMARK  status: ('A' for Active; 'I' for Inactive)
REMARK    1  A    between atoms: C2_3  and  C3_4 
ROOT
HETATM    1  N1  UNL     1     -46.901 -32.449 -18.301  1.00  0.00    -0.197 NA
HETATM    2  C1  UNL     1     -46.674 -31.441 -17.812  1.00  0.00     0.061 C 
HETATM    3  C2  UNL     1     -46.374 -30.175 -17.176  1.00  0.00     0.158 C 
ENDROOT
BRANCH   3   4
HETATM    4  C3  UNL     1     -47.351 -29.084 -17.526  1.00  0.00     0.224 A 
HETATM    5  C4  UNL     1     -47.826 -28.291 -16.320  1.00  0.00     0.266 A 
HETATM    6  N2  UNL     1     -47.013 -27.711 -17.395  1.00  0.00    -0.066 N 
ATOM      7  H22 UNL     1     -46.125 -27.209 -17.403  1.00  0.00     0.277 HD
ATOM      8  H21 UNL     1     -47.139 -26.903 -18.004  1.00  0.00     0.277 HD
ENDBRANCH   3   4
TORSDOF 1
ENDMDL
MODEL 5
REMARK VINA RESULT: -3.693347955      1.697      2.064
REMARK  1 active torsions:
REMARK  status: ('A' for Active; 'I' for Inactive)
REMARK    1  A    between atoms: C2_3  and  C3_4 
ROOT
HETATM    1  N1  UNL     1     -46.036 -30.430 -19.387  1.00  0.00    -0.197 NA
HETATM    2  C1  UNL     1     -46.086 -29.844 -18.406  1.00  0.00     0.061 C 
HETATM    3  C2  UNL     1     -46.169 -29.116 -17.158  1.00  0.00     0.158 C 
ENDROOT
BRANCH   3   4
HETATM    4  C3  UNL     1     -45.506 -27.765 -17.209  1.00  0.00     0.224 A 
HETATM    5  C4  UNL     1     -44.433 -27.580 -16.149  1.00  0.00     0.266 A 
HETATM    6  N2  UNL     1     -44.145 -27.616 -17.587  1.00  0.00    -0.066 N 
ATOM      7  H22 UNL     1     -43.515 -28.182 -18.157  1.00  0.00     0.277 HD
ATOM      8  H21 UNL     1     -43.664 -26.975 -18.217  1.00  0.00     0.277 HD
ENDBRANCH   3   4
TORSDOF 1
ENDMDL
