MODEL 1
REMARK VINA RESULT: -3.013561771      0.000      0.000
REMARK  2 active torsions:
REMARK  status: ('A' for Active; 'I' for Inactive)
REMARK    1  A    between atoms: N1_1  and  S1_4 
REMARK    2  A    between atoms: S1_4  and  N2_5 
ROOT
HETATM    1  S1  UNL     1     -46.106 -29.431 -18.291  1.00  0.00     0.031 SA
ENDROOT
BRANCH   1   2
HETATM    2  N1  UNL     1     -47.225 -28.410 -18.073  1.00  0.00    -0.361 N 
ATOM      3  H12 UNL     1     -48.142 -28.529 -18.504  1.00  0.00     0.165 HD
ATOM      4  H11 UNL     1     -46.989 -27.618 -17.476  1.00  0.00     0.165 HD
ENDBRANCH   1   2
BRANCH   1   5
HETATM    5  N2  UNL     1     -46.603 -31.082 -18.335  1.00  0.00    -0.239 NA
HETATM    6  C1  UNL     1     -46.542 -31.897 -17.158  1.00  0.00     0.119 A 
HETATM    7  C2  UNL     1     -47.853 -31.496 -17.776  1.00  0.00     0.119 A 
ENDBRANCH   1   5
TORSDOF 2
ENDMDL
MODEL 2
REMARK VINA RESULT: -2.998023043      3.494      3.748
REMARK  2 active torsions:
REMARK  status: ('A' for Active; 'I' for Inactive)
REMARK    1  A    between atoms: N1_1  and  S1_4 
REMARK    2  A    between atoms: S1_4  and  N2_5 
ROOT
HETATM    1  S1  UNL     1     -45.933 -29.573 -17.393  1.00  0.00     0.031 SA
ENDROOT
BRANCH   1   2
HETATM    2  N1  UNL     1     -46.243 -29.675 -18.888  1.00  0.00    -0.361 N 
ATOM      3  H12 UNL     1     -45.517 -29.913 -19.564  1.00  0.00     0.165 HD
ATOM      4  H11 UNL     1     -47.210 -29.491 -19.151  1.00  0.00     0.165 HD
ENDBRANCH   1   2
BRANCH   1   5
HETATM    5  N2  UNL     1     -44.451 -28.788 -16.991  1.00  0.00    -0.239 NA
HETATM    6  C1  UNL     1     -44.108 -27.525 -17.576  1.00  0.00     0.119 A 
HETATM    7  C2  UNL     1     -44.424 -27.659 -16.111  1.00  0.00     0.119 A 
ENDBRANCH   1   5
TORSDOF 2
ENDMDL
MODEL 3
REMARK VINA RESULT: -2.868046714      1.090      1.090
REMARK  2 active torsions:
REMARK  status: ('A' for Active; 'I' for Inactive)
REMARK    1  A    between atoms: N1_1  and  S1_4 
REMARK    2  A    between atoms: S1_4  and  N2_5 
ROOT
HETATM    1  S1  UNL     1     -46.148 -29.294 -17.564  1.00  0.00     0.031 SA
ENDROOT
BRANCH   1   2
HETATM    2  N1  UNL     1     -45.626 -28.544 -18.791  1.00  0.00    -0.361 N 
ATOM      3  H12 UNL     1     -46.167 -28.499 -19.654  1.00  0.00     0.165 HD
ATOM      4  H11 UNL     1     -44.715 -28.101 -18.682  1.00  0.00     0.165 HD
ENDBRANCH   1   2
BRANCH   1   5
HETATM    5  N2  UNL     1     -45.947 -31.007 -17.597  1.00  0.00    -0.239 NA
HETATM    6  C1  UNL     1     -46.291 -31.808 -16.459  1.00  0.00     0.119 A 
HETATM    7  C2  UNL     1     -47.069 -31.883 -17.744  1.00  0.00     0.119 A 
ENDBRANCH   1   5
TORSDOF 2
ENDMDL
MODEL 4
REMARK VINA RESULT: -2.847143359      2.414      2.839
REMARK  2 active torsions:
REMARK  status: ('A' for Active; 'I' for Inactive)
REMARK    1  A    between atoms: N1_1  and  S1_4 
REMARK    2  A    between atoms: S1_4  and  N2_5 
ROOT
HETATM    1  S1  UNL     1     -47.082 -31.922 -17.499  1.00  0.00     0.031 SA
ENDROOT
BRANCH   1   2
HETATM    2  N1  UNL     1     -47.788 -31.739 -16.155  1.00  0.00    -0.361 N 
ATOM      3  H12 UNL     1     -48.515 -31.035 -16.029  1.00  0.00     0.165 HD
ATOM      4  H11 UNL     1     -47.482 -32.363 -15.408  1.00  0.00     0.165 HD
ENDBRANCH   1   2
BRANCH   1   5
HETATM    5  N2  UNL     1     -45.867 -30.754 -17.868  1.00  0.00    -0.239 NA
HETATM    6  C1  UNL     1     -46.224 -29.448 -18.338  1.00  0.00     0.119 A 
HETATM    7  C2  UNL     1     -45.599 -29.659 -16.986  1.00  0.00     0.119 A 
ENDBRANCH   1   5
TORSDOF 2
ENDMDL
MODEL 5
REMARK VINA RESULT: -2.839801039      1.234      1.240
REMARK  2 active torsions:
REMARK  status: ('A' for Active; 'I' for Inactive)
REMARK    1  A    between atoms: N1_1  and  S1_4 
REMARK    2  A    between atoms: S1_4  and  N2_5 
ROOT
HETATM    1  S1  UNL     1     -46.177 -29.408 -18.169  1.00  0.00     0.031 SA
ENDROOT
BRANCH   1   2
HETATM    2  N1  UNL     1     -45.378 -29.498 -16.867  1.00  0.00    -0.361 N 
ATOM      3  H12 UNL     1     -44.578 -30.124 -16.779  1.00  0.00     0.165 HD
ATOM      4  H11 UNL     1     -45.700 -28.895 -16.110  1.00  0.00     0.165 HD
ENDBRANCH   1   2
BRANCH   1   5
HETATM    5  N2  UNL     1     -47.127 -30.794 -18.557  1.00  0.00    -0.239 NA
HETATM    6  C1  UNL     1     -47.198 -31.909 -17.659  1.00  0.00     0.119 A 
HETATM    7  C2  UNL     1     -48.389 -31.029 -17.924  1.00  0.00     0.119 A 
ENDBRANCH   1   5
TORSDOF 2
ENDMDL
