MODEL 1
REMARK VINA RESULT: -4.308347388      0.000      0.000
REMARK  2 active torsions:
REMARK  status: ('A' for Active; 'I' for Inactive)
REMARK    1  A    between atoms: C2_2  and  N1_3 
REMARK    2  A    between atoms: N1_3  and  C3_5 
ROOT
HETATM    1  C3  UNL     1     -19.033  -8.035   9.166  1.00  0.00     0.227 A 
HETATM    2  N2  UNL     1     -19.695  -8.149  10.325  1.00  0.00    -0.330 N 
ATOM      3  H2  UNL     1     -19.894  -9.027  10.805  1.00  0.00     0.168 HD
HETATM    4  C4  UNL     1     -20.063  -6.916  10.765  1.00  0.00     0.116 A 
HETATM    5  C5  UNL     1     -19.586  -6.047   9.808  1.00  0.00     0.162 A 
HETATM    6  O1  UNL     1     -18.989  -6.758   8.889  1.00  0.00    -0.290 OA
ENDROOT
BRANCH   1   7
HETATM    7  N1  UNL     1     -18.530  -9.007   8.453  1.00  0.00    -0.333 N 
ATOM      8  H1  UNL     1     -17.522  -9.166   8.465  1.00  0.00     0.168 HD
BRANCH   7   9
HETATM    9  C2  UNL     1     -19.357  -9.846   7.662  1.00  0.00     0.081 C 
HETATM   10  C1  UNL     1     -20.560  -9.506   7.276  1.00  0.00     0.030 C 
ENDBRANCH   7   9
ENDBRANCH   1   7
TORSDOF 2
ENDMDL
MODEL 2
REMARK VINA RESULT: -4.192101343      1.555      1.728
REMARK  2 active torsions:
REMARK  status: ('A' for Active; 'I' for Inactive)
REMARK    1  A    between atoms: C2_2  and  N1_3 
REMARK    2  A    between atoms: N1_3  and  C3_5 
ROOT
HETATM    1  C3  UNL     1     -19.464  -8.173   9.477  1.00  0.00     0.227 A 
HETATM    2  N2  UNL     1     -20.606  -7.833  10.092  1.00  0.00    -0.330 N 
ATOM      3  H2  UNL     1     -21.271  -8.490  10.501  1.00  0.00     0.168 HD
HETATM    4  C4  UNL     1     -20.742  -6.480  10.088  1.00  0.00     0.116 A 
HETATM    5  C5  UNL     1     -19.620  -6.018   9.437  1.00  0.00     0.162 A 
HETATM    6  O1  UNL     1     -18.902  -7.055   9.097  1.00  0.00    -0.290 OA
ENDROOT
BRANCH   1   7
HETATM    7  N1  UNL     1     -19.005  -9.381   9.293  1.00  0.00    -0.333 N 
ATOM      8  H1  UNL     1     -18.069  -9.506   8.905  1.00  0.00     0.168 HD
BRANCH   7   9
HETATM    9  C2  UNL     1     -19.779 -10.524   9.621  1.00  0.00     0.081 C 
HETATM   10  C1  UNL     1     -19.546 -11.267  10.673  1.00  0.00     0.030 C 
ENDBRANCH   7   9
ENDBRANCH   1   7
TORSDOF 2
ENDMDL
MODEL 3
REMARK VINA RESULT: -4.174429148      1.268      1.420
REMARK  2 active torsions:
REMARK  status: ('A' for Active; 'I' for Inactive)
REMARK    1  A    between atoms: C2_2  and  N1_3 
REMARK    2  A    between atoms: N1_3  and  C3_5 
ROOT
HETATM    1  C3  UNL     1     -19.321  -8.098   8.801  1.00  0.00     0.227 A 
HETATM    2  N2  UNL     1     -20.417  -7.545   8.264  1.00  0.00    -0.330 N 
ATOM      3  H2  UNL     1     -20.996  -7.971   7.541  1.00  0.00     0.168 HD
HETATM    4  C4  UNL     1     -20.641  -6.329   8.832  1.00  0.00     0.116 A 
HETATM    5  C5  UNL     1     -19.618  -6.175   9.742  1.00  0.00     0.162 A 
HETATM    6  O1  UNL     1     -18.869  -7.244   9.683  1.00  0.00    -0.290 OA
ENDROOT
BRANCH   1   7
HETATM    7  N1  UNL     1     -18.804  -9.259   8.502  1.00  0.00    -0.333 N 
ATOM      8  H1  UNL     1     -17.797  -9.397   8.596  1.00  0.00     0.168 HD
BRANCH   7   9
HETATM    9  C2  UNL     1     -19.613 -10.333   8.049  1.00  0.00     0.081 C 
HETATM   10  C1  UNL     1     -20.371 -11.042   8.846  1.00  0.00     0.030 C 
ENDBRANCH   7   9
ENDBRANCH   1   7
TORSDOF 2
ENDMDL
MODEL 4
REMARK VINA RESULT: -4.146047469      1.705      1.765
REMARK  2 active torsions:
REMARK  status: ('A' for Active; 'I' for Inactive)
REMARK    1  A    between atoms: C2_2  and  N1_3 
REMARK    2  A    between atoms: N1_3  and  C3_5 
ROOT
HETATM    1  C3  UNL     1     -19.435  -9.053  10.249  1.00  0.00     0.227 A 
HETATM    2  N2  UNL     1     -18.388  -8.357  10.713  1.00  0.00    -0.330 N 
ATOM      3  H2  UNL     1     -17.415  -8.513  10.447  1.00  0.00     0.168 HD
HETATM    4  C4  UNL     1     -18.819  -7.413  11.591  1.00  0.00     0.116 A 
HETATM    5  C5  UNL     1     -20.187  -7.574  11.634  1.00  0.00     0.162 A 
HETATM    6  O1  UNL     1     -20.497  -8.553  10.826  1.00  0.00    -0.290 OA
ENDROOT
BRANCH   1   7
HETATM    7  N1  UNL     1     -19.403 -10.036   9.390  1.00  0.00    -0.333 N 
ATOM      8  H1  UNL     1     -19.311 -10.994   9.730  1.00  0.00     0.168 HD
BRANCH   7   9
HETATM    9  C2  UNL     1     -19.494  -9.800   7.993  1.00  0.00     0.081 C 
HETATM   10  C1  UNL     1     -20.548  -9.272   7.425  1.00  0.00     0.030 C 
ENDBRANCH   7   9
ENDBRANCH   1   7
TORSDOF 2
ENDMDL
MODEL 5
REMARK VINA RESULT: -4.037688707      0.978      1.052
REMARK  2 active torsions:
REMARK  status: ('A' for Active; 'I' for Inactive)
REMARK    1  A    between atoms: C2_2  and  N1_3 
REMARK    2  A    between atoms: N1_3  and  C3_5 
ROOT
HETATM    1  C3  UNL     1     -18.846  -8.287   9.397  1.00  0.00     0.227 A 
HETATM    2  N2  UNL     1     -18.418  -8.422  10.660  1.00  0.00    -0.330 N 
ATOM      3  H2  UNL     1     -17.819  -9.173  11.001  1.00  0.00     0.168 HD
HETATM    4  C4  UNL     1     -18.905  -7.403  11.418  1.00  0.00     0.116 A 
HETATM    5  C5  UNL     1     -19.652  -6.643  10.545  1.00  0.00     0.162 A 
HETATM    6  O1  UNL     1     -19.585  -7.208   9.369  1.00  0.00    -0.290 OA
ENDROOT
BRANCH   1   7
HETATM    7  N1  UNL     1     -18.579  -9.078   8.393  1.00  0.00    -0.333 N 
ATOM      8  H1  UNL     1     -17.637  -9.085   7.999  1.00  0.00     0.168 HD
BRANCH   7   9
HETATM    9  C2  UNL     1     -19.571  -9.927   7.837  1.00  0.00     0.081 C 
HETATM   10  C1  UNL     1     -20.354 -10.683   8.565  1.00  0.00     0.030 C 
ENDBRANCH   7   9
ENDBRANCH   1   7
TORSDOF 2
ENDMDL
