MODEL 1
REMARK VINA RESULT: -3.640172914      0.000      0.000
REMARK  1 active torsions:
REMARK  status: ('A' for Active; 'I' for Inactive)
REMARK    1  A    between atoms: C4_5  and  N2_6 
ROOT
HETATM    1  C1  UNL     1      24.919  47.775  50.212  1.00  0.00     0.037 C 
HETATM    2  C2  UNL     1      26.018  48.028  50.644  1.00  0.00    -0.001 C 
HETATM    3  N1  UNL     1      27.296  48.299  51.141  1.00  0.00    -0.308 N 
HETATM    4  C3  UNL     1      28.395  48.082  52.061  1.00  0.00     0.190 A 
HETATM    5  C4  UNL     1      28.566  49.109  51.043  1.00  0.00     0.310 A 
ENDROOT
BRANCH   5   6
HETATM    6  N2  UNL     1      28.344  50.508  51.343  1.00  0.00    -0.056 N 
ATOM      7  H23 UNL     1      27.532  50.632  51.946  1.00  0.00     0.276 HD
ATOM      8  H22 UNL     1      29.066  50.872  51.966  1.00  0.00     0.276 HD
ATOM      9  H21 UNL     1      28.267  51.074  50.497  1.00  0.00     0.276 HD
ENDBRANCH   5   6
TORSDOF 1
ENDMDL
MODEL 2
REMARK VINA RESULT: -3.450540280      1.759      3.069
REMARK  1 active torsions:
REMARK  status: ('A' for Active; 'I' for Inactive)
REMARK    1  A    between atoms: C4_5  and  N2_6 
ROOT
HETATM    1  C1  UNL     1      28.706  46.393  53.833  1.00  0.00     0.037 C 
HETATM    2  C2  UNL     1      28.459  47.181  52.952  1.00  0.00    -0.001 C 
HETATM    3  N1  UNL     1      28.197  48.094  51.928  1.00  0.00    -0.308 N 
HETATM    4  C3  UNL     1      28.385  49.362  51.249  1.00  0.00     0.190 A 
HETATM    5  C4  UNL     1      27.439  48.422  50.663  1.00  0.00     0.310 A 
ENDROOT
BRANCH   5   6
HETATM    6  N2  UNL     1      26.015  48.544  50.898  1.00  0.00    -0.056 N 
ATOM      7  H23 UNL     1      25.799  48.484  51.893  1.00  0.00     0.276 HD
ATOM      8  H22 UNL     1      25.691  49.495  50.719  1.00  0.00     0.276 HD
ATOM      9  H21 UNL     1      25.478  47.863  50.361  1.00  0.00     0.276 HD
ENDBRANCH   5   6
TORSDOF 1
ENDMDL
MODEL 3
REMARK VINA RESULT: -3.425827869      1.701      2.695
REMARK  1 active torsions:
REMARK  status: ('A' for Active; 'I' for Inactive)
REMARK    1  A    between atoms: C4_5  and  N2_6 
ROOT
HETATM    1  C1  UNL     1      28.607  46.732  53.775  1.00  0.00     0.037 C 
HETATM    2  C2  UNL     1      28.379  47.401  52.796  1.00  0.00    -0.001 C 
HETATM    3  N1  UNL     1      28.101  48.158  51.655  1.00  0.00    -0.308 N 
HETATM    4  C3  UNL     1      28.032  48.352  50.219  1.00  0.00     0.190 A 
HETATM    5  C4  UNL     1      27.619  49.463  51.066  1.00  0.00     0.310 A 
ENDROOT
BRANCH   5   6
HETATM    6  N2  UNL     1      28.520  50.558  51.359  1.00  0.00    -0.056 N 
ATOM      7  H23 UNL     1      28.842  50.522  52.326  1.00  0.00     0.276 HD
ATOM      8  H22 UNL     1      29.415  50.438  50.885  1.00  0.00     0.276 HD
ATOM      9  H21 UNL     1      28.105  51.464  51.141  1.00  0.00     0.276 HD
ENDBRANCH   5   6
TORSDOF 1
ENDMDL
MODEL 4
REMARK VINA RESULT: -3.397809345      2.417      2.959
REMARK  1 active torsions:
REMARK  status: ('A' for Active; 'I' for Inactive)
REMARK    1  A    between atoms: C4_5  and  N2_6 
ROOT
HETATM    1  C1  UNL     1      23.178  46.313  52.065  1.00  0.00     0.037 C 
HETATM    2  C2  UNL     1      24.258  46.755  51.754  1.00  0.00    -0.001 C 
HETATM    3  N1  UNL     1      25.505  47.285  51.411  1.00  0.00    -0.308 N 
HETATM    4  C3  UNL     1      26.370  48.352  50.947  1.00  0.00     0.190 A 
HETATM    5  C4  UNL     1      26.994  47.076  51.271  1.00  0.00     0.310 A 
ENDROOT
BRANCH   5   6
HETATM    6  N2  UNL     1      27.314  46.112  50.240  1.00  0.00    -0.056 N 
ATOM      7  H23 UNL     1      27.342  45.165  50.615  1.00  0.00     0.276 HD
ATOM      8  H22 UNL     1      26.541  46.003  49.583  1.00  0.00     0.276 HD
ATOM      9  H21 UNL     1      28.181  46.344  49.755  1.00  0.00     0.276 HD
ENDBRANCH   5   6
TORSDOF 1
ENDMDL
MODEL 5
REMARK VINA RESULT: -3.355375536      1.822      2.192
REMARK  1 active torsions:
REMARK  status: ('A' for Active; 'I' for Inactive)
REMARK    1  A    between atoms: C4_5  and  N2_6 
ROOT
HETATM    1  C1  UNL     1      23.297  46.356  51.908  1.00  0.00     0.037 C 
HETATM    2  C2  UNL     1      24.434  46.740  51.778  1.00  0.00    -0.001 C 
HETATM    3  N1  UNL     1      25.758  47.161  51.628  1.00  0.00    -0.308 N 
HETATM    4  C3  UNL     1      27.143  47.239  52.050  1.00  0.00     0.190 A 
HETATM    5  C4  UNL     1      26.779  47.922  50.816  1.00  0.00     0.310 A 
ENDROOT
BRANCH   5   6
HETATM    6  N2  UNL     1      26.508  49.345  50.796  1.00  0.00    -0.056 N 
ATOM      7  H23 UNL     1      26.280  49.664  49.855  1.00  0.00     0.276 HD
ATOM      8  H22 UNL     1      25.623  49.559  51.258  1.00  0.00     0.276 HD
ATOM      9  H21 UNL     1      27.274  49.886  51.196  1.00  0.00     0.276 HD
ENDBRANCH   5   6
TORSDOF 1
ENDMDL
