MODEL 1
REMARK VINA RESULT: -3.548374943      0.000      0.000
REMARK  2 active torsions:
REMARK  status: ('A' for Active; 'I' for Inactive)
REMARK    1  A    between atoms: N1_1  and  C1_5 
REMARK    2  A    between atoms: C1_5  and  C2_6 
ROOT
HETATM    1  C2  UNL     1      28.175  48.238  51.168  1.00  0.00     0.350 C 
HETATM    2  N2  UNL     1      27.720  47.494  52.347  1.00  0.00    -0.026 N 
ATOM      3  H21 UNL     1      26.893  46.898  52.367  1.00  0.00     0.282 HD
ATOM      4  H22 UNL     1      27.314  47.926  53.178  1.00  0.00     0.282 HD
HETATM    5  C3  UNL     1      29.101  46.994  52.264  1.00  0.00     0.405 C 
HETATM    6  O1  UNL     1      29.426  48.287  51.782  1.00  0.00    -0.330 OA
ENDROOT
BRANCH   1   7
HETATM    7  C1  UNL     1      27.503  49.560  50.956  1.00  0.00     0.290 C 
BRANCH   7   8
HETATM    8  N1  UNL     1      28.481  50.591  51.331  1.00  0.00    -0.075 N 
ATOM      9  H13 UNL     1      28.411  50.878  52.307  1.00  0.00     0.274 HD
ATOM     10  H12 UNL     1      29.439  50.243  51.369  1.00  0.00     0.274 HD
ATOM     11  H11 UNL     1      28.357  51.361  50.674  1.00  0.00     0.274 HD
ENDBRANCH   7   8
ENDBRANCH   1   7
TORSDOF 2
ENDMDL
MODEL 2
REMARK VINA RESULT: -3.508520920      1.012      1.012
REMARK  2 active torsions:
REMARK  status: ('A' for Active; 'I' for Inactive)
REMARK    1  A    between atoms: N1_1  and  C1_5 
REMARK    2  A    between atoms: C1_5  and  C2_6 
ROOT
HETATM    1  C2  UNL     1      28.292  48.825  51.039  1.00  0.00     0.350 C 
HETATM    2  N2  UNL     1      27.268  47.951  51.623  1.00  0.00    -0.026 N 
ATOM      3  H21 UNL     1      26.321  47.852  51.258  1.00  0.00     0.282 HD
ATOM      4  H22 UNL     1      26.808  48.122  52.516  1.00  0.00     0.282 HD
HETATM    5  C3  UNL     1      28.341  46.964  51.418  1.00  0.00     0.405 C 
HETATM    6  O1  UNL     1      29.229  48.032  51.700  1.00  0.00    -0.330 OA
ENDROOT
BRANCH   1   7
HETATM    7  C1  UNL     1      28.226  50.255  51.477  1.00  0.00     0.290 C 
BRANCH   7   8
HETATM    8  N1  UNL     1      27.257  50.919  50.594  1.00  0.00    -0.075 N 
ATOM      9  H13 UNL     1      27.586  51.014  49.633  1.00  0.00     0.274 HD
ATOM     10  H12 UNL     1      26.437  50.347  50.392  1.00  0.00     0.274 HD
ATOM     11  H11 UNL     1      27.028  51.811  51.032  1.00  0.00     0.274 HD
ENDBRANCH   7   8
ENDBRANCH   1   7
TORSDOF 2
ENDMDL
MODEL 3
REMARK VINA RESULT: -3.484645479      2.024      2.233
REMARK  2 active torsions:
REMARK  status: ('A' for Active; 'I' for Inactive)
REMARK    1  A    between atoms: N1_1  and  C1_5 
REMARK    2  A    between atoms: C1_5  and  C2_6 
ROOT
HETATM    1  C2  UNL     1      27.256  48.229  50.932  1.00  0.00     0.350 C 
HETATM    2  N2  UNL     1      25.841  48.567  50.745  1.00  0.00    -0.026 N 
ATOM      3  H21 UNL     1      25.432  48.857  49.857  1.00  0.00     0.282 HD
ATOM      4  H22 UNL     1      25.397  49.406  51.118  1.00  0.00     0.282 HD
HETATM    5  C3  UNL     1      25.694  47.223  51.327  1.00  0.00     0.405 C 
HETATM    6  O1  UNL     1      26.856  47.537  52.075  1.00  0.00    -0.330 OA
ENDROOT
BRANCH   1   7
HETATM    7  C1  UNL     1      28.160  49.399  51.164  1.00  0.00     0.290 C 
BRANCH   7   8
HETATM    8  N1  UNL     1      27.405  50.597  50.770  1.00  0.00    -0.075 N 
ATOM      9  H13 UNL     1      26.398  50.441  50.724  1.00  0.00     0.274 HD
ATOM     10  H12 UNL     1      27.390  51.319  51.490  1.00  0.00     0.274 HD
ATOM     11  H11 UNL     1      27.805  50.915  49.888  1.00  0.00     0.274 HD
ENDBRANCH   7   8
ENDBRANCH   1   7
TORSDOF 2
ENDMDL
MODEL 4
REMARK VINA RESULT: -3.425723372      2.085      2.304
REMARK  2 active torsions:
REMARK  status: ('A' for Active; 'I' for Inactive)
REMARK    1  A    between atoms: N1_1  and  C1_5 
REMARK    2  A    between atoms: C1_5  and  C2_6 
ROOT
HETATM    1  C2  UNL     1      27.457  48.159  51.148  1.00  0.00     0.350 C 
HETATM    2  N2  UNL     1      27.720  47.247  50.029  1.00  0.00    -0.026 N 
ATOM      3  H21 UNL     1      28.470  46.555  50.016  1.00  0.00     0.282 HD
ATOM      4  H22 UNL     1      28.097  47.537  49.127  1.00  0.00     0.282 HD
HETATM    5  C3  UNL     1      26.304  46.929  50.273  1.00  0.00     0.405 C 
HETATM    6  O1  UNL     1      26.170  48.294  50.628  1.00  0.00    -0.330 OA
ENDROOT
BRANCH   1   7
HETATM    7  C1  UNL     1      28.288  49.404  51.157  1.00  0.00     0.290 C 
BRANCH   7   8
HETATM    8  N1  UNL     1      27.394  50.507  50.779  1.00  0.00    -0.075 N 
ATOM      9  H13 UNL     1      27.180  51.137  51.553  1.00  0.00     0.274 HD
ATOM     10  H12 UNL     1      27.838  51.196  50.173  1.00  0.00     0.274 HD
ATOM     11  H11 UNL     1      26.565  50.080  50.366  1.00  0.00     0.274 HD
ENDBRANCH   7   8
ENDBRANCH   1   7
TORSDOF 2
ENDMDL
MODEL 5
REMARK VINA RESULT: -3.420706506      2.197      2.818
REMARK  2 active torsions:
REMARK  status: ('A' for Active; 'I' for Inactive)
REMARK    1  A    between atoms: N1_1  and  C1_5 
REMARK    2  A    between atoms: C1_5  and  C2_6 
ROOT
HETATM    1  C2  UNL     1      26.980  48.135  51.039  1.00  0.00     0.350 C 
HETATM    2  N2  UNL     1      26.968  49.592  50.869  1.00  0.00    -0.026 N 
ATOM      3  H21 UNL     1      26.345  50.224  51.372  1.00  0.00     0.282 HD
ATOM      4  H22 UNL     1      26.630  50.070  50.034  1.00  0.00     0.282 HD
HETATM    5  C3  UNL     1      28.390  49.397  51.194  1.00  0.00     0.405 C 
HETATM    6  O1  UNL     1      28.268  48.164  50.506  1.00  0.00    -0.330 OA
ENDROOT
BRANCH   1   7
HETATM    7  C1  UNL     1      25.959  47.396  50.231  1.00  0.00     0.290 C 
BRANCH   7   8
HETATM    8  N1  UNL     1      24.717  48.179  50.307  1.00  0.00    -0.075 N 
ATOM      9  H13 UNL     1      24.061  47.827  51.004  1.00  0.00     0.274 HD
ATOM     10  H12 UNL     1      24.849  49.105  50.712  1.00  0.00     0.274 HD
ATOM     11  H11 UNL     1      24.331  48.203  49.364  1.00  0.00     0.274 HD
ENDBRANCH   7   8
ENDBRANCH   1   7
TORSDOF 2
ENDMDL
