MODEL 1
REMARK VINA RESULT: -8.149822521      0.000      0.000
REMARK  6 active torsions:
REMARK  status: ('A' for Active; 'I' for Inactive)
REMARK    1  A    between atoms: N1_2  and  C3_4 
REMARK    2  A    between atoms: C3_4  and  C4_5 
REMARK    3  A    between atoms: C4_5  and  N2_6 
REMARK    4  A    between atoms: N2_6  and  C5_8 
REMARK    5  A    between atoms: N4_12  and  C7_14 
REMARK    6  A    between atoms: C9_18  and  N6_19 
ROOT
HETATM    1  C5  UNL     1     -49.373 -30.359  -7.130  1.00  0.00     0.685 A 
HETATM    2  N3  UNL     1     -48.082 -30.241  -7.580  1.00  0.00    -0.174 N 
ATOM      3  H3  UNL     1     -47.396 -29.797  -6.969  1.00  0.00     0.186 HD
HETATM    4  C6  UNL     1     -47.677 -30.674  -8.773  1.00  0.00     0.153 A 
HETATM    5  N4  UNL     1     -46.458 -30.558  -9.188  1.00  0.00    -0.330 N 
ATOM      6  H4  UNL     1     -46.231 -30.917 -10.115  1.00  0.00     0.168 HD
HETATM    7  C12 UNL     1     -48.577 -31.275  -9.621  1.00  0.00     0.123 A 
HETATM    8  N7  UNL     1     -48.519 -31.817 -10.865  1.00  0.00    -0.346 N 
ATOM      9  H7  UNL     1     -47.690 -31.878 -11.457  1.00  0.00     0.167 HD
HETATM   10  C13 UNL     1     -49.759 -32.264 -11.178  1.00  0.00     0.182 A 
HETATM   11  N8  UNL     1     -50.550 -31.994 -10.136  1.00  0.00    -0.336 N 
ATOM     12  H8  UNL     1     -51.544 -32.219 -10.091  1.00  0.00     0.168 HD
HETATM   13  C14 UNL     1     -49.867 -31.389  -9.163  1.00  0.00     0.152 A 
HETATM   14  N9  UNL     1     -50.257 -30.941  -7.943  1.00  0.00    -0.174 N 
ATOM     15  H9  UNL     1     -51.226 -31.049  -7.647  1.00  0.00     0.186 HD
ENDROOT
BRANCH   5  16
HETATM   16  C7  UNL     1     -45.416 -29.960  -8.428  1.00  0.00     0.078 C 
HETATM   17  N5  UNL     1     -44.697 -30.609  -7.587  1.00  0.00    -0.378 N 
HETATM   18  C8  UNL     1     -43.634 -30.089  -6.787  1.00  0.00     0.153 C 
ATOM     19  H5  UNL     1     -44.906 -31.601  -7.478  1.00  0.00     0.160 HD
HETATM   20  C9  UNL     1     -43.149 -28.731  -7.169  1.00  0.00     0.201 C 
HETATM   21  C10 UNL     1     -43.578 -28.420  -8.599  1.00  0.00     0.042 C 
HETATM   22  C11 UNL     1     -45.105 -28.495  -8.586  1.00  0.00     0.078 C 
BRANCH  20  23
HETATM   23  N6  UNL     1     -43.741 -27.753  -6.283  1.00  0.00    -0.073 N 
ATOM     24  H63 UNL     1     -44.348 -27.098  -6.778  1.00  0.00     0.274 HD
ATOM     25  H62 UNL     1     -44.444 -28.162  -5.667  1.00  0.00     0.274 HD
ATOM     26  H61 UNL     1     -42.999 -27.280  -5.767  1.00  0.00     0.274 HD
ENDBRANCH  20  23
ENDBRANCH   5  16
BRANCH   1  27
HETATM   27  N2  UNL     1     -49.629 -29.923  -6.016  1.00  0.00    -0.203 N 
ATOM     28  H2  UNL     1     -48.869 -29.291  -5.762  1.00  0.00     0.183 HD
BRANCH  27  29
HETATM   29  C4  UNL     1     -50.510 -29.930  -4.965  1.00  0.00     0.108 C 
BRANCH  29  30
HETATM   30  C3  UNL     1     -50.781 -31.222  -4.268  1.00  0.00     0.316 C 
BRANCH  30  31
HETATM   31  N1  UNL     1     -51.778 -31.990  -5.001  1.00  0.00     0.084 N 
HETATM   32  C1  UNL     1     -53.010 -31.263  -5.173  1.00  0.00     0.309 C 
HETATM   33  C2  UNL     1     -52.094 -33.139  -4.135  1.00  0.00     0.309 C 
ENDBRANCH  30  31
ENDBRANCH  29  30
ENDBRANCH  27  29
ENDBRANCH   1  27
TORSDOF 6
ENDMDL
MODEL 2
REMARK VINA RESULT: -8.067057537      1.031      1.541
REMARK  6 active torsions:
REMARK  status: ('A' for Active; 'I' for Inactive)
REMARK    1  A    between atoms: N1_2  and  C3_4 
REMARK    2  A    between atoms: C3_4  and  C4_5 
REMARK    3  A    between atoms: C4_5  and  N2_6 
REMARK    4  A    between atoms: N2_6  and  C5_8 
REMARK    5  A    between atoms: N4_12  and  C7_14 
REMARK    6  A    between atoms: C9_18  and  N6_19 
ROOT
HETATM    1  C5  UNL     1     -49.809 -30.193  -7.131  1.00  0.00     0.685 A 
HETATM    2  N3  UNL     1     -48.458 -30.071  -7.338  1.00  0.00    -0.174 N 
ATOM      3  H3  UNL     1     -47.900 -29.603  -6.622  1.00  0.00     0.186 HD
HETATM    4  C6  UNL     1     -47.835 -30.531  -8.421  1.00  0.00     0.153 A 
HETATM    5  N4  UNL     1     -46.561 -30.411  -8.606  1.00  0.00    -0.330 N 
ATOM      6  H4  UNL     1     -46.163 -30.792  -9.464  1.00  0.00     0.168 HD
HETATM    7  C12 UNL     1     -48.558 -31.166  -9.404  1.00  0.00     0.123 A 
HETATM    8  N7  UNL     1     -48.265 -31.740 -10.600  1.00  0.00    -0.346 N 
ATOM      9  H7  UNL     1     -47.340 -31.806 -11.026  1.00  0.00     0.167 HD
HETATM   10  C13 UNL     1     -49.422 -32.210 -11.125  1.00  0.00     0.182 A 
HETATM   11  N8  UNL     1     -50.395 -31.922 -10.256  1.00  0.00    -0.336 N 
ATOM     12  H8  UNL     1     -51.378 -32.159 -10.390  1.00  0.00     0.168 HD
HETATM   13  C14 UNL     1     -49.909 -31.284  -9.191  1.00  0.00     0.152 A 
HETATM   14  N9  UNL     1     -50.522 -30.808  -8.078  1.00  0.00    -0.174 N 
ATOM     15  H9  UNL     1     -51.529 -30.920  -7.964  1.00  0.00     0.186 HD
ENDROOT
BRANCH   5  16
HETATM   16  C7  UNL     1     -45.683 -29.781  -7.683  1.00  0.00     0.078 C 
HETATM   17  N5  UNL     1     -45.483 -28.514  -7.654  1.00  0.00    -0.378 N 
HETATM   18  C8  UNL     1     -44.623 -27.801  -6.764  1.00  0.00     0.153 C 
ATOM     19  H5  UNL     1     -45.993 -27.956  -8.339  1.00  0.00     0.160 HD
HETATM   20  C9  UNL     1     -44.124 -28.580  -5.595  1.00  0.00     0.201 C 
HETATM   21  C10 UNL     1     -45.016 -29.797  -5.373  1.00  0.00     0.042 C 
HETATM   22  C11 UNL     1     -44.928 -30.601  -6.670  1.00  0.00     0.078 C 
BRANCH  20  23
HETATM   23  N6  UNL     1     -42.779 -29.035  -5.870  1.00  0.00    -0.073 N 
ATOM     24  H63 UNL     1     -42.627 -29.221  -6.862  1.00  0.00     0.274 HD
ATOM     25  H62 UNL     1     -42.088 -28.293  -5.756  1.00  0.00     0.274 HD
ATOM     26  H61 UNL     1     -42.577 -29.847  -5.287  1.00  0.00     0.274 HD
ENDBRANCH  20  23
ENDBRANCH   5  16
BRANCH   1  27
HETATM   27  N2  UNL     1     -50.271 -29.731  -6.097  1.00  0.00    -0.203 N 
ATOM     28  H2  UNL     1     -49.905 -28.784  -6.006  1.00  0.00     0.183 HD
BRANCH  27  29
HETATM   29  C4  UNL     1     -51.075 -29.955  -5.010  1.00  0.00     0.108 C 
BRANCH  29  30
HETATM   30  C3  UNL     1     -50.833 -31.174  -4.181  1.00  0.00     0.316 C 
BRANCH  30  31
HETATM   31  N1  UNL     1     -52.064 -31.942  -4.046  1.00  0.00     0.084 N 
HETATM   32  C1  UNL     1     -51.900 -33.314  -4.451  1.00  0.00     0.309 C 
HETATM   33  C2  UNL     1     -53.004 -31.337  -5.006  1.00  0.00     0.309 C 
ENDBRANCH  30  31
ENDBRANCH  29  30
ENDBRANCH  27  29
ENDBRANCH   1  27
TORSDOF 6
ENDMDL
MODEL 3
REMARK VINA RESULT: -7.469682978      0.997      1.482
REMARK  6 active torsions:
REMARK  status: ('A' for Active; 'I' for Inactive)
REMARK    1  A    between atoms: N1_2  and  C3_4 
REMARK    2  A    between atoms: C3_4  and  C4_5 
REMARK    3  A    between atoms: C4_5  and  N2_6 
REMARK    4  A    between atoms: N2_6  and  C5_8 
REMARK    5  A    between atoms: N4_12  and  C7_14 
REMARK    6  A    between atoms: C9_18  and  N6_19 
ROOT
HETATM    1  C5  UNL     1     -49.119 -30.773  -7.247  1.00  0.00     0.685 A 
HETATM    2  N3  UNL     1     -47.908 -30.547  -7.853  1.00  0.00    -0.174 N 
ATOM      3  H3  UNL     1     -47.166 -30.114  -7.302  1.00  0.00     0.186 HD
HETATM    4  C6  UNL     1     -47.650 -30.863  -9.120  1.00  0.00     0.153 A 
HETATM    5  N4  UNL     1     -46.506 -30.646  -9.682  1.00  0.00    -0.330 N 
ATOM      6  H4  UNL     1     -46.391 -30.919 -10.658  1.00  0.00     0.168 HD
HETATM    7  C12 UNL     1     -48.629 -31.447  -9.890  1.00  0.00     0.123 A 
HETATM    8  N7  UNL     1     -48.716 -31.887 -11.172  1.00  0.00    -0.346 N 
ATOM      9  H7  UNL     1     -47.974 -31.854 -11.871  1.00  0.00     0.167 HD
HETATM   10  C13 UNL     1     -49.965 -32.378 -11.354  1.00  0.00     0.182 A 
HETATM   11  N8  UNL     1     -50.618 -32.235 -10.199  1.00  0.00    -0.336 N 
ATOM     12  H8  UNL     1     -51.585 -32.519 -10.041  1.00  0.00     0.168 HD
HETATM   13  C14 UNL     1     -49.837 -31.669  -9.277  1.00  0.00     0.152 A 
HETATM   14  N9  UNL     1     -50.077 -31.340  -7.983  1.00  0.00    -0.174 N 
ATOM     15  H9  UNL     1     -50.991 -31.526  -7.571  1.00  0.00     0.186 HD
ENDROOT
BRANCH   5  16
HETATM   16  C7  UNL     1     -45.398 -30.051  -9.019  1.00  0.00     0.078 C 
HETATM   17  N5  UNL     1     -44.963 -28.875  -9.292  1.00  0.00    -0.378 N 
HETATM   18  C8  UNL     1     -43.863 -28.203  -8.677  1.00  0.00     0.153 C 
ATOM     19  H5  UNL     1     -45.455 -28.366 -10.026  1.00  0.00     0.160 HD
HETATM   20  C9  UNL     1     -43.351 -28.828  -7.423  1.00  0.00     0.201 C 
HETATM   21  C10 UNL     1     -44.412 -29.758  -6.846  1.00  0.00     0.042 C 
HETATM   22  C11 UNL     1     -44.669 -30.800  -7.935  1.00  0.00     0.078 C 
BRANCH  20  23
HETATM   23  N6  UNL     1     -42.170 -29.604  -7.731  1.00  0.00    -0.073 N 
ATOM     24  H63 UNL     1     -42.086 -29.805  -8.728  1.00  0.00     0.274 HD
ATOM     25  H62 UNL     1     -41.311 -29.066  -7.620  1.00  0.00     0.274 HD
ATOM     26  H61 UNL     1     -42.173 -30.452  -7.164  1.00  0.00     0.274 HD
ENDBRANCH  20  23
ENDBRANCH   5  16
BRANCH   1  27
HETATM   27  N2  UNL     1     -49.240 -30.440  -6.076  1.00  0.00    -0.203 N 
ATOM     28  H2  UNL     1     -48.884 -29.487  -6.000  1.00  0.00     0.183 HD
BRANCH  27  29
HETATM   29  C4  UNL     1     -49.654 -30.813  -4.824  1.00  0.00     0.108 C 
BRANCH  29  30
HETATM   30  C3  UNL     1     -50.933 -30.251  -4.297  1.00  0.00     0.316 C 
BRANCH  30  31
HETATM   31  N1  UNL     1     -51.994 -31.244  -4.387  1.00  0.00     0.084 N 
HETATM   32  C1  UNL     1     -51.481 -32.580  -4.550  1.00  0.00     0.309 C 
HETATM   33  C2  UNL     1     -52.718 -30.925  -5.630  1.00  0.00     0.309 C 
ENDBRANCH  30  31
ENDBRANCH  29  30
ENDBRANCH  27  29
ENDBRANCH   1  27
TORSDOF 6
ENDMDL
MODEL 4
REMARK VINA RESULT: -7.467235747      1.462      2.281
REMARK  6 active torsions:
REMARK  status: ('A' for Active; 'I' for Inactive)
REMARK    1  A    between atoms: N1_2  and  C3_4 
REMARK    2  A    between atoms: C3_4  and  C4_5 
REMARK    3  A    between atoms: C4_5  and  N2_6 
REMARK    4  A    between atoms: N2_6  and  C5_8 
REMARK    5  A    between atoms: N4_12  and  C7_14 
REMARK    6  A    between atoms: C9_18  and  N6_19 
ROOT
HETATM    1  C5  UNL     1     -49.340 -31.220  -7.290  1.00  0.00     0.685 A 
HETATM    2  N3  UNL     1     -48.101 -30.837  -7.742  1.00  0.00    -0.174 N 
ATOM      3  H3  UNL     1     -47.454 -30.414  -7.076  1.00  0.00     0.186 HD
HETATM    4  C6  UNL     1     -47.699 -30.988  -9.002  1.00  0.00     0.153 A 
HETATM    5  N4  UNL     1     -46.530 -30.625  -9.417  1.00  0.00    -0.330 N 
ATOM      6  H4  UNL     1     -46.301 -30.776 -10.399  1.00  0.00     0.168 HD
HETATM    7  C12 UNL     1     -48.548 -31.554  -9.925  1.00  0.00     0.123 A 
HETATM    8  N7  UNL     1     -48.476 -31.852 -11.248  1.00  0.00    -0.346 N 
ATOM      9  H7  UNL     1     -47.677 -31.685 -11.860  1.00  0.00     0.167 HD
HETATM   10  C13 UNL     1     -49.656 -32.411 -11.608  1.00  0.00     0.182 A 
HETATM   11  N8  UNL     1     -50.425 -32.448 -10.517  1.00  0.00    -0.336 N 
ATOM     12  H8  UNL     1     -51.374 -32.820 -10.491  1.00  0.00     0.168 HD
HETATM   13  C14 UNL     1     -49.785 -31.933  -9.466  1.00  0.00     0.152 A 
HETATM   14  N9  UNL     1     -50.173 -31.770  -8.176  1.00  0.00    -0.174 N 
ATOM     15  H9  UNL     1     -51.102 -32.069  -7.882  1.00  0.00     0.186 HD
ENDROOT
BRANCH   5  16
HETATM   16  C7  UNL     1     -45.545 -30.026  -8.585  1.00  0.00     0.078 C 
HETATM   17  N5  UNL     1     -44.855 -30.683  -7.726  1.00  0.00    -0.378 N 
HETATM   18  C8  UNL     1     -43.849 -30.164  -6.856  1.00  0.00     0.153 C 
ATOM     19  H5  UNL     1     -45.045 -31.683  -7.658  1.00  0.00     0.160 HD
HETATM   20  C9  UNL     1     -43.379 -28.784  -7.171  1.00  0.00     0.201 C 
HETATM   21  C10 UNL     1     -43.740 -28.439  -8.612  1.00  0.00     0.042 C 
HETATM   22  C11 UNL     1     -45.262 -28.550  -8.683  1.00  0.00     0.078 C 
BRANCH  20  23
HETATM   23  N6  UNL     1     -44.042 -27.847  -6.290  1.00  0.00    -0.073 N 
ATOM     24  H63 UNL     1     -43.415 -27.475  -5.576  1.00  0.00     0.274 HD
ATOM     25  H62 UNL     1     -44.266 -26.968  -6.756  1.00  0.00     0.274 HD
ATOM     26  H61 UNL     1     -44.865 -28.295  -5.888  1.00  0.00     0.274 HD
ENDBRANCH  20  23
ENDBRANCH   5  16
BRANCH   1  27
HETATM   27  N2  UNL     1     -49.599 -31.031  -6.110  1.00  0.00    -0.203 N 
ATOM     28  H2  UNL     1     -50.548 -31.371  -5.956  1.00  0.00     0.183 HD
BRANCH  27  29
HETATM   29  C4  UNL     1     -49.146 -30.553  -4.907  1.00  0.00     0.108 C 
BRANCH  29  30
HETATM   30  C3  UNL     1     -49.285 -29.094  -4.620  1.00  0.00     0.316 C 
BRANCH  30  31
HETATM   31  N1  UNL     1     -48.011 -28.418  -4.827  1.00  0.00     0.084 N 
HETATM   32  C1  UNL     1     -47.881 -27.890  -6.161  1.00  0.00     0.309 C 
HETATM   33  C2  UNL     1     -46.989 -29.471  -4.698  1.00  0.00     0.309 C 
ENDBRANCH  30  31
ENDBRANCH  29  30
ENDBRANCH  27  29
ENDBRANCH   1  27
TORSDOF 6
ENDMDL
MODEL 5
REMARK VINA RESULT: -7.444108093      2.078      6.588
REMARK  6 active torsions:
REMARK  status: ('A' for Active; 'I' for Inactive)
REMARK    1  A    between atoms: N1_2  and  C3_4 
REMARK    2  A    between atoms: C3_4  and  C4_5 
REMARK    3  A    between atoms: C4_5  and  N2_6 
REMARK    4  A    between atoms: N2_6  and  C5_8 
REMARK    5  A    between atoms: N4_12  and  C7_14 
REMARK    6  A    between atoms: C9_18  and  N6_19 
ROOT
HETATM    1  C5  UNL     1     -48.161 -31.525  -8.595  1.00  0.00     0.685 A 
HETATM    2  N3  UNL     1     -48.994 -31.136  -7.577  1.00  0.00    -0.174 N 
ATOM      3  H3  UNL     1     -49.694 -31.799  -7.244  1.00  0.00     0.186 HD
HETATM    4  C6  UNL     1     -48.937 -29.937  -6.999  1.00  0.00     0.153 A 
HETATM    5  N4  UNL     1     -49.727 -29.579  -6.040  1.00  0.00    -0.330 N 
ATOM      6  H4  UNL     1     -49.616 -28.642  -5.652  1.00  0.00     0.168 HD
HETATM    7  C12 UNL     1     -48.006 -29.019  -7.424  1.00  0.00     0.123 A 
HETATM    8  N7  UNL     1     -47.674 -27.748  -7.078  1.00  0.00    -0.346 N 
ATOM      9  H7  UNL     1     -48.116 -27.188  -6.349  1.00  0.00     0.167 HD
HETATM   10  C13 UNL     1     -46.649 -27.359  -7.873  1.00  0.00     0.182 A 
HETATM   11  N8  UNL     1     -46.369 -28.382  -8.685  1.00  0.00    -0.336 N 
ATOM     12  H8  UNL     1     -45.637 -28.374  -9.396  1.00  0.00     0.168 HD
HETATM   13  C14 UNL     1     -47.176 -29.416  -8.444  1.00  0.00     0.152 A 
HETATM   14  N9  UNL     1     -47.252 -30.644  -9.017  1.00  0.00    -0.174 N 
ATOM     15  H9  UNL     1     -46.613 -30.893  -9.771  1.00  0.00     0.186 HD
ENDROOT
BRANCH   5  16
HETATM   16  C7  UNL     1     -50.739 -30.415  -5.493  1.00  0.00     0.078 C 
HETATM   17  N5  UNL     1     -51.977 -30.324  -5.816  1.00  0.00    -0.378 N 
HETATM   18  C8  UNL     1     -53.053 -31.120  -5.319  1.00  0.00     0.153 C 
ATOM     19  H5  UNL     1     -52.218 -29.607  -6.500  1.00  0.00     0.160 HD
HETATM   20  C9  UNL     1     -52.651 -32.339  -4.560  1.00  0.00     0.201 C 
HETATM   21  C10 UNL     1     -51.207 -32.696  -4.894  1.00  0.00     0.042 C 
HETATM   22  C11 UNL     1     -50.386 -31.474  -4.482  1.00  0.00     0.078 C 
BRANCH  20  23
HETATM   23  N6  UNL     1     -52.745 -32.065  -3.143  1.00  0.00    -0.073 N 
ATOM     24  H63 UNL     1     -53.125 -31.138  -2.951  1.00  0.00     0.274 HD
ATOM     25  H62 UNL     1     -53.475 -32.615  -2.689  1.00  0.00     0.274 HD
ATOM     26  H61 UNL     1     -51.830 -32.206  -2.715  1.00  0.00     0.274 HD
ENDBRANCH  20  23
ENDBRANCH   5  16
BRANCH   1  27
HETATM   27  N2  UNL     1     -48.306 -32.652  -9.049  1.00  0.00    -0.203 N 
ATOM     28  H2  UNL     1     -47.388 -32.965  -9.365  1.00  0.00     0.183 HD
BRANCH  27  29
HETATM   29  C4  UNL     1     -49.186 -33.670  -9.310  1.00  0.00     0.108 C 
BRANCH  29  30
HETATM   30  C3  UNL     1     -49.862 -33.706 -10.642  1.00  0.00     0.316 C 
BRANCH  30  31
HETATM   31  N1  UNL     1     -50.473 -35.010 -10.859  1.00  0.00     0.084 N 
HETATM   32  C1  UNL     1     -49.969 -36.010  -9.954  1.00  0.00     0.309 C 
HETATM   33  C2  UNL     1     -50.043 -35.419 -12.207  1.00  0.00     0.309 C 
ENDBRANCH  30  31
ENDBRANCH  29  30
ENDBRANCH  27  29
ENDBRANCH   1  27
TORSDOF 6
ENDMDL
