MODEL 1
REMARK VINA RESULT: -5.118728253      0.000      0.000
REMARK  6 active torsions:
REMARK  status: ('A' for Active; 'I' for Inactive)
REMARK    1  A    between atoms: C2_2  and  C3_4 
REMARK    2  A    between atoms: C2_2  and  C4_9 
REMARK    3  A    between atoms: C3_4  and  N1_5 
REMARK       I    between atoms: C4_9  and  N2_11 
REMARK    4  A    between atoms: N2_11  and  N3_13 
REMARK    5  A    between atoms: C5_14  and  O2_15 
REMARK       I    between atoms: N5_21  and  C8_23 
REMARK    6  A    between atoms: C8_23  and  C9_25 
ROOT
HETATM    1  N3  UNL     1      29.989  45.947   6.063  1.00  0.00    -0.059 N 
HETATM    2  C5  UNL     1      29.768  45.556   4.803  1.00  0.00     0.196 A 
HETATM    3  C6  UNL     1      29.663  44.158   4.711  1.00  0.00     0.164 A 
HETATM    4  N4  UNL     1      29.829  43.741   5.955  1.00  0.00    -0.196 N 
ATOM      5  H4  UNL     1      29.810  42.763   6.242  1.00  0.00     0.183 HD
HETATM    6  C7  UNL     1      30.024  44.763   6.783  1.00  0.00     0.708 A 
HETATM    7  N5  UNL     1      30.219  44.710   8.060  1.00  0.00    -0.154 N 
ATOM      8  H5  UNL     1      30.359  45.567   8.594  1.00  0.00     0.187 HD
HETATM    9  C8  UNL     1      30.238  43.464   8.705  1.00  0.00     0.290 C 
HETATM   10  O3  UNL     1      31.187  42.678   8.463  1.00  0.00    -0.268 OA
ENDROOT
BRANCH   1  11
HETATM   11  N2  UNL     1      30.160  47.198   6.644  1.00  0.00    -0.244 N 
HETATM   12  C4  UNL     1      29.436  47.770   7.688  1.00  0.00     0.278 C 
HETATM   13  O1  UNL     1      28.488  47.263   8.308  1.00  0.00    -0.268 OA
ATOM     14  H2  UNL     1      30.909  47.770   6.256  1.00  0.00     0.191 HD
BRANCH  12  15
HETATM   15  C2  UNL     1      29.844  49.167   8.126  1.00  0.00     0.204 C 
HETATM   16  C1  UNL     1      28.594  49.880   8.511  1.00  0.00     0.064 C 
HETATM   17  F1  UNL     1      30.431  49.793   7.043  1.00  0.00    -0.231 F 
BRANCH  15  18
HETATM   18  C3  UNL     1      30.865  49.094   9.222  1.00  0.00     0.282 C 
BRANCH  18  19
HETATM   19  N1  UNL     1      30.875  47.791   9.827  1.00  0.00    -0.076 N 
ATOM     20  H13 UNL     1      31.131  47.836  10.813  1.00  0.00     0.274 HD
ATOM     21  H12 UNL     1      29.932  47.416   9.928  1.00  0.00     0.274 HD
ATOM     22  H11 UNL     1      31.480  47.154   9.309  1.00  0.00     0.274 HD
ENDBRANCH  18  19
ENDBRANCH  15  18
ENDBRANCH  12  15
ENDBRANCH   1  11
BRANCH   2  23
HETATM   23  O2  UNL     1      29.650  46.395   3.695  1.00  0.00    -0.343 OA
ATOM     24  H2  UNL     1      30.127  46.309   2.878  1.00  0.00     0.219 HD
ENDBRANCH   2  23
BRANCH   9  25
HETATM   25  C9  UNL     1      29.193  43.028   9.660  1.00  0.00     0.270 C 
HETATM   26 CL1  UNL     1      28.037  41.959   8.856  1.00  0.00    -0.073 Cl
HETATM   27 CL2  UNL     1      30.042  42.142  10.971  1.00  0.00    -0.073 Cl
HETATM   28 CL3  UNL     1      28.338  44.432  10.343  1.00  0.00    -0.073 Cl
ENDBRANCH   9  25
TORSDOF 6
ENDMDL
MODEL 2
REMARK VINA RESULT: -5.001693469      3.661      5.495
REMARK  6 active torsions:
REMARK  status: ('A' for Active; 'I' for Inactive)
REMARK    1  A    between atoms: C2_2  and  C3_4 
REMARK    2  A    between atoms: C2_2  and  C4_9 
REMARK    3  A    between atoms: C3_4  and  N1_5 
REMARK       I    between atoms: C4_9  and  N2_11 
REMARK    4  A    between atoms: N2_11  and  N3_13 
REMARK    5  A    between atoms: C5_14  and  O2_15 
REMARK       I    between atoms: N5_21  and  C8_23 
REMARK    6  A    between atoms: C8_23  and  C9_25 
ROOT
HETATM    1  N3  UNL     1      29.892  44.694   6.542  1.00  0.00    -0.059 N 
HETATM    2  C5  UNL     1      30.311  44.185   5.378  1.00  0.00     0.196 A 
HETATM    3  C6  UNL     1      30.211  45.127   4.340  1.00  0.00     0.164 A 
HETATM    4  N4  UNL     1      29.720  46.204   4.932  1.00  0.00    -0.196 N 
ATOM      5  H4  UNL     1      29.522  47.084   4.455  1.00  0.00     0.183 HD
HETATM    6  C7  UNL     1      29.519  45.991   6.228  1.00  0.00     0.708 A 
HETATM    7  N5  UNL     1      29.051  46.828   7.096  1.00  0.00    -0.154 N 
ATOM      8  H5  UNL     1      28.939  46.549   8.071  1.00  0.00     0.187 HD
HETATM    9  C8  UNL     1      28.699  48.124   6.686  1.00  0.00     0.290 C 
HETATM   10  O3  UNL     1      27.711  48.262   5.925  1.00  0.00    -0.268 OA
ENDROOT
BRANCH   1  11
HETATM   11  N2  UNL     1      29.803  44.163   7.823  1.00  0.00    -0.244 N 
HETATM   12  C4  UNL     1      28.856  43.271   8.323  1.00  0.00     0.278 C 
HETATM   13  O1  UNL     1      27.899  42.774   7.709  1.00  0.00    -0.268 OA
ATOM     14  H2  UNL     1      30.522  44.464   8.480  1.00  0.00     0.191 HD
BRANCH  12  15
HETATM   15  C2  UNL     1      29.003  42.854   9.777  1.00  0.00     0.204 C 
HETATM   16  C1  UNL     1      30.464  42.753  10.050  1.00  0.00     0.064 C 
HETATM   17  F1  UNL     1      28.409  41.615   9.922  1.00  0.00    -0.231 F 
BRANCH  15  18
HETATM   18  C3  UNL     1      28.281  43.817  10.672  1.00  0.00     0.282 C 
BRANCH  18  19
HETATM   19  N1  UNL     1      28.108  45.087  10.024  1.00  0.00    -0.076 N 
ATOM     20  H13 UNL     1      27.599  44.995   9.145  1.00  0.00     0.274 HD
ATOM     21  H12 UNL     1      27.444  45.677  10.526  1.00  0.00     0.274 HD
ATOM     22  H11 UNL     1      29.005  45.554   9.894  1.00  0.00     0.274 HD
ENDBRANCH  18  19
ENDBRANCH  15  18
ENDBRANCH  12  15
ENDBRANCH   1  11
BRANCH   2  23
HETATM   23  O2  UNL     1      30.793  42.892   5.176  1.00  0.00    -0.343 OA
ATOM     24  H2  UNL     1      30.533  42.303   4.477  1.00  0.00     0.219 HD
ENDBRANCH   2  23
BRANCH   9  25
HETATM   25  C9  UNL     1      29.434  49.337   7.109  1.00  0.00     0.270 C 
HETATM   26 CL1  UNL     1      30.512  48.960   8.458  1.00  0.00    -0.073 Cl
HETATM   27 CL2  UNL     1      30.392  49.872   5.686  1.00  0.00    -0.073 Cl
HETATM   28 CL3  UNL     1      28.303  50.626   7.587  1.00  0.00    -0.073 Cl
ENDBRANCH   9  25
TORSDOF 6
ENDMDL
MODEL 3
REMARK VINA RESULT: -4.963803361      1.080      1.590
REMARK  6 active torsions:
REMARK  status: ('A' for Active; 'I' for Inactive)
REMARK    1  A    between atoms: C2_2  and  C3_4 
REMARK    2  A    between atoms: C2_2  and  C4_9 
REMARK    3  A    between atoms: C3_4  and  N1_5 
REMARK       I    between atoms: C4_9  and  N2_11 
REMARK    4  A    between atoms: N2_11  and  N3_13 
REMARK    5  A    between atoms: C5_14  and  O2_15 
REMARK       I    between atoms: N5_21  and  C8_23 
REMARK    6  A    between atoms: C8_23  and  C9_25 
ROOT
HETATM    1  N3  UNL     1      30.047  45.847   6.157  1.00  0.00    -0.059 N 
HETATM    2  C5  UNL     1      30.005  45.385   4.903  1.00  0.00     0.196 A 
HETATM    3  C6  UNL     1      30.071  43.982   4.869  1.00  0.00     0.164 A 
HETATM    4  N4  UNL     1      30.153  43.635   6.143  1.00  0.00    -0.196 N 
ATOM      5  H4  UNL     1      30.216  42.673   6.476  1.00  0.00     0.183 HD
HETATM    6  C7  UNL     1      30.141  44.704   6.935  1.00  0.00     0.708 A 
HETATM    7  N5  UNL     1      30.207  44.722   8.226  1.00  0.00    -0.154 N 
ATOM      8  H5  UNL     1      30.190  45.610   8.728  1.00  0.00     0.187 HD
HETATM    9  C8  UNL     1      30.300  43.512   8.931  1.00  0.00     0.290 C 
HETATM   10  O3  UNL     1      31.353  42.837   8.823  1.00  0.00    -0.268 OA
ENDROOT
BRANCH   1  11
HETATM   11  N2  UNL     1      30.011  47.130   6.689  1.00  0.00    -0.244 N 
HETATM   12  C4  UNL     1      28.917  47.818   7.212  1.00  0.00     0.278 C 
HETATM   13  O1  UNL     1      27.750  47.407   7.303  1.00  0.00    -0.268 OA
ATOM     14  H2  UNL     1      30.898  47.633   6.698  1.00  0.00     0.191 HD
BRANCH  12  15
HETATM   15  C2  UNL     1      29.170  49.223   7.730  1.00  0.00     0.204 C 
HETATM   16  C1  UNL     1      30.462  49.183   8.471  1.00  0.00     0.064 C 
HETATM   17  F1  UNL     1      28.140  49.546   8.593  1.00  0.00    -0.231 F 
BRANCH  15  18
HETATM   18  C3  UNL     1      29.147  50.208   6.600  1.00  0.00     0.282 C 
BRANCH  18  19
HETATM   19  N1  UNL     1      29.048  49.536   5.335  1.00  0.00    -0.076 N 
ATOM     20  H13 UNL     1      29.449  48.598   5.375  1.00  0.00     0.274 HD
ATOM     21  H12 UNL     1      28.084  49.283   5.118  1.00  0.00     0.274 HD
ATOM     22  H11 UNL     1      29.467  50.094   4.592  1.00  0.00     0.274 HD
ENDBRANCH  18  19
ENDBRANCH  15  18
ENDBRANCH  12  15
ENDBRANCH   1  11
BRANCH   2  23
HETATM   23  O2  UNL     1      29.909  46.162   3.748  1.00  0.00    -0.343 OA
ATOM     24  H2  UNL     1      29.708  47.090   3.716  1.00  0.00     0.219 HD
ENDBRANCH   2  23
BRANCH   9  25
HETATM   25  C9  UNL     1      29.218  42.991   9.797  1.00  0.00     0.270 C 
HETATM   26 CL1  UNL     1      28.092  42.014   8.848  1.00  0.00    -0.073 Cl
HETATM   27 CL2  UNL     1      30.014  41.974  11.046  1.00  0.00    -0.073 Cl
HETATM   28 CL3  UNL     1      28.341  44.326  10.583  1.00  0.00    -0.073 Cl
ENDBRANCH   9  25
TORSDOF 6
ENDMDL
MODEL 4
REMARK VINA RESULT: -4.792246418      3.648      5.482
REMARK  6 active torsions:
REMARK  status: ('A' for Active; 'I' for Inactive)
REMARK    1  A    between atoms: C2_2  and  C3_4 
REMARK    2  A    between atoms: C2_2  and  C4_9 
REMARK    3  A    between atoms: C3_4  and  N1_5 
REMARK       I    between atoms: C4_9  and  N2_11 
REMARK    4  A    between atoms: N2_11  and  N3_13 
REMARK    5  A    between atoms: C5_14  and  O2_15 
REMARK       I    between atoms: N5_21  and  C8_23 
REMARK    6  A    between atoms: C8_23  and  C9_25 
ROOT
HETATM    1  N3  UNL     1      29.907  44.659   6.595  1.00  0.00    -0.059 N 
HETATM    2  C5  UNL     1      30.393  44.094   5.485  1.00  0.00     0.196 A 
HETATM    3  C6  UNL     1      30.365  44.986   4.400  1.00  0.00     0.164 A 
HETATM    4  N4  UNL     1      29.846  46.092   4.909  1.00  0.00    -0.196 N 
ATOM      5  H4  UNL     1      29.684  46.949   4.379  1.00  0.00     0.183 HD
HETATM    6  C7  UNL     1      29.563  45.941   6.199  1.00  0.00     0.708 A 
HETATM    7  N5  UNL     1      29.048  46.820   6.995  1.00  0.00    -0.154 N 
ATOM      8  H5  UNL     1      28.873  46.588   7.972  1.00  0.00     0.187 HD
HETATM    9  C8  UNL     1      28.731  48.096   6.504  1.00  0.00     0.290 C 
HETATM   10  O3  UNL     1      27.793  48.203   5.676  1.00  0.00    -0.268 OA
ENDROOT
BRANCH   1  11
HETATM   11  N2  UNL     1      29.734  44.189   7.892  1.00  0.00    -0.244 N 
HETATM   12  C4  UNL     1      28.772  43.299   8.366  1.00  0.00     0.278 C 
HETATM   13  O1  UNL     1      27.874  42.749   7.710  1.00  0.00    -0.268 OA
ATOM     14  H2  UNL     1      30.395  44.540   8.584  1.00  0.00     0.191 HD
BRANCH  12  15
HETATM   15  C2  UNL     1      28.819  42.958   9.846  1.00  0.00     0.204 C 
HETATM   16  C1  UNL     1      30.235  42.625  10.166  1.00  0.00     0.064 C 
HETATM   17  F1  UNL     1      28.015  41.853  10.050  1.00  0.00    -0.231 F 
BRANCH  15  18
HETATM   18  C3  UNL     1      28.261  44.087  10.660  1.00  0.00     0.282 C 
BRANCH  18  19
HETATM   19  N1  UNL     1      27.997  45.233   9.835  1.00  0.00    -0.076 N 
ATOM     20  H13 UNL     1      28.406  46.081  10.228  1.00  0.00     0.274 HD
ATOM     21  H12 UNL     1      28.523  45.197   8.962  1.00  0.00     0.274 HD
ATOM     22  H11 UNL     1      26.997  45.339   9.670  1.00  0.00     0.274 HD
ENDBRANCH  18  19
ENDBRANCH  15  18
ENDBRANCH  12  15
ENDBRANCH   1  11
BRANCH   2  23
HETATM   23  O2  UNL     1      30.877  42.790   5.375  1.00  0.00    -0.343 OA
ATOM     24  H2  UNL     1      31.013  42.313   4.565  1.00  0.00     0.219 HD
ENDBRANCH   2  23
BRANCH   9  25
HETATM   25  C9  UNL     1      29.448  49.326   6.914  1.00  0.00     0.270 C 
HETATM   26 CL1  UNL     1      28.294  50.573   7.400  1.00  0.00    -0.073 Cl
HETATM   27 CL2  UNL     1      30.483  48.867   8.308  1.00  0.00    -0.073 Cl
HETATM   28 CL3  UNL     1      30.467  49.934   5.588  1.00  0.00    -0.073 Cl
ENDBRANCH   9  25
TORSDOF 6
ENDMDL
MODEL 5
REMARK VINA RESULT: -4.720059600      1.206      1.345
REMARK  6 active torsions:
REMARK  status: ('A' for Active; 'I' for Inactive)
REMARK    1  A    between atoms: C2_2  and  C3_4 
REMARK    2  A    between atoms: C2_2  and  C4_9 
REMARK    3  A    between atoms: C3_4  and  N1_5 
REMARK       I    between atoms: C4_9  and  N2_11 
REMARK    4  A    between atoms: N2_11  and  N3_13 
REMARK    5  A    between atoms: C5_14  and  O2_15 
REMARK       I    between atoms: N5_21  and  C8_23 
REMARK    6  A    between atoms: C8_23  and  C9_25 
ROOT
HETATM    1  N3  UNL     1      30.086  45.780   6.028  1.00  0.00    -0.059 N 
HETATM    2  C5  UNL     1      30.035  45.277   4.790  1.00  0.00     0.196 A 
HETATM    3  C6  UNL     1      30.072  43.873   4.805  1.00  0.00     0.164 A 
HETATM    4  N4  UNL     1      30.147  43.568   6.090  1.00  0.00    -0.196 N 
ATOM      5  H4  UNL     1      30.191  42.616   6.455  1.00  0.00     0.183 HD
HETATM    6  C7  UNL     1      30.158  44.663   6.844  1.00  0.00     0.708 A 
HETATM    7  N5  UNL     1      30.223  44.724   8.134  1.00  0.00    -0.154 N 
ATOM      8  H5  UNL     1      30.225  45.628   8.606  1.00  0.00     0.187 HD
HETATM    9  C8  UNL     1      30.293  43.537   8.880  1.00  0.00     0.290 C 
HETATM   10  O3  UNL     1      31.331  42.837   8.796  1.00  0.00    -0.268 OA
ENDROOT
BRANCH   1  11
HETATM   11  N2  UNL     1      30.077  47.081   6.516  1.00  0.00    -0.244 N 
HETATM   12  C4  UNL     1      29.213  48.123   6.180  1.00  0.00     0.278 C 
HETATM   13  O1  UNL     1      28.273  48.083   5.371  1.00  0.00    -0.268 OA
ATOM     14  H2  UNL     1      30.793  47.303   7.207  1.00  0.00     0.191 HD
BRANCH  12  15
HETATM   15  C2  UNL     1      29.435  49.455   6.877  1.00  0.00     0.204 C 
HETATM   16  C1  UNL     1      29.056  50.517   5.904  1.00  0.00     0.064 C 
HETATM   17  F1  UNL     1      30.779  49.551   7.182  1.00  0.00    -0.231 F 
BRANCH  15  18
HETATM   18  C3  UNL     1      28.667  49.505   8.164  1.00  0.00     0.282 C 
BRANCH  18  19
HETATM   19  N1  UNL     1      28.131  48.214   8.492  1.00  0.00    -0.076 N 
ATOM     20  H13 UNL     1      28.541  47.478   7.916  1.00  0.00     0.274 HD
ATOM     21  H12 UNL     1      28.452  47.894   9.405  1.00  0.00     0.274 HD
ATOM     22  H11 UNL     1      27.113  48.217   8.430  1.00  0.00     0.274 HD
ENDBRANCH  18  19
ENDBRANCH  15  18
ENDBRANCH  12  15
ENDBRANCH   1  11
BRANCH   2  23
HETATM   23  O2  UNL     1      29.955  46.015   3.609  1.00  0.00    -0.343 OA
ATOM     24  H2  UNL     1      30.398  45.813   2.794  1.00  0.00     0.219 HD
ENDBRANCH   2  23
BRANCH   9  25
HETATM   25  C9  UNL     1      29.200  43.068   9.763  1.00  0.00     0.270 C 
HETATM   26 CL1  UNL     1      28.062  42.070   8.851  1.00  0.00    -0.073 Cl
HETATM   27 CL2  UNL     1      29.976  42.093  11.056  1.00  0.00    -0.073 Cl
HETATM   28 CL3  UNL     1      28.341  44.447  10.490  1.00  0.00    -0.073 Cl
ENDBRANCH   9  25
TORSDOF 6
ENDMDL
