MODEL 1
REMARK VINA RESULT: -6.892758094      0.000      0.000
REMARK  9 active torsions:
REMARK  status: ('A' for Active; 'I' for Inactive)
REMARK    1  A    between atoms: C2_2  and  N1_3 
REMARK    2  A    between atoms: C2_2  and  N2_7 
REMARK    3  A    between atoms: C2_2  and  C7_27 
REMARK    4  A    between atoms: N2_7  and  C3_9 
REMARK    5  A    between atoms: C4_12  and  C5_13 
REMARK    6  A    between atoms: C5_13  and  S1_14 
REMARK    7  A    between atoms: S1_14  and  N4_15 
REMARK    8  A    between atoms: S1_14  and  N5_19 
REMARK    9  A    between atoms: N6_22  and  C6_23 
ROOT
HETATM    1  C3  UNL     1      28.347  47.238   7.332  1.00  0.00     0.164 A 
HETATM    2  N3  UNL     1      29.322  46.381   7.043  1.00  0.00    -0.324 N 
ATOM      3  H3  UNL     1      29.943  46.533   6.248  1.00  0.00     0.169 HD
HETATM    4  C4  UNL     1      29.457  45.328   7.821  1.00  0.00     0.110 A 
HETATM    5  N6  UNL     1      28.624  45.182   8.840  1.00  0.00    -0.244 N 
HETATM    6  S2  UNL     1      27.629  46.541   8.709  1.00  0.00     0.031 SA
ENDROOT
BRANCH   1   7
HETATM    7  N2  UNL     1      28.040  48.348   6.688  1.00  0.00    -0.330 N 
ATOM      8  H2  UNL     1      27.063  48.571   6.499  1.00  0.00     0.164 HD
BRANCH   7   9
HETATM    9  C2  UNL     1      29.068  49.236   6.255  1.00  0.00     0.291 C 
HETATM   10  C1  UNL     1      30.289  49.041   7.158  1.00  0.00     0.081 C 
BRANCH   9  11
HETATM   11  N1  UNL     1      28.721  50.629   6.316  1.00  0.00    -0.044 N 
ATOM     12  H13 UNL     1      28.293  50.897   7.203  1.00  0.00     0.277 HD
ATOM     13  H12 UNL     1      29.533  51.243   6.374  1.00  0.00     0.277 HD
ATOM     14  H11 UNL     1      28.127  50.823   5.510  1.00  0.00     0.277 HD
ENDBRANCH   9  11
BRANCH   9  15
HETATM   15  C7  UNL     1      29.549  48.904   4.840  1.00  0.00     0.438 C 
HETATM   16  F3  UNL     1      30.518  47.925   4.870  1.00  0.00    -0.166 F 
HETATM   17  F4  UNL     1      30.090  50.003   4.232  1.00  0.00    -0.166 F 
HETATM   18  F5  UNL     1      28.478  48.478   4.119  1.00  0.00    -0.166 F 
ENDBRANCH   9  15
ENDBRANCH   7   9
ENDBRANCH   1   7
BRANCH   4  19
HETATM   19  C5  UNL     1      30.539  44.300   7.578  1.00  0.00     0.217 C 
BRANCH  19  20
HETATM   20  S1  UNL     1      30.220  43.288   6.192  1.00  0.00     0.121 S 
HETATM   21  O1  UNL     1      31.114  42.068   6.323  1.00  0.00    -0.227 OA
BRANCH  20  22
HETATM   22  N4  UNL     1      28.624  42.745   6.020  1.00  0.00    -0.344 N 
ATOM     23  H42 UNL     1      28.370  41.781   6.237  1.00  0.00     0.167 HD
ATOM     24  H41 UNL     1      27.950  43.435   5.691  1.00  0.00     0.167 HD
ENDBRANCH  20  22
BRANCH  20  25
HETATM   25  N5  UNL     1      30.674  44.017   4.879  1.00  0.00    -0.242 N 
HETATM   26 CL1  UNL     1      29.496  45.088   4.172  1.00  0.00     0.020 Cl
ATOM     27  H5  UNL     1      31.596  43.875   4.468  1.00  0.00     0.192 HD
ENDBRANCH  20  25
ENDBRANCH  19  20
ENDBRANCH   4  19
BRANCH   5  28
HETATM   28  C6  UNL     1      28.568  44.102   9.850  1.00  0.00     0.472 C 
HETATM   29  F1  UNL     1      27.856  44.584  10.949  1.00  0.00    -0.190 F 
HETATM   30  F2  UNL     1      27.945  43.035   9.268  1.00  0.00    -0.190 F 
ENDBRANCH   5  28
TORSDOF 9
ENDMDL
MODEL 2
REMARK VINA RESULT: -6.855472356      3.092      6.271
REMARK  9 active torsions:
REMARK  status: ('A' for Active; 'I' for Inactive)
REMARK    1  A    between atoms: C2_2  and  N1_3 
REMARK    2  A    between atoms: C2_2  and  N2_7 
REMARK    3  A    between atoms: C2_2  and  C7_27 
REMARK    4  A    between atoms: N2_7  and  C3_9 
REMARK    5  A    between atoms: C4_12  and  C5_13 
REMARK    6  A    between atoms: C5_13  and  S1_14 
REMARK    7  A    between atoms: S1_14  and  N4_15 
REMARK    8  A    between atoms: S1_14  and  N5_19 
REMARK    9  A    between atoms: N6_22  and  C6_23 
ROOT
HETATM    1  C3  UNL     1      28.648  44.503   6.545  1.00  0.00     0.164 A 
HETATM    2  N3  UNL     1      28.542  45.784   6.894  1.00  0.00    -0.324 N 
ATOM      3  H3  UNL     1      28.089  46.059   7.765  1.00  0.00     0.169 HD
HETATM    4  C4  UNL     1      29.043  46.681   6.071  1.00  0.00     0.110 A 
HETATM    5  N6  UNL     1      29.620  46.266   4.955  1.00  0.00    -0.244 N 
HETATM    6  S2  UNL     1      29.459  44.587   5.051  1.00  0.00     0.031 SA
ENDROOT
BRANCH   1   7
HETATM    7  N2  UNL     1      28.218  43.453   7.216  1.00  0.00    -0.330 N 
ATOM      8  H2  UNL     1      27.586  42.789   6.771  1.00  0.00     0.164 HD
BRANCH   7   9
HETATM    9  C2  UNL     1      28.634  43.242   8.565  1.00  0.00     0.291 C 
HETATM   10  C1  UNL     1      27.943  41.982   9.093  1.00  0.00     0.081 C 
BRANCH   9  11
HETATM   11  N1  UNL     1      28.302  44.310   9.467  1.00  0.00    -0.044 N 
ATOM     12  H13 UNL     1      27.297  44.457   9.563  1.00  0.00     0.277 HD
ATOM     13  H12 UNL     1      28.494  44.084  10.443  1.00  0.00     0.277 HD
ATOM     14  H11 UNL     1      28.800  45.138   9.142  1.00  0.00     0.277 HD
ENDBRANCH   9  11
BRANCH   9  15
HETATM   15  C7  UNL     1      30.134  42.956   8.659  1.00  0.00     0.438 C 
HETATM   16  F3  UNL     1      30.460  42.461   9.903  1.00  0.00    -0.166 F 
HETATM   17  F4  UNL     1      30.867  44.094   8.462  1.00  0.00    -0.166 F 
HETATM   18  F5  UNL     1      30.454  42.048   7.699  1.00  0.00    -0.166 F 
ENDBRANCH   9  15
ENDBRANCH   7   9
ENDBRANCH   1   7
BRANCH   4  19
HETATM   19  C5  UNL     1      28.977  48.160   6.383  1.00  0.00     0.217 C 
BRANCH  19  20
HETATM   20  S1  UNL     1      28.837  48.492   8.090  1.00  0.00     0.121 S 
HETATM   21  O1  UNL     1      28.901  49.999   8.252  1.00  0.00    -0.227 OA
BRANCH  20  22
HETATM   22  N4  UNL     1      27.416  47.951   8.839  1.00  0.00    -0.344 N 
ATOM     23  H42 UNL     1      26.691  47.469   8.307  1.00  0.00     0.167 HD
ATOM     24  H41 UNL     1      27.338  48.137   9.839  1.00  0.00     0.167 HD
ENDBRANCH  20  22
BRANCH  20  25
HETATM   25  N5  UNL     1      30.085  47.922   8.852  1.00  0.00    -0.242 N 
HETATM   26 CL1  UNL     1      31.112  49.112   9.603  1.00  0.00     0.020 Cl
ATOM     27  H5  UNL     1      30.282  46.923   8.903  1.00  0.00     0.192 HD
ENDBRANCH  20  25
ENDBRANCH  19  20
ENDBRANCH   4  19
BRANCH   5  28
HETATM   28  C6  UNL     1      30.254  47.063   3.882  1.00  0.00     0.472 C 
HETATM   29  F1  UNL     1      30.891  46.177   3.013  1.00  0.00    -0.190 F 
HETATM   30  F2  UNL     1      29.261  47.763   3.257  1.00  0.00    -0.190 F 
ENDBRANCH   5  28
TORSDOF 9
ENDMDL
MODEL 3
REMARK VINA RESULT: -6.764590239      3.076      6.313
REMARK  9 active torsions:
REMARK  status: ('A' for Active; 'I' for Inactive)
REMARK    1  A    between atoms: C2_2  and  N1_3 
REMARK    2  A    between atoms: C2_2  and  N2_7 
REMARK    3  A    between atoms: C2_2  and  C7_27 
REMARK    4  A    between atoms: N2_7  and  C3_9 
REMARK    5  A    between atoms: C4_12  and  C5_13 
REMARK    6  A    between atoms: C5_13  and  S1_14 
REMARK    7  A    between atoms: S1_14  and  N4_15 
REMARK    8  A    between atoms: S1_14  and  N5_19 
REMARK    9  A    between atoms: N6_22  and  C6_23 
ROOT
HETATM    1  C3  UNL     1      30.127  45.184   6.337  1.00  0.00     0.164 A 
HETATM    2  N3  UNL     1      30.007  46.390   6.885  1.00  0.00    -0.324 N 
ATOM      3  H3  UNL     1      30.038  46.519   7.896  1.00  0.00     0.169 HD
HETATM    4  C4  UNL     1      29.844  47.413   6.072  1.00  0.00     0.110 A 
HETATM    5  N6  UNL     1      29.812  47.188   4.769  1.00  0.00    -0.244 N 
HETATM    6  S2  UNL     1      30.010  45.513   4.671  1.00  0.00     0.031 SA
ENDROOT
BRANCH   1   7
HETATM    7  N2  UNL     1      30.297  44.035   6.963  1.00  0.00    -0.330 N 
ATOM      8  H2  UNL     1      31.203  43.569   6.933  1.00  0.00     0.164 HD
BRANCH   7   9
HETATM    9  C2  UNL     1      29.217  43.441   7.681  1.00  0.00     0.291 C 
HETATM   10  C1  UNL     1      29.608  42.007   8.045  1.00  0.00     0.081 C 
BRANCH   9  11
HETATM   11  N1  UNL     1      27.982  43.364   6.949  1.00  0.00    -0.044 N 
ATOM     12  H13 UNL     1      28.115  43.347   5.938  1.00  0.00     0.277 HD
ATOM     13  H12 UNL     1      27.521  42.458   7.034  1.00  0.00     0.277 HD
ATOM     14  H11 UNL     1      27.401  44.141   7.265  1.00  0.00     0.277 HD
ENDBRANCH   9  11
BRANCH   9  15
HETATM   15  C7  UNL     1      28.963  44.147   9.015  1.00  0.00     0.438 C 
HETATM   16  F3  UNL     1      30.119  44.729   9.487  1.00  0.00    -0.166 F 
HETATM   17  F4  UNL     1      28.527  43.265   9.965  1.00  0.00    -0.166 F 
HETATM   18  F5  UNL     1      28.010  45.096   8.817  1.00  0.00    -0.166 F 
ENDBRANCH   9  15
ENDBRANCH   7   9
ENDBRANCH   1   7
BRANCH   4  19
HETATM   19  C5  UNL     1      29.703  48.824   6.599  1.00  0.00     0.217 C 
BRANCH  19  20
HETATM   20  S1  UNL     1      29.251  48.882   8.283  1.00  0.00     0.121 S 
HETATM   21  O1  UNL     1      29.173  50.348   8.668  1.00  0.00    -0.227 OA
BRANCH  20  22
HETATM   22  N4  UNL     1      27.768  48.163   8.680  1.00  0.00    -0.344 N 
ATOM     23  H42 UNL     1      27.635  47.690   9.573  1.00  0.00     0.167 HD
ATOM     24  H41 UNL     1      27.033  48.236   7.977  1.00  0.00     0.167 HD
ENDBRANCH  20  22
BRANCH  20  25
HETATM   25  N5  UNL     1      30.391  48.263   9.167  1.00  0.00    -0.242 N 
HETATM   26 CL1  UNL     1      31.425  49.413   9.967  1.00  0.00     0.020 Cl
ATOM     27  H5  UNL     1      30.517  47.256   9.265  1.00  0.00     0.192 HD
ENDBRANCH  20  25
ENDBRANCH  19  20
ENDBRANCH   4  19
BRANCH   5  28
HETATM   28  C6  UNL     1      29.646  48.154   3.660  1.00  0.00     0.472 C 
HETATM   29  F1  UNL     1      28.374  48.717   3.773  1.00  0.00    -0.190 F 
HETATM   30  F2  UNL     1      30.631  49.092   3.789  1.00  0.00    -0.190 F 
ENDBRANCH   5  28
TORSDOF 9
ENDMDL
MODEL 4
REMARK VINA RESULT: -6.686850840      1.148      1.269
REMARK  9 active torsions:
REMARK  status: ('A' for Active; 'I' for Inactive)
REMARK    1  A    between atoms: C2_2  and  N1_3 
REMARK    2  A    between atoms: C2_2  and  N2_7 
REMARK    3  A    between atoms: C2_2  and  C7_27 
REMARK    4  A    between atoms: N2_7  and  C3_9 
REMARK    5  A    between atoms: C4_12  and  C5_13 
REMARK    6  A    between atoms: C5_13  and  S1_14 
REMARK    7  A    between atoms: S1_14  and  N4_15 
REMARK    8  A    between atoms: S1_14  and  N5_19 
REMARK    9  A    between atoms: N6_22  and  C6_23 
ROOT
HETATM    1  C3  UNL     1      28.007  46.935   7.491  1.00  0.00     0.164 A 
HETATM    2  N3  UNL     1      28.275  45.793   6.860  1.00  0.00    -0.324 N 
ATOM      3  H3  UNL     1      28.373  45.760   5.846  1.00  0.00     0.169 HD
HETATM    4  C4  UNL     1      28.407  44.709   7.596  1.00  0.00     0.110 A 
HETATM    5  N6  UNL     1      28.269  44.812   8.908  1.00  0.00    -0.244 N 
HETATM    6  S2  UNL     1      27.946  46.457   9.124  1.00  0.00     0.031 SA
ENDROOT
BRANCH   1   7
HETATM    7  N2  UNL     1      27.837  48.126   6.952  1.00  0.00    -0.330 N 
ATOM      8  H2  UNL     1      26.895  48.482   6.794  1.00  0.00     0.164 HD
BRANCH   7   9
HETATM    9  C2  UNL     1      28.966  48.918   6.587  1.00  0.00     0.291 C 
HETATM   10  C1  UNL     1      30.099  48.631   7.576  1.00  0.00     0.081 C 
BRANCH   9  11
HETATM   11  N1  UNL     1      28.736  50.337   6.617  1.00  0.00    -0.044 N 
ATOM     12  H13 UNL     1      27.747  50.584   6.575  1.00  0.00     0.277 HD
ATOM     13  H12 UNL     1      28.935  50.757   7.524  1.00  0.00     0.277 HD
ATOM     14  H11 UNL     1      29.283  50.742   5.858  1.00  0.00     0.277 HD
ENDBRANCH   9  11
BRANCH   9  15
HETATM   15  C7  UNL     1      29.514  48.530   5.213  1.00  0.00     0.438 C 
HETATM   16  F3  UNL     1      30.373  47.458   5.313  1.00  0.00    -0.166 F 
HETATM   17  F4  UNL     1      30.209  49.564   4.648  1.00  0.00    -0.166 F 
HETATM   18  F5  UNL     1      28.463  48.211   4.412  1.00  0.00    -0.166 F 
ENDBRANCH   9  15
ENDBRANCH   7   9
ENDBRANCH   1   7
BRANCH   4  19
HETATM   19  C5  UNL     1      28.717  43.367   6.972  1.00  0.00     0.217 C 
BRANCH  19  20
HETATM   20  S1  UNL     1      30.406  43.170   6.581  1.00  0.00     0.121 S 
HETATM   21  O1  UNL     1      31.173  44.171   7.425  1.00  0.00    -0.227 OA
BRANCH  20  22
HETATM   22  N4  UNL     1      31.063  41.636   6.874  1.00  0.00    -0.344 N 
ATOM     23  H42 UNL     1      30.821  41.111   7.715  1.00  0.00     0.167 HD
ATOM     24  H41 UNL     1      31.705  41.281   6.165  1.00  0.00     0.167 HD
ENDBRANCH  20  22
BRANCH  20  25
HETATM   25  N5  UNL     1      30.663  43.578   5.087  1.00  0.00    -0.242 N 
HETATM   26 CL1  UNL     1      29.472  44.638   4.386  1.00  0.00     0.020 Cl
ATOM     27  H5  UNL     1      31.471  43.245   4.563  1.00  0.00     0.192 HD
ENDBRANCH  20  25
ENDBRANCH  19  20
ENDBRANCH   4  19
BRANCH   5  28
HETATM   28  C6  UNL     1      28.372  43.758   9.941  1.00  0.00     0.472 C 
HETATM   29  F1  UNL     1      29.720  43.420  10.072  1.00  0.00    -0.190 F 
HETATM   30  F2  UNL     1      27.862  44.275  11.099  1.00  0.00    -0.190 F 
ENDBRANCH   5  28
TORSDOF 9
ENDMDL
MODEL 5
REMARK VINA RESULT: -6.683267102      2.930      6.227
REMARK  9 active torsions:
REMARK  status: ('A' for Active; 'I' for Inactive)
REMARK    1  A    between atoms: C2_2  and  N1_3 
REMARK    2  A    between atoms: C2_2  and  N2_7 
REMARK    3  A    between atoms: C2_2  and  C7_27 
REMARK    4  A    between atoms: N2_7  and  C3_9 
REMARK    5  A    between atoms: C4_12  and  C5_13 
REMARK    6  A    between atoms: C5_13  and  S1_14 
REMARK    7  A    between atoms: S1_14  and  N4_15 
REMARK    8  A    between atoms: S1_14  and  N5_19 
REMARK    9  A    between atoms: N6_22  and  C6_23 
ROOT
HETATM    1  C3  UNL     1      28.443  44.280   7.091  1.00  0.00     0.164 A 
HETATM    2  N3  UNL     1      28.124  45.542   7.369  1.00  0.00    -0.324 N 
ATOM      3  H3  UNL     1      27.554  45.777   8.182  1.00  0.00     0.169 HD
HETATM    4  C4  UNL     1      28.571  46.475   6.555  1.00  0.00     0.110 A 
HETATM    5  N6  UNL     1      29.307  46.112   5.517  1.00  0.00    -0.244 N 
HETATM    6  S2  UNL     1      29.376  44.431   5.675  1.00  0.00     0.031 SA
ENDROOT
BRANCH   1   7
HETATM    7  N2  UNL     1      28.103  43.201   7.768  1.00  0.00    -0.330 N 
ATOM      8  H2  UNL     1      27.493  42.504   7.341  1.00  0.00     0.164 HD
BRANCH   7   9
HETATM    9  C2  UNL     1      28.583  43.004   9.097  1.00  0.00     0.291 C 
HETATM   10  C1  UNL     1      28.190  41.596   9.551  1.00  0.00     0.081 C 
BRANCH   9  11
HETATM   11  N1  UNL     1      28.051  43.920  10.068  1.00  0.00    -0.044 N 
ATOM     12  H13 UNL     1      27.653  43.454  10.883  1.00  0.00     0.277 HD
ATOM     13  H12 UNL     1      28.772  44.448  10.560  1.00  0.00     0.277 HD
ATOM     14  H11 UNL     1      27.382  44.515   9.579  1.00  0.00     0.277 HD
ENDBRANCH   9  11
BRANCH   9  15
HETATM   15  C7  UNL     1      30.112  43.043   9.161  1.00  0.00     0.438 C 
HETATM   16  F3  UNL     1      30.571  44.341   9.108  1.00  0.00    -0.166 F 
HETATM   17  F4  UNL     1      30.667  42.364   8.111  1.00  0.00    -0.166 F 
HETATM   18  F5  UNL     1      30.502  42.457  10.325  1.00  0.00    -0.166 F 
ENDBRANCH   9  15
ENDBRANCH   7   9
ENDBRANCH   1   7
BRANCH   4  19
HETATM   19  C5  UNL     1      28.266  47.938   6.791  1.00  0.00     0.217 C 
BRANCH  19  20
HETATM   20  S1  UNL     1      29.490  48.746   7.737  1.00  0.00     0.121 S 
HETATM   21  O1  UNL     1      28.795  49.863   8.494  1.00  0.00    -0.227 OA
BRANCH  20  22
HETATM   22  N4  UNL     1      30.309  47.787   8.869  1.00  0.00    -0.344 N 
ATOM     23  H42 UNL     1      30.128  46.785   8.940  1.00  0.00     0.167 HD
ATOM     24  H41 UNL     1      30.983  48.270   9.461  1.00  0.00     0.167 HD
ENDBRANCH  20  22
BRANCH  20  25
HETATM   25  N5  UNL     1      30.526  49.446   6.789  1.00  0.00    -0.242 N 
HETATM   26 CL1  UNL     1      29.872  50.082   5.305  1.00  0.00     0.020 Cl
ATOM     27  H5  UNL     1      31.515  49.523   7.026  1.00  0.00     0.192 HD
ENDBRANCH  20  25
ENDBRANCH  19  20
ENDBRANCH   4  19
BRANCH   5  28
HETATM   28  C6  UNL     1      29.923  46.958   4.471  1.00  0.00     0.472 C 
HETATM   29  F1  UNL     1      30.660  46.124   3.629  1.00  0.00    -0.190 F 
HETATM   30  F2  UNL     1      28.906  47.583   3.805  1.00  0.00    -0.190 F 
ENDBRANCH   5  28
TORSDOF 9
ENDMDL
