MODEL 1
REMARK VINA RESULT: -6.921105223      0.000      0.000
REMARK  4 active torsions:
REMARK  status: ('A' for Active; 'I' for Inactive)
REMARK       I    between atoms: N2_3  and  C2_5 
REMARK       I    between atoms: C2_5  and  N3_6 
REMARK       I    between atoms: C2_5  and  N5_15 
REMARK    1  A    between atoms: N3_6  and  N4_8 
REMARK       I    between atoms: N4_8  and  C3_10 
REMARK    2  A    between atoms: C3_10  and  C4_12 
REMARK       I    between atoms: N5_15  and  C5_17 
REMARK    3  A    between atoms: C5_17  and  C6_19 
REMARK    4  A    between atoms: C8_25  and  C9_26 
ROOT
HETATM    1  N1  UNL     1      29.205  50.696   6.351  1.00  0.00    -0.171 NA
HETATM    2  C1  UNL     1      29.167  49.547   6.621  1.00  0.00     0.196 C 
HETATM    3  N2  UNL     1      29.104  48.216   6.906  1.00  0.00    -0.124 N 
ATOM      4  H2  UNL     1      28.600  47.571   6.296  1.00  0.00     0.197 HD
HETATM    5  C2  UNL     1      29.740  47.769   8.041  1.00  0.00     0.708 C 
HETATM    6  N3  UNL     1      30.382  48.740   8.776  1.00  0.00    -0.129 N 
ATOM      7  H3  UNL     1      30.347  49.679   8.380  1.00  0.00     0.205 HD
HETATM    8  N5  UNL     1      29.566  46.400   8.157  1.00  0.00    -0.152 N 
ATOM      9  H5  UNL     1      29.021  45.977   7.405  1.00  0.00     0.187 HD
HETATM   10  C5  UNL     1      30.008  45.501   9.123  1.00  0.00     0.288 C 
HETATM   11  O2  UNL     1      30.664  45.777  10.107  1.00  0.00    -0.265 OA
ENDROOT
BRANCH   6  12
HETATM   12  N4  UNL     1      31.063  48.629   9.968  1.00  0.00    -0.253 N 
HETATM   13  C3  UNL     1      32.323  49.273  10.182  1.00  0.00     0.269 C 
HETATM   14  O1  UNL     1      32.828  49.956   9.264  1.00  0.00    -0.269 OA
ATOM     15  H4  UNL     1      30.659  48.071  10.720  1.00  0.00     0.190 HD
BRANCH  13  16
HETATM   16  C4  UNL     1      33.023  49.144  11.467  1.00  0.00     0.271 C 
HETATM   17 CL1  UNL     1      31.958  49.829  12.720  1.00  0.00    -0.098 Cl
HETATM   18 CL2  UNL     1      34.625  49.889  11.473  1.00  0.00    -0.098 Cl
ENDBRANCH  13  16
ENDBRANCH   6  12
BRANCH  10  19
HETATM   19  C6  UNL     1      29.654  44.043   8.953  1.00  0.00     0.133 A 
HETATM   20  N6  UNL     1      29.372  43.221   9.967  1.00  0.00    -0.295 N 
HETATM   21  N7  UNL     1      29.067  42.027   9.556  1.00  0.00    -0.310 N 
ATOM     22  H6  UNL     1      29.395  43.497  10.949  1.00  0.00     0.187 HD
HETATM   23  C7  UNL     1      29.144  42.044   8.215  1.00  0.00     0.126 A 
ATOM     24  H7  UNL     1      28.816  41.230  10.140  1.00  0.00     0.186 HD
HETATM   25  C8  UNL     1      29.523  43.337   7.797  1.00  0.00     0.098 A 
BRANCH  25  26
HETATM   26  C9  UNL     1      29.724  43.773   6.404  1.00  0.00     0.421 C 
HETATM   27  F1  UNL     1      29.577  42.624   5.601  1.00  0.00    -0.166 F 
HETATM   28  F2  UNL     1      30.978  44.307   6.187  1.00  0.00    -0.166 F 
HETATM   29  F3  UNL     1      28.754  44.686   6.065  1.00  0.00    -0.166 F 
ENDBRANCH  25  26
ENDBRANCH  10  19
TORSDOF 4
ENDMDL
MODEL 2
REMARK VINA RESULT: -6.510128709      3.347      5.685
REMARK  4 active torsions:
REMARK  status: ('A' for Active; 'I' for Inactive)
REMARK       I    between atoms: N2_3  and  C2_5 
REMARK       I    between atoms: C2_5  and  N3_6 
REMARK       I    between atoms: C2_5  and  N5_15 
REMARK    1  A    between atoms: N3_6  and  N4_8 
REMARK       I    between atoms: N4_8  and  C3_10 
REMARK    2  A    between atoms: C3_10  and  C4_12 
REMARK       I    between atoms: N5_15  and  C5_17 
REMARK    3  A    between atoms: C5_17  and  C6_19 
REMARK    4  A    between atoms: C8_25  and  C9_26 
ROOT
HETATM    1  N1  UNL     1      32.541  48.866  12.136  1.00  0.00    -0.171 NA
HETATM    2  C1  UNL     1      32.122  48.977  11.037  1.00  0.00     0.196 C 
HETATM    3  N2  UNL     1      31.656  49.134   9.766  1.00  0.00    -0.124 N 
ATOM      4  H2  UNL     1      31.939  49.933   9.198  1.00  0.00     0.197 HD
HETATM    5  C2  UNL     1      30.793  48.182   9.274  1.00  0.00     0.708 C 
HETATM    6  N3  UNL     1      30.493  47.156  10.142  1.00  0.00    -0.129 N 
ATOM      7  H3  UNL     1      30.971  47.194  11.042  1.00  0.00     0.205 HD
HETATM    8  N5  UNL     1      30.436  48.513   7.977  1.00  0.00    -0.152 N 
ATOM      9  H5  UNL     1      30.863  49.369   7.626  1.00  0.00     0.187 HD
HETATM   10  C5  UNL     1      29.594  47.875   7.071  1.00  0.00     0.288 C 
HETATM   11  O2  UNL     1      28.976  46.849   7.272  1.00  0.00    -0.265 OA
ENDROOT
BRANCH   6  12
HETATM   12  N4  UNL     1      29.641  46.087   9.972  1.00  0.00    -0.253 N 
HETATM   13  C3  UNL     1      29.986  44.969   9.148  1.00  0.00     0.269 C 
HETATM   14  O1  UNL     1      31.088  44.956   8.559  1.00  0.00    -0.269 OA
ATOM     15  H4  UNL     1      28.739  46.093  10.447  1.00  0.00     0.190 HD
BRANCH  13  16
HETATM   16  C4  UNL     1      29.061  43.838   8.993  1.00  0.00     0.271 C 
HETATM   17 CL1  UNL     1      29.849  42.409   9.709  1.00  0.00    -0.098 Cl
HETATM   18 CL2  UNL     1      28.565  43.560   7.320  1.00  0.00    -0.098 Cl
ENDBRANCH  13  16
ENDBRANCH   6  12
BRANCH  10  19
HETATM   19  C6  UNL     1      29.419  48.495   5.705  1.00  0.00     0.133 A 
HETATM   20  N6  UNL     1      29.087  49.773   5.504  1.00  0.00    -0.295 N 
HETATM   21  N7  UNL     1      29.033  50.068   4.241  1.00  0.00    -0.310 N 
ATOM     22  H6  UNL     1      28.898  50.438   6.254  1.00  0.00     0.187 HD
HETATM   23  C7  UNL     1      29.339  48.949   3.564  1.00  0.00     0.126 A 
ATOM     24  H7  UNL     1      28.801  50.977   3.839  1.00  0.00     0.186 HD
HETATM   25  C8  UNL     1      29.593  47.914   4.488  1.00  0.00     0.098 A 
BRANCH  25  26
HETATM   26  C9  UNL     1      29.959  46.526   4.155  1.00  0.00     0.421 C 
HETATM   27  F1  UNL     1      30.735  46.589   2.979  1.00  0.00    -0.166 F 
HETATM   28  F2  UNL     1      28.859  45.727   3.915  1.00  0.00    -0.166 F 
HETATM   29  F3  UNL     1      30.720  45.996   5.169  1.00  0.00    -0.166 F 
ENDBRANCH  25  26
ENDBRANCH  10  19
TORSDOF 4
ENDMDL
MODEL 3
REMARK VINA RESULT: -6.375730747      2.986      3.940
REMARK  4 active torsions:
REMARK  status: ('A' for Active; 'I' for Inactive)
REMARK       I    between atoms: N2_3  and  C2_5 
REMARK       I    between atoms: C2_5  and  N3_6 
REMARK       I    between atoms: C2_5  and  N5_15 
REMARK    1  A    between atoms: N3_6  and  N4_8 
REMARK       I    between atoms: N4_8  and  C3_10 
REMARK    2  A    between atoms: C3_10  and  C4_12 
REMARK       I    between atoms: N5_15  and  C5_17 
REMARK    3  A    between atoms: C5_17  and  C6_19 
REMARK    4  A    between atoms: C8_25  and  C9_26 
ROOT
HETATM    1  N1  UNL     1      32.815  50.449  10.999  1.00  0.00    -0.171 NA
HETATM    2  C1  UNL     1      32.243  49.424  10.865  1.00  0.00     0.196 C 
HETATM    3  N2  UNL     1      31.593  48.233  10.741  1.00  0.00    -0.124 N 
ATOM      4  H2  UNL     1      31.573  47.563  11.510  1.00  0.00     0.197 HD
HETATM    5  C2  UNL     1      30.964  47.963   9.547  1.00  0.00     0.708 C 
HETATM    6  N3  UNL     1      31.067  48.950   8.593  1.00  0.00    -0.129 N 
ATOM      7  H3  UNL     1      31.567  49.789   8.887  1.00  0.00     0.205 HD
HETATM    8  N5  UNL     1      30.363  46.717   9.616  1.00  0.00    -0.152 N 
ATOM      9  H5  UNL     1      30.482  46.238  10.509  1.00  0.00     0.187 HD
HETATM   10  C5  UNL     1      29.622  46.007   8.676  1.00  0.00     0.288 C 
HETATM   11  O2  UNL     1      29.359  46.376   7.549  1.00  0.00    -0.265 OA
ENDROOT
BRANCH   6  12
HETATM   12  N4  UNL     1      30.595  48.969   7.299  1.00  0.00    -0.253 N 
HETATM   13  C3  UNL     1      29.396  49.665   6.942  1.00  0.00     0.269 C 
HETATM   14  O1  UNL     1      28.751  50.272   7.824  1.00  0.00    -0.269 OA
ATOM     15  H4  UNL     1      31.114  48.473   6.574  1.00  0.00     0.190 HD
BRANCH  13  16
HETATM   16  C4  UNL     1      28.921  49.676   5.552  1.00  0.00     0.271 C 
HETATM   17 CL1  UNL     1      28.356  48.029   5.174  1.00  0.00    -0.098 Cl
HETATM   18 CL2  UNL     1      30.131  50.248   4.399  1.00  0.00    -0.098 Cl
ENDBRANCH  13  16
ENDBRANCH   6  12
BRANCH  10  19
HETATM   19  C6  UNL     1      29.083  44.653   9.070  1.00  0.00     0.133 A 
HETATM   20  N6  UNL     1      28.348  44.433  10.164  1.00  0.00    -0.295 N 
HETATM   21  N7  UNL     1      27.979  43.192  10.261  1.00  0.00    -0.310 N 
ATOM     22  H6  UNL     1      28.106  45.155  10.843  1.00  0.00     0.187 HD
HETATM   23  C7  UNL     1      28.483  42.550   9.194  1.00  0.00     0.126 A 
ATOM     24  H7  UNL     1      27.415  42.783  11.005  1.00  0.00     0.186 HD
HETATM   25  C8  UNL     1      29.204  43.473   8.406  1.00  0.00     0.098 A 
BRANCH  25  26
HETATM   26  C9  UNL     1      29.914  43.171   7.151  1.00  0.00     0.421 C 
HETATM   27  F1  UNL     1      30.436  41.868   7.291  1.00  0.00    -0.166 F 
HETATM   28  F2  UNL     1      30.958  44.040   6.906  1.00  0.00    -0.166 F 
HETATM   29  F3  UNL     1      29.024  43.189   6.104  1.00  0.00    -0.166 F 
ENDBRANCH  25  26
ENDBRANCH  10  19
TORSDOF 4
ENDMDL
MODEL 4
REMARK VINA RESULT: -6.314889460      1.963      2.171
REMARK  4 active torsions:
REMARK  status: ('A' for Active; 'I' for Inactive)
REMARK       I    between atoms: N2_3  and  C2_5 
REMARK       I    between atoms: C2_5  and  N3_6 
REMARK       I    between atoms: C2_5  and  N5_15 
REMARK    1  A    between atoms: N3_6  and  N4_8 
REMARK       I    between atoms: N4_8  and  C3_10 
REMARK    2  A    between atoms: C3_10  and  C4_12 
REMARK       I    between atoms: N5_15  and  C5_17 
REMARK    3  A    between atoms: C5_17  and  C6_19 
REMARK    4  A    between atoms: C8_25  and  C9_26 
ROOT
HETATM    1  N1  UNL     1      28.971  51.065   6.261  1.00  0.00    -0.171 NA
HETATM    2  C1  UNL     1      29.102  49.894   6.354  1.00  0.00     0.196 C 
HETATM    3  N2  UNL     1      29.237  48.541   6.431  1.00  0.00    -0.124 N 
ATOM      4  H2  UNL     1      28.899  47.935   5.683  1.00  0.00     0.197 HD
HETATM    5  C2  UNL     1      29.844  48.017   7.550  1.00  0.00     0.708 C 
HETATM    6  N3  UNL     1      30.253  48.942   8.484  1.00  0.00    -0.129 N 
ATOM      7  H3  UNL     1      30.096  49.916   8.228  1.00  0.00     0.205 HD
HETATM    8  N5  UNL     1      29.890  46.636   7.443  1.00  0.00    -0.152 N 
ATOM      9  H5  UNL     1      29.486  46.265   6.583  1.00  0.00     0.187 HD
HETATM   10  C5  UNL     1      30.395  45.670   8.308  1.00  0.00     0.288 C 
HETATM   11  O2  UNL     1      30.914  45.879   9.386  1.00  0.00    -0.265 OA
ENDROOT
BRANCH   6  12
HETATM   12  N4  UNL     1      30.844  48.743   9.712  1.00  0.00    -0.253 N 
HETATM   13  C3  UNL     1      32.122  49.300  10.035  1.00  0.00     0.269 C 
HETATM   14  O1  UNL     1      32.728  49.985   9.183  1.00  0.00    -0.269 OA
ATOM     15  H4  UNL     1      30.357  48.182  10.411  1.00  0.00     0.190 HD
BRANCH  13  16
HETATM   16  C4  UNL     1      32.724  49.079  11.357  1.00  0.00     0.271 C 
HETATM   17 CL1  UNL     1      31.785  50.034  12.532  1.00  0.00    -0.098 Cl
HETATM   18 CL2  UNL     1      34.449  49.455  11.416  1.00  0.00    -0.098 Cl
ENDBRANCH  13  16
ENDBRANCH   6  12
BRANCH  10  19
HETATM   19  C6  UNL     1      30.303  44.222   7.888  1.00  0.00     0.133 A 
HETATM   20  N6  UNL     1      30.950  43.709   6.838  1.00  0.00    -0.295 N 
HETATM   21  N7  UNL     1      30.733  42.435   6.709  1.00  0.00    -0.310 N 
ATOM     22  H6  UNL     1      31.544  44.253   6.212  1.00  0.00     0.187 HD
HETATM   23  C7  UNL     1      29.909  42.075   7.707  1.00  0.00     0.126 A 
ATOM     24  H7  UNL     1      31.114  41.824   5.986  1.00  0.00     0.186 HD
HETATM   25  C8  UNL     1      29.615  43.214   8.487  1.00  0.00     0.098 A 
BRANCH  25  26
HETATM   26  C9  UNL     1      28.744  43.249   9.674  1.00  0.00     0.421 C 
HETATM   27  F1  UNL     1      27.867  42.151   9.559  1.00  0.00    -0.166 F 
HETATM   28  F2  UNL     1      27.995  44.405   9.754  1.00  0.00    -0.166 F 
HETATM   29  F3  UNL     1      29.507  43.098  10.807  1.00  0.00    -0.166 F 
ENDBRANCH  25  26
ENDBRANCH  10  19
TORSDOF 4
ENDMDL
MODEL 5
REMARK VINA RESULT: -5.155647311      3.486      4.411
REMARK  4 active torsions:
REMARK  status: ('A' for Active; 'I' for Inactive)
REMARK       I    between atoms: N2_3  and  C2_5 
REMARK       I    between atoms: C2_5  and  N3_6 
REMARK       I    between atoms: C2_5  and  N5_15 
REMARK    1  A    between atoms: N3_6  and  N4_8 
REMARK       I    between atoms: N4_8  and  C3_10 
REMARK    2  A    between atoms: C3_10  and  C4_12 
REMARK       I    between atoms: N5_15  and  C5_17 
REMARK    3  A    between atoms: C5_17  and  C6_19 
REMARK    4  A    between atoms: C8_25  and  C9_26 
ROOT
HETATM    1  N1  UNL     1      32.091  50.086  11.463  1.00  0.00    -0.171 NA
HETATM    2  C1  UNL     1      31.882  49.019  11.000  1.00  0.00     0.196 C 
HETATM    3  N2  UNL     1      31.662  47.775  10.490  1.00  0.00    -0.124 N 
ATOM      4  H2  UNL     1      32.118  46.955  10.889  1.00  0.00     0.197 HD
HETATM    5  C2  UNL     1      30.807  47.660   9.418  1.00  0.00     0.708 C 
HETATM    6  N3  UNL     1      30.258  48.843   8.975  1.00  0.00    -0.129 N 
ATOM      7  H3  UNL     1      30.517  49.670   9.512  1.00  0.00     0.205 HD
HETATM    8  N5  UNL     1      30.711  46.329   9.047  1.00  0.00    -0.152 N 
ATOM      9  H5  UNL     1      31.267  45.691   9.615  1.00  0.00     0.187 HD
HETATM   10  C5  UNL     1      29.985  45.714   8.031  1.00  0.00     0.288 C 
HETATM   11  O2  UNL     1      29.262  46.274   7.232  1.00  0.00    -0.265 OA
ENDROOT
BRANCH   6  12
HETATM   12  N4  UNL     1      29.411  49.071   7.913  1.00  0.00    -0.253 N 
HETATM   13  C3  UNL     1      29.903  49.429   6.617  1.00  0.00     0.269 C 
HETATM   14  O1  UNL     1      31.134  49.543   6.437  1.00  0.00    -0.269 OA
ATOM     15  H4  UNL     1      28.405  48.983   8.054  1.00  0.00     0.190 HD
BRANCH  13  16
HETATM   16  C4  UNL     1      28.976  49.658   5.500  1.00  0.00     0.271 C 
HETATM   17 CL1  UNL     1      28.058  48.150   5.258  1.00  0.00    -0.098 Cl
HETATM   18 CL2  UNL     1      29.777  50.197   4.021  1.00  0.00    -0.098 Cl
ENDBRANCH  13  16
ENDBRANCH   6  12
BRANCH  10  19
HETATM   19  C6  UNL     1      30.087  44.214   7.892  1.00  0.00     0.133 A 
HETATM   20  N6  UNL     1      30.791  43.600   6.937  1.00  0.00    -0.295 N 
HETATM   21  N7  UNL     1      30.748  42.308   7.055  1.00  0.00    -0.310 N 
ATOM     22  H6  UNL     1      31.303  44.089   6.202  1.00  0.00     0.187 HD
HETATM   23  C7  UNL     1      29.987  42.039   8.129  1.00  0.00     0.126 A 
ATOM     24  H7  UNL     1      31.204  41.627   6.448  1.00  0.00     0.186 HD
HETATM   25  C8  UNL     1      29.545  43.256   8.690  1.00  0.00     0.098 A 
BRANCH  25  26
HETATM   26  C9  UNL     1      28.684  43.400   9.877  1.00  0.00     0.421 C 
HETATM   27  F1  UNL     1      27.746  42.348   9.820  1.00  0.00    -0.166 F 
HETATM   28  F2  UNL     1      28.002  44.599   9.899  1.00  0.00    -0.166 F 
HETATM   29  F3  UNL     1      29.444  43.264  11.014  1.00  0.00    -0.166 F 
ENDBRANCH  25  26
ENDBRANCH  10  19
TORSDOF 4
ENDMDL
