MODEL 1
REMARK VINA RESULT: -6.829024697      0.000      0.000
REMARK  7 active torsions:
REMARK  status: ('A' for Active; 'I' for Inactive)
REMARK    1  A    between atoms: N1_1  and  C1_4 
REMARK    2  A    between atoms: C2_7  and  C3_8 
REMARK    3  A    between atoms: C3_8  and  O1_9 
REMARK    4  A    between atoms: C3_8  and  C4_11 
REMARK    5  A    between atoms: C3_8  and  C9_21 
REMARK    6  A    between atoms: N3_18  and  O2_19 
REMARK    7  A    between atoms: C10_27  and  N5_28 
ROOT
HETATM    1  C3  UNL     1      29.850  44.547   6.619  1.00  0.00     0.260 C 
ENDROOT
BRANCH   1   2
HETATM    2  C2  UNL     1      29.678  43.704   7.812  1.00  0.00     0.163 A 
HETATM    3  N2  UNL     1      30.734  43.512   8.609  1.00  0.00    -0.176 N 
HETATM    4  C1  UNL     1      30.660  42.749   9.721  1.00  0.00     0.691 A 
ATOM      5  H2  UNL     1      31.622  43.956   8.371  1.00  0.00     0.185 HD
HETATM    6  N6  UNL     1      29.509  42.173  10.030  1.00  0.00    -0.023 N 
HETATM    7  C10 UNL     1      28.428  42.350   9.246  1.00  0.00     0.691 A 
ATOM      8  H6  UNL     1      29.440  41.594  10.866  1.00  0.00     0.203 HD
HETATM    9  N4  UNL     1      28.522  43.128   8.124  1.00  0.00    -0.176 N 
ATOM     10  H4  UNL     1      27.705  43.266   7.528  1.00  0.00     0.185 HD
BRANCH   4  11
HETATM   11  N1  UNL     1      31.685  42.580  10.466  1.00  0.00    -0.234 N 
ATOM     12  H12 UNL     1      32.495  42.069  10.117  1.00  0.00     0.174 HD
ATOM     13  H11 UNL     1      31.705  42.953  11.416  1.00  0.00     0.174 HD
ENDBRANCH   4  11
BRANCH   7  14
HETATM   14  N5  UNL     1      27.284  41.817   9.494  1.00  0.00    -0.234 N 
ATOM     15  H52 UNL     1      26.398  42.289   9.312  1.00  0.00     0.174 HD
ATOM     16  H51 UNL     1      27.286  40.878   9.892  1.00  0.00     0.174 HD
ENDBRANCH   7  14
ENDBRANCH   1   2
BRANCH   1  17
HETATM   17  O1  UNL     1      31.295  44.461   6.395  1.00  0.00    -0.369 OA
ATOM     18  H1  UNL     1      31.456  43.532   6.508  1.00  0.00     0.212 HD
ENDBRANCH   1  17
BRANCH   1  19
HETATM   19  C4  UNL     1      29.597  45.962   6.776  1.00  0.00     0.092 A 
HETATM   20  C5  UNL     1      29.797  46.810   5.673  1.00  0.00     0.057 A 
HETATM   21  C6  UNL     1      29.606  48.152   5.676  1.00  0.00     0.059 A 
HETATM   22 CL1  UNL     1      29.881  49.150   4.240  1.00  0.00    -0.082 Cl
HETATM   23  C7  UNL     1      29.186  48.779   6.822  1.00  0.00     0.073 A 
HETATM   24 CL2  UNL     1      28.920  50.514   6.895  1.00  0.00    -0.081 Cl
HETATM   25  C8  UNL     1      28.985  47.964   7.914  1.00  0.00     0.148 A 
HETATM   26  N3  UNL     1      29.186  46.616   7.877  1.00  0.00    -0.235 N 
BRANCH  26  27
HETATM   27  O2  UNL     1      28.954  45.961   9.039  1.00  0.00    -0.283 OA
ATOM     28  H2  UNL     1      29.394  45.143   9.242  1.00  0.00     0.245 HD
ENDBRANCH  26  27
ENDBRANCH   1  19
BRANCH   1  29
HETATM   29  C9  UNL     1      29.335  43.832   5.415  1.00  0.00     0.431 C 
HETATM   30  F1  UNL     1      29.316  42.464   5.481  1.00  0.00    -0.167 F 
HETATM   31  F2  UNL     1      30.132  44.130   4.293  1.00  0.00    -0.167 F 
HETATM   32  F3  UNL     1      28.073  44.323   5.035  1.00  0.00    -0.167 F 
ENDBRANCH   1  29
TORSDOF 7
ENDMDL
MODEL 2
REMARK VINA RESULT: -6.781534307      0.068      1.657
REMARK  7 active torsions:
REMARK  status: ('A' for Active; 'I' for Inactive)
REMARK    1  A    between atoms: N1_1  and  C1_4 
REMARK    2  A    between atoms: C2_7  and  C3_8 
REMARK    3  A    between atoms: C3_8  and  O1_9 
REMARK    4  A    between atoms: C3_8  and  C4_11 
REMARK    5  A    between atoms: C3_8  and  C9_21 
REMARK    6  A    between atoms: N3_18  and  O2_19 
REMARK    7  A    between atoms: C10_27  and  N5_28 
ROOT
HETATM    1  C3  UNL     1      29.853  44.540   6.615  1.00  0.00     0.260 C 
ENDROOT
BRANCH   1   2
HETATM    2  C2  UNL     1      29.768  43.707   7.825  1.00  0.00     0.163 A 
HETATM    3  N2  UNL     1      28.594  43.138   8.120  1.00  0.00    -0.176 N 
HETATM    4  C1  UNL     1      28.431  42.363   9.215  1.00  0.00     0.691 A 
ATOM      5  H2  UNL     1      27.798  43.294   7.501  1.00  0.00     0.185 HD
HETATM    6  N6  UNL     1      29.464  42.161  10.018  1.00  0.00    -0.023 N 
HETATM    7  C10 UNL     1      30.658  42.721   9.744  1.00  0.00     0.691 A 
ATOM      8  H6  UNL     1      29.354  41.578  10.848  1.00  0.00     0.203 HD
HETATM    9  N4  UNL     1      30.804  43.502   8.630  1.00  0.00    -0.176 N 
ATOM     10  H4  UNL     1      31.708  43.926   8.419  1.00  0.00     0.185 HD
BRANCH   4  11
HETATM   11  N1  UNL     1      27.299  41.831   9.475  1.00  0.00    -0.234 N 
ATOM     12  H12 UNL     1      27.052  41.596  10.437  1.00  0.00     0.174 HD
ATOM     13  H11 UNL     1      26.631  41.636   8.730  1.00  0.00     0.174 HD
ENDBRANCH   4  11
BRANCH   7  14
HETATM   14  N5  UNL     1      31.697  42.560  10.487  1.00  0.00    -0.234 N 
ATOM     15  H52 UNL     1      31.682  42.680  11.499  1.00  0.00     0.174 HD
ATOM     16  H51 UNL     1      32.566  42.300  10.019  1.00  0.00     0.174 HD
ENDBRANCH   7  14
ENDBRANCH   1   2
BRANCH   1  17
HETATM   17  O1  UNL     1      31.278  44.457   6.291  1.00  0.00    -0.369 OA
ATOM     18  H1  UNL     1      31.451  45.325   5.946  1.00  0.00     0.212 HD
ENDBRANCH   1  17
BRANCH   1  19
HETATM   19  C4  UNL     1      29.605  45.955   6.778  1.00  0.00     0.092 A 
HETATM   20  C5  UNL     1      29.798  46.806   5.675  1.00  0.00     0.057 A 
HETATM   21  C6  UNL     1      29.612  48.148   5.682  1.00  0.00     0.059 A 
HETATM   22 CL1  UNL     1      29.878  49.148   4.247  1.00  0.00    -0.082 Cl
HETATM   23  C7  UNL     1      29.203  48.774   6.833  1.00  0.00     0.073 A 
HETATM   24 CL2  UNL     1      28.943  50.509   6.913  1.00  0.00    -0.081 Cl
HETATM   25  C8  UNL     1      29.009  47.956   7.925  1.00  0.00     0.148 A 
HETATM   26  N3  UNL     1      29.206  46.608   7.883  1.00  0.00    -0.235 N 
BRANCH  26  27
HETATM   27  O2  UNL     1      28.981  45.951   9.046  1.00  0.00    -0.283 OA
ATOM     28  H2  UNL     1      28.967  46.410   9.878  1.00  0.00     0.245 HD
ENDBRANCH  26  27
ENDBRANCH   1  19
BRANCH   1  29
HETATM   29  C9  UNL     1      29.257  43.813   5.456  1.00  0.00     0.431 C 
HETATM   30  F1  UNL     1      29.230  42.446   5.545  1.00  0.00    -0.167 F 
HETATM   31  F2  UNL     1      29.985  44.086   4.283  1.00  0.00    -0.167 F 
HETATM   32  F3  UNL     1      27.978  44.310   5.149  1.00  0.00    -0.167 F 
ENDBRANCH   1  29
TORSDOF 7
ENDMDL
MODEL 3
REMARK VINA RESULT: -6.357525964      1.519      2.047
REMARK  7 active torsions:
REMARK  status: ('A' for Active; 'I' for Inactive)
REMARK    1  A    between atoms: N1_1  and  C1_4 
REMARK    2  A    between atoms: C2_7  and  C3_8 
REMARK    3  A    between atoms: C3_8  and  O1_9 
REMARK    4  A    between atoms: C3_8  and  C4_11 
REMARK    5  A    between atoms: C3_8  and  C9_21 
REMARK    6  A    between atoms: N3_18  and  O2_19 
REMARK    7  A    between atoms: C10_27  and  N5_28 
ROOT
HETATM    1  C3  UNL     1      29.885  44.526   6.408  1.00  0.00     0.260 C 
ENDROOT
BRANCH   1   2
HETATM    2  C2  UNL     1      29.861  44.141   7.828  1.00  0.00     0.163 A 
HETATM    3  N2  UNL     1      30.842  43.357   8.286  1.00  0.00    -0.176 N 
HETATM    4  C1  UNL     1      30.891  42.955   9.575  1.00  0.00     0.691 A 
ATOM      5  H2  UNL     1      31.574  43.053   7.645  1.00  0.00     0.185 HD
HETATM    6  N6  UNL     1      29.940  43.350  10.408  1.00  0.00    -0.023 N 
HETATM    7  C10 UNL     1      28.941  44.141   9.973  1.00  0.00     0.691 A 
ATOM      8  H6  UNL     1      29.965  43.053  11.383  1.00  0.00     0.203 HD
HETATM    9  N4  UNL     1      28.908  44.539   8.664  1.00  0.00    -0.176 N 
ATOM     10  H4  UNL     1      28.154  45.139   8.331  1.00  0.00     0.185 HD
BRANCH   4  11
HETATM   11  N1  UNL     1      31.839  42.205   9.990  1.00  0.00    -0.234 N 
ATOM     12  H12 UNL     1      32.552  42.578  10.616  1.00  0.00     0.174 HD
ATOM     13  H11 UNL     1      31.894  41.228   9.702  1.00  0.00     0.174 HD
ENDBRANCH   4  11
BRANCH   7  14
HETATM   14  N5  UNL     1      27.990  44.556  10.734  1.00  0.00    -0.234 N 
ATOM     15  H52 UNL     1      27.358  45.313  10.475  1.00  0.00     0.174 HD
ATOM     16  H51 UNL     1      27.881  44.091  11.636  1.00  0.00     0.174 HD
ENDBRANCH   7  14
ENDBRANCH   1   2
BRANCH   1  17
HETATM   17  O1  UNL     1      31.235  44.126   6.009  1.00  0.00    -0.369 OA
ATOM     18  H1  UNL     1      31.301  44.500   5.138  1.00  0.00     0.212 HD
ENDBRANCH   1  17
BRANCH   1  19
HETATM   19  C4  UNL     1      29.830  45.940   6.113  1.00  0.00     0.092 A 
HETATM   20  C5  UNL     1      29.562  46.839   7.160  1.00  0.00     0.057 A 
HETATM   21  C6  UNL     1      29.474  48.186   7.031  1.00  0.00     0.059 A 
HETATM   22 CL1  UNL     1      29.134  49.248   8.404  1.00  0.00    -0.082 Cl
HETATM   23  C7  UNL     1      29.653  48.765   5.800  1.00  0.00     0.073 A 
HETATM   24 CL2  UNL     1      29.553  50.503   5.561  1.00  0.00    -0.081 Cl
HETATM   25  C8  UNL     1      29.917  47.900   4.760  1.00  0.00     0.148 A 
HETATM   26  N3  UNL     1      29.998  46.549   4.926  1.00  0.00    -0.235 N 
BRANCH  26  27
HETATM   27  O2  UNL     1      30.253  45.840   3.800  1.00  0.00    -0.283 OA
ATOM     28  H2  UNL     1      29.577  45.685   3.150  1.00  0.00     0.245 HD
ENDBRANCH  26  27
ENDBRANCH   1  19
BRANCH   1  29
HETATM   29  C9  UNL     1      29.061  43.571   5.611  1.00  0.00     0.431 C 
HETATM   30  F1  UNL     1      28.723  42.396   6.228  1.00  0.00    -0.167 F 
HETATM   31  F2  UNL     1      29.751  43.185   4.447  1.00  0.00    -0.167 F 
HETATM   32  F3  UNL     1      27.913  44.200   5.094  1.00  0.00    -0.167 F 
ENDBRANCH   1  29
TORSDOF 7
ENDMDL
MODEL 4
REMARK VINA RESULT: -6.268725007      1.544      2.582
REMARK  7 active torsions:
REMARK  status: ('A' for Active; 'I' for Inactive)
REMARK    1  A    between atoms: N1_1  and  C1_4 
REMARK    2  A    between atoms: C2_7  and  C3_8 
REMARK    3  A    between atoms: C3_8  and  O1_9 
REMARK    4  A    between atoms: C3_8  and  C4_11 
REMARK    5  A    between atoms: C3_8  and  C9_21 
REMARK    6  A    between atoms: N3_18  and  O2_19 
REMARK    7  A    between atoms: C10_27  and  N5_28 
ROOT
HETATM    1  C3  UNL     1      29.919  44.493   6.360  1.00  0.00     0.260 C 
ENDROOT
BRANCH   1   2
HETATM    2  C2  UNL     1      29.950  44.088   7.774  1.00  0.00     0.163 A 
HETATM    3  N2  UNL     1      28.976  44.526   8.578  1.00  0.00    -0.176 N 
HETATM    4  C1  UNL     1      28.935  44.204   9.889  1.00  0.00     0.691 A 
ATOM      5  H2  UNL     1      28.244  45.121   8.191  1.00  0.00     0.185 HD
HETATM    6  N6  UNL     1      29.885  43.432  10.392  1.00  0.00    -0.023 N 
HETATM    7  C10 UNL     1      30.878  42.975   9.604  1.00  0.00     0.691 A 
ATOM      8  H6  UNL     1      29.866  43.182  11.380  1.00  0.00     0.203 HD
HETATM    9  N4  UNL     1      30.903  43.312   8.277  1.00  0.00    -0.176 N 
ATOM     10  H4  UNL     1      31.652  42.966   7.677  1.00  0.00     0.185 HD
BRANCH   4  11
HETATM   11  N1  UNL     1      27.994  44.636  10.638  1.00  0.00    -0.234 N 
ATOM     12  H12 UNL     1      27.718  45.617  10.602  1.00  0.00     0.174 HD
ATOM     13  H11 UNL     1      27.507  44.008  11.279  1.00  0.00     0.174 HD
ENDBRANCH   4  11
BRANCH   7  14
HETATM   14  N5  UNL     1      31.828  42.222  10.034  1.00  0.00    -0.234 N 
ATOM     15  H52 UNL     1      32.359  42.424  10.881  1.00  0.00     0.174 HD
ATOM     16  H51 UNL     1      32.043  41.388   9.487  1.00  0.00     0.174 HD
ENDBRANCH   7  14
ENDBRANCH   1   2
BRANCH   1  17
HETATM   17  O1  UNL     1      31.253  44.100   5.903  1.00  0.00    -0.369 OA
ATOM     18  H1  UNL     1      31.788  44.818   6.220  1.00  0.00     0.212 HD
ENDBRANCH   1  17
BRANCH   1  19
HETATM   19  C4  UNL     1      29.852  45.911   6.087  1.00  0.00     0.092 A 
HETATM   20  C5  UNL     1      29.595  46.793   7.152  1.00  0.00     0.057 A 
HETATM   21  C6  UNL     1      29.498  48.140   7.045  1.00  0.00     0.059 A 
HETATM   22 CL1  UNL     1      29.172  49.180   8.439  1.00  0.00    -0.082 Cl
HETATM   23  C7  UNL     1      29.656  48.740   5.821  1.00  0.00     0.073 A 
HETATM   24 CL2  UNL     1      29.543  50.480   5.610  1.00  0.00    -0.081 Cl
HETATM   25  C8  UNL     1      29.908  47.892   4.764  1.00  0.00     0.148 A 
HETATM   26  N3  UNL     1      29.999  46.539   4.907  1.00  0.00    -0.235 N 
BRANCH  26  27
HETATM   27  O2  UNL     1      30.241  45.849   3.767  1.00  0.00    -0.283 OA
ATOM     28  H2  UNL     1      29.574  45.302   3.370  1.00  0.00     0.245 HD
ENDBRANCH  26  27
ENDBRANCH   1  19
BRANCH   1  29
HETATM   29  C9  UNL     1      29.065  43.549   5.580  1.00  0.00     0.431 C 
HETATM   30  F1  UNL     1      29.523  43.201   4.336  1.00  0.00    -0.167 F 
HETATM   31  F2  UNL     1      27.795  44.112   5.356  1.00  0.00    -0.167 F 
HETATM   32  F3  UNL     1      28.765  42.399   6.332  1.00  0.00    -0.167 F 
ENDBRANCH   1  29
TORSDOF 7
ENDMDL
MODEL 5
REMARK VINA RESULT: -6.141757665      3.925      6.032
REMARK  7 active torsions:
REMARK  status: ('A' for Active; 'I' for Inactive)
REMARK    1  A    between atoms: N1_1  and  C1_4 
REMARK    2  A    between atoms: C2_7  and  C3_8 
REMARK    3  A    between atoms: C3_8  and  O1_9 
REMARK    4  A    between atoms: C3_8  and  C4_11 
REMARK    5  A    between atoms: C3_8  and  C9_21 
REMARK    6  A    between atoms: N3_18  and  O2_19 
REMARK    7  A    between atoms: C10_27  and  N5_28 
ROOT
HETATM    1  C3  UNL     1      29.223  47.441   7.904  1.00  0.00     0.260 C 
ENDROOT
BRANCH   1   2
HETATM    2  C2  UNL     1      29.554  47.540   6.474  1.00  0.00     0.163 A 
HETATM    3  N2  UNL     1      29.746  46.408   5.789  1.00  0.00    -0.176 N 
HETATM    4  C1  UNL     1      30.058  46.413   4.475  1.00  0.00     0.691 A 
ATOM      5  H2  UNL     1      29.654  45.515   6.273  1.00  0.00     0.185 HD
HETATM    6  N6  UNL     1      30.177  47.572   3.847  1.00  0.00    -0.023 N 
HETATM    7  C10 UNL     1      29.988  48.729   4.512  1.00  0.00     0.691 A 
ATOM      8  H6  UNL     1      30.412  47.590   2.855  1.00  0.00     0.203 HD
HETATM    9  N4  UNL     1      29.671  48.704   5.844  1.00  0.00    -0.176 N 
ATOM     10  H4  UNL     1      29.526  49.577   6.351  1.00  0.00     0.185 HD
BRANCH   4  11
HETATM   11  N1  UNL     1      30.237  45.317   3.842  1.00  0.00    -0.234 N 
ATOM     12  H12 UNL     1      30.068  44.424   4.305  1.00  0.00     0.174 HD
ATOM     13  H11 UNL     1      30.548  45.321   2.871  1.00  0.00     0.174 HD
ENDBRANCH   4  11
BRANCH   7  14
HETATM   14  N5  UNL     1      30.090  49.884   3.957  1.00  0.00    -0.234 N 
ATOM     15  H52 UNL     1      30.060  50.759   4.480  1.00  0.00     0.174 HD
ATOM     16  H51 UNL     1      30.207  49.903   2.943  1.00  0.00     0.174 HD
ENDBRANCH   7  14
ENDBRANCH   1   2
BRANCH   1  17
HETATM   17  O1  UNL     1      30.211  48.337   8.506  1.00  0.00    -0.369 OA
ATOM     18  H1  UNL     1      30.876  47.726   8.801  1.00  0.00     0.212 HD
ENDBRANCH   1  17
BRANCH   1  19
HETATM   19  C4  UNL     1      29.461  46.166   8.543  1.00  0.00     0.092 A 
HETATM   20  C5  UNL     1      28.696  45.056   8.143  1.00  0.00     0.057 A 
HETATM   21  C6  UNL     1      28.805  43.806   8.656  1.00  0.00     0.059 A 
HETATM   22 CL1  UNL     1      27.801  42.462   8.094  1.00  0.00    -0.082 Cl
HETATM   23  C7  UNL     1      29.719  43.554   9.647  1.00  0.00     0.073 A 
HETATM   24 CL2  UNL     1      29.913  41.958  10.357  1.00  0.00    -0.081 Cl
HETATM   25  C8  UNL     1      30.479  44.630  10.053  1.00  0.00     0.148 A 
HETATM   26  N3  UNL     1      30.343  45.875   9.515  1.00  0.00    -0.235 N 
BRANCH  26  27
HETATM   27  O2  UNL     1      31.158  46.824  10.033  1.00  0.00    -0.283 OA
ATOM     28  H2  UNL     1      31.586  47.466   9.477  1.00  0.00     0.245 HD
ENDBRANCH  26  27
ENDBRANCH   1  19
BRANCH   1  29
HETATM   29  C9  UNL     1      27.960  48.185   8.185  1.00  0.00     0.431 C 
HETATM   30  F1  UNL     1      27.114  47.622   9.104  1.00  0.00    -0.167 F 
HETATM   31  F2  UNL     1      27.193  48.304   7.011  1.00  0.00    -0.167 F 
HETATM   32  F3  UNL     1      28.225  49.525   8.519  1.00  0.00    -0.167 F 
ENDBRANCH   1  29
TORSDOF 7
ENDMDL
