MODEL 1
REMARK VINA RESULT: -7.809783859      0.000      0.000
REMARK  6 active torsions:
REMARK  status: ('A' for Active; 'I' for Inactive)
REMARK    1  A    between atoms: N1_1  and  C1_4 
REMARK    2  A    between atoms: C3_9  and  N4_10 
REMARK    3  A    between atoms: C8_15  and  N5_16 
REMARK    4  A    between atoms: N5_16  and  C9_18 
REMARK    5  A    between atoms: C9_18  and  C10_19 
REMARK    6  A    between atoms: C10_19  and  N6_20 
ROOT
HETATM    1  C1  UNL     1      22.068  46.324 -15.607  1.00  0.00     0.678 A 
HETATM    2  N2  UNL     1      21.497  46.675 -14.449  1.00  0.00    -0.177 N 
ATOM      3  H2  UNL     1      20.541  46.378 -14.257  1.00  0.00     0.185 HD
HETATM    4  C2  UNL     1      22.150  47.410 -13.536  1.00  0.00     0.162 A 
HETATM    5  N3  UNL     1      21.490  47.770 -12.292  1.00  0.00    -0.080 NA
HETATM    6  C3  UNL     1      23.425  47.806 -13.791  1.00  0.00     0.117 A 
HETATM    7  C8  UNL     1      24.025  47.437 -15.004  1.00  0.00     0.147 A 
HETATM    8  N7  UNL     1      23.344  46.704 -15.896  1.00  0.00    -0.175 N 
ATOM      9  H7  UNL     1      23.776  46.434 -16.779  1.00  0.00     0.186 HD
ENDROOT
BRANCH   7  10
HETATM   10  N5  UNL     1      25.242  47.816 -15.218  1.00  0.00    -0.372 N 
ATOM     11  H5  UNL     1      26.010  47.300 -14.788  1.00  0.00     0.161 HD
BRANCH  10  12
HETATM   12  C9  UNL     1      25.529  48.941 -16.041  1.00  0.00     0.141 C 
BRANCH  12  13
HETATM   13  C10 UNL     1      26.366  48.406 -17.224  1.00  0.00     0.146 C 
BRANCH  13  14
HETATM   14  N6  UNL     1      25.807  48.941 -18.422  1.00  0.00    -0.368 N 
HETATM   15  C11 UNL     1      24.599  49.620 -18.193  1.00  0.00     0.089 C 
HETATM   16  C12 UNL     1      24.238  50.678 -19.186  1.00  0.00     0.212 C 
HETATM   17  O1  UNL     1      25.379  51.355 -19.657  1.00  0.00    -0.381 OA
HETATM   18  C13 UNL     1      26.101  50.406 -20.374  1.00  0.00     0.212 C 
HETATM   19  C14 UNL     1      26.690  49.426 -19.397  1.00  0.00     0.089 C 
ENDBRANCH  13  14
ENDBRANCH  12  13
ENDBRANCH  10  12
ENDBRANCH   7  10
BRANCH   6  20
HETATM   20  N4  UNL     1      24.139  48.586 -12.865  1.00  0.00    -0.375 N 
HETATM   21  C4  UNL     1      24.946  48.041 -11.759  1.00  0.00     0.123 C 
HETATM   22  C5  UNL     1      25.513  49.254 -11.071  1.00  0.00     0.021 C 
HETATM   23  C6  UNL     1      25.599  50.247 -12.237  1.00  0.00     0.021 C 
HETATM   24  C7  UNL     1      24.202  50.040 -12.837  1.00  0.00     0.123 C 
ENDBRANCH   6  20
BRANCH   1  25
HETATM   25  N1  UNL     1      21.454  45.621 -16.495  1.00  0.00    -0.234 N 
ATOM     26  H12 UNL     1      21.034  46.127 -17.274  1.00  0.00     0.174 HD
ATOM     27  H11 UNL     1      21.381  44.606 -16.434  1.00  0.00     0.174 HD
ENDBRANCH   1  25
TORSDOF 6
ENDMDL
MODEL 2
REMARK VINA RESULT: -7.611560862      0.517      1.066
REMARK  6 active torsions:
REMARK  status: ('A' for Active; 'I' for Inactive)
REMARK    1  A    between atoms: N1_1  and  C1_4 
REMARK    2  A    between atoms: C3_9  and  N4_10 
REMARK    3  A    between atoms: C8_15  and  N5_16 
REMARK    4  A    between atoms: N5_16  and  C9_18 
REMARK    5  A    between atoms: C9_18  and  C10_19 
REMARK    6  A    between atoms: C10_19  and  N6_20 
ROOT
HETATM    1  C1  UNL     1      22.030  46.254 -15.528  1.00  0.00     0.678 A 
HETATM    2  N2  UNL     1      21.432  46.689 -14.412  1.00  0.00    -0.177 N 
ATOM      3  H2  UNL     1      20.455  46.448 -14.246  1.00  0.00     0.185 HD
HETATM    4  C2  UNL     1      22.085  47.434 -13.507  1.00  0.00     0.162 A 
HETATM    5  N3  UNL     1      21.396  47.885 -12.309  1.00  0.00    -0.080 NA
HETATM    6  C3  UNL     1      23.388  47.754 -13.727  1.00  0.00     0.117 A 
HETATM    7  C8  UNL     1      24.015  47.298 -14.895  1.00  0.00     0.147 A 
HETATM    8  N7  UNL     1      23.333  46.557 -15.780  1.00  0.00    -0.175 N 
ATOM      9  H7  UNL     1      23.786  46.224 -16.631  1.00  0.00     0.186 HD
ENDROOT
BRANCH   7  10
HETATM   10  N5  UNL     1      25.258  47.606 -15.075  1.00  0.00    -0.372 N 
ATOM     11  H5  UNL     1      25.984  47.003 -14.687  1.00  0.00     0.161 HD
BRANCH  10  12
HETATM   12  C9  UNL     1      25.629  48.771 -15.803  1.00  0.00     0.141 C 
BRANCH  12  13
HETATM   13  C10 UNL     1      25.455  48.417 -17.297  1.00  0.00     0.146 C 
BRANCH  13  14
HETATM   14  N6  UNL     1      25.557  49.631 -18.040  1.00  0.00    -0.368 N 
HETATM   15  C11 UNL     1      26.774  49.733 -18.735  1.00  0.00     0.089 C 
HETATM   16  C12 UNL     1      26.767  50.603 -19.951  1.00  0.00     0.212 C 
HETATM   17  O1  UNL     1      25.540  50.525 -20.635  1.00  0.00    -0.381 OA
HETATM   18  C13 UNL     1      24.602  51.088 -19.774  1.00  0.00     0.212 C 
HETATM   19  C14 UNL     1      24.390  50.139 -18.626  1.00  0.00     0.089 C 
ENDBRANCH  13  14
ENDBRANCH  12  13
ENDBRANCH  10  12
ENDBRANCH   7  10
BRANCH   6  20
HETATM   20  N4  UNL     1      24.103  48.542 -12.808  1.00  0.00    -0.375 N 
HETATM   21  C4  UNL     1      24.874  48.007 -11.672  1.00  0.00     0.123 C 
HETATM   22  C5  UNL     1      25.460  49.225 -11.006  1.00  0.00     0.021 C 
HETATM   23  C6  UNL     1      25.594  50.182 -12.197  1.00  0.00     0.021 C 
HETATM   24  C7  UNL     1      24.204  49.994 -12.819  1.00  0.00     0.123 C 
ENDBRANCH   6  20
BRANCH   1  25
HETATM   25  N1  UNL     1      21.416  45.541 -16.407  1.00  0.00    -0.234 N 
ATOM     26  H12 UNL     1      21.919  44.738 -16.782  1.00  0.00     0.174 HD
ATOM     27  H11 UNL     1      20.471  45.757 -16.724  1.00  0.00     0.174 HD
ENDBRANCH   1  25
TORSDOF 6
ENDMDL
MODEL 3
REMARK VINA RESULT: -6.889353002      2.352      5.724
REMARK  6 active torsions:
REMARK  status: ('A' for Active; 'I' for Inactive)
REMARK    1  A    between atoms: N1_1  and  C1_4 
REMARK    2  A    between atoms: C3_9  and  N4_10 
REMARK    3  A    between atoms: C8_15  and  N5_16 
REMARK    4  A    between atoms: N5_16  and  C9_18 
REMARK    5  A    between atoms: C9_18  and  C10_19 
REMARK    6  A    between atoms: C10_19  and  N6_20 
ROOT
HETATM    1  C1  UNL     1      22.629  47.166 -15.619  1.00  0.00     0.678 A 
HETATM    2  N2  UNL     1      22.266  47.447 -16.876  1.00  0.00    -0.177 N 
ATOM      3  H2  UNL     1      21.392  47.065 -17.238  1.00  0.00     0.185 HD
HETATM    4  C2  UNL     1      23.022  48.217 -17.673  1.00  0.00     0.162 A 
HETATM    5  N3  UNL     1      22.589  48.496 -19.033  1.00  0.00    -0.080 NA
HETATM    6  C3  UNL     1      24.186  48.728 -17.191  1.00  0.00     0.117 A 
HETATM    7  C8  UNL     1      24.567  48.436 -15.874  1.00  0.00     0.147 A 
HETATM    8  N7  UNL     1      23.789  47.661 -15.105  1.00  0.00    -0.175 N 
ATOM      9  H7  UNL     1      24.063  47.445 -14.146  1.00  0.00     0.186 HD
ENDROOT
BRANCH   7  10
HETATM   10  N5  UNL     1      25.672  48.943 -15.436  1.00  0.00    -0.372 N 
ATOM     11  H5  UNL     1      26.178  49.616 -16.013  1.00  0.00     0.161 HD
BRANCH  10  12
HETATM   12  C9  UNL     1      26.196  48.579 -14.163  1.00  0.00     0.141 C 
BRANCH  12  13
HETATM   13  C10 UNL     1      25.906  49.770 -13.223  1.00  0.00     0.146 C 
BRANCH  13  14
HETATM   14  N6  UNL     1      24.921  49.344 -12.283  1.00  0.00    -0.368 N 
HETATM   15  C11 UNL     1      23.649  49.867 -12.567  1.00  0.00     0.089 C 
HETATM   16  C12 UNL     1      22.483  49.078 -12.062  1.00  0.00     0.212 C 
HETATM   17  O1  UNL     1      22.733  47.694 -12.121  1.00  0.00    -0.381 OA
HETATM   18  C13 UNL     1      23.757  47.466 -11.206  1.00  0.00     0.212 C 
HETATM   19  C14 UNL     1      25.027  48.044 -11.768  1.00  0.00     0.089 C 
ENDBRANCH  13  14
ENDBRANCH  12  13
ENDBRANCH  10  12
ENDBRANCH   7  10
BRANCH   6  20
HETATM   20  N4  UNL     1      25.012  49.530 -17.998  1.00  0.00    -0.375 N 
HETATM   21  C4  UNL     1      26.429  49.246 -18.286  1.00  0.00     0.123 C 
HETATM   22  C5  UNL     1      26.864  50.369 -19.191  1.00  0.00     0.021 C 
HETATM   23  C6  UNL     1      25.545  50.711 -19.898  1.00  0.00     0.021 C 
HETATM   24  C7  UNL     1      24.619  50.757 -18.676  1.00  0.00     0.123 C 
ENDBRANCH   6  20
BRANCH   1  25
HETATM   25  N1  UNL     1      21.916  46.427 -14.843  1.00  0.00    -0.234 N 
ATOM     26  H12 UNL     1      21.209  45.840 -15.286  1.00  0.00     0.174 HD
ATOM     27  H11 UNL     1      22.039  46.418 -13.831  1.00  0.00     0.174 HD
ENDBRANCH   1  25
TORSDOF 6
ENDMDL
MODEL 4
REMARK VINA RESULT: -6.814833037      2.978      6.989
REMARK  6 active torsions:
REMARK  status: ('A' for Active; 'I' for Inactive)
REMARK    1  A    between atoms: N1_1  and  C1_4 
REMARK    2  A    between atoms: C3_9  and  N4_10 
REMARK    3  A    between atoms: C8_15  and  N5_16 
REMARK    4  A    between atoms: N5_16  and  C9_18 
REMARK    5  A    between atoms: C9_18  and  C10_19 
REMARK    6  A    between atoms: C10_19  and  N6_20 
ROOT
HETATM    1  C1  UNL     1      26.107  48.988 -17.090  1.00  0.00     0.678 A 
HETATM    2  N2  UNL     1      26.034  49.875 -18.089  1.00  0.00    -0.177 N 
ATOM      3  H2  UNL     1      26.897  50.259 -18.475  1.00  0.00     0.185 HD
HETATM    4  C2  UNL     1      24.857  50.272 -18.596  1.00  0.00     0.162 A 
HETATM    5  N3  UNL     1      24.825  51.238 -19.681  1.00  0.00    -0.080 NA
HETATM    6  C3  UNL     1      23.707  49.759 -18.082  1.00  0.00     0.117 A 
HETATM    7  C8  UNL     1      23.782  48.828 -17.036  1.00  0.00     0.147 A 
HETATM    8  N7  UNL     1      24.975  48.455 -16.552  1.00  0.00    -0.175 N 
ATOM      9  H7  UNL     1      25.034  47.779 -15.790  1.00  0.00     0.186 HD
ENDROOT
BRANCH   7  10
HETATM   10  N5  UNL     1      22.675  48.347 -16.574  1.00  0.00    -0.372 N 
ATOM     11  H5  UNL     1      21.800  48.550 -17.057  1.00  0.00     0.161 HD
BRANCH  10  12
HETATM   12  C9  UNL     1      22.657  47.538 -15.402  1.00  0.00     0.141 C 
BRANCH  12  13
HETATM   13  C10 UNL     1      22.235  48.470 -14.244  1.00  0.00     0.146 C 
BRANCH  13  14
HETATM   14  N6  UNL     1      22.602  47.829 -13.023  1.00  0.00    -0.368 N 
HETATM   15  C11 UNL     1      23.984  47.889 -12.780  1.00  0.00     0.089 C 
HETATM   16  C12 UNL     1      24.406  47.801 -11.348  1.00  0.00     0.212 C 
HETATM   17  O1  UNL     1      23.486  48.445 -10.499  1.00  0.00    -0.381 OA
HETATM   18  C13 UNL     1      22.318  47.694 -10.585  1.00  0.00     0.212 C 
HETATM   19  C14 UNL     1      21.712  47.922 -11.943  1.00  0.00     0.089 C 
ENDBRANCH  13  14
ENDBRANCH  12  13
ENDBRANCH  10  12
ENDBRANCH   7  10
BRANCH   6  20
HETATM   20  N4  UNL     1      22.453  50.157 -18.578  1.00  0.00    -0.375 N 
HETATM   21  C4  UNL     1      21.508  51.026 -17.855  1.00  0.00     0.123 C 
HETATM   22  C5  UNL     1      20.337  51.171 -18.791  1.00  0.00     0.021 C 
HETATM   23  C6  UNL     1      21.024  51.026 -20.155  1.00  0.00     0.021 C 
HETATM   24  C7  UNL     1      21.883  49.788 -19.865  1.00  0.00     0.123 C 
ENDBRANCH   6  20
BRANCH   1  25
HETATM   25  N1  UNL     1      27.228  48.599 -16.591  1.00  0.00    -0.234 N 
ATOM     26  H12 UNL     1      27.794  47.971 -17.162  1.00  0.00     0.174 HD
ATOM     27  H11 UNL     1      27.550  48.896 -15.670  1.00  0.00     0.174 HD
ENDBRANCH   1  25
TORSDOF 6
ENDMDL
MODEL 5
REMARK VINA RESULT: -6.746169433      3.031      6.949
REMARK  6 active torsions:
REMARK  status: ('A' for Active; 'I' for Inactive)
REMARK    1  A    between atoms: N1_1  and  C1_4 
REMARK    2  A    between atoms: C3_9  and  N4_10 
REMARK    3  A    between atoms: C8_15  and  N5_16 
REMARK    4  A    between atoms: N5_16  and  C9_18 
REMARK    5  A    between atoms: C9_18  and  C10_19 
REMARK    6  A    between atoms: C10_19  and  N6_20 
ROOT
HETATM    1  C1  UNL     1      26.136  49.027 -17.039  1.00  0.00     0.678 A 
HETATM    2  N2  UNL     1      26.083  49.870 -18.078  1.00  0.00    -0.177 N 
ATOM      3  H2  UNL     1      26.953  50.230 -18.470  1.00  0.00     0.185 HD
HETATM    4  C2  UNL     1      24.916  50.254 -18.616  1.00  0.00     0.162 A 
HETATM    5  N3  UNL     1      24.905  51.172 -19.742  1.00  0.00    -0.080 NA
HETATM    6  C3  UNL     1      23.755  49.774 -18.094  1.00  0.00     0.117 A 
HETATM    7  C8  UNL     1      23.810  48.890 -17.006  1.00  0.00     0.147 A 
HETATM    8  N7  UNL     1      24.993  48.528 -16.492  1.00  0.00    -0.175 N 
ATOM      9  H7  UNL     1      25.037  47.886 -15.701  1.00  0.00     0.186 HD
ENDROOT
BRANCH   7  10
HETATM   10  N5  UNL     1      22.693  48.439 -16.537  1.00  0.00    -0.372 N 
ATOM     11  H5  UNL     1      22.121  47.820 -17.112  1.00  0.00     0.161 HD
BRANCH  10  12
HETATM   12  C9  UNL     1      22.248  48.790 -15.231  1.00  0.00     0.141 C 
BRANCH  12  13
HETATM   13  C10 UNL     1      22.523  47.560 -14.338  1.00  0.00     0.146 C 
BRANCH  13  14
HETATM   14  N6  UNL     1      22.894  48.042 -13.047  1.00  0.00    -0.368 N 
HETATM   15  C11 UNL     1      21.887  47.840 -12.090  1.00  0.00     0.089 C 
HETATM   16  C12 UNL     1      22.338  47.747 -10.667  1.00  0.00     0.212 C 
HETATM   17  O1  UNL     1      23.585  47.103 -10.562  1.00  0.00    -0.381 OA
HETATM   18  C13 UNL     1      24.494  47.955 -11.182  1.00  0.00     0.212 C 
HETATM   19  C14 UNL     1      24.237  47.917 -12.664  1.00  0.00     0.089 C 
ENDBRANCH  13  14
ENDBRANCH  12  13
ENDBRANCH  10  12
ENDBRANCH   7  10
BRANCH   6  20
HETATM   20  N4  UNL     1      22.511  50.161 -18.621  1.00  0.00    -0.375 N 
HETATM   21  C4  UNL     1      21.583  51.101 -17.968  1.00  0.00     0.123 C 
HETATM   22  C5  UNL     1      20.417  51.201 -18.915  1.00  0.00     0.021 C 
HETATM   23  C6  UNL     1      21.102  50.940 -20.263  1.00  0.00     0.021 C 
HETATM   24  C7  UNL     1      21.934  49.710 -19.879  1.00  0.00     0.123 C 
ENDBRANCH   6  20
BRANCH   1  25
HETATM   25  N1  UNL     1      27.248  48.651 -16.511  1.00  0.00    -0.234 N 
ATOM     26  H12 UNL     1      27.815  47.993 -17.047  1.00  0.00     0.174 HD
ATOM     27  H11 UNL     1      27.562  48.986 -15.601  1.00  0.00     0.174 HD
ENDBRANCH   1  25
TORSDOF 6
ENDMDL
