MODEL 1
REMARK VINA RESULT: -8.193218019      0.000      0.000
REMARK  6 active torsions:
REMARK  status: ('A' for Active; 'I' for Inactive)
REMARK    1  A    between atoms: N1_1  and  C1_5 
REMARK    2  A    between atoms: C1_5  and  C2_7 
REMARK    3  A    between atoms: C1_5  and  C7_27 
REMARK    4  A    between atoms: C3_10  and  N3_11 
REMARK    5  A    between atoms: N3_11  and  S1_13 
REMARK    6  A    between atoms: S1_13  and  C4_16 
ROOT
HETATM    1  C2  UNL     1      23.454  48.145 -13.581  1.00  0.00     0.173 A 
HETATM    2  N2  UNL     1      23.284  49.043 -14.553  1.00  0.00    -0.173 N 
ATOM      3  H2  UNL     1      23.578  50.019 -14.514  1.00  0.00     0.185 HD
HETATM    4  C3  UNL     1      22.657  48.452 -15.601  1.00  0.00     0.708 A 
HETATM    5  N6  UNL     1      22.445  47.188 -15.268  1.00  0.00    -0.130 N 
ATOM      6  H6  UNL     1      21.991  46.483 -15.848  1.00  0.00     0.205 HD
HETATM    7  N7  UNL     1      22.932  46.996 -14.031  1.00  0.00    -0.271 N 
ATOM      8  H7  UNL     1      22.909  46.115 -13.517  1.00  0.00     0.189 HD
ENDROOT
BRANCH   4   9
HETATM    9  N3  UNL     1      22.385  49.065 -16.632  1.00  0.00    -0.110 N 
ATOM     10  H3  UNL     1      21.771  49.856 -16.438  1.00  0.00     0.197 HD
BRANCH   9  11
HETATM   11  S1  UNL     1      22.740  48.965 -18.258  1.00  0.00     0.293 S 
HETATM   12  O1  UNL     1      22.170  47.711 -18.911  1.00  0.00    -0.198 OA
HETATM   13  O2  UNL     1      22.203  50.132 -19.030  1.00  0.00    -0.198 OA
BRANCH  11  14
HETATM   14  C4  UNL     1      24.511  48.888 -18.390  1.00  0.00     0.166 A 
HETATM   15  C5  UNL     1      25.384  48.309 -17.500  1.00  0.00     0.132 A 
HETATM   16  N4  UNL     1      26.655  48.482 -17.919  1.00  0.00    -0.359 N 
HETATM   17  C6  UNL     1      26.589  49.164 -19.062  1.00  0.00     0.181 A 
ATOM     18  H4  UNL     1      27.500  48.156 -17.453  1.00  0.00     0.166 HD
HETATM   19  N5  UNL     1      25.286  49.415 -19.356  1.00  0.00    -0.341 N 
ATOM     20  H5  UNL     1      24.951  49.921 -20.175  1.00  0.00     0.167 HD
ENDBRANCH  11  14
ENDBRANCH   9  11
ENDBRANCH   4   9
BRANCH   1  21
HETATM   21  C1  UNL     1      24.113  48.419 -12.268  1.00  0.00     0.354 C 
HETATM   22 CL1  UNL     1      25.220  49.818 -12.415  1.00  0.00    -0.071 Cl
BRANCH  21  23
HETATM   23  N1  UNL     1      24.905  47.243 -11.972  1.00  0.00    -0.040 N 
ATOM     24  H13 UNL     1      25.633  47.074 -12.667  1.00  0.00     0.277 HD
ATOM     25  H12 UNL     1      25.513  47.371 -11.163  1.00  0.00     0.277 HD
ATOM     26  H11 UNL     1      24.272  46.450 -11.866  1.00  0.00     0.277 HD
ENDBRANCH  21  23
BRANCH  21  27
HETATM   27  C7  UNL     1      23.057  48.665 -11.213  1.00  0.00     0.442 C 
HETATM   28  F1  UNL     1      22.531  47.462 -10.792  1.00  0.00    -0.167 F 
HETATM   29  F2  UNL     1      23.673  49.271 -10.104  1.00  0.00    -0.167 F 
HETATM   30  F3  UNL     1      22.062  49.499 -11.693  1.00  0.00    -0.167 F 
ENDBRANCH  21  27
ENDBRANCH   1  21
TORSDOF 6
ENDMDL
MODEL 2
REMARK VINA RESULT: -8.176077271      1.612      1.855
REMARK  6 active torsions:
REMARK  status: ('A' for Active; 'I' for Inactive)
REMARK    1  A    between atoms: N1_1  and  C1_5 
REMARK    2  A    between atoms: C1_5  and  C2_7 
REMARK    3  A    between atoms: C1_5  and  C7_27 
REMARK    4  A    between atoms: C3_10  and  N3_11 
REMARK    5  A    between atoms: N3_11  and  S1_13 
REMARK    6  A    between atoms: S1_13  and  C4_16 
ROOT
HETATM    1  C2  UNL     1      23.252  48.126 -13.568  1.00  0.00     0.173 A 
HETATM    2  N2  UNL     1      23.070  49.048 -14.516  1.00  0.00    -0.173 N 
ATOM      3  H2  UNL     1      23.246  50.047 -14.410  1.00  0.00     0.185 HD
HETATM    4  C3  UNL     1      22.614  48.444 -15.643  1.00  0.00     0.708 A 
HETATM    5  N6  UNL     1      22.519  47.150 -15.381  1.00  0.00    -0.130 N 
ATOM      6  H6  UNL     1      22.204  46.428 -16.030  1.00  0.00     0.205 HD
HETATM    7  N7  UNL     1      22.909  46.951 -14.112  1.00  0.00    -0.271 N 
ATOM      8  H7  UNL     1      22.939  46.048 -13.637  1.00  0.00     0.189 HD
ENDROOT
BRANCH   4   9
HETATM    9  N3  UNL     1      22.369  49.074 -16.670  1.00  0.00    -0.110 N 
ATOM     10  H3  UNL     1      21.769  49.876 -16.475  1.00  0.00     0.197 HD
BRANCH   9  11
HETATM   11  S1  UNL     1      22.746  48.984 -18.292  1.00  0.00     0.293 S 
HETATM   12  O1  UNL     1      22.179  47.738 -18.962  1.00  0.00    -0.198 OA
HETATM   13  O2  UNL     1      22.223  50.159 -19.062  1.00  0.00    -0.198 OA
BRANCH  11  14
HETATM   14  C4  UNL     1      24.518  48.901 -18.402  1.00  0.00     0.166 A 
HETATM   15  C5  UNL     1      25.377  48.320 -17.500  1.00  0.00     0.132 A 
HETATM   16  N4  UNL     1      26.654  48.489 -17.903  1.00  0.00    -0.359 N 
HETATM   17  C6  UNL     1      26.605  49.168 -19.047  1.00  0.00     0.181 A 
ATOM     18  H4  UNL     1      27.492  48.160 -17.425  1.00  0.00     0.166 HD
HETATM   19  N5  UNL     1      25.307  49.423 -19.358  1.00  0.00    -0.341 N 
ATOM     20  H5  UNL     1      24.983  49.929 -20.183  1.00  0.00     0.167 HD
ENDBRANCH  11  14
ENDBRANCH   9  11
ENDBRANCH   4   9
BRANCH   1  21
HETATM   21  C1  UNL     1      23.752  48.406 -12.188  1.00  0.00     0.354 C 
HETATM   22 CL1  UNL     1      23.090  47.206 -11.037  1.00  0.00    -0.071 Cl
BRANCH  21  23
HETATM   23  N1  UNL     1      23.225  49.710 -11.836  1.00  0.00    -0.040 N 
ATOM     24  H13 UNL     1      22.332  49.907 -12.287  1.00  0.00     0.277 HD
ATOM     25  H12 UNL     1      22.905  49.757 -10.869  1.00  0.00     0.277 HD
ATOM     26  H11 UNL     1      23.937  50.410 -12.049  1.00  0.00     0.277 HD
ENDBRANCH  21  23
BRANCH  21  27
HETATM   27  C7  UNL     1      25.264  48.392 -12.184  1.00  0.00     0.442 C 
HETATM   28  F1  UNL     1      25.743  49.607 -12.631  1.00  0.00    -0.167 F 
HETATM   29  F2  UNL     1      25.702  48.224 -10.859  1.00  0.00    -0.167 F 
HETATM   30  F3  UNL     1      25.751  47.354 -12.960  1.00  0.00    -0.167 F 
ENDBRANCH  21  27
ENDBRANCH   1  21
TORSDOF 6
ENDMDL
MODEL 3
REMARK VINA RESULT: -8.152975413      1.212      1.357
REMARK  6 active torsions:
REMARK  status: ('A' for Active; 'I' for Inactive)
REMARK    1  A    between atoms: N1_1  and  C1_5 
REMARK    2  A    between atoms: C1_5  and  C2_7 
REMARK    3  A    between atoms: C1_5  and  C7_27 
REMARK    4  A    between atoms: C3_10  and  N3_11 
REMARK    5  A    between atoms: N3_11  and  S1_13 
REMARK    6  A    between atoms: S1_13  and  C4_16 
ROOT
HETATM    1  C2  UNL     1      23.793  47.758 -13.429  1.00  0.00     0.173 A 
HETATM    2  N2  UNL     1      24.004  47.815 -14.746  1.00  0.00    -0.173 N 
ATOM      3  H2  UNL     1      24.866  48.126 -15.193  1.00  0.00     0.185 HD
HETATM    4  C3  UNL     1      22.888  47.394 -15.395  1.00  0.00     0.708 A 
HETATM    5  N6  UNL     1      21.995  47.079 -14.470  1.00  0.00    -0.130 N 
ATOM      6  H6  UNL     1      21.052  46.729 -14.642  1.00  0.00     0.205 HD
HETATM    7  N7  UNL     1      22.545  47.299 -13.265  1.00  0.00    -0.271 N 
ATOM      8  H7  UNL     1      22.085  47.142 -12.368  1.00  0.00     0.189 HD
ENDROOT
BRANCH   4   9
HETATM    9  N3  UNL     1      22.823  47.347 -16.622  1.00  0.00    -0.110 N 
ATOM     10  H3  UNL     1      22.737  46.384 -16.949  1.00  0.00     0.197 HD
BRANCH   9  11
HETATM   11  S1  UNL     1      22.835  48.418 -17.900  1.00  0.00     0.293 S 
HETATM   12  O1  UNL     1      22.133  47.870 -19.137  1.00  0.00    -0.198 OA
HETATM   13  O2  UNL     1      22.159  49.712 -17.563  1.00  0.00    -0.198 OA
BRANCH  11  14
HETATM   14  C4  UNL     1      24.540  48.692 -18.321  1.00  0.00     0.166 A 
HETATM   15  C5  UNL     1      25.643  48.322 -17.590  1.00  0.00     0.132 A 
HETATM   16  N4  UNL     1      26.768  48.734 -18.210  1.00  0.00    -0.359 N 
HETATM   17  C6  UNL     1      26.383  49.357 -19.322  1.00  0.00     0.181 A 
ATOM     18  H4  UNL     1      27.727  48.596 -17.890  1.00  0.00     0.166 HD
HETATM   19  N5  UNL     1      25.026  49.336 -19.397  1.00  0.00    -0.341 N 
ATOM     20  H5  UNL     1      24.468  49.743 -20.148  1.00  0.00     0.167 HD
ENDBRANCH  11  14
ENDBRANCH   9  11
ENDBRANCH   4   9
BRANCH   1  21
HETATM   21  C1  UNL     1      24.793  48.136 -12.386  1.00  0.00     0.354 C 
HETATM   22 CL1  UNL     1      26.448  48.072 -13.066  1.00  0.00    -0.071 Cl
BRANCH  21  23
HETATM   23  N1  UNL     1      24.687  47.123 -11.355  1.00  0.00    -0.040 N 
ATOM     24  H13 UNL     1      24.515  46.192 -11.734  1.00  0.00     0.277 HD
ATOM     25  H12 UNL     1      25.581  46.925 -10.904  1.00  0.00     0.277 HD
ATOM     26  H11 UNL     1      23.969  47.416 -10.692  1.00  0.00     0.277 HD
ENDBRANCH  21  23
BRANCH  21  27
HETATM   27  C7  UNL     1      24.474  49.515 -11.853  1.00  0.00     0.442 C 
HETATM   28  F1  UNL     1      24.091  49.426 -10.531  1.00  0.00    -0.167 F 
HETATM   29  F2  UNL     1      25.644  50.292 -11.905  1.00  0.00    -0.167 F 
HETATM   30  F3  UNL     1      23.489  50.123 -12.613  1.00  0.00    -0.167 F 
ENDBRANCH  21  27
ENDBRANCH   1  21
TORSDOF 6
ENDMDL
MODEL 4
REMARK VINA RESULT: -8.003022796      1.685      1.964
REMARK  6 active torsions:
REMARK  status: ('A' for Active; 'I' for Inactive)
REMARK    1  A    between atoms: N1_1  and  C1_5 
REMARK    2  A    between atoms: C1_5  and  C2_7 
REMARK    3  A    between atoms: C1_5  and  C7_27 
REMARK    4  A    between atoms: C3_10  and  N3_11 
REMARK    5  A    between atoms: N3_11  and  S1_13 
REMARK    6  A    between atoms: S1_13  and  C4_16 
ROOT
HETATM    1  C2  UNL     1      22.982  48.873 -13.193  1.00  0.00     0.173 A 
HETATM    2  N2  UNL     1      23.395  48.239 -14.292  1.00  0.00    -0.173 N 
ATOM      3  H2  UNL     1      24.193  47.605 -14.344  1.00  0.00     0.185 HD
HETATM    4  C3  UNL     1      22.585  48.570 -15.330  1.00  0.00     0.708 A 
HETATM    5  N6  UNL     1      21.675  49.410 -14.861  1.00  0.00    -0.130 N 
ATOM      6  H6  UNL     1      20.922  49.839 -15.400  1.00  0.00     0.205 HD
HETATM    7  N7  UNL     1      21.914  49.597 -13.554  1.00  0.00    -0.271 N 
ATOM      8  H7  UNL     1      21.368  50.196 -12.933  1.00  0.00     0.189 HD
ENDROOT
BRANCH   4   9
HETATM    9  N3  UNL     1      22.749  48.114 -16.460  1.00  0.00    -0.110 N 
ATOM     10  H3  UNL     1      22.854  47.100 -16.436  1.00  0.00     0.197 HD
BRANCH   9  11
HETATM   11  S1  UNL     1      22.847  48.692 -18.021  1.00  0.00     0.293 S 
HETATM   12  O1  UNL     1      22.224  47.747 -19.042  1.00  0.00    -0.198 OA
HETATM   13  O2  UNL     1      22.155  50.012 -18.182  1.00  0.00    -0.198 OA
BRANCH  11  14
HETATM   14  C4  UNL     1      24.577  48.840 -18.404  1.00  0.00     0.166 A 
HETATM   15  C5  UNL     1      25.634  48.422 -17.633  1.00  0.00     0.132 A 
HETATM   16  N4  UNL     1      26.799  48.739 -18.234  1.00  0.00    -0.359 N 
HETATM   17  C6  UNL     1      26.484  49.351 -19.374  1.00  0.00     0.181 A 
ATOM     18  H4  UNL     1      27.738  48.547 -17.885  1.00  0.00     0.166 HD
HETATM   19  N5  UNL     1      25.132  49.417 -19.485  1.00  0.00    -0.341 N 
ATOM     20  H5  UNL     1      24.620  49.836 -20.262  1.00  0.00     0.167 HD
ENDBRANCH  11  14
ENDBRANCH   9  11
ENDBRANCH   4   9
BRANCH   1  21
HETATM   21  C1  UNL     1      23.620  48.756 -11.848  1.00  0.00     0.354 C 
HETATM   22 CL1  UNL     1      23.603  47.051 -11.303  1.00  0.00    -0.071 Cl
BRANCH  21  23
HETATM   23  N1  UNL     1      22.785  49.527 -10.949  1.00  0.00    -0.040 N 
ATOM     24  H13 UNL     1      22.278  50.273 -11.426  1.00  0.00     0.277 HD
ATOM     25  H12 UNL     1      21.976  49.002 -10.615  1.00  0.00     0.277 HD
ATOM     26  H11 UNL     1      23.370  49.874 -10.188  1.00  0.00     0.277 HD
ENDBRANCH  21  23
BRANCH  21  27
HETATM   27  C7  UNL     1      25.031  49.297 -11.906  1.00  0.00     0.442 C 
HETATM   28  F1  UNL     1      25.442  49.664 -10.641  1.00  0.00    -0.167 F 
HETATM   29  F2  UNL     1      25.882  48.270 -12.348  1.00  0.00    -0.167 F 
HETATM   30  F3  UNL     1      25.115  50.367 -12.782  1.00  0.00    -0.167 F 
ENDBRANCH  21  27
ENDBRANCH   1  21
TORSDOF 6
ENDMDL
MODEL 5
REMARK VINA RESULT: -7.899780635      4.141      5.768
REMARK  6 active torsions:
REMARK  status: ('A' for Active; 'I' for Inactive)
REMARK    1  A    between atoms: N1_1  and  C1_5 
REMARK    2  A    between atoms: C1_5  and  C2_7 
REMARK    3  A    between atoms: C1_5  and  C7_27 
REMARK    4  A    between atoms: C3_10  and  N3_11 
REMARK    5  A    between atoms: N3_11  and  S1_13 
REMARK    6  A    between atoms: S1_13  and  C4_16 
ROOT
HETATM    1  C2  UNL     1      23.542  48.441 -16.251  1.00  0.00     0.173 A 
HETATM    2  N2  UNL     1      23.249  48.043 -15.011  1.00  0.00    -0.173 N 
ATOM      3  H2  UNL     1      23.843  47.461 -14.421  1.00  0.00     0.185 HD
HETATM    4  C3  UNL     1      22.034  48.537 -14.660  1.00  0.00     0.708 A 
HETATM    5  N6  UNL     1      21.586  49.239 -15.689  1.00  0.00    -0.130 N 
ATOM      6  H6  UNL     1      20.696  49.736 -15.733  1.00  0.00     0.205 HD
HETATM    7  N7  UNL     1      22.506  49.183 -16.665  1.00  0.00    -0.271 N 
ATOM      8  H7  UNL     1      22.429  49.634 -17.577  1.00  0.00     0.189 HD
ENDROOT
BRANCH   4   9
HETATM    9  N3  UNL     1      21.532  48.319 -13.559  1.00  0.00    -0.110 N 
ATOM     10  H3  UNL     1      20.680  47.766 -13.646  1.00  0.00     0.197 HD
BRANCH   9  11
HETATM   11  S1  UNL     1      21.857  48.676 -11.963  1.00  0.00     0.293 S 
HETATM   12  O1  UNL     1      21.191  49.965 -11.498  1.00  0.00    -0.198 OA
HETATM   13  O2  UNL     1      21.391  47.595 -11.034  1.00  0.00    -0.198 OA
BRANCH  11  14
HETATM   14  C4  UNL     1      23.616  48.896 -11.835  1.00  0.00     0.166 A 
HETATM   15  C5  UNL     1      24.529  47.999 -11.334  1.00  0.00     0.132 A 
HETATM   16  N4  UNL     1      25.767  48.534 -11.365  1.00  0.00    -0.359 N 
HETATM   17  C6  UNL     1      25.641  49.756 -11.881  1.00  0.00     0.181 A 
ATOM     18  H4  UNL     1      26.631  48.090 -11.055  1.00  0.00     0.166 HD
HETATM   19  N5  UNL     1      24.333  49.984 -12.170  1.00  0.00    -0.341 N 
ATOM     20  H5  UNL     1      23.957  50.841 -12.574  1.00  0.00     0.167 HD
ENDBRANCH  11  14
ENDBRANCH   9  11
ENDBRANCH   4   9
BRANCH   1  21
HETATM   21  C1  UNL     1      24.799  48.101 -16.983  1.00  0.00     0.354 C 
HETATM   22 CL1  UNL     1      24.624  48.487 -18.722  1.00  0.00    -0.071 Cl
BRANCH  21  23
HETATM   23  N1  UNL     1      24.956  46.667 -16.851  1.00  0.00    -0.040 N 
ATOM     24  H13 UNL     1      24.316  46.263 -16.167  1.00  0.00     0.277 HD
ATOM     25  H12 UNL     1      24.622  46.157 -17.669  1.00  0.00     0.277 HD
ATOM     26  H11 UNL     1      25.934  46.470 -16.638  1.00  0.00     0.277 HD
ENDBRANCH  21  23
BRANCH  21  27
HETATM   27  C7  UNL     1      25.961  48.852 -16.371  1.00  0.00     0.442 C 
HETATM   28  F1  UNL     1      26.965  47.965 -16.039  1.00  0.00    -0.167 F 
HETATM   29  F2  UNL     1      26.476  49.735 -17.335  1.00  0.00    -0.167 F 
HETATM   30  F3  UNL     1      25.554  49.574 -15.262  1.00  0.00    -0.167 F 
ENDBRANCH  21  27
ENDBRANCH   1  21
TORSDOF 6
ENDMDL
