MODEL 1
REMARK VINA RESULT: -8.353356059      0.000      0.000
REMARK  6 active torsions:
REMARK  status: ('A' for Active; 'I' for Inactive)
REMARK       I    between atoms: C2_2  and  N1_4 
REMARK    1  A    between atoms: N1_4  and  C3_6 
REMARK    2  A    between atoms: C3_6  and  C5_8 
REMARK       I    between atoms: C5_8  and  N2_10 
REMARK    3  A    between atoms: N2_10  and  N3_12 
REMARK    4  A    between atoms: N3_12  and  C6_14 
REMARK    5  A    between atoms: C6_14  and  C7_18 
REMARK    6  A    between atoms: C8_19  and  C9_20 
ROOT
HETATM    1  C6  UNL     1      22.827  48.310 -16.862  1.00  0.00     0.129 C 
HETATM    2  N4  UNL     1      22.517  47.051 -16.972  1.00  0.00    -0.384 N 
ATOM      3  H41 UNL     1      23.079  46.507 -17.627  1.00  0.00     0.157 HD
ATOM      4  H42 UNL     1      21.764  46.741 -16.357  1.00  0.00     0.157 HD
ENDROOT
BRANCH   1   5
HETATM    5  N3  UNL     1      22.056  49.055 -15.965  1.00  0.00    -0.282 N 
ATOM      6  H3  UNL     1      21.352  49.656 -16.393  1.00  0.00     0.188 HD
BRANCH   5   7
HETATM    7  N2  UNL     1      22.106  49.100 -14.584  1.00  0.00    -0.267 N 
HETATM    8  C5  UNL     1      21.986  48.073 -13.648  1.00  0.00     0.258 C 
HETATM    9  O2  UNL     1      21.800  46.877 -13.950  1.00  0.00    -0.269 OA
ATOM     10  H2  UNL     1      22.254  50.028 -14.188  1.00  0.00     0.190 HD
BRANCH   8  11
HETATM   11  C3  UNL     1      22.082  48.374 -12.163  1.00  0.00     0.174 C 
HETATM   12  C4  UNL     1      21.129  47.545 -11.376  1.00  0.00     0.042 C 
BRANCH  11  13
HETATM   13  N1  UNL     1      23.430  48.304 -11.696  1.00  0.00    -0.348 N 
HETATM   14  C2  UNL     1      24.381  49.357 -11.867  1.00  0.00     0.214 C 
HETATM   15  C1  UNL     1      25.770  49.222 -11.356  1.00  0.00     0.117 C 
HETATM   16  O1  UNL     1      24.064  50.415 -12.450  1.00  0.00    -0.274 OA
ATOM     17  H1  UNL     1      23.731  47.457 -11.215  1.00  0.00     0.163 HD
ENDBRANCH  11  13
ENDBRANCH   8  11
ENDBRANCH   5   7
ENDBRANCH   1   5
BRANCH   1  18
HETATM   18  C7  UNL     1      23.899  48.751 -17.737  1.00  0.00     0.082 A 
HETATM   19  C8  UNL     1      25.255  48.613 -17.649  1.00  0.00     0.149 A 
HETATM   20  N5  UNL     1      25.781  49.271 -18.719  1.00  0.00    -0.293 N 
HETATM   21  N6  UNL     1      24.863  49.810 -19.475  1.00  0.00    -0.284 N 
ATOM     22  H5  UNL     1      26.781  49.335 -18.908  1.00  0.00     0.187 HD
HETATM   23  C10 UNL     1      25.060  50.588 -20.708  1.00  0.00     0.179 C 
HETATM   24  C11 UNL     1      23.690  49.514 -18.905  1.00  0.00     0.136 A 
HETATM   25 CL1  UNL     1      22.158  50.038 -19.585  1.00  0.00    -0.062 Cl
BRANCH  19  26
HETATM   26  C9  UNL     1      26.076  47.856 -16.642  1.00  0.00     0.435 C 
HETATM   27  F1  UNL     1      27.393  47.831 -16.949  1.00  0.00    -0.165 F 
HETATM   28  F2  UNL     1      25.480  46.637 -16.462  1.00  0.00    -0.165 F 
HETATM   29  F3  UNL     1      25.974  48.520 -15.411  1.00  0.00    -0.165 F 
ENDBRANCH  19  26
ENDBRANCH   1  18
TORSDOF 6
ENDMDL
MODEL 2
REMARK VINA RESULT: -8.118201039      1.266      1.314
REMARK  6 active torsions:
REMARK  status: ('A' for Active; 'I' for Inactive)
REMARK       I    between atoms: C2_2  and  N1_4 
REMARK    1  A    between atoms: N1_4  and  C3_6 
REMARK    2  A    between atoms: C3_6  and  C5_8 
REMARK       I    between atoms: C5_8  and  N2_10 
REMARK    3  A    between atoms: N2_10  and  N3_12 
REMARK    4  A    between atoms: N3_12  and  C6_14 
REMARK    5  A    between atoms: C6_14  and  C7_18 
REMARK    6  A    between atoms: C8_19  and  C9_20 
ROOT
HETATM    1  C6  UNL     1      22.895  48.165 -16.190  1.00  0.00     0.129 C 
HETATM    2  N4  UNL     1      22.480  46.947 -16.379  1.00  0.00    -0.384 N 
ATOM      3  H41 UNL     1      23.037  46.378 -17.016  1.00  0.00     0.157 HD
ATOM      4  H42 UNL     1      21.658  46.687 -15.833  1.00  0.00     0.157 HD
ENDROOT
BRANCH   1   5
HETATM    5  N3  UNL     1      22.132  48.946 -15.316  1.00  0.00    -0.282 N 
ATOM      6  H3  UNL     1      21.339  49.425 -15.743  1.00  0.00     0.188 HD
BRANCH   5   7
HETATM    7  N2  UNL     1      22.291  49.165 -13.961  1.00  0.00    -0.267 N 
HETATM    8  C5  UNL     1      21.829  48.427 -12.872  1.00  0.00     0.258 C 
HETATM    9  O2  UNL     1      21.150  47.385 -12.977  1.00  0.00    -0.269 OA
ATOM     10  H2  UNL     1      22.832  49.996 -13.720  1.00  0.00     0.190 HD
BRANCH   8  11
HETATM   11  C3  UNL     1      22.142  48.873 -11.454  1.00  0.00     0.174 C 
HETATM   12  C4  UNL     1      21.757  47.835 -10.459  1.00  0.00     0.042 C 
BRANCH  11  13
HETATM   13  N1  UNL     1      23.492  49.322 -11.329  1.00  0.00    -0.348 N 
HETATM   14  C2  UNL     1      24.627  48.471 -11.499  1.00  0.00     0.214 C 
HETATM   15  C1  UNL     1      26.007  49.002 -11.355  1.00  0.00     0.117 C 
HETATM   16  O1  UNL     1      24.482  47.261 -11.772  1.00  0.00    -0.274 OA
ATOM     17  H1  UNL     1      23.655  50.304 -11.105  1.00  0.00     0.163 HD
ENDBRANCH  11  13
ENDBRANCH   8  11
ENDBRANCH   5   7
ENDBRANCH   1   5
BRANCH   1  18
HETATM   18  C7  UNL     1      24.066  48.537 -16.966  1.00  0.00     0.082 A 
HETATM   19  C8  UNL     1      25.362  48.762 -16.599  1.00  0.00     0.149 A 
HETATM   20  N5  UNL     1      26.025  49.137 -17.728  1.00  0.00    -0.293 N 
HETATM   21  N6  UNL     1      25.247  49.163 -18.778  1.00  0.00    -0.284 N 
ATOM     22  H5  UNL     1      27.017  49.371 -17.752  1.00  0.00     0.187 HD
HETATM   23  C10 UNL     1      25.617  49.516 -20.157  1.00  0.00     0.179 C 
HETATM   24  C11 UNL     1      24.033  48.800 -18.351  1.00  0.00     0.136 A 
HETATM   25 CL1  UNL     1      22.653  48.693 -19.432  1.00  0.00    -0.062 Cl
BRANCH  19  26
HETATM   26  C9  UNL     1      26.019  48.595 -15.257  1.00  0.00     0.435 C 
HETATM   27  F1  UNL     1      27.367  48.690 -15.315  1.00  0.00    -0.165 F 
HETATM   28  F2  UNL     1      25.522  47.448 -14.698  1.00  0.00    -0.165 F 
HETATM   29  F3  UNL     1      25.589  49.643 -14.430  1.00  0.00    -0.165 F 
ENDBRANCH  19  26
ENDBRANCH   1  18
TORSDOF 6
ENDMDL
MODEL 3
REMARK VINA RESULT: -7.854979516      2.919      5.894
REMARK  6 active torsions:
REMARK  status: ('A' for Active; 'I' for Inactive)
REMARK       I    between atoms: C2_2  and  N1_4 
REMARK    1  A    between atoms: N1_4  and  C3_6 
REMARK    2  A    between atoms: C3_6  and  C5_8 
REMARK       I    between atoms: C5_8  and  N2_10 
REMARK    3  A    between atoms: N2_10  and  N3_12 
REMARK    4  A    between atoms: N3_12  and  C6_14 
REMARK    5  A    between atoms: C6_14  and  C7_18 
REMARK    6  A    between atoms: C8_19  and  C9_20 
ROOT
HETATM    1  C6  UNL     1      23.003  47.767 -15.473  1.00  0.00     0.129 C 
HETATM    2  N4  UNL     1      22.664  46.521 -15.627  1.00  0.00    -0.384 N 
ATOM      3  H41 UNL     1      23.150  45.848 -15.034  1.00  0.00     0.157 HD
ATOM      4  H42 UNL     1      21.918  46.361 -16.304  1.00  0.00     0.157 HD
ENDROOT
BRANCH   1   5
HETATM    5  N3  UNL     1      22.338  48.689 -16.287  1.00  0.00    -0.282 N 
ATOM      6  H3  UNL     1      21.537  49.150 -15.856  1.00  0.00     0.188 HD
BRANCH   5   7
HETATM    7  N2  UNL     1      22.604  49.068 -17.590  1.00  0.00    -0.267 N 
HETATM    8  C5  UNL     1      21.967  50.008 -18.399  1.00  0.00     0.258 C 
HETATM    9  O2  UNL     1      20.988  50.691 -18.032  1.00  0.00    -0.269 OA
ATOM     10  H2  UNL     1      23.389  48.585 -18.027  1.00  0.00     0.190 HD
BRANCH   8  11
HETATM   11  C3  UNL     1      22.453  50.256 -19.816  1.00  0.00     0.174 C 
HETATM   12  C4  UNL     1      21.606  51.262 -20.514  1.00  0.00     0.042 C 
BRANCH  11  13
HETATM   13  N1  UNL     1      23.849  50.551 -19.851  1.00  0.00    -0.348 N 
HETATM   14  C2  UNL     1      24.869  49.568 -19.663  1.00  0.00     0.214 C 
HETATM   15  C1  UNL     1      26.307  49.941 -19.713  1.00  0.00     0.117 C 
HETATM   16  O1  UNL     1      24.573  48.373 -19.452  1.00  0.00    -0.274 OA
ATOM     17  H1  UNL     1      24.135  51.515 -20.020  1.00  0.00     0.163 HD
ENDBRANCH  11  13
ENDBRANCH   8  11
ENDBRANCH   5   7
ENDBRANCH   1   5
BRANCH   1  18
HETATM   18  C7  UNL     1      24.065  47.995 -14.509  1.00  0.00     0.082 A 
HETATM   19  C8  UNL     1      25.402  48.222 -14.670  1.00  0.00     0.149 A 
HETATM   20  N5  UNL     1      25.934  48.311 -13.419  1.00  0.00    -0.293 N 
HETATM   21  N6  UNL     1      25.036  48.158 -12.483  1.00  0.00    -0.284 N 
ATOM     22  H5  UNL     1      26.923  48.476 -13.235  1.00  0.00     0.187 HD
HETATM   23  C10 UNL     1      25.244  48.196 -11.028  1.00  0.00     0.179 C 
HETATM   24  C11 UNL     1      23.871  47.962 -13.112  1.00  0.00     0.136 A 
HETATM   25 CL1  UNL     1      22.367  47.709 -12.242  1.00  0.00    -0.062 Cl
BRANCH  19  26
HETATM   26  C9  UNL     1      26.194  48.410 -15.934  1.00  0.00     0.435 C 
HETATM   27  F1  UNL     1      26.113  47.348 -16.768  1.00  0.00    -0.165 F 
HETATM   28  F2  UNL     1      27.458  48.791 -15.571  1.00  0.00    -0.165 F 
HETATM   29  F3  UNL     1      25.650  49.497 -16.632  1.00  0.00    -0.165 F 
ENDBRANCH  19  26
ENDBRANCH   1  18
TORSDOF 6
ENDMDL
MODEL 4
REMARK VINA RESULT: -7.840603525      2.712      3.063
REMARK  6 active torsions:
REMARK  status: ('A' for Active; 'I' for Inactive)
REMARK       I    between atoms: C2_2  and  N1_4 
REMARK    1  A    between atoms: N1_4  and  C3_6 
REMARK    2  A    between atoms: C3_6  and  C5_8 
REMARK       I    between atoms: C5_8  and  N2_10 
REMARK    3  A    between atoms: N2_10  and  N3_12 
REMARK    4  A    between atoms: N3_12  and  C6_14 
REMARK    5  A    between atoms: C6_14  and  C7_18 
REMARK    6  A    between atoms: C8_19  and  C9_20 
ROOT
HETATM    1  C6  UNL     1      22.761  48.141 -16.148  1.00  0.00     0.129 C 
HETATM    2  N4  UNL     1      22.569  46.855 -16.158  1.00  0.00    -0.384 N 
ATOM      3  H41 UNL     1      23.093  46.329 -16.857  1.00  0.00     0.157 HD
ATOM      4  H42 UNL     1      21.937  46.512 -15.434  1.00  0.00     0.157 HD
ENDROOT
BRANCH   1   5
HETATM    5  N3  UNL     1      22.042  48.863 -15.190  1.00  0.00    -0.282 N 
ATOM      6  H3  UNL     1      21.207  49.332 -15.538  1.00  0.00     0.188 HD
BRANCH   5   7
HETATM    7  N2  UNL     1      22.295  49.034 -13.842  1.00  0.00    -0.267 N 
HETATM    8  C5  UNL     1      21.821  48.320 -12.742  1.00  0.00     0.258 C 
HETATM    9  O2  UNL     1      21.039  47.351 -12.829  1.00  0.00    -0.269 OA
ATOM     10  H2  UNL     1      22.927  49.803 -13.617  1.00  0.00     0.190 HD
BRANCH   8  11
HETATM   11  C3  UNL     1      22.252  48.700 -11.337  1.00  0.00     0.174 C 
HETATM   12  C4  UNL     1      22.001  47.595 -10.372  1.00  0.00     0.042 C 
BRANCH  11  13
HETATM   13  N1  UNL     1      23.591  49.196 -11.311  1.00  0.00    -0.348 N 
HETATM   14  C2  UNL     1      24.713  48.467 -11.812  1.00  0.00     0.214 C 
HETATM   15  C1  UNL     1      26.083  49.041 -11.757  1.00  0.00     0.117 C 
HETATM   16  O1  UNL     1      24.566  47.329 -12.307  1.00  0.00    -0.274 OA
ATOM     17  H1  UNL     1      23.756  50.121 -10.914  1.00  0.00     0.163 HD
ENDBRANCH  11  13
ENDBRANCH   8  11
ENDBRANCH   5   7
ENDBRANCH   1   5
BRANCH   1  18
HETATM   18  C7  UNL     1      23.661  48.630 -17.179  1.00  0.00     0.082 A 
HETATM   19  C8  UNL     1      23.420  49.182 -18.404  1.00  0.00     0.149 A 
HETATM   20  N5  UNL     1      24.636  49.405 -18.975  1.00  0.00    -0.293 N 
HETATM   21  N6  UNL     1      25.625  49.039 -18.203  1.00  0.00    -0.284 N 
ATOM     22  H5  UNL     1      24.762  49.812 -19.902  1.00  0.00     0.187 HD
HETATM   23  C10 UNL     1      27.065  49.133 -18.487  1.00  0.00     0.179 C 
HETATM   24  C11 UNL     1      25.067  48.556 -17.087  1.00  0.00     0.136 A 
HETATM   25 CL1  UNL     1      26.025  47.942 -15.751  1.00  0.00    -0.062 Cl
BRANCH  19  26
HETATM   26  C9  UNL     1      22.112  49.555 -19.045  1.00  0.00     0.435 C 
HETATM   27  F1  UNL     1      21.239  50.111 -18.174  1.00  0.00    -0.165 F 
HETATM   28  F2  UNL     1      21.661  48.454 -19.724  1.00  0.00    -0.165 F 
HETATM   29  F3  UNL     1      22.367  50.530 -20.019  1.00  0.00    -0.165 F 
ENDBRANCH  19  26
ENDBRANCH   1  18
TORSDOF 6
ENDMDL
MODEL 5
REMARK VINA RESULT: -7.797302667      1.136      1.929
REMARK  6 active torsions:
REMARK  status: ('A' for Active; 'I' for Inactive)
REMARK       I    between atoms: C2_2  and  N1_4 
REMARK    1  A    between atoms: N1_4  and  C3_6 
REMARK    2  A    between atoms: C3_6  and  C5_8 
REMARK       I    between atoms: C5_8  and  N2_10 
REMARK    3  A    between atoms: N2_10  and  N3_12 
REMARK    4  A    between atoms: N3_12  and  C6_14 
REMARK    5  A    between atoms: C6_14  and  C7_18 
REMARK    6  A    between atoms: C8_19  and  C9_20 
ROOT
HETATM    1  C6  UNL     1      22.981  48.277 -16.740  1.00  0.00     0.129 C 
HETATM    2  N4  UNL     1      22.541  47.074 -16.966  1.00  0.00    -0.384 N 
ATOM      3  H41 UNL     1      22.962  46.583 -17.754  1.00  0.00     0.157 HD
ATOM      4  H42 UNL     1      21.844  46.743 -16.298  1.00  0.00     0.157 HD
ENDROOT
BRANCH   1   5
HETATM    5  N3  UNL     1      22.404  48.950 -15.660  1.00  0.00    -0.282 N 
ATOM      6  H3  UNL     1      21.477  49.338 -15.835  1.00  0.00     0.188 HD
BRANCH   5   7
HETATM    7  N2  UNL     1      22.902  49.169 -14.389  1.00  0.00    -0.267 N 
HETATM    8  C5  UNL     1      23.669  48.341 -13.571  1.00  0.00     0.258 C 
HETATM    9  O2  UNL     1      24.040  47.194 -13.897  1.00  0.00    -0.269 OA
ATOM     10  H2  UNL     1      22.671  50.078 -13.987  1.00  0.00     0.190 HD
BRANCH   8  11
HETATM   11  C3  UNL     1      24.105  48.812 -12.195  1.00  0.00     0.174 C 
HETATM   12  C4  UNL     1      25.425  49.499 -12.248  1.00  0.00     0.042 C 
BRANCH  11  13
HETATM   13  N1  UNL     1      23.084  49.573 -11.549  1.00  0.00    -0.348 N 
HETATM   14  C2  UNL     1      21.884  49.000 -11.025  1.00  0.00     0.214 C 
HETATM   15  C1  UNL     1      20.860  49.848 -10.362  1.00  0.00     0.117 C 
HETATM   16  O1  UNL     1      21.672  47.773 -11.113  1.00  0.00    -0.274 OA
ATOM     17  H1  UNL     1      23.217  50.580 -11.457  1.00  0.00     0.163 HD
ENDBRANCH  11  13
ENDBRANCH   8  11
ENDBRANCH   5   7
ENDBRANCH   1   5
BRANCH   1  18
HETATM   18  C7  UNL     1      23.974  48.750 -17.690  1.00  0.00     0.082 A 
HETATM   19  C8  UNL     1      25.336  48.653 -17.701  1.00  0.00     0.149 A 
HETATM   20  N5  UNL     1      25.764  49.325 -18.806  1.00  0.00    -0.293 N 
HETATM   21  N6  UNL     1      24.777  49.834 -19.494  1.00  0.00    -0.284 N 
ATOM     22  H5  UNL     1      26.745  49.419 -19.067  1.00  0.00     0.187 HD
HETATM   23  C10 UNL     1      24.861  50.614 -20.737  1.00  0.00     0.179 C 
HETATM   24  C11 UNL     1      23.657  49.503 -18.841  1.00  0.00     0.136 A 
HETATM   25 CL1  UNL     1      22.065  49.978 -19.408  1.00  0.00    -0.062 Cl
BRANCH  19  26
HETATM   26  C9  UNL     1      26.250  47.924 -16.755  1.00  0.00     0.435 C 
HETATM   27  F1  UNL     1      27.517  47.824 -17.220  1.00  0.00    -0.165 F 
HETATM   28  F2  UNL     1      25.639  46.745 -16.424  1.00  0.00    -0.165 F 
HETATM   29  F3  UNL     1      26.328  48.665 -15.567  1.00  0.00    -0.165 F 
ENDBRANCH  19  26
ENDBRANCH   1  18
TORSDOF 6
ENDMDL
