MODEL 1
REMARK VINA RESULT: -8.856474274      0.000      0.000
REMARK  6 active torsions:
REMARK  status: ('A' for Active; 'I' for Inactive)
REMARK    1  A    between atoms: C3_4  and  C4_5 
REMARK    2  A    between atoms: C5_11  and  N3_12 
REMARK    3  A    between atoms: C6_17  and  N5_18 
REMARK    4  A    between atoms: N5_18  and  N6_20 
REMARK    5  A    between atoms: N6_20  and  S1_22 
REMARK    6  A    between atoms: S1_22  and  C7_25 
ROOT
HETATM    1  N1  UNL     1      25.926  47.934 -13.883  1.00  0.00    -0.191 NA
HETATM    2  C1  UNL     1      25.275  48.136 -14.830  1.00  0.00     0.105 C 
HETATM    3  C2  UNL     1      24.477  48.370 -15.999  1.00  0.00     0.122 A 
HETATM    4  C3  UNL     1      25.103  48.775 -17.172  1.00  0.00     0.157 A 
HETATM    5  N2  UNL     1      24.323  48.984 -18.248  1.00  0.00    -0.185 N 
ATOM      6  H2  UNL     1      24.769  49.281 -19.116  1.00  0.00     0.184 HD
HETATM    7  C5  UNL     1      22.991  48.823 -18.245  1.00  0.00     0.678 A 
HETATM    8  N4  UNL     1      22.408  48.429 -17.093  1.00  0.00    -0.174 N 
ATOM      9  H4  UNL     1      21.396  48.303 -17.075  1.00  0.00     0.186 HD
HETATM   10  C6  UNL     1      23.110  48.195 -15.961  1.00  0.00     0.159 A 
ENDROOT
BRANCH   4  11
HETATM   11  C4  UNL     1      26.573  48.971 -17.245  1.00  0.00     0.434 C 
HETATM   12  F1  UNL     1      26.825  49.502 -18.517  1.00  0.00    -0.165 F 
HETATM   13  F2  UNL     1      27.163  47.728 -17.198  1.00  0.00    -0.165 F 
HETATM   14  F3  UNL     1      27.038  49.821 -16.262  1.00  0.00    -0.165 F 
ENDBRANCH   4  11
BRANCH  10  15
HETATM   15  N5  UNL     1      22.569  47.820 -14.858  1.00  0.00    -0.274 N 
ATOM     16  H5  UNL     1      22.685  46.844 -14.582  1.00  0.00     0.189 HD
BRANCH  15  17
HETATM   17  N6  UNL     1      21.841  48.640 -14.018  1.00  0.00    -0.223 N 
ATOM     18  H6  UNL     1      20.890  48.881 -14.295  1.00  0.00     0.200 HD
BRANCH  17  19
HETATM   19  S1  UNL     1      22.436  49.284 -12.531  1.00  0.00     0.275 S 
HETATM   20  O1  UNL     1      23.423  50.392 -12.768  1.00  0.00    -0.202 OA
HETATM   21  O2  UNL     1      21.294  49.878 -11.755  1.00  0.00    -0.202 OA
BRANCH  19  22
HETATM   22  C7  UNL     1      23.159  47.996 -11.526  1.00  0.00     0.321 C 
HETATM   23 CL1  UNL     1      24.660  48.638 -10.818  1.00  0.00    -0.089 Cl
HETATM   24 CL2  UNL     1      22.061  47.525 -10.212  1.00  0.00    -0.089 Cl
ENDBRANCH  19  22
ENDBRANCH  17  19
ENDBRANCH  15  17
ENDBRANCH  10  15
BRANCH   7  25
HETATM   25  N3  UNL     1      22.246  49.028 -19.290  1.00  0.00    -0.234 N 
ATOM     26  H32 UNL     1      22.686  49.327 -20.160  1.00  0.00     0.174 HD
ATOM     27  H31 UNL     1      21.234  48.905 -19.288  1.00  0.00     0.174 HD
ENDBRANCH   7  25
TORSDOF 6
ENDMDL
MODEL 2
REMARK VINA RESULT: -8.656024581      0.950      1.238
REMARK  6 active torsions:
REMARK  status: ('A' for Active; 'I' for Inactive)
REMARK    1  A    between atoms: C3_4  and  C4_5 
REMARK    2  A    between atoms: C5_11  and  N3_12 
REMARK    3  A    between atoms: C6_17  and  N5_18 
REMARK    4  A    between atoms: N5_18  and  N6_20 
REMARK    5  A    between atoms: N6_20  and  S1_22 
REMARK    6  A    between atoms: S1_22  and  C7_25 
ROOT
HETATM    1  N1  UNL     1      26.196  48.284 -13.630  1.00  0.00    -0.191 NA
HETATM    2  C1  UNL     1      25.474  48.434 -14.534  1.00  0.00     0.105 C 
HETATM    3  C2  UNL     1      24.586  48.603 -15.648  1.00  0.00     0.122 A 
HETATM    4  C3  UNL     1      25.123  48.778 -16.917  1.00  0.00     0.157 A 
HETATM    5  N2  UNL     1      24.260  48.933 -17.938  1.00  0.00    -0.185 N 
ATOM      6  H2  UNL     1      24.641  49.062 -18.875  1.00  0.00     0.184 HD
HETATM    7  C5  UNL     1      22.926  48.927 -17.793  1.00  0.00     0.678 A 
HETATM    8  N4  UNL     1      22.431  48.755 -16.549  1.00  0.00    -0.174 N 
ATOM      9  H4  UNL     1      21.419  48.749 -16.422  1.00  0.00     0.186 HD
HETATM   10  C6  UNL     1      23.219  48.592 -15.462  1.00  0.00     0.159 A 
ENDROOT
BRANCH   4  11
HETATM   11  C4  UNL     1      26.590  48.794 -17.149  1.00  0.00     0.434 C 
HETATM   12  F1  UNL     1      26.759  49.110 -18.503  1.00  0.00    -0.165 F 
HETATM   13  F2  UNL     1      27.056  47.511 -16.968  1.00  0.00    -0.165 F 
HETATM   14  F3  UNL     1      27.237  49.715 -16.350  1.00  0.00    -0.165 F 
ENDBRANCH   4  11
BRANCH  10  15
HETATM   15  N5  UNL     1      22.761  48.428 -14.274  1.00  0.00    -0.274 N 
ATOM     16  H5  UNL     1      22.626  47.470 -13.947  1.00  0.00     0.189 HD
BRANCH  15  17
HETATM   17  N6  UNL     1      22.439  49.451 -13.405  1.00  0.00    -0.223 N 
ATOM     18  H6  UNL     1      22.441  50.403 -13.770  1.00  0.00     0.200 HD
BRANCH  17  19
HETATM   19  S1  UNL     1      22.031  49.226 -11.743  1.00  0.00     0.275 S 
HETATM   20  O1  UNL     1      21.550  50.506 -11.118  1.00  0.00    -0.202 OA
HETATM   21  O2  UNL     1      20.903  48.240 -11.637  1.00  0.00    -0.202 OA
BRANCH  19  22
HETATM   22  C7  UNL     1      23.418  48.560 -10.834  1.00  0.00     0.321 C 
HETATM   23 CL1  UNL     1      23.782  46.951 -11.502  1.00  0.00    -0.089 Cl
HETATM   24 CL2  UNL     1      24.851  49.594 -11.015  1.00  0.00    -0.089 Cl
ENDBRANCH  19  22
ENDBRANCH  17  19
ENDBRANCH  15  17
ENDBRANCH  10  15
BRANCH   7  25
HETATM   25  N3  UNL     1      22.101  49.078 -18.784  1.00  0.00    -0.234 N 
ATOM     26  H32 UNL     1      22.468  49.350 -19.696  1.00  0.00     0.174 HD
ATOM     27  H31 UNL     1      21.095  48.938 -18.701  1.00  0.00     0.174 HD
ENDBRANCH   7  25
TORSDOF 6
ENDMDL
MODEL 3
REMARK VINA RESULT: -8.295270006      1.586      1.812
REMARK  6 active torsions:
REMARK  status: ('A' for Active; 'I' for Inactive)
REMARK    1  A    between atoms: C3_4  and  C4_5 
REMARK    2  A    between atoms: C5_11  and  N3_12 
REMARK    3  A    between atoms: C6_17  and  N5_18 
REMARK    4  A    between atoms: N5_18  and  N6_20 
REMARK    5  A    between atoms: N6_20  and  S1_22 
REMARK    6  A    between atoms: S1_22  and  C7_25 
ROOT
HETATM    1  N1  UNL     1      26.231  47.655 -13.156  1.00  0.00    -0.191 NA
HETATM    2  C1  UNL     1      25.541  47.788 -14.087  1.00  0.00     0.105 C 
HETATM    3  C2  UNL     1      24.698  47.936 -15.238  1.00  0.00     0.122 A 
HETATM    4  C3  UNL     1      25.209  48.558 -16.372  1.00  0.00     0.157 A 
HETATM    5  N2  UNL     1      24.389  48.679 -17.432  1.00  0.00    -0.185 N 
ATOM      6  H2  UNL     1      24.751  49.133 -18.271  1.00  0.00     0.184 HD
HETATM    7  C5  UNL     1      23.123  48.237 -17.449  1.00  0.00     0.678 A 
HETATM    8  N4  UNL     1      22.651  47.638 -16.335  1.00  0.00    -0.174 N 
ATOM      9  H4  UNL     1      21.690  47.296 -16.332  1.00  0.00     0.186 HD
HETATM   10  C6  UNL     1      23.400  47.470 -15.221  1.00  0.00     0.159 A 
ENDROOT
BRANCH   4  11
HETATM   11  C4  UNL     1      26.602  49.069 -16.421  1.00  0.00     0.434 C 
HETATM   12  F1  UNL     1      26.712  49.760 -17.634  1.00  0.00    -0.165 F 
HETATM   13  F2  UNL     1      27.444  47.982 -16.492  1.00  0.00    -0.165 F 
HETATM   14  F3  UNL     1      26.893  49.901 -15.359  1.00  0.00    -0.165 F 
ENDBRANCH   4  11
BRANCH  10  15
HETATM   15  N5  UNL     1      22.965  46.902 -14.155  1.00  0.00    -0.274 N 
ATOM     16  H5  UNL     1      23.263  45.943 -13.975  1.00  0.00     0.189 HD
BRANCH  15  17
HETATM   17  N6  UNL     1      22.123  47.494 -13.234  1.00  0.00    -0.223 N 
ATOM     18  H6  UNL     1      21.196  47.778 -13.550  1.00  0.00     0.200 HD
BRANCH  17  19
HETATM   19  S1  UNL     1      22.534  47.783 -11.582  1.00  0.00     0.275 S 
HETATM   20  O1  UNL     1      21.362  47.540 -10.674  1.00  0.00    -0.202 OA
HETATM   21  O2  UNL     1      23.614  46.826 -11.164  1.00  0.00    -0.202 OA
BRANCH  19  22
HETATM   22  C7  UNL     1      23.169  49.440 -11.368  1.00  0.00     0.321 C 
HETATM   23 CL1  UNL     1      24.754  49.315 -10.570  1.00  0.00    -0.089 Cl
HETATM   24 CL2  UNL     1      23.378  50.247 -12.936  1.00  0.00    -0.089 Cl
ENDBRANCH  19  22
ENDBRANCH  17  19
ENDBRANCH  15  17
ENDBRANCH  10  15
BRANCH   7  25
HETATM   25  N3  UNL     1      22.339  48.360 -18.477  1.00  0.00    -0.234 N 
ATOM     26  H32 UNL     1      22.666  48.883 -19.289  1.00  0.00     0.174 HD
ATOM     27  H31 UNL     1      21.403  47.957 -18.519  1.00  0.00     0.174 HD
ENDBRANCH   7  25
TORSDOF 6
ENDMDL
MODEL 4
REMARK VINA RESULT: -8.280616574      1.820      2.166
REMARK  6 active torsions:
REMARK  status: ('A' for Active; 'I' for Inactive)
REMARK    1  A    between atoms: C3_4  and  C4_5 
REMARK    2  A    between atoms: C5_11  and  N3_12 
REMARK    3  A    between atoms: C6_17  and  N5_18 
REMARK    4  A    between atoms: N5_18  and  N6_20 
REMARK    5  A    between atoms: N6_20  and  S1_22 
REMARK    6  A    between atoms: S1_22  and  C7_25 
ROOT
HETATM    1  N1  UNL     1      25.947  47.595 -16.502  1.00  0.00    -0.191 NA
HETATM    2  C1  UNL     1      25.106  48.161 -17.080  1.00  0.00     0.105 C 
HETATM    3  C2  UNL     1      24.070  48.843 -17.800  1.00  0.00     0.122 A 
HETATM    4  C3  UNL     1      24.379  49.458 -19.007  1.00  0.00     0.157 A 
HETATM    5  N2  UNL     1      23.381  50.088 -19.654  1.00  0.00    -0.185 N 
ATOM      6  H2  UNL     1      23.594  50.543 -20.541  1.00  0.00     0.184 HD
HETATM    7  C5  UNL     1      22.122  50.151 -19.197  1.00  0.00     0.678 A 
HETATM    8  N4  UNL     1      21.848  49.546 -18.022  1.00  0.00    -0.174 N 
ATOM      9  H4  UNL     1      20.894  49.586 -17.662  1.00  0.00     0.186 HD
HETATM   10  C6  UNL     1      22.785  48.889 -17.301  1.00  0.00     0.159 A 
ENDROOT
BRANCH   4  11
HETATM   11  C4  UNL     1      25.753  49.425 -19.570  1.00  0.00     0.434 C 
HETATM   12  F1  UNL     1      25.742  50.309 -20.656  1.00  0.00    -0.165 F 
HETATM   13  F2  UNL     1      25.969  48.162 -20.074  1.00  0.00    -0.165 F 
HETATM   14  F3  UNL     1      26.707  49.801 -18.646  1.00  0.00    -0.165 F 
ENDBRANCH   4  11
BRANCH  10  15
HETATM   15  N5  UNL     1      22.538  48.309 -16.182  1.00  0.00    -0.274 N 
ATOM     16  H5  UNL     1      22.840  47.340 -16.075  1.00  0.00     0.189 HD
BRANCH  15  17
HETATM   17  N6  UNL     1      21.895  48.900 -15.113  1.00  0.00    -0.223 N 
ATOM     18  H6  UNL     1      21.251  49.667 -15.310  1.00  0.00     0.200 HD
BRANCH  17  19
HETATM   19  S1  UNL     1      22.106  48.428 -13.466  1.00  0.00     0.275 S 
HETATM   20  O1  UNL     1      21.762  49.549 -12.525  1.00  0.00    -0.202 OA
HETATM   21  O2  UNL     1      21.172  47.294 -13.151  1.00  0.00    -0.202 OA
BRANCH  19  22
HETATM   22  C7  UNL     1      23.773  47.850 -13.181  1.00  0.00     0.321 C 
HETATM   23 CL1  UNL     1      24.881  49.199 -13.520  1.00  0.00    -0.089 Cl
HETATM   24 CL2  UNL     1      23.988  47.342 -11.493  1.00  0.00    -0.089 Cl
ENDBRANCH  19  22
ENDBRANCH  17  19
ENDBRANCH  15  17
ENDBRANCH  10  15
BRANCH   7  25
HETATM   25  N3  UNL     1      21.165  50.762 -19.829  1.00  0.00    -0.234 N 
ATOM     26  H32 UNL     1      20.223  50.374 -19.796  1.00  0.00     0.174 HD
ATOM     27  H31 UNL     1      21.306  51.619 -20.363  1.00  0.00     0.174 HD
ENDBRANCH   7  25
TORSDOF 6
ENDMDL
MODEL 5
REMARK VINA RESULT: -8.144455290      0.623      1.337
REMARK  6 active torsions:
REMARK  status: ('A' for Active; 'I' for Inactive)
REMARK    1  A    between atoms: C3_4  and  C4_5 
REMARK    2  A    between atoms: C5_11  and  N3_12 
REMARK    3  A    between atoms: C6_17  and  N5_18 
REMARK    4  A    between atoms: N5_18  and  N6_20 
REMARK    5  A    between atoms: N6_20  and  S1_22 
REMARK    6  A    between atoms: S1_22  and  C7_25 
ROOT
HETATM    1  N1  UNL     1      26.407  48.164 -13.701  1.00  0.00    -0.191 NA
HETATM    2  C1  UNL     1      25.653  48.279 -14.584  1.00  0.00     0.105 C 
HETATM    3  C2  UNL     1      24.729  48.405 -15.674  1.00  0.00     0.122 A 
HETATM    4  C3  UNL     1      25.213  48.741 -16.933  1.00  0.00     0.157 A 
HETATM    5  N2  UNL     1      24.317  48.849 -17.931  1.00  0.00    -0.185 N 
ATOM      6  H2  UNL     1      24.658  49.095 -18.860  1.00  0.00     0.184 HD
HETATM    7  C5  UNL     1      22.999  48.653 -17.773  1.00  0.00     0.678 A 
HETATM    8  N4  UNL     1      22.556  48.329 -16.540  1.00  0.00    -0.174 N 
ATOM      9  H4  UNL     1      21.556  48.177 -16.404  1.00  0.00     0.186 HD
HETATM   10  C6  UNL     1      23.380  48.197 -15.476  1.00  0.00     0.159 A 
ENDROOT
BRANCH   4  11
HETATM   11  C4  UNL     1      26.660  48.970 -17.177  1.00  0.00     0.434 C 
HETATM   12  F1  UNL     1      27.069  49.891 -16.204  1.00  0.00    -0.165 F 
HETATM   13  F2  UNL     1      26.784  49.588 -18.402  1.00  0.00    -0.165 F 
HETATM   14  F3  UNL     1      27.398  47.808 -17.088  1.00  0.00    -0.165 F 
ENDBRANCH   4  11
BRANCH  10  15
HETATM   15  N5  UNL     1      22.972  47.888 -14.298  1.00  0.00    -0.274 N 
ATOM     16  H5  UNL     1      23.229  46.970 -13.934  1.00  0.00     0.189 HD
BRANCH  15  17
HETATM   17  N6  UNL     1      22.211  48.708 -13.489  1.00  0.00    -0.223 N 
ATOM     18  H6  UNL     1      21.239  48.866 -13.751  1.00  0.00     0.200 HD
BRANCH  17  19
HETATM   19  S1  UNL     1      22.796  49.481 -12.060  1.00  0.00     0.275 S 
HETATM   20  O1  UNL     1      23.926  50.423 -12.370  1.00  0.00    -0.202 OA
HETATM   21  O2  UNL     1      21.695  50.307 -11.456  1.00  0.00    -0.202 OA
BRANCH  19  22
HETATM   22  C7  UNL     1      23.294  48.272 -10.843  1.00  0.00     0.321 C 
HETATM   23 CL1  UNL     1      21.827  47.452 -10.260  1.00  0.00    -0.089 Cl
HETATM   24 CL2  UNL     1      24.382  47.064 -11.557  1.00  0.00    -0.089 Cl
ENDBRANCH  19  22
ENDBRANCH  17  19
ENDBRANCH  15  17
ENDBRANCH  10  15
BRANCH   7  25
HETATM   25  N3  UNL     1      22.142  48.761 -18.742  1.00  0.00    -0.234 N 
ATOM     26  H32 UNL     1      22.051  49.655 -19.226  1.00  0.00     0.174 HD
ATOM     27  H31 UNL     1      21.547  47.993 -19.051  1.00  0.00     0.174 HD
ENDBRANCH   7  25
TORSDOF 6
ENDMDL
