MODEL 1
REMARK VINA RESULT: -7.213214306      0.000      0.000
REMARK  7 active torsions:
REMARK  status: ('A' for Active; 'I' for Inactive)
REMARK    1  A    between atoms: C2_2  and  N1_3 
REMARK    2  A    between atoms: C2_2  and  C3_7 
REMARK    3  A    between atoms: C2_2  and  C10_27 
REMARK    4  A    between atoms: C3_7  and  N2_8 
REMARK    5  A    between atoms: C3_7  and  C6_15 
REMARK       I    between atoms: N2_8  and  C4_10 
REMARK    6  A    between atoms: C4_10  and  C5_12 
REMARK       I    between atoms: C6_15  and  N3_17 
REMARK    7  A    between atoms: N3_17  and  C7_19 
ROOT
HETATM    1  C3  UNL     1      23.636  47.468 -13.657  1.00  0.00     0.125 C 
ENDROOT
BRANCH   1   2
HETATM    2  C2  UNL     1      22.231  47.820 -13.248  1.00  0.00     0.263 C 
HETATM    3  C1  UNL     1      22.057  47.442 -11.757  1.00  0.00     0.063 C 
BRANCH   2   4
HETATM    4  N1  UNL     1      21.321  47.054 -14.037  1.00  0.00    -0.056 N 
ATOM      5  H13 UNL     1      21.521  47.123 -15.035  1.00  0.00     0.276 HD
ATOM      6  H12 UNL     1      21.466  46.050 -13.930  1.00  0.00     0.276 HD
ATOM      7  H11 UNL     1      20.365  47.333 -13.815  1.00  0.00     0.276 HD
ENDBRANCH   2   4
BRANCH   2   8
HETATM    8  C10 UNL     1      22.034  49.307 -13.297  1.00  0.00     0.425 C 
HETATM    9  F1  UNL     1      23.177  50.039 -13.345  1.00  0.00    -0.168 F 
HETATM   10  F2  UNL     1      21.276  49.659 -14.424  1.00  0.00    -0.168 F 
HETATM   11  F3  UNL     1      21.326  49.749 -12.175  1.00  0.00    -0.168 F 
ENDBRANCH   2   8
ENDBRANCH   1   2
BRANCH   1  12
HETATM   12  N2  UNL     1      24.501  47.317 -12.726  1.00  0.00    -0.321 N 
HETATM   13  C4  UNL     1      25.693  47.994 -12.488  1.00  0.00     0.255 C 
HETATM   14  O1  UNL     1      26.723  47.655 -13.170  1.00  0.00    -0.270 OA
ATOM     15  H2  UNL     1      24.283  46.583 -12.051  1.00  0.00     0.169 HD
BRANCH  13  16
HETATM   16  C5  UNL     1      25.850  49.089 -11.488  1.00  0.00     0.270 C 
HETATM   17 CL1  UNL     1      25.973  50.603 -12.448  1.00  0.00    -0.098 Cl
HETATM   18 CL2  UNL     1      24.393  49.233 -10.479  1.00  0.00    -0.098 Cl
ENDBRANCH  13  16
ENDBRANCH   1  12
BRANCH   1  19
HETATM   19  C6  UNL     1      23.940  47.356 -15.073  1.00  0.00     0.272 C 
HETATM   20  O2  UNL     1      23.875  46.256 -15.684  1.00  0.00    -0.266 OA
HETATM   21  N3  UNL     1      24.321  48.518 -15.788  1.00  0.00    -0.307 N 
ATOM     22  H3  UNL     1      23.921  49.404 -15.482  1.00  0.00     0.170 HD
BRANCH  21  23
HETATM   23  C7  UNL     1      25.119  48.553 -16.780  1.00  0.00     0.126 A 
HETATM   24  C8  UNL     1      25.053  49.180 -17.984  1.00  0.00     0.096 A 
HETATM   25  C9  UNL     1      26.178  48.901 -18.708  1.00  0.00     0.134 A 
HETATM   26  N4  UNL     1      26.484  49.367 -20.009  1.00  0.00    -0.081 NA
HETATM   27  N5  UNL     1      26.919  48.098 -17.919  1.00  0.00    -0.286 N 
HETATM   28  N6  UNL     1      26.298  47.886 -16.773  1.00  0.00    -0.284 N 
ATOM     29  H5  UNL     1      27.829  47.711 -18.170  1.00  0.00     0.188 HD
ATOM     30  H6  UNL     1      26.650  47.312 -16.006  1.00  0.00     0.188 HD
ENDBRANCH  21  23
ENDBRANCH   1  19
TORSDOF 7
ENDMDL
MODEL 2
REMARK VINA RESULT: -7.210543560      1.695      2.307
REMARK  7 active torsions:
REMARK  status: ('A' for Active; 'I' for Inactive)
REMARK    1  A    between atoms: C2_2  and  N1_3 
REMARK    2  A    between atoms: C2_2  and  C3_7 
REMARK    3  A    between atoms: C2_2  and  C10_27 
REMARK    4  A    between atoms: C3_7  and  N2_8 
REMARK    5  A    between atoms: C3_7  and  C6_15 
REMARK       I    between atoms: N2_8  and  C4_10 
REMARK    6  A    between atoms: C4_10  and  C5_12 
REMARK       I    between atoms: C6_15  and  N3_17 
REMARK    7  A    between atoms: N3_17  and  C7_19 
ROOT
HETATM    1  C3  UNL     1      22.908  47.647 -12.654  1.00  0.00     0.125 C 
ENDROOT
BRANCH   1   2
HETATM    2  C2  UNL     1      21.748  47.868 -11.722  1.00  0.00     0.263 C 
HETATM    3  C1  UNL     1      22.063  47.151 -10.387  1.00  0.00     0.063 C 
BRANCH   2   4
HETATM    4  N1  UNL     1      20.579  47.290 -12.302  1.00  0.00    -0.056 N 
ATOM      5  H13 UNL     1      19.909  46.983 -11.598  1.00  0.00     0.276 HD
ATOM      6  H12 UNL     1      19.994  47.985 -12.765  1.00  0.00     0.276 HD
ATOM      7  H11 UNL     1      20.854  46.535 -12.930  1.00  0.00     0.276 HD
ENDBRANCH   2   4
BRANCH   2   8
HETATM    8  C10 UNL     1      21.640  49.322 -11.364  1.00  0.00     0.425 C 
HETATM    9  F1  UNL     1      21.539  50.169 -12.421  1.00  0.00    -0.168 F 
HETATM   10  F2  UNL     1      20.513  49.540 -10.556  1.00  0.00    -0.168 F 
HETATM   11  F3  UNL     1      22.755  49.735 -10.629  1.00  0.00    -0.168 F 
ENDBRANCH   2   8
ENDBRANCH   1   2
BRANCH   1  12
HETATM   12  N2  UNL     1      24.082  47.630 -12.143  1.00  0.00    -0.321 N 
HETATM   13  C4  UNL     1      25.329  47.647 -12.758  1.00  0.00     0.255 C 
HETATM   14  O1  UNL     1      25.782  46.546 -13.231  1.00  0.00    -0.270 OA
ATOM     15  H2  UNL     1      24.106  47.598 -11.124  1.00  0.00     0.169 HD
BRANCH  13  16
HETATM   16  C5  UNL     1      26.178  48.866 -12.900  1.00  0.00     0.270 C 
HETATM   17 CL1  UNL     1      26.417  49.082 -14.668  1.00  0.00    -0.098 Cl
HETATM   18 CL2  UNL     1      25.314  50.306 -12.315  1.00  0.00    -0.098 Cl
ENDBRANCH  13  16
ENDBRANCH   1  12
BRANCH   1  19
HETATM   19  C6  UNL     1      22.640  47.503 -14.075  1.00  0.00     0.272 C 
HETATM   20  O2  UNL     1      22.470  46.375 -14.610  1.00  0.00    -0.266 OA
HETATM   21  N3  UNL     1      22.566  48.665 -14.881  1.00  0.00    -0.307 N 
ATOM     22  H3  UNL     1      22.217  49.515 -14.440  1.00  0.00     0.170 HD
BRANCH  21  23
HETATM   23  C7  UNL     1      22.898  48.741 -16.108  1.00  0.00     0.126 A 
HETATM   24  C8  UNL     1      24.063  48.484 -16.758  1.00  0.00     0.096 A 
HETATM   25  C9  UNL     1      23.905  48.722 -18.095  1.00  0.00     0.134 A 
HETATM   26  N4  UNL     1      24.887  48.571 -19.103  1.00  0.00    -0.081 NA
HETATM   27  N5  UNL     1      22.627  49.126 -18.236  1.00  0.00    -0.286 N 
HETATM   28  N6  UNL     1      22.022  49.141 -17.061  1.00  0.00    -0.284 N 
ATOM     29  H5  UNL     1      22.190  49.383 -19.120  1.00  0.00     0.188 HD
ATOM     30  H6  UNL     1      21.051  49.410 -16.899  1.00  0.00     0.188 HD
ENDBRANCH  21  23
ENDBRANCH   1  19
TORSDOF 7
ENDMDL
MODEL 3
REMARK VINA RESULT: -6.802318999      1.621      1.970
REMARK  7 active torsions:
REMARK  status: ('A' for Active; 'I' for Inactive)
REMARK    1  A    between atoms: C2_2  and  N1_3 
REMARK    2  A    between atoms: C2_2  and  C3_7 
REMARK    3  A    between atoms: C2_2  and  C10_27 
REMARK    4  A    between atoms: C3_7  and  N2_8 
REMARK    5  A    between atoms: C3_7  and  C6_15 
REMARK       I    between atoms: N2_8  and  C4_10 
REMARK    6  A    between atoms: C4_10  and  C5_12 
REMARK       I    between atoms: C6_15  and  N3_17 
REMARK    7  A    between atoms: N3_17  and  C7_19 
ROOT
HETATM    1  C3  UNL     1      24.423  47.770 -14.938  1.00  0.00     0.125 C 
ENDROOT
BRANCH   1   2
HETATM    2  C2  UNL     1      22.944  47.780 -15.216  1.00  0.00     0.263 C 
HETATM    3  C1  UNL     1      22.353  46.441 -14.715  1.00  0.00     0.063 C 
BRANCH   2   4
HETATM    4  N1  UNL     1      22.747  47.884 -16.626  1.00  0.00    -0.056 N 
ATOM      5  H13 UNL     1      22.492  46.991 -17.047  1.00  0.00     0.276 HD
ATOM      6  H12 UNL     1      21.899  48.401 -16.861  1.00  0.00     0.276 HD
ATOM      7  H11 UNL     1      23.579  48.290 -17.054  1.00  0.00     0.276 HD
ENDBRANCH   2   4
BRANCH   2   8
HETATM    8  C10 UNL     1      22.268  48.836 -14.391  1.00  0.00     0.425 C 
HETATM    9  F1  UNL     1      23.099  49.765 -13.851  1.00  0.00    -0.168 F 
HETATM   10  F2  UNL     1      21.328  49.531 -15.167  1.00  0.00    -0.168 F 
HETATM   11  F3  UNL     1      21.571  48.259 -13.325  1.00  0.00    -0.168 F 
ENDBRANCH   2   8
ENDBRANCH   1   2
BRANCH   1  12
HETATM   12  N2  UNL     1      24.820  47.164 -13.882  1.00  0.00    -0.321 N 
HETATM   13  C4  UNL     1      25.536  47.641 -12.789  1.00  0.00     0.255 C 
HETATM   14  O1  UNL     1      26.806  47.760 -12.907  1.00  0.00    -0.270 OA
ATOM     15  H2  UNL     1      24.574  46.176 -13.836  1.00  0.00     0.169 HD
BRANCH  13  16
HETATM   16  C5  UNL     1      24.919  48.021 -11.484  1.00  0.00     0.270 C 
HETATM   17 CL1  UNL     1      24.732  49.807 -11.543  1.00  0.00    -0.098 Cl
HETATM   18 CL2  UNL     1      23.286  47.334 -11.336  1.00  0.00    -0.098 Cl
ENDBRANCH  13  16
ENDBRANCH   1  12
BRANCH   1  19
HETATM   19  C6  UNL     1      25.307  48.472 -15.852  1.00  0.00     0.272 C 
HETATM   20  O2  UNL     1      25.955  49.494 -15.500  1.00  0.00    -0.266 OA
HETATM   21  N3  UNL     1      25.445  47.994 -17.178  1.00  0.00    -0.307 N 
ATOM     22  H3  UNL     1      25.355  46.988 -17.320  1.00  0.00     0.170 HD
BRANCH  21  23
HETATM   23  C7  UNL     1      25.672  48.708 -18.207  1.00  0.00     0.126 A 
HETATM   24  C8  UNL     1      24.845  49.345 -19.078  1.00  0.00     0.096 A 
HETATM   25  C9  UNL     1      25.588  49.988 -20.028  1.00  0.00     0.134 A 
HETATM   26  N4  UNL     1      25.096  50.761 -21.107  1.00  0.00    -0.081 NA
HETATM   27  N5  UNL     1      26.872  49.727 -19.713  1.00  0.00    -0.286 N 
HETATM   28  N6  UNL     1      26.931  48.967 -18.634  1.00  0.00    -0.284 N 
ATOM     29  H5  UNL     1      27.681  50.067 -20.232  1.00  0.00     0.188 HD
ATOM     30  H6  UNL     1      27.787  48.631 -18.193  1.00  0.00     0.188 HD
ENDBRANCH  21  23
ENDBRANCH   1  19
TORSDOF 7
ENDMDL
MODEL 4
REMARK VINA RESULT: -6.658590830      3.662      6.405
REMARK  7 active torsions:
REMARK  status: ('A' for Active; 'I' for Inactive)
REMARK    1  A    between atoms: C2_2  and  N1_3 
REMARK    2  A    between atoms: C2_2  and  C3_7 
REMARK    3  A    between atoms: C2_2  and  C10_27 
REMARK    4  A    between atoms: C3_7  and  N2_8 
REMARK    5  A    between atoms: C3_7  and  C6_15 
REMARK       I    between atoms: N2_8  and  C4_10 
REMARK    6  A    between atoms: C4_10  and  C5_12 
REMARK       I    between atoms: C6_15  and  N3_17 
REMARK    7  A    between atoms: N3_17  and  C7_19 
ROOT
HETATM    1  C3  UNL     1      23.975  48.537 -16.888  1.00  0.00     0.125 C 
ENDROOT
BRANCH   1   2
HETATM    2  C2  UNL     1      25.367  48.103 -16.515  1.00  0.00     0.263 C 
HETATM    3  C1  UNL     1      26.331  48.573 -17.631  1.00  0.00     0.063 C 
BRANCH   2   4
HETATM    4  N1  UNL     1      25.395  46.678 -16.438  1.00  0.00    -0.056 N 
ATOM      5  H13 UNL     1      26.300  46.294 -16.711  1.00  0.00     0.276 HD
ATOM      6  H12 UNL     1      25.380  46.342 -15.475  1.00  0.00     0.276 HD
ATOM      7  H11 UNL     1      24.630  46.295 -16.993  1.00  0.00     0.276 HD
ENDBRANCH   2   4
BRANCH   2   8
HETATM    8  C10 UNL     1      25.821  48.825 -15.280  1.00  0.00     0.425 C 
HETATM    9  F1  UNL     1      24.896  49.646 -14.720  1.00  0.00    -0.168 F 
HETATM   10  F2  UNL     1      26.202  47.904 -14.292  1.00  0.00    -0.168 F 
HETATM   11  F3  UNL     1      26.941  49.616 -15.554  1.00  0.00    -0.168 F 
ENDBRANCH   2   8
ENDBRANCH   1   2
BRANCH   1  12
HETATM   12  N2  UNL     1      23.800  49.006 -18.067  1.00  0.00    -0.321 N 
HETATM   13  C4  UNL     1      22.625  49.333 -18.737  1.00  0.00     0.255 C 
HETATM   14  O1  UNL     1      21.956  48.384 -19.277  1.00  0.00    -0.270 OA
ATOM     15  H2  UNL     1      24.655  49.164 -18.598  1.00  0.00     0.169 HD
BRANCH  13  16
HETATM   16  C5  UNL     1      22.096  50.721 -18.871  1.00  0.00     0.270 C 
HETATM   17 CL1  UNL     1      22.694  51.313 -20.458  1.00  0.00    -0.098 Cl
HETATM   18 CL2  UNL     1      20.320  50.712 -18.958  1.00  0.00    -0.098 Cl
ENDBRANCH  13  16
ENDBRANCH   1  12
BRANCH   1  19
HETATM   19  C6  UNL     1      22.925  48.435 -15.890  1.00  0.00     0.272 C 
HETATM   20  O2  UNL     1      21.973  49.261 -15.838  1.00  0.00    -0.266 OA
HETATM   21  N3  UNL     1      22.970  47.379 -14.949  1.00  0.00    -0.307 N 
ATOM     22  H3  UNL     1      23.385  46.500 -15.257  1.00  0.00     0.170 HD
BRANCH  21  23
HETATM   23  C7  UNL     1      22.539  47.429 -13.752  1.00  0.00     0.126 A 
HETATM   24  C8  UNL     1      23.169  47.598 -12.559  1.00  0.00     0.096 A 
HETATM   25  C9  UNL     1      22.249  47.578 -11.549  1.00  0.00     0.134 A 
HETATM   26  N4  UNL     1      22.509  47.722 -10.165  1.00  0.00    -0.081 NA
HETATM   27  N5  UNL     1      21.059  47.395 -12.154  1.00  0.00    -0.286 N 
HETATM   28  N6  UNL     1      21.221  47.305 -13.462  1.00  0.00    -0.284 N 
ATOM     29  H5  UNL     1      20.162  47.335 -11.672  1.00  0.00     0.188 HD
ATOM     30  H6  UNL     1      20.475  47.164 -14.143  1.00  0.00     0.188 HD
ENDBRANCH  21  23
ENDBRANCH   1  19
TORSDOF 7
ENDMDL
MODEL 5
REMARK VINA RESULT: -6.630334372      1.869      3.105
REMARK  7 active torsions:
REMARK  status: ('A' for Active; 'I' for Inactive)
REMARK    1  A    between atoms: C2_2  and  N1_3 
REMARK    2  A    between atoms: C2_2  and  C3_7 
REMARK    3  A    between atoms: C2_2  and  C10_27 
REMARK    4  A    between atoms: C3_7  and  N2_8 
REMARK    5  A    between atoms: C3_7  and  C6_15 
REMARK       I    between atoms: N2_8  and  C4_10 
REMARK    6  A    between atoms: C4_10  and  C5_12 
REMARK       I    between atoms: C6_15  and  N3_17 
REMARK    7  A    between atoms: N3_17  and  C7_19 
ROOT
HETATM    1  C3  UNL     1      23.984  48.354 -14.229  1.00  0.00     0.125 C 
ENDROOT
BRANCH   1   2
HETATM    2  C2  UNL     1      25.093  48.535 -13.228  1.00  0.00     0.263 C 
HETATM    3  C1  UNL     1      26.401  48.813 -14.007  1.00  0.00     0.063 C 
BRANCH   2   4
HETATM    4  N1  UNL     1      25.237  47.325 -12.483  1.00  0.00    -0.056 N 
ATOM      5  H13 UNL     1      25.557  47.494 -11.530  1.00  0.00     0.276 HD
ATOM      6  H12 UNL     1      24.337  46.899 -12.260  1.00  0.00     0.276 HD
ATOM      7  H11 UNL     1      25.851  46.689 -12.991  1.00  0.00     0.276 HD
ENDBRANCH   2   4
BRANCH   2   8
HETATM    8  C10 UNL     1      24.858  49.771 -12.411  1.00  0.00     0.425 C 
HETATM    9  F1  UNL     1      23.759  50.490 -12.758  1.00  0.00    -0.168 F 
HETATM   10  F2  UNL     1      24.717  49.438 -11.055  1.00  0.00    -0.168 F 
HETATM   11  F3  UNL     1      25.948  50.642 -12.506  1.00  0.00    -0.168 F 
ENDBRANCH   2   8
ENDBRANCH   1   2
BRANCH   1  12
HETATM   12  N2  UNL     1      22.785  48.536 -13.821  1.00  0.00    -0.321 N 
HETATM   13  C4  UNL     1      21.918  47.668 -13.164  1.00  0.00     0.255 C 
HETATM   14  O1  UNL     1      21.291  46.800 -13.866  1.00  0.00    -0.270 OA
ATOM     15  H2  UNL     1      22.404  49.463 -14.006  1.00  0.00     0.169 HD
BRANCH  13  16
HETATM   16  C5  UNL     1      21.670  47.685 -11.693  1.00  0.00     0.270 C 
HETATM   17 CL1  UNL     1      23.137  46.963 -10.949  1.00  0.00    -0.098 Cl
HETATM   18 CL2  UNL     1      21.554  49.355 -11.093  1.00  0.00    -0.098 Cl
ENDBRANCH  13  16
ENDBRANCH   1  12
BRANCH   1  19
HETATM   19  C6  UNL     1      24.328  47.950 -15.582  1.00  0.00     0.272 C 
HETATM   20  O2  UNL     1      24.758  46.795 -15.843  1.00  0.00    -0.266 OA
HETATM   21  N3  UNL     1      24.177  48.883 -16.637  1.00  0.00    -0.307 N 
ATOM     22  H3  UNL     1      23.426  49.567 -16.548  1.00  0.00     0.170 HD
BRANCH  21  23
HETATM   23  C7  UNL     1      24.895  48.942 -17.686  1.00  0.00     0.126 A 
HETATM   24  C8  UNL     1      24.693  49.519 -18.901  1.00  0.00     0.096 A 
HETATM   25  C9  UNL     1      25.781  49.299 -19.699  1.00  0.00     0.134 A 
HETATM   26  N4  UNL     1      25.954  49.739 -21.033  1.00  0.00    -0.081 NA
HETATM   27  N5  UNL     1      26.637  48.582 -18.944  1.00  0.00    -0.286 N 
HETATM   28  N6  UNL     1      26.120  48.365 -17.748  1.00  0.00    -0.284 N 
ATOM     29  H5  UNL     1      27.553  48.254 -19.252  1.00  0.00     0.188 HD
ATOM     30  H6  UNL     1      26.569  47.847 -16.994  1.00  0.00     0.188 HD
ENDBRANCH  21  23
ENDBRANCH   1  19
TORSDOF 7
ENDMDL
