MODEL 1
REMARK VINA RESULT: -8.020940687      0.000      0.000
REMARK  5 active torsions:
REMARK  status: ('A' for Active; 'I' for Inactive)
REMARK    1  A    between atoms: C2_2  and  N1_5 
REMARK    2  A    between atoms: C5_8  and  C6_9 
REMARK       I    between atoms: C6_9  and  N2_11 
REMARK    3  A    between atoms: N2_11  and  N3_13 
REMARK       I    between atoms: N3_13  and  C7_15 
REMARK       I    between atoms: C7_15  and  N4_17 
REMARK    4  A    between atoms: N4_17  and  N5_18 
REMARK       I    between atoms: N5_18  and  C8_20 
REMARK    5  A    between atoms: C8_20  and  C9_22 
ROOT
HETATM    1  C6  UNL     1      22.716  49.166 -17.914  1.00  0.00     0.288 C 
HETATM    2  O1  UNL     1      23.687  49.172 -18.728  1.00  0.00    -0.264 OA
HETATM    3  N2  UNL     1      21.614  50.005 -18.184  1.00  0.00    -0.260 N 
ATOM      4  H2  UNL     1      20.809  50.038 -17.559  1.00  0.00     0.190 HD
ENDROOT
BRANCH   3   5
HETATM    5  N3  UNL     1      21.664  50.783 -19.332  1.00  0.00    -0.235 N 
HETATM    6  C7  UNL     1      21.289  52.207 -19.357  1.00  0.00     0.431 C 
HETATM    7  O2  UNL     1      20.956  52.621 -18.231  1.00  0.00    -0.227 OA
HETATM    8  N4  UNL     1      21.352  52.847 -20.560  1.00  0.00    -0.261 NA
ATOM      9  H3  UNL     1      21.977  50.348 -20.200  1.00  0.00     0.193 HD
BRANCH   8  10
HETATM   10  N5  UNL     1      21.389  53.538 -21.701  1.00  0.00    -0.195 N 
HETATM   11  C8  UNL     1      20.985  54.926 -21.775  1.00  0.00     0.279 C 
HETATM   12  O3  UNL     1      20.605  55.482 -20.725  1.00  0.00    -0.268 OA
ATOM     13  H5  UNL     1      21.713  53.073 -22.549  1.00  0.00     0.205 HD
BRANCH  11  14
HETATM   14  C9  UNL     1      20.992  55.734 -23.006  1.00  0.00     0.272 C 
HETATM   15 CL1  UNL     1      21.978  54.913 -24.276  1.00  0.00    -0.098 Cl
HETATM   16 CL2  UNL     1      19.280  55.838 -23.571  1.00  0.00    -0.098 Cl
ENDBRANCH  11  14
ENDBRANCH   8  10
ENDBRANCH   3   5
BRANCH   1  17
HETATM   17  C5  UNL     1      22.781  48.308 -16.760  1.00  0.00     0.119 A 
HETATM   18  C4  UNL     1      23.221  47.003 -16.640  1.00  0.00     0.056 A 
HETATM   19  C3  UNL     1      23.047  46.700 -15.276  1.00  0.00     0.119 A 
HETATM   20  N1  UNL     1      22.535  47.762 -14.636  1.00  0.00    -0.236 N 
HETATM   21  N6  UNL     1      22.388  48.697 -15.545  1.00  0.00    -0.289 N 
ATOM     22  H6  UNL     1      22.013  49.624 -15.344  1.00  0.00     0.187 HD
BRANCH  20  23
HETATM   23  C2  UNL     1      22.198  47.877 -13.233  1.00  0.00     0.336 C 
HETATM   24  C1  UNL     1      22.224  49.285 -12.746  1.00  0.00     0.119 C 
HETATM   25  F1  UNL     1      21.022  47.219 -13.012  1.00  0.00    -0.181 F 
HETATM   26  F2  UNL     1      23.199  47.169 -12.525  1.00  0.00    -0.181 F 
ENDBRANCH  20  23
ENDBRANCH   1  17
TORSDOF 5
ENDMDL
MODEL 2
REMARK VINA RESULT: -7.979543980      5.954      9.566
REMARK  5 active torsions:
REMARK  status: ('A' for Active; 'I' for Inactive)
REMARK    1  A    between atoms: C2_2  and  N1_5 
REMARK    2  A    between atoms: C5_8  and  C6_9 
REMARK       I    between atoms: C6_9  and  N2_11 
REMARK    3  A    between atoms: N2_11  and  N3_13 
REMARK       I    between atoms: N3_13  and  C7_15 
REMARK       I    between atoms: C7_15  and  N4_17 
REMARK    4  A    between atoms: N4_17  and  N5_18 
REMARK       I    between atoms: N5_18  and  C8_20 
REMARK    5  A    between atoms: C8_20  and  C9_22 
ROOT
HETATM    1  C6  UNL     1      21.243  52.344 -19.914  1.00  0.00     0.288 C 
HETATM    2  O1  UNL     1      21.163  52.644 -18.686  1.00  0.00    -0.264 OA
HETATM    3  N2  UNL     1      21.393  50.985 -20.260  1.00  0.00    -0.260 N 
ATOM      4  H2  UNL     1      21.465  50.692 -21.234  1.00  0.00     0.190 HD
ENDROOT
BRANCH   3   5
HETATM    5  N3  UNL     1      21.439  50.059 -19.227  1.00  0.00    -0.235 N 
HETATM    6  C7  UNL     1      22.693  49.464 -18.733  1.00  0.00     0.431 C 
HETATM    7  O2  UNL     1      23.688  49.914 -19.331  1.00  0.00    -0.227 OA
HETATM    8  N4  UNL     1      22.594  48.541 -17.735  1.00  0.00    -0.261 NA
ATOM      9  H3  UNL     1      20.563  49.778 -18.789  1.00  0.00     0.193 HD
BRANCH   8  10
HETATM   10  N5  UNL     1      22.574  47.631 -16.760  1.00  0.00    -0.195 N 
HETATM   11  C8  UNL     1      22.982  47.943 -15.406  1.00  0.00     0.279 C 
HETATM   12  O3  UNL     1      23.347  49.109 -15.159  1.00  0.00    -0.268 OA
ATOM     13  H5  UNL     1      22.262  46.683 -16.974  1.00  0.00     0.205 HD
BRANCH  11  14
HETATM   14  C9  UNL     1      22.995  46.978 -14.293  1.00  0.00     0.272 C 
HETATM   15 CL1  UNL     1      24.532  47.137 -13.359  1.00  0.00    -0.098 Cl
HETATM   16 CL2  UNL     1      21.609  47.405 -13.217  1.00  0.00    -0.098 Cl
ENDBRANCH  11  14
ENDBRANCH   8  10
ENDBRANCH   3   5
BRANCH   1  17
HETATM   17  C5  UNL     1      21.177  53.398 -20.893  1.00  0.00     0.119 A 
HETATM   18  C4  UNL     1      20.438  54.566 -20.900  1.00  0.00     0.056 A 
HETATM   19  C3  UNL     1      20.788  55.194 -22.111  1.00  0.00     0.119 A 
HETATM   20  N1  UNL     1      21.678  54.438 -22.773  1.00  0.00    -0.236 N 
HETATM   21  N6  UNL     1      21.885  53.382 -22.024  1.00  0.00    -0.289 N 
ATOM     22  H6  UNL     1      22.521  52.626 -22.280  1.00  0.00     0.187 HD
BRANCH  20  23
HETATM   23  C2  UNL     1      22.294  54.708 -24.055  1.00  0.00     0.336 C 
HETATM   24  C1  UNL     1      22.868  56.081 -24.142  1.00  0.00     0.119 C 
HETATM   25  F1  UNL     1      23.174  53.703 -24.336  1.00  0.00    -0.181 F 
HETATM   26  F2  UNL     1      21.260  54.623 -25.018  1.00  0.00    -0.181 F 
ENDBRANCH  20  23
ENDBRANCH   1  17
TORSDOF 5
ENDMDL
MODEL 3
REMARK VINA RESULT: -7.918530551      0.788      1.271
REMARK  5 active torsions:
REMARK  status: ('A' for Active; 'I' for Inactive)
REMARK    1  A    between atoms: C2_2  and  N1_5 
REMARK    2  A    between atoms: C5_8  and  C6_9 
REMARK       I    between atoms: C6_9  and  N2_11 
REMARK    3  A    between atoms: N2_11  and  N3_13 
REMARK       I    between atoms: N3_13  and  C7_15 
REMARK       I    between atoms: C7_15  and  N4_17 
REMARK    4  A    between atoms: N4_17  and  N5_18 
REMARK       I    between atoms: N5_18  and  C8_20 
REMARK    5  A    between atoms: C8_20  and  C9_22 
ROOT
HETATM    1  C6  UNL     1      22.650  49.025 -17.730  1.00  0.00     0.288 C 
HETATM    2  O1  UNL     1      23.557  48.861 -18.600  1.00  0.00    -0.264 OA
HETATM    3  N2  UNL     1      21.633  49.966 -17.996  1.00  0.00    -0.260 N 
ATOM      4  H2  UNL     1      20.883  50.137 -17.327  1.00  0.00     0.190 HD
ENDROOT
BRANCH   3   5
HETATM    5  N3  UNL     1      21.690  50.652 -19.201  1.00  0.00    -0.235 N 
HETATM    6  C7  UNL     1      21.339  52.076 -19.336  1.00  0.00     0.431 C 
HETATM    7  O2  UNL     1      21.019  52.582 -18.245  1.00  0.00    -0.227 OA
HETATM    8  N4  UNL     1      21.406  52.618 -20.586  1.00  0.00    -0.261 NA
ATOM      9  H3  UNL     1      21.990  50.145 -20.034  1.00  0.00     0.193 HD
BRANCH   8  10
HETATM   10  N5  UNL     1      21.448  53.217 -21.777  1.00  0.00    -0.195 N 
HETATM   11  C8  UNL     1      21.018  54.587 -21.967  1.00  0.00     0.279 C 
HETATM   12  O3  UNL     1      20.611  55.215 -20.971  1.00  0.00    -0.268 OA
ATOM     13  H5  UNL     1      21.795  52.693 -22.581  1.00  0.00     0.205 HD
BRANCH  11  14
HETATM   14  C9  UNL     1      21.029  55.294 -23.259  1.00  0.00     0.272 C 
HETATM   15 CL1  UNL     1      19.565  56.341 -23.399  1.00  0.00    -0.098 Cl
HETATM   16 CL2  UNL     1      22.500  56.341 -23.267  1.00  0.00    -0.098 Cl
ENDBRANCH  11  14
ENDBRANCH   8  10
ENDBRANCH   3   5
BRANCH   1  17
HETATM   17  C5  UNL     1      22.699  48.248 -16.519  1.00  0.00     0.119 A 
HETATM   18  C4  UNL     1      23.064  46.930 -16.317  1.00  0.00     0.056 A 
HETATM   19  C3  UNL     1      22.914  46.735 -14.930  1.00  0.00     0.119 A 
HETATM   20  N1  UNL     1      22.486  47.870 -14.356  1.00  0.00    -0.236 N 
HETATM   21  N6  UNL     1      22.368  48.745 -15.325  1.00  0.00    -0.289 N 
ATOM     22  H6  UNL     1      22.055  49.705 -15.182  1.00  0.00     0.187 HD
BRANCH  20  23
HETATM   23  C2  UNL     1      22.200  48.103 -12.956  1.00  0.00     0.336 C 
HETATM   24  C1  UNL     1      23.291  47.632 -12.057  1.00  0.00     0.119 C 
HETATM   25  F1  UNL     1      21.854  49.415 -12.795  1.00  0.00    -0.181 F 
HETATM   26  F2  UNL     1      21.047  47.340 -12.654  1.00  0.00    -0.181 F 
ENDBRANCH  20  23
ENDBRANCH   1  17
TORSDOF 5
ENDMDL
MODEL 4
REMARK VINA RESULT: -7.653769529      1.068      1.284
REMARK  5 active torsions:
REMARK  status: ('A' for Active; 'I' for Inactive)
REMARK    1  A    between atoms: C2_2  and  N1_5 
REMARK    2  A    between atoms: C5_8  and  C6_9 
REMARK       I    between atoms: C6_9  and  N2_11 
REMARK    3  A    between atoms: N2_11  and  N3_13 
REMARK       I    between atoms: N3_13  and  C7_15 
REMARK       I    between atoms: C7_15  and  N4_17 
REMARK    4  A    between atoms: N4_17  and  N5_18 
REMARK       I    between atoms: N5_18  and  C8_20 
REMARK    5  A    between atoms: C8_20  and  C9_22 
ROOT
HETATM    1  C6  UNL     1      22.990  48.779 -17.212  1.00  0.00     0.288 C 
HETATM    2  O1  UNL     1      24.038  48.716 -17.922  1.00  0.00    -0.264 OA
HETATM    3  N2  UNL     1      21.921  49.577 -17.671  1.00  0.00    -0.260 N 
ATOM      4  H2  UNL     1      21.057  49.663 -17.135  1.00  0.00     0.190 HD
ENDROOT
BRANCH   3   5
HETATM    5  N3  UNL     1      22.086  50.241 -18.879  1.00  0.00    -0.235 N 
HETATM    6  C7  UNL     1      21.388  51.495 -19.211  1.00  0.00     0.431 C 
HETATM    7  O2  UNL     1      20.669  51.890 -18.275  1.00  0.00    -0.227 OA
HETATM    8  N4  UNL     1      21.615  52.026 -20.447  1.00  0.00    -0.261 NA
ATOM      9  H3  UNL     1      22.721  49.841 -19.569  1.00  0.00     0.193 HD
BRANCH   8  10
HETATM   10  N5  UNL     1      21.788  52.603 -21.637  1.00  0.00    -0.195 N 
HETATM   11  C8  UNL     1      21.362  53.961 -21.905  1.00  0.00     0.279 C 
HETATM   12  O3  UNL     1      20.829  54.600 -20.977  1.00  0.00    -0.268 OA
ATOM     13  H5  UNL     1      22.236  52.071 -22.383  1.00  0.00     0.205 HD
BRANCH  11  14
HETATM   14  C9  UNL     1      21.513  54.644 -23.200  1.00  0.00     0.272 C 
HETATM   15 CL1  UNL     1      22.074  56.341 -22.939  1.00  0.00    -0.098 Cl
HETATM   16 CL2  UNL     1      22.781  53.745 -24.119  1.00  0.00    -0.098 Cl
ENDBRANCH  11  14
ENDBRANCH   8  10
ENDBRANCH   3   5
BRANCH   1  17
HETATM   17  C5  UNL     1      22.939  48.038 -15.979  1.00  0.00     0.119 A 
HETATM   18  C4  UNL     1      23.349  46.749 -15.694  1.00  0.00     0.056 A 
HETATM   19  C3  UNL     1      23.048  46.581 -14.328  1.00  0.00     0.119 A 
HETATM   20  N1  UNL     1      22.494  47.703 -13.844  1.00  0.00    -0.236 N 
HETATM   21  N6  UNL     1      22.443  48.545 -14.849  1.00  0.00    -0.289 N 
ATOM     22  H6  UNL     1      22.063  49.489 -14.773  1.00  0.00     0.187 HD
BRANCH  20  23
HETATM   23  C2  UNL     1      22.034  47.956 -12.496  1.00  0.00     0.336 C 
HETATM   24  C1  UNL     1      22.000  49.407 -12.159  1.00  0.00     0.119 C 
HETATM   25  F1  UNL     1      20.851  47.299 -12.309  1.00  0.00    -0.181 F 
HETATM   26  F2  UNL     1      22.976  47.347 -11.633  1.00  0.00    -0.181 F 
ENDBRANCH  20  23
ENDBRANCH   1  17
TORSDOF 5
ENDMDL
MODEL 5
REMARK VINA RESULT: -7.573400614      1.130      1.477
REMARK  5 active torsions:
REMARK  status: ('A' for Active; 'I' for Inactive)
REMARK    1  A    between atoms: C2_2  and  N1_5 
REMARK    2  A    between atoms: C5_8  and  C6_9 
REMARK       I    between atoms: C6_9  and  N2_11 
REMARK    3  A    between atoms: N2_11  and  N3_13 
REMARK       I    between atoms: N3_13  and  C7_15 
REMARK       I    between atoms: C7_15  and  N4_17 
REMARK    4  A    between atoms: N4_17  and  N5_18 
REMARK       I    between atoms: N5_18  and  C8_20 
REMARK    5  A    between atoms: C8_20  and  C9_22 
ROOT
HETATM    1  C6  UNL     1      23.122  48.924 -17.636  1.00  0.00     0.288 C 
HETATM    2  O1  UNL     1      24.084  48.943 -18.460  1.00  0.00    -0.264 OA
HETATM    3  N2  UNL     1      21.978  49.694 -17.930  1.00  0.00    -0.260 N 
ATOM      4  H2  UNL     1      21.178  49.715 -17.297  1.00  0.00     0.190 HD
ENDROOT
BRANCH   3   5
HETATM    5  N3  UNL     1      21.979  50.424 -19.110  1.00  0.00    -0.235 N 
HETATM    6  C7  UNL     1      21.345  51.747 -19.241  1.00  0.00     0.431 C 
HETATM    7  O2  UNL     1      20.844  52.131 -18.168  1.00  0.00    -0.227 OA
HETATM    8  N4  UNL     1      21.389  52.340 -20.468  1.00  0.00    -0.261 NA
ATOM      9  H3  UNL     1      22.441  50.024 -19.927  1.00  0.00     0.193 HD
BRANCH   8  10
HETATM   10  N5  UNL     1      21.393  52.981 -21.638  1.00  0.00    -0.195 N 
HETATM   11  C8  UNL     1      20.985  54.365 -21.761  1.00  0.00     0.279 C 
HETATM   12  O3  UNL     1      20.634  54.965 -20.726  1.00  0.00    -0.268 OA
ATOM     13  H5  UNL     1      21.694  52.481 -22.475  1.00  0.00     0.205 HD
BRANCH  11  14
HETATM   14  C9  UNL     1      20.956  55.119 -23.025  1.00  0.00     0.272 C 
HETATM   15 CL1  UNL     1      19.379  55.984 -23.189  1.00  0.00    -0.098 Cl
HETATM   16 CL2  UNL     1      22.285  56.338 -22.936  1.00  0.00    -0.098 Cl
ENDBRANCH  11  14
ENDBRANCH   8  10
ENDBRANCH   3   5
BRANCH   1  17
HETATM   17  C5  UNL     1      23.241  48.121 -16.447  1.00  0.00     0.119 A 
HETATM   18  C4  UNL     1      22.885  46.805 -16.218  1.00  0.00     0.056 A 
HETATM   19  C3  UNL     1      23.241  46.576 -14.874  1.00  0.00     0.119 A 
HETATM   20  N1  UNL     1      23.772  47.691 -14.349  1.00  0.00    -0.236 N 
HETATM   21  N6  UNL     1      23.755  48.586 -15.307  1.00  0.00    -0.289 N 
ATOM     22  H6  UNL     1      24.100  49.540 -15.192  1.00  0.00     0.187 HD
BRANCH  20  23
HETATM   23  C2  UNL     1      24.264  47.891 -13.003  1.00  0.00     0.336 C 
HETATM   24  C1  UNL     1      24.531  49.323 -12.692  1.00  0.00     0.119 C 
HETATM   25  F1  UNL     1      23.417  47.267 -12.132  1.00  0.00    -0.181 F 
HETATM   26  F2  UNL     1      25.501  47.206 -12.926  1.00  0.00    -0.181 F 
ENDBRANCH  20  23
ENDBRANCH   1  17
TORSDOF 5
ENDMDL
