MODEL 1
REMARK VINA RESULT: -7.094436997      0.000      0.000
REMARK  8 active torsions:
REMARK  status: ('A' for Active; 'I' for Inactive)
REMARK    1  A    between atoms: C2_2  and  C3_3 
REMARK    2  A    between atoms: C3_3  and  C4_4 
REMARK    3  A    between atoms: C4_4  and  C5_5 
REMARK       I    between atoms: C5_5  and  N1_7 
REMARK    4  A    between atoms: N1_7  and  C6_9 
REMARK    5  A    between atoms: N3_23  and  C16_24 
REMARK    6  A    between atoms: C16_24  and  C17_25 
REMARK    7  A    between atoms: C17_25  and  C18_26 
REMARK    8  A    between atoms: C18_26  and  C19_27 
ROOT
HETATM    1  C3  UNL     1      -0.063  13.067 -41.902  1.00  0.00     0.213 C 
HETATM    2  N2  UNL     1      -0.226  13.719 -40.592  1.00  0.00    -0.047 N 
ATOM      3  H21 UNL     1      -0.129  14.730 -40.680  1.00  0.00     0.280 HD
ATOM      4  H22 UNL     1       0.573  13.522 -39.990  1.00  0.00     0.280 HD
HETATM    5  C12 UNL     1      -1.435  13.388 -39.939  1.00  0.00     0.249 C 
HETATM    6  C13 UNL     1      -2.687  13.574 -40.709  1.00  0.00     0.100 C 
HETATM    7  C14 UNL     1      -3.408  14.869 -40.384  1.00  0.00     0.021 C 
HETATM    8  C15 UNL     1      -2.416  13.622 -42.190  1.00  0.00     0.231 C 
HETATM    9  O2  UNL     1      -3.332  13.609 -43.031  1.00  0.00    -0.273 OA
HETATM   10  N3  UNL     1      -1.083  13.687 -42.722  1.00  0.00    -0.297 N 
ENDROOT
BRANCH   1  11
HETATM   11  C2  UNL     1      -0.298  11.601 -41.699  1.00  0.00     0.058 C 
HETATM   12  C1  UNL     1       0.291  10.708 -42.744  1.00  0.00     0.009 C 
ENDBRANCH   1  11
BRANCH   1  13
HETATM   13  C4  UNL     1       1.292  13.320 -42.416  1.00  0.00     0.164 C 
BRANCH  13  14
HETATM   14  C5  UNL     1       2.076  14.356 -41.752  1.00  0.00     0.222 C 
HETATM   15  O1  UNL     1       1.768  15.560 -41.851  1.00  0.00    -0.273 OA
HETATM   16  N1  UNL     1       3.238  14.052 -40.953  1.00  0.00    -0.356 N 
ATOM     17  H1  UNL     1       3.533  13.083 -40.841  1.00  0.00     0.162 HD
BRANCH  16  18
HETATM   18  C6  UNL     1       3.983  15.099 -40.317  1.00  0.00     0.084 C 
HETATM   19  C7  UNL     1       5.157  15.544 -41.135  1.00  0.00     0.025 C 
HETATM   20  C8  UNL     1       6.336  14.603 -41.040  1.00  0.00     0.002 C 
HETATM   21  C9  UNL     1       6.733  14.313 -39.614  1.00  0.00     0.000 C 
HETATM   22  C10 UNL     1       5.531  13.694 -38.930  1.00  0.00     0.002 C 
HETATM   23  C11 UNL     1       4.434  14.730 -38.922  1.00  0.00     0.025 C 
ENDBRANCH  16  18
ENDBRANCH  13  14
ENDBRANCH   1  13
BRANCH  10  24
HETATM   24  C16 UNL     1      -0.840  14.320 -43.937  1.00  0.00     0.069 C 
BRANCH  24  25
HETATM   25  C17 UNL     1      -0.908  13.524 -45.205  1.00  0.00     0.047 C 
BRANCH  25  26
HETATM   26  C18 UNL     1      -0.040  14.181 -46.262  1.00  0.00     0.036 C 
BRANCH  26  27
HETATM   27  C19 UNL     1      -0.751  15.265 -47.017  1.00  0.00     0.222 C 
HETATM   28  F1  UNL     1      -0.035  15.666 -48.143  1.00  0.00    -0.255 F 
ENDBRANCH  26  27
ENDBRANCH  25  26
ENDBRANCH  24  25
ENDBRANCH  10  24
TORSDOF 8
ENDMDL
MODEL 2
REMARK VINA RESULT: -6.853601657      2.662      4.136
REMARK  8 active torsions:
REMARK  status: ('A' for Active; 'I' for Inactive)
REMARK    1  A    between atoms: C2_2  and  C3_3 
REMARK    2  A    between atoms: C3_3  and  C4_4 
REMARK    3  A    between atoms: C4_4  and  C5_5 
REMARK       I    between atoms: C5_5  and  N1_7 
REMARK    4  A    between atoms: N1_7  and  C6_9 
REMARK    5  A    between atoms: N3_23  and  C16_24 
REMARK    6  A    between atoms: C16_24  and  C17_25 
REMARK    7  A    between atoms: C17_25  and  C18_26 
REMARK    8  A    between atoms: C18_26  and  C19_27 
ROOT
HETATM    1  C3  UNL     1       0.429  13.633 -42.190  1.00  0.00     0.213 C 
HETATM    2  N2  UNL     1       1.114  12.346 -41.986  1.00  0.00    -0.047 N 
ATOM      3  H21 UNL     1       0.679  11.825 -41.225  1.00  0.00     0.280 HD
ATOM      4  H22 UNL     1       2.041  12.491 -41.587  1.00  0.00     0.280 HD
HETATM    5  C12 UNL     1       1.192  11.552 -43.153  1.00  0.00     0.249 C 
HETATM    6  C13 UNL     1      -0.075  11.294 -43.876  1.00  0.00     0.100 C 
HETATM    7  C14 UNL     1      -0.686   9.942 -43.559  1.00  0.00     0.021 C 
HETATM    8  C15 UNL     1      -1.128  12.310 -43.513  1.00  0.00     0.231 C 
HETATM    9  O2  UNL     1      -2.212  12.383 -44.118  1.00  0.00    -0.273 OA
HETATM   10  N3  UNL     1      -0.944  13.253 -42.446  1.00  0.00    -0.297 N 
ENDROOT
BRANCH   1  11
HETATM   11  C2  UNL     1       1.073  14.296 -43.370  1.00  0.00     0.058 C 
HETATM   12  C1  UNL     1       0.178  15.183 -44.174  1.00  0.00     0.009 C 
ENDBRANCH   1  11
BRANCH   1  13
HETATM   13  C4  UNL     1       0.560  14.461 -40.982  1.00  0.00     0.164 C 
BRANCH  13  14
HETATM   14  C5  UNL     1       1.794  15.225 -40.826  1.00  0.00     0.222 C 
HETATM   15  O1  UNL     1       1.855  16.425 -41.159  1.00  0.00    -0.273 OA
HETATM   16  N1  UNL     1       2.998  14.644 -40.284  1.00  0.00    -0.356 N 
ATOM     17  H1  UNL     1       3.001  13.666 -39.996  1.00  0.00     0.162 HD
BRANCH  16  18
HETATM   18  C6  UNL     1       4.191  15.428 -40.146  1.00  0.00     0.084 C 
HETATM   19  C7  UNL     1       5.159  15.196 -41.266  1.00  0.00     0.025 C 
HETATM   20  C8  UNL     1       5.945  13.915 -41.113  1.00  0.00     0.002 C 
HETATM   21  C9  UNL     1       6.617  13.802 -39.768  1.00  0.00     0.000 C 
HETATM   22  C10 UNL     1       5.529  13.861 -38.716  1.00  0.00     0.002 C 
HETATM   23  C11 UNL     1       4.878  15.218 -38.816  1.00  0.00     0.025 C 
ENDBRANCH  16  18
ENDBRANCH  13  14
ENDBRANCH   1  13
BRANCH  10  24
HETATM   24  C16 UNL     1      -2.040  13.730 -41.733  1.00  0.00     0.069 C 
BRANCH  24  25
HETATM   25  C17 UNL     1      -2.843  12.779 -40.898  1.00  0.00     0.047 C 
BRANCH  25  26
HETATM   26  C18 UNL     1      -2.008  12.310 -39.721  1.00  0.00     0.036 C 
BRANCH  26  27
HETATM   27  C19 UNL     1      -2.027  13.269 -38.568  1.00  0.00     0.222 C 
HETATM   28  F1  UNL     1      -1.632  12.657 -37.380  1.00  0.00    -0.255 F 
ENDBRANCH  26  27
ENDBRANCH  25  26
ENDBRANCH  24  25
ENDBRANCH  10  24
TORSDOF 8
ENDMDL
MODEL 3
REMARK VINA RESULT: -6.848821897      0.939      1.029
REMARK  8 active torsions:
REMARK  status: ('A' for Active; 'I' for Inactive)
REMARK    1  A    between atoms: C2_2  and  C3_3 
REMARK    2  A    between atoms: C3_3  and  C4_4 
REMARK    3  A    between atoms: C4_4  and  C5_5 
REMARK       I    between atoms: C5_5  and  N1_7 
REMARK    4  A    between atoms: N1_7  and  C6_9 
REMARK    5  A    between atoms: N3_23  and  C16_24 
REMARK    6  A    between atoms: C16_24  and  C17_25 
REMARK    7  A    between atoms: C17_25  and  C18_26 
REMARK    8  A    between atoms: C18_26  and  C19_27 
ROOT
HETATM    1  C3  UNL     1      -0.269  13.381 -42.432  1.00  0.00     0.213 C 
HETATM    2  N2  UNL     1      -0.815  14.346 -41.464  1.00  0.00    -0.047 N 
ATOM      3  H21 UNL     1      -0.918  15.266 -41.892  1.00  0.00     0.280 HD
ATOM      4  H22 UNL     1      -0.123  14.568 -40.748  1.00  0.00     0.280 HD
HETATM    5  C12 UNL     1      -2.030  13.932 -40.872  1.00  0.00     0.249 C 
HETATM    6  C13 UNL     1      -3.121  13.529 -41.790  1.00  0.00     0.100 C 
HETATM    7  C14 UNL     1      -4.147  14.622 -42.025  1.00  0.00     0.021 C 
HETATM    8  C15 UNL     1      -2.585  13.176 -43.154  1.00  0.00     0.231 C 
HETATM    9  O2  UNL     1      -3.299  12.657 -44.030  1.00  0.00    -0.273 OA
HETATM   10  N3  UNL     1      -1.219  13.419 -43.525  1.00  0.00    -0.297 N 
ENDROOT
BRANCH   1  11
HETATM   11  C2  UNL     1      -0.225  12.047 -41.752  1.00  0.00     0.058 C 
HETATM   12  C1  UNL     1       0.566  10.994 -42.460  1.00  0.00     0.009 C 
ENDBRANCH   1  11
BRANCH   1  13
HETATM   13  C4  UNL     1       1.075  13.806 -42.852  1.00  0.00     0.164 C 
BRANCH  13  14
HETATM   14  C5  UNL     1       1.797  14.711 -41.963  1.00  0.00     0.222 C 
HETATM   15  O1  UNL     1       1.471  15.910 -41.861  1.00  0.00    -0.273 OA
HETATM   16  N1  UNL     1       2.915  14.277 -41.162  1.00  0.00    -0.356 N 
ATOM     17  H1  UNL     1       3.222  13.306 -41.208  1.00  0.00     0.162 HD
BRANCH  16  18
HETATM   18  C6  UNL     1       3.599  15.197 -40.300  1.00  0.00     0.084 C 
HETATM   19  C7  UNL     1       4.642  15.992 -41.026  1.00  0.00     0.025 C 
HETATM   20  C8  UNL     1       5.917  15.217 -41.265  1.00  0.00     0.002 C 
HETATM   21  C9  UNL     1       6.469  14.602 -40.003  1.00  0.00     0.000 C 
HETATM   22  C10 UNL     1       5.404  13.675 -39.452  1.00  0.00     0.002 C 
HETATM   23  C11 UNL     1       4.210  14.523 -39.092  1.00  0.00     0.025 C 
ENDBRANCH  16  18
ENDBRANCH  13  14
ENDBRANCH   1  13
BRANCH  10  24
HETATM   24  C16 UNL     1      -0.886  13.676 -44.851  1.00  0.00     0.069 C 
BRANCH  24  25
HETATM   25  C17 UNL     1      -1.126  15.043 -45.417  1.00  0.00     0.047 C 
BRANCH  25  26
HETATM   26  C18 UNL     1      -1.514  14.925 -46.879  1.00  0.00     0.036 C 
BRANCH  26  27
HETATM   27  C19 UNL     1      -0.684  15.791 -47.780  1.00  0.00     0.222 C 
HETATM   28  F1  UNL     1      -1.317  17.000 -48.061  1.00  0.00    -0.255 F 
ENDBRANCH  26  27
ENDBRANCH  25  26
ENDBRANCH  24  25
ENDBRANCH  10  24
TORSDOF 8
ENDMDL
MODEL 4
REMARK VINA RESULT: -6.804756058      1.320      1.466
REMARK  8 active torsions:
REMARK  status: ('A' for Active; 'I' for Inactive)
REMARK    1  A    between atoms: C2_2  and  C3_3 
REMARK    2  A    between atoms: C3_3  and  C4_4 
REMARK    3  A    between atoms: C4_4  and  C5_5 
REMARK       I    between atoms: C5_5  and  N1_7 
REMARK    4  A    between atoms: N1_7  and  C6_9 
REMARK    5  A    between atoms: N3_23  and  C16_24 
REMARK    6  A    between atoms: C16_24  and  C17_25 
REMARK    7  A    between atoms: C17_25  and  C18_26 
REMARK    8  A    between atoms: C18_26  and  C19_27 
ROOT
HETATM    1  C3  UNL     1      -0.036  13.057 -41.856  1.00  0.00     0.213 C 
HETATM    2  N2  UNL     1      -0.211  13.740 -40.564  1.00  0.00    -0.047 N 
ATOM      3  H21 UNL     1      -0.108  14.748 -40.674  1.00  0.00     0.280 HD
ATOM      4  H22 UNL     1       0.579  13.553 -39.948  1.00  0.00     0.280 HD
HETATM    5  C12 UNL     1      -1.430  13.430 -39.919  1.00  0.00     0.249 C 
HETATM    6  C13 UNL     1      -2.672  13.605 -40.709  1.00  0.00     0.100 C 
HETATM    7  C14 UNL     1      -3.389  14.912 -40.423  1.00  0.00     0.021 C 
HETATM    8  C15 UNL     1      -2.381  13.618 -42.187  1.00  0.00     0.231 C 
HETATM    9  O2  UNL     1      -3.287  13.591 -43.039  1.00  0.00    -0.273 OA
HETATM   10  N3  UNL     1      -1.042  13.664 -42.703  1.00  0.00    -0.297 N 
ENDROOT
BRANCH   1  11
HETATM   11  C2  UNL     1      -0.281  11.597 -41.624  1.00  0.00     0.058 C 
HETATM   12  C1  UNL     1       0.406  10.673 -42.577  1.00  0.00     0.009 C 
ENDBRANCH   1  11
BRANCH   1  13
HETATM   13  C4  UNL     1       1.327  13.290 -42.359  1.00  0.00     0.164 C 
BRANCH  13  14
HETATM   14  C5  UNL     1       2.112  14.332 -41.704  1.00  0.00     0.222 C 
HETATM   15  O1  UNL     1       1.796  15.534 -41.802  1.00  0.00    -0.273 OA
HETATM   16  N1  UNL     1       3.282  14.035 -40.915  1.00  0.00    -0.356 N 
ATOM     17  H1  UNL     1       3.583  13.068 -40.803  1.00  0.00     0.162 HD
BRANCH  16  18
HETATM   18  C6  UNL     1       4.027  15.087 -40.286  1.00  0.00     0.084 C 
HETATM   19  C7  UNL     1       5.205  15.521 -41.105  1.00  0.00     0.025 C 
HETATM   20  C8  UNL     1       6.381  14.578 -40.995  1.00  0.00     0.002 C 
HETATM   21  C9  UNL     1       6.773  14.302 -39.565  1.00  0.00     0.000 C 
HETATM   22  C10 UNL     1       5.566  13.693 -38.879  1.00  0.00     0.002 C 
HETATM   23  C11 UNL     1       4.472  14.732 -38.886  1.00  0.00     0.025 C 
ENDBRANCH  16  18
ENDBRANCH  13  14
ENDBRANCH   1  13
BRANCH  10  24
HETATM   24  C16 UNL     1      -0.780  14.267 -43.930  1.00  0.00     0.069 C 
BRANCH  24  25
HETATM   25  C17 UNL     1      -0.384  13.416 -45.097  1.00  0.00     0.047 C 
BRANCH  25  26
HETATM   26  C18 UNL     1      -1.580  13.223 -46.012  1.00  0.00     0.036 C 
BRANCH  26  27
HETATM   27  C19 UNL     1      -2.110  11.820 -45.998  1.00  0.00     0.222 C 
HETATM   28  F1  UNL     1      -2.056  11.260 -44.723  1.00  0.00    -0.255 F 
ENDBRANCH  26  27
ENDBRANCH  25  26
ENDBRANCH  24  25
ENDBRANCH  10  24
TORSDOF 8
ENDMDL
MODEL 5
REMARK VINA RESULT: -6.665378668      3.382      7.365
REMARK  8 active torsions:
REMARK  status: ('A' for Active; 'I' for Inactive)
REMARK    1  A    between atoms: C2_2  and  C3_3 
REMARK    2  A    between atoms: C3_3  and  C4_4 
REMARK    3  A    between atoms: C4_4  and  C5_5 
REMARK       I    between atoms: C5_5  and  N1_7 
REMARK    4  A    between atoms: N1_7  and  C6_9 
REMARK    5  A    between atoms: N3_23  and  C16_24 
REMARK    6  A    between atoms: C16_24  and  C17_25 
REMARK    7  A    between atoms: C17_25  and  C18_26 
REMARK    8  A    between atoms: C18_26  and  C19_27 
ROOT
HETATM    1  C3  UNL     1      -2.066  13.318 -40.117  1.00  0.00     0.213 C 
HETATM    2  N2  UNL     1      -3.320  12.746 -40.633  1.00  0.00    -0.047 N 
ATOM      3  H21 UNL     1      -3.576  13.180 -41.519  1.00  0.00     0.280 HD
ATOM      4  H22 UNL     1      -4.112  13.042 -40.063  1.00  0.00     0.280 HD
HETATM    5  C12 UNL     1      -3.294  11.338 -40.756  1.00  0.00     0.249 C 
HETATM    6  C13 UNL     1      -2.168  10.751 -41.520  1.00  0.00     0.100 C 
HETATM    7  C14 UNL     1      -2.527  10.405 -42.953  1.00  0.00     0.021 C 
HETATM    8  C15 UNL     1      -1.012  11.713 -41.613  1.00  0.00     0.231 C 
HETATM    9  O2  UNL     1       0.095  11.373 -42.067  1.00  0.00    -0.273 OA
HETATM   10  N3  UNL     1      -1.117  13.080 -41.185  1.00  0.00    -0.297 N 
ENDROOT
BRANCH   1  11
HETATM   11  C2  UNL     1      -1.722  12.575 -38.863  1.00  0.00     0.058 C 
HETATM   12  C1  UNL     1      -2.099  13.260 -37.589  1.00  0.00     0.009 C 
ENDBRANCH   1  11
BRANCH   1  13
HETATM   13  C4  UNL     1      -2.250  14.753 -39.848  1.00  0.00     0.164 C 
BRANCH  13  14
HETATM   14  C5  UNL     1      -3.577  15.312 -40.083  1.00  0.00     0.222 C 
HETATM   15  O1  UNL     1      -4.223  15.848 -39.161  1.00  0.00    -0.273 OA
HETATM   16  N1  UNL     1      -4.210  15.279 -41.379  1.00  0.00    -0.356 N 
ATOM     17  H1  UNL     1      -3.724  14.852 -42.167  1.00  0.00     0.162 HD
BRANCH  16  18
HETATM   18  C6  UNL     1      -5.516  15.840 -41.570  1.00  0.00     0.084 C 
HETATM   19  C7  UNL     1      -6.606  14.921 -41.106  1.00  0.00     0.025 C 
HETATM   20  C8  UNL     1      -6.903  13.812 -42.088  1.00  0.00     0.002 C 
HETATM   21  C9  UNL     1      -7.168  14.325 -43.481  1.00  0.00     0.000 C 
HETATM   22  C10 UNL     1      -5.931  15.080 -43.924  1.00  0.00     0.002 C 
HETATM   23  C11 UNL     1      -5.768  16.261 -43.000  1.00  0.00     0.025 C 
ENDBRANCH  16  18
ENDBRANCH  13  14
ENDBRANCH   1  13
BRANCH  10  24
HETATM   24  C16 UNL     1      -0.348  14.068 -41.791  1.00  0.00     0.069 C 
BRANCH  24  25
HETATM   25  C17 UNL     1       0.985  14.423 -41.205  1.00  0.00     0.047 C 
BRANCH  25  26
HETATM   26  C18 UNL     1       1.298  15.878 -41.503  1.00  0.00     0.036 C 
BRANCH  26  27
HETATM   27  C19 UNL     1       2.716  16.251 -41.187  1.00  0.00     0.222 C 
HETATM   28  F1  UNL     1       2.860  17.625 -41.002  1.00  0.00    -0.255 F 
ENDBRANCH  26  27
ENDBRANCH  25  26
ENDBRANCH  24  25
ENDBRANCH  10  24
TORSDOF 8
ENDMDL
