MODEL 1
REMARK VINA RESULT: -7.864037183      0.000      0.000
REMARK  8 active torsions:
REMARK  status: ('A' for Active; 'I' for Inactive)
REMARK    1  A    between atoms: C1_2  and  C2_3 
REMARK       I    between atoms: C1_2  and  N1_11 
REMARK    2  A    between atoms: C2_3  and  C3_4 
REMARK    3  A    between atoms: N1_11  and  C10_13 
REMARK    4  A    between atoms: C10_13  and  C11_14 
REMARK    5  A    between atoms: C10_13  and  C16_19 
REMARK    6  A    between atoms: C11_14  and  C12_15 
REMARK       I    between atoms: C16_19  and  N2_21 
REMARK    7  A    between atoms: N2_21  and  C17_23 
REMARK    8  A    between atoms: C17_23  and  C18_24 
ROOT
HETATM    1  C10 UNL     1       0.462  13.534 -42.075  1.00  0.00     0.177 C 
ENDROOT
BRANCH   1   2
HETATM    2  N1  UNL     1       1.437  14.375 -41.453  1.00  0.00    -0.348 N 
HETATM    3  C1  UNL     1       2.830  14.021 -41.371  1.00  0.00     0.218 C 
HETATM    4  O1  UNL     1       3.131  12.918 -41.888  1.00  0.00    -0.274 OA
ATOM      5  H1  UNL     1       1.133  15.261 -41.051  1.00  0.00     0.163 HD
BRANCH   3   6
HETATM    6  C2  UNL     1       3.813  14.905 -40.721  1.00  0.00     0.107 C 
BRANCH   6   7
HETATM    7  C3  UNL     1       4.890  14.179 -39.954  1.00  0.00    -0.006 C 
HETATM    8  C4  UNL     1       5.046  14.940 -38.636  1.00  0.00     0.005 C 
HETATM    9  C5  UNL     1       5.647  14.101 -37.563  1.00  0.00     0.000 C 
HETATM   10  C6  UNL     1       7.131  14.088 -37.484  1.00  0.00     0.000 C 
HETATM   11  C7  UNL     1       7.743  14.616 -38.755  1.00  0.00     0.000 C 
HETATM   12  C8  UNL     1       7.367  13.811 -39.952  1.00  0.00     0.000 C 
HETATM   13  C9  UNL     1       6.199  14.383 -40.727  1.00  0.00     0.005 C 
ENDBRANCH   6   7
ENDBRANCH   3   6
ENDBRANCH   1   2
BRANCH   1  14
HETATM   14  C11 UNL     1      -0.919  13.618 -41.525  1.00  0.00     0.039 C 
BRANCH  14  15
HETATM   15  C12 UNL     1      -1.072  13.865 -40.077  1.00  0.00    -0.012 C 
HETATM   16  C13 UNL     1      -1.413  12.689 -39.204  1.00  0.00     0.005 C 
HETATM   17  C14 UNL     1      -2.348  13.624 -38.439  1.00  0.00     0.001 C 
HETATM   18  C15 UNL     1      -2.467  14.416 -39.719  1.00  0.00     0.005 C 
ENDBRANCH  14  15
ENDBRANCH   1  14
BRANCH   1  19
HETATM   19  C16 UNL     1       0.434  13.668 -43.539  1.00  0.00     0.240 C 
HETATM   20  O2  UNL     1       0.680  12.695 -44.320  1.00  0.00    -0.271 OA
HETATM   21  N2  UNL     1       0.126  14.911 -44.122  1.00  0.00    -0.358 N 
ATOM     22  H2  UNL     1      -0.078  15.717 -43.530  1.00  0.00     0.162 HD
BRANCH  21  23
HETATM   23  C17 UNL     1       0.100  15.046 -45.570  1.00  0.00     0.137 C 
BRANCH  23  24
HETATM   24  C18 UNL     1      -1.309  15.145 -46.091  1.00  0.00     0.134 C 
HETATM   25 CL1  UNL     1      -1.265  16.112 -47.586  1.00  0.00    -0.129 Cl
ENDBRANCH  23  24
ENDBRANCH  21  23
ENDBRANCH   1  19
TORSDOF 8
ENDMDL
MODEL 2
REMARK VINA RESULT: -7.593966564      1.292      1.798
REMARK  8 active torsions:
REMARK  status: ('A' for Active; 'I' for Inactive)
REMARK    1  A    between atoms: C1_2  and  C2_3 
REMARK       I    between atoms: C1_2  and  N1_11 
REMARK    2  A    between atoms: C2_3  and  C3_4 
REMARK    3  A    between atoms: N1_11  and  C10_13 
REMARK    4  A    between atoms: C10_13  and  C11_14 
REMARK    5  A    between atoms: C10_13  and  C16_19 
REMARK    6  A    between atoms: C11_14  and  C12_15 
REMARK       I    between atoms: C16_19  and  N2_21 
REMARK    7  A    between atoms: N2_21  and  C17_23 
REMARK    8  A    between atoms: C17_23  and  C18_24 
ROOT
HETATM    1  C10 UNL     1       1.206  14.455 -41.523  1.00  0.00     0.177 C 
ENDROOT
BRANCH   1   2
HETATM    2  N1  UNL     1       2.279  15.354 -41.234  1.00  0.00    -0.348 N 
HETATM    3  C1  UNL     1       3.652  14.927 -41.155  1.00  0.00     0.218 C 
HETATM    4  O1  UNL     1       3.841  13.704 -41.360  1.00  0.00    -0.274 OA
ATOM      5  H1  UNL     1       2.064  16.339 -41.078  1.00  0.00     0.163 HD
BRANCH   3   6
HETATM    6  C2  UNL     1       4.738  15.875 -40.852  1.00  0.00     0.107 C 
BRANCH   6   7
HETATM    7  C3  UNL     1       5.682  15.412 -39.771  1.00  0.00    -0.006 C 
HETATM    8  C4  UNL     1       6.525  14.302 -40.403  1.00  0.00     0.005 C 
HETATM    9  C5  UNL     1       7.820  14.099 -39.698  1.00  0.00     0.000 C 
HETATM   10  C6  UNL     1       7.812  13.149 -38.555  1.00  0.00     0.000 C 
HETATM   11  C7  UNL     1       6.405  12.878 -38.089  1.00  0.00     0.000 C 
HETATM   12  C8  UNL     1       5.703  14.111 -37.631  1.00  0.00     0.000 C 
HETATM   13  C9  UNL     1       4.825  14.739 -38.691  1.00  0.00     0.005 C 
ENDBRANCH   6   7
ENDBRANCH   3   6
ENDBRANCH   1   2
BRANCH   1  14
HETATM   14  C11 UNL     1      -0.097  14.761 -40.869  1.00  0.00     0.039 C 
BRANCH  14  15
HETATM   15  C12 UNL     1      -0.753  13.686 -40.099  1.00  0.00    -0.012 C 
HETATM   16  C13 UNL     1      -1.413  12.580 -40.876  1.00  0.00     0.005 C 
HETATM   17  C14 UNL     1      -2.538  12.628 -39.842  1.00  0.00     0.001 C 
HETATM   18  C15 UNL     1      -2.169  14.078 -39.633  1.00  0.00     0.005 C 
ENDBRANCH  14  15
ENDBRANCH   1  14
BRANCH   1  19
HETATM   19  C16 UNL     1       1.011  14.233 -42.963  1.00  0.00     0.240 C 
HETATM   20  O2  UNL     1       1.370  13.161 -43.545  1.00  0.00    -0.271 OA
HETATM   21  N2  UNL     1       0.404  15.230 -43.749  1.00  0.00    -0.358 N 
ATOM     22  H2  UNL     1       0.101  16.105 -43.320  1.00  0.00     0.162 HD
BRANCH  21  23
HETATM   23  C17 UNL     1       0.212  15.013 -45.174  1.00  0.00     0.137 C 
BRANCH  23  24
HETATM   24  C18 UNL     1      -1.244  15.070 -45.551  1.00  0.00     0.134 C 
HETATM   25 CL1  UNL     1      -2.141  14.054 -44.395  1.00  0.00    -0.129 Cl
ENDBRANCH  23  24
ENDBRANCH  21  23
ENDBRANCH   1  19
TORSDOF 8
ENDMDL
MODEL 3
REMARK VINA RESULT: -7.566265447      1.023      1.054
REMARK  8 active torsions:
REMARK  status: ('A' for Active; 'I' for Inactive)
REMARK    1  A    between atoms: C1_2  and  C2_3 
REMARK       I    between atoms: C1_2  and  N1_11 
REMARK    2  A    between atoms: C2_3  and  C3_4 
REMARK    3  A    between atoms: N1_11  and  C10_13 
REMARK    4  A    between atoms: C10_13  and  C11_14 
REMARK    5  A    between atoms: C10_13  and  C16_19 
REMARK    6  A    between atoms: C11_14  and  C12_15 
REMARK       I    between atoms: C16_19  and  N2_21 
REMARK    7  A    between atoms: N2_21  and  C17_23 
REMARK    8  A    between atoms: C17_23  and  C18_24 
ROOT
HETATM    1  C10 UNL     1       0.620  13.551 -41.940  1.00  0.00     0.177 C 
ENDROOT
BRANCH   1   2
HETATM    2  N1  UNL     1       1.838  14.075 -41.406  1.00  0.00    -0.348 N 
HETATM    3  C1  UNL     1       2.150  15.480 -41.413  1.00  0.00     0.218 C 
HETATM    4  O1  UNL     1       1.272  16.218 -41.922  1.00  0.00    -0.274 OA
ATOM      5  H1  UNL     1       2.515  13.426 -41.002  1.00  0.00     0.163 HD
BRANCH   3   6
HETATM    6  C2  UNL     1       3.415  15.992 -40.858  1.00  0.00     0.107 C 
BRANCH   6   7
HETATM    7  C3  UNL     1       4.384  14.919 -40.429  1.00  0.00    -0.006 C 
HETATM    8  C4  UNL     1       4.747  15.243 -38.978  1.00  0.00     0.005 C 
HETATM    9  C5  UNL     1       5.246  14.052 -38.236  1.00  0.00     0.000 C 
HETATM   10  C6  UNL     1       6.705  13.784 -38.318  1.00  0.00     0.000 C 
HETATM   11  C7  UNL     1       7.331  14.545 -39.456  1.00  0.00     0.000 C 
HETATM   12  C8  UNL     1       6.750  14.180 -40.780  1.00  0.00     0.000 C 
HETATM   13  C9  UNL     1       5.664  15.123 -41.248  1.00  0.00     0.005 C 
ENDBRANCH   6   7
ENDBRANCH   3   6
ENDBRANCH   1   2
BRANCH   1  14
HETATM   14  C11 UNL     1      -0.637  14.094 -41.355  1.00  0.00     0.039 C 
BRANCH  14  15
HETATM   15  C12 UNL     1      -0.881  13.873 -39.917  1.00  0.00    -0.012 C 
HETATM   16  C13 UNL     1      -1.352  12.508 -39.494  1.00  0.00     0.005 C 
HETATM   17  C14 UNL     1      -2.286  13.216 -38.514  1.00  0.00     0.001 C 
HETATM   18  C15 UNL     1      -2.264  14.385 -39.469  1.00  0.00     0.005 C 
ENDBRANCH  14  15
ENDBRANCH   1  14
BRANCH   1  19
HETATM   19  C16 UNL     1       0.563  13.607 -43.409  1.00  0.00     0.240 C 
HETATM   20  O2  UNL     1       0.952  12.647 -44.146  1.00  0.00    -0.271 OA
HETATM   21  N2  UNL     1       0.062  14.758 -44.045  1.00  0.00    -0.358 N 
ATOM     22  H2  UNL     1      -0.261  15.550 -43.489  1.00  0.00     0.162 HD
BRANCH  21  23
HETATM   23  C17 UNL     1       0.006  14.817 -45.497  1.00  0.00     0.137 C 
BRANCH  23  24
HETATM   24  C18 UNL     1      -1.368  15.196 -45.983  1.00  0.00     0.134 C 
HETATM   25 CL1  UNL     1      -1.176  16.040 -47.540  1.00  0.00    -0.129 Cl
ENDBRANCH  23  24
ENDBRANCH  21  23
ENDBRANCH   1  19
TORSDOF 8
ENDMDL
MODEL 4
REMARK VINA RESULT: -7.476096835      2.837      4.437
REMARK  8 active torsions:
REMARK  status: ('A' for Active; 'I' for Inactive)
REMARK    1  A    between atoms: C1_2  and  C2_3 
REMARK       I    between atoms: C1_2  and  N1_11 
REMARK    2  A    between atoms: C2_3  and  C3_4 
REMARK    3  A    between atoms: N1_11  and  C10_13 
REMARK    4  A    between atoms: C10_13  and  C11_14 
REMARK    5  A    between atoms: C10_13  and  C16_19 
REMARK    6  A    between atoms: C11_14  and  C12_15 
REMARK       I    between atoms: C16_19  and  N2_21 
REMARK    7  A    between atoms: N2_21  and  C17_23 
REMARK    8  A    between atoms: C17_23  and  C18_24 
ROOT
HETATM    1  C10 UNL     1       0.450  14.202 -41.829  1.00  0.00     0.177 C 
ENDROOT
BRANCH   1   2
HETATM    2  N1  UNL     1       1.696  14.539 -41.214  1.00  0.00    -0.348 N 
HETATM    3  C1  UNL     1       2.242  15.871 -41.243  1.00  0.00     0.218 C 
HETATM    4  O1  UNL     1       1.545  16.720 -41.849  1.00  0.00    -0.274 OA
ATOM      5  H1  UNL     1       2.219  13.807 -40.734  1.00  0.00     0.163 HD
BRANCH   3   6
HETATM    6  C2  UNL     1       3.531  16.190 -40.604  1.00  0.00     0.107 C 
BRANCH   6   7
HETATM    7  C3  UNL     1       4.404  14.989 -40.336  1.00  0.00    -0.006 C 
HETATM    8  C4  UNL     1       4.907  15.153 -38.900  1.00  0.00     0.005 C 
HETATM    9  C5  UNL     1       5.325  13.860 -38.292  1.00  0.00     0.000 C 
HETATM   10  C6  UNL     1       6.736  13.449 -38.513  1.00  0.00     0.000 C 
HETATM   11  C7  UNL     1       7.356  14.232 -39.640  1.00  0.00     0.000 C 
HETATM   12  C8  UNL     1       6.643  14.040 -40.935  1.00  0.00     0.000 C 
HETATM   13  C9  UNL     1       5.635  15.127 -41.241  1.00  0.00     0.005 C 
ENDBRANCH   6   7
ENDBRANCH   3   6
ENDBRANCH   1   2
BRANCH   1  14
HETATM   14  C11 UNL     1       0.499  13.122 -42.853  1.00  0.00     0.039 C 
BRANCH  14  15
HETATM   15  C12 UNL     1       0.171  13.477 -44.247  1.00  0.00    -0.012 C 
HETATM   16  C13 UNL     1       0.394  14.902 -44.671  1.00  0.00     0.005 C 
HETATM   17  C14 UNL     1      -0.914  14.796 -45.453  1.00  0.00     0.001 C 
HETATM   18  C15 UNL     1      -1.333  13.752 -44.445  1.00  0.00     0.005 C 
ENDBRANCH  14  15
ENDBRANCH   1  14
BRANCH   1  19
HETATM   19  C16 UNL     1      -0.620  13.932 -40.856  1.00  0.00     0.240 C 
HETATM   20  O2  UNL     1      -1.312  14.858 -40.327  1.00  0.00    -0.271 OA
HETATM   21  N2  UNL     1      -0.906  12.606 -40.482  1.00  0.00    -0.358 N 
ATOM     22  H2  UNL     1      -0.374  11.835 -40.885  1.00  0.00     0.162 HD
BRANCH  21  23
HETATM   23  C17 UNL     1      -1.962  12.337 -39.519  1.00  0.00     0.137 C 
BRANCH  23  24
HETATM   24  C18 UNL     1      -1.470  12.478 -38.103  1.00  0.00     0.134 C 
HETATM   25 CL1  UNL     1      -2.468  13.721 -37.307  1.00  0.00    -0.129 Cl
ENDBRANCH  23  24
ENDBRANCH  21  23
ENDBRANCH   1  19
TORSDOF 8
ENDMDL
MODEL 5
REMARK VINA RESULT: -7.433647132      2.802      4.226
REMARK  8 active torsions:
REMARK  status: ('A' for Active; 'I' for Inactive)
REMARK    1  A    between atoms: C1_2  and  C2_3 
REMARK       I    between atoms: C1_2  and  N1_11 
REMARK    2  A    between atoms: C2_3  and  C3_4 
REMARK    3  A    between atoms: N1_11  and  C10_13 
REMARK    4  A    between atoms: C10_13  and  C11_14 
REMARK    5  A    between atoms: C10_13  and  C16_19 
REMARK    6  A    between atoms: C11_14  and  C12_15 
REMARK       I    between atoms: C16_19  and  N2_21 
REMARK    7  A    between atoms: N2_21  and  C17_23 
REMARK    8  A    between atoms: C17_23  and  C18_24 
ROOT
HETATM    1  C10 UNL     1       0.437  14.330 -41.632  1.00  0.00     0.177 C 
ENDROOT
BRANCH   1   2
HETATM    2  N1  UNL     1       1.723  14.636 -41.088  1.00  0.00    -0.348 N 
HETATM    3  C1  UNL     1       2.315  15.946 -41.181  1.00  0.00     0.218 C 
HETATM    4  O1  UNL     1       1.618  16.804 -41.775  1.00  0.00    -0.274 OA
ATOM      5  H1  UNL     1       2.243  13.898 -40.615  1.00  0.00     0.163 HD
BRANCH   3   6
HETATM    6  C2  UNL     1       3.644  16.233 -40.615  1.00  0.00     0.107 C 
BRANCH   6   7
HETATM    7  C3  UNL     1       4.477  15.007 -40.333  1.00  0.00    -0.006 C 
HETATM    8  C4  UNL     1       5.003  15.180 -38.907  1.00  0.00     0.005 C 
HETATM    9  C5  UNL     1       5.381  13.884 -38.278  1.00  0.00     0.000 C 
HETATM   10  C6  UNL     1       6.773  13.418 -38.507  1.00  0.00     0.000 C 
HETATM   11  C7  UNL     1       7.407  14.155 -39.656  1.00  0.00     0.000 C 
HETATM   12  C8  UNL     1       6.672  13.964 -40.939  1.00  0.00     0.000 C 
HETATM   13  C9  UNL     1       5.701  15.081 -41.255  1.00  0.00     0.005 C 
ENDBRANCH   6   7
ENDBRANCH   3   6
ENDBRANCH   1   2
BRANCH   1  14
HETATM   14  C11 UNL     1       0.392  13.206 -42.608  1.00  0.00     0.039 C 
BRANCH  14  15
HETATM   15  C12 UNL     1       0.195  13.537 -44.033  1.00  0.00    -0.012 C 
HETATM   16  C13 UNL     1       0.469  14.952 -44.462  1.00  0.00     0.005 C 
HETATM   17  C14 UNL     1      -0.764  14.840 -45.357  1.00  0.00     0.001 C 
HETATM   18  C15 UNL     1      -1.282  13.819 -44.372  1.00  0.00     0.005 C 
ENDBRANCH  14  15
ENDBRANCH   1  14
BRANCH   1  19
HETATM   19  C16 UNL     1      -0.597  14.150 -40.602  1.00  0.00     0.240 C 
HETATM   20  O2  UNL     1      -0.359  13.595 -39.483  1.00  0.00    -0.271 OA
HETATM   21  N2  UNL     1      -1.908  14.602 -40.841  1.00  0.00    -0.358 N 
ATOM     22  H2  UNL     1      -2.140  15.053 -41.726  1.00  0.00     0.162 HD
BRANCH  21  23
HETATM   23  C17 UNL     1      -2.933  14.423 -39.825  1.00  0.00     0.137 C 
BRANCH  23  24
HETATM   24  C18 UNL     1      -3.558  15.736 -39.433  1.00  0.00     0.134 C 
HETATM   25 CL1  UNL     1      -3.777  15.722 -37.665  1.00  0.00    -0.129 Cl
ENDBRANCH  23  24
ENDBRANCH  21  23
ENDBRANCH   1  19
TORSDOF 8
ENDMDL
