MODEL 1
REMARK VINA RESULT: -8.143862056      0.000      0.000
REMARK  8 active torsions:
REMARK  status: ('A' for Active; 'I' for Inactive)
REMARK    1  A    between atoms: C1_2  and  C2_4 
REMARK    2  A    between atoms: C2_4  and  C3_5 
REMARK    3  A    between atoms: C3_5  and  C4_6 
REMARK    4  A    between atoms: C4_6  and  C5_7 
REMARK    5  A    between atoms: C5_7  and  N1_8 
REMARK       I    between atoms: N1_8  and  C6_10 
REMARK    6  A    between atoms: C6_10  and  C7_12 
REMARK    7  A    between atoms: C7_12  and  C8_13 
REMARK    8  A    between atoms: C8_13  and  C9_14 
ROOT
HETATM    1  C5  UNL     1       0.427  14.957 -40.948  1.00  0.00     0.157 C 
ENDROOT
BRANCH   1   2
HETATM    2  C4  UNL     1      -0.585  14.019 -41.553  1.00  0.00    -0.045 C 
HETATM    3  C16 UNL     1      -1.486  13.508 -40.758  1.00  0.00     0.077 A 
HETATM    4  C17 UNL     1      -2.678  12.655 -40.429  1.00  0.00     0.238 A 
HETATM    5  C18 UNL     1      -2.056  13.422 -39.342  1.00  0.00     0.339 A 
HETATM    6  O4  UNL     1      -3.594  11.856 -40.728  1.00  0.00    -0.285 OA
HETATM    7  F1  UNL     1      -2.657  14.614 -38.954  1.00  0.00    -0.191 F 
HETATM    8  F2  UNL     1      -1.175  12.817 -38.475  1.00  0.00    -0.191 F 
BRANCH   2   9
HETATM    9  C3  UNL     1      -0.452  13.771 -42.983  1.00  0.00     0.047 C 
BRANCH   9  10
HETATM   10  C2  UNL     1      -0.360  12.349 -43.415  1.00  0.00     0.117 C 
BRANCH  10  11
HETATM   11  C1  UNL     1       0.862  11.722 -42.886  1.00  0.00     0.172 C 
HETATM   12  O1  UNL     1       1.965  12.301 -43.036  1.00  0.00    -0.648 OA
HETATM   13  O2  UNL     1       0.863  10.502 -42.216  1.00  0.00    -0.648 OA
ENDBRANCH  10  11
ENDBRANCH   9  10
ENDBRANCH   2   9
ENDBRANCH   1   2
BRANCH   1  14
HETATM   14  N1  UNL     1       1.656  14.292 -40.666  1.00  0.00    -0.357 N 
HETATM   15  C6  UNL     1       2.885  15.005 -40.777  1.00  0.00     0.217 C 
HETATM   16  O3  UNL     1       2.852  16.201 -41.120  1.00  0.00    -0.274 OA
ATOM     17  H1  UNL     1       1.655  13.312 -40.387  1.00  0.00     0.162 HD
BRANCH  15  18
HETATM   18  C7  UNL     1       4.151  14.306 -40.481  1.00  0.00     0.103 C 
BRANCH  18  19
HETATM   19  C8  UNL     1       4.653  14.561 -39.100  1.00  0.00     0.014 C 
BRANCH  19  20
HETATM   20  C9  UNL     1       6.120  14.765 -39.068  1.00  0.00    -0.010 C 
HETATM   21  C10 UNL     1       6.779  14.188 -40.350  1.00  0.00     0.009 C 
HETATM   22  C11 UNL     1       8.007  13.552 -39.779  1.00  0.00    -0.014 C 
HETATM   23  C12 UNL     1       8.825  14.593 -39.076  1.00  0.00     0.005 C 
HETATM   24  C15 UNL     1       7.365  12.841 -38.574  1.00  0.00     0.009 C 
HETATM   25  C13 UNL     1       8.157  14.865 -37.741  1.00  0.00     0.005 C 
HETATM   26  C14 UNL     1       6.839  14.130 -37.920  1.00  0.00    -0.010 C 
ENDBRANCH  19  20
ENDBRANCH  18  19
ENDBRANCH  15  18
ENDBRANCH   1  14
TORSDOF 8
ENDMDL
MODEL 2
REMARK VINA RESULT: -8.078414345      2.074      3.283
REMARK  8 active torsions:
REMARK  status: ('A' for Active; 'I' for Inactive)
REMARK    1  A    between atoms: C1_2  and  C2_4 
REMARK    2  A    between atoms: C2_4  and  C3_5 
REMARK    3  A    between atoms: C3_5  and  C4_6 
REMARK    4  A    between atoms: C4_6  and  C5_7 
REMARK    5  A    between atoms: C5_7  and  N1_8 
REMARK       I    between atoms: N1_8  and  C6_10 
REMARK    6  A    between atoms: C6_10  and  C7_12 
REMARK    7  A    between atoms: C7_12  and  C8_13 
REMARK    8  A    between atoms: C8_13  and  C9_14 
ROOT
HETATM    1  C5  UNL     1       0.663  15.066 -41.068  1.00  0.00     0.157 C 
ENDROOT
BRANCH   1   2
HETATM    2  C4  UNL     1      -0.454  14.061 -41.184  1.00  0.00    -0.045 C 
HETATM    3  C16 UNL     1      -0.279  13.056 -41.999  1.00  0.00     0.077 A 
HETATM    4  C17 UNL     1      -0.682  11.786 -42.692  1.00  0.00     0.238 A 
HETATM    5  C18 UNL     1       0.642  12.345 -42.991  1.00  0.00     0.339 A 
HETATM    6  O4  UNL     1      -1.482  10.855 -42.937  1.00  0.00    -0.285 OA
HETATM    7  F1  UNL     1       1.747  11.786 -42.360  1.00  0.00    -0.191 F 
HETATM    8  F2  UNL     1       0.844  13.097 -44.127  1.00  0.00    -0.191 F 
BRANCH   2   9
HETATM    9  C3  UNL     1      -1.632  14.319 -40.367  1.00  0.00     0.047 C 
BRANCH   9  10
HETATM   10  C2  UNL     1      -2.243  13.148 -39.677  1.00  0.00     0.117 C 
BRANCH  10  11
HETATM   11  C1  UNL     1      -2.007  13.216 -38.227  1.00  0.00     0.172 C 
HETATM   12  O1  UNL     1      -1.170  12.442 -37.703  1.00  0.00    -0.648 OA
HETATM   13  O2  UNL     1      -2.671  14.107 -37.389  1.00  0.00    -0.648 OA
ENDBRANCH  10  11
ENDBRANCH   9  10
ENDBRANCH   2   9
ENDBRANCH   1   2
BRANCH   1  14
HETATM   14  N1  UNL     1       1.815  14.501 -40.449  1.00  0.00    -0.357 N 
HETATM   15  C6  UNL     1       3.086  14.615 -41.085  1.00  0.00     0.217 C 
HETATM   16  O3  UNL     1       3.155  15.211 -42.175  1.00  0.00    -0.274 OA
ATOM     17  H1  UNL     1       1.732  14.017 -39.555  1.00  0.00     0.162 HD
BRANCH  15  18
HETATM   18  C7  UNL     1       4.272  14.025 -40.434  1.00  0.00     0.103 C 
BRANCH  18  19
HETATM   19  C8  UNL     1       4.699  14.768 -39.213  1.00  0.00     0.014 C 
BRANCH  19  20
HETATM   20  C9  UNL     1       6.174  14.830 -39.084  1.00  0.00    -0.010 C 
HETATM   21  C10 UNL     1       6.856  14.140 -40.296  1.00  0.00     0.009 C 
HETATM   22  C11 UNL     1       7.974  13.412 -39.617  1.00  0.00    -0.014 C 
HETATM   23  C12 UNL     1       8.843  14.398 -38.895  1.00  0.00     0.005 C 
HETATM   24  C15 UNL     1       7.186  12.817 -38.437  1.00  0.00     0.009 C 
HETATM   25  C13 UNL     1       8.117  14.788 -37.621  1.00  0.00     0.005 C 
HETATM   26  C14 UNL     1       6.748  14.177 -37.867  1.00  0.00    -0.010 C 
ENDBRANCH  19  20
ENDBRANCH  18  19
ENDBRANCH  15  18
ENDBRANCH   1  14
TORSDOF 8
ENDMDL
MODEL 3
REMARK VINA RESULT: -7.906204007      1.476      1.789
REMARK  8 active torsions:
REMARK  status: ('A' for Active; 'I' for Inactive)
REMARK    1  A    between atoms: C1_2  and  C2_4 
REMARK    2  A    between atoms: C2_4  and  C3_5 
REMARK    3  A    between atoms: C3_5  and  C4_6 
REMARK    4  A    between atoms: C4_6  and  C5_7 
REMARK    5  A    between atoms: C5_7  and  N1_8 
REMARK       I    between atoms: N1_8  and  C6_10 
REMARK    6  A    between atoms: C6_10  and  C7_12 
REMARK    7  A    between atoms: C7_12  and  C8_13 
REMARK    8  A    between atoms: C8_13  and  C9_14 
ROOT
HETATM    1  C5  UNL     1       0.827  15.084 -41.078  1.00  0.00     0.157 C 
ENDROOT
BRANCH   1   2
HETATM    2  C4  UNL     1      -0.127  14.097 -41.700  1.00  0.00    -0.045 C 
HETATM    3  C16 UNL     1      -1.158  13.725 -40.992  1.00  0.00     0.077 A 
HETATM    4  C17 UNL     1      -2.424  12.958 -40.739  1.00  0.00     0.238 A 
HETATM    5  C18 UNL     1      -1.936  13.851 -39.681  1.00  0.00     0.339 A 
HETATM    6  O4  UNL     1      -3.322  12.149 -41.066  1.00  0.00    -0.285 OA
HETATM    7  F1  UNL     1      -2.531  15.101 -39.552  1.00  0.00    -0.191 F 
HETATM    8  F2  UNL     1      -1.222  13.349 -38.616  1.00  0.00    -0.191 F 
BRANCH   2   9
HETATM    9  C3  UNL     1       0.206  13.650 -43.047  1.00  0.00     0.047 C 
BRANCH   9  10
HETATM   10  C2  UNL     1       0.642  14.695 -44.015  1.00  0.00     0.117 C 
BRANCH  10  11
HETATM   11  C1  UNL     1      -0.065  14.545 -45.297  1.00  0.00     0.172 C 
HETATM   12  O1  UNL     1       0.344  13.700 -46.130  1.00  0.00    -0.648 OA
HETATM   13  O2  UNL     1      -1.181  15.301 -45.644  1.00  0.00    -0.648 OA
ENDBRANCH  10  11
ENDBRANCH   9  10
ENDBRANCH   2   9
ENDBRANCH   1   2
BRANCH   1  14
HETATM   14  N1  UNL     1       1.922  14.427 -40.444  1.00  0.00    -0.357 N 
HETATM   15  C6  UNL     1       3.249  14.656 -40.910  1.00  0.00     0.217 C 
HETATM   16  O3  UNL     1       3.418  15.432 -41.868  1.00  0.00    -0.274 OA
ATOM     17  H1  UNL     1       1.756  13.795 -39.660  1.00  0.00     0.162 HD
BRANCH  15  18
HETATM   18  C7  UNL     1       4.374  13.970 -40.245  1.00  0.00     0.103 C 
BRANCH  18  19
HETATM   19  C8  UNL     1       4.874  14.696 -39.041  1.00  0.00     0.014 C 
BRANCH  19  20
HETATM   20  C9  UNL     1       6.352  14.790 -39.020  1.00  0.00    -0.010 C 
HETATM   21  C10 UNL     1       6.962  14.074 -40.255  1.00  0.00     0.009 C 
HETATM   22  C11 UNL     1       8.140  13.390 -39.635  1.00  0.00    -0.014 C 
HETATM   23  C12 UNL     1       9.036  14.415 -39.007  1.00  0.00     0.005 C 
HETATM   24  C15 UNL     1       7.450  12.819 -38.383  1.00  0.00     0.009 C 
HETATM   25  C13 UNL     1       8.394  14.833 -37.698  1.00  0.00     0.005 C 
HETATM   26  C14 UNL     1       7.024  14.188 -37.827  1.00  0.00    -0.010 C 
ENDBRANCH  19  20
ENDBRANCH  18  19
ENDBRANCH  15  18
ENDBRANCH   1  14
TORSDOF 8
ENDMDL
MODEL 4
REMARK VINA RESULT: -7.648703154      2.139      3.443
REMARK  8 active torsions:
REMARK  status: ('A' for Active; 'I' for Inactive)
REMARK    1  A    between atoms: C1_2  and  C2_4 
REMARK    2  A    between atoms: C2_4  and  C3_5 
REMARK    3  A    between atoms: C3_5  and  C4_6 
REMARK    4  A    between atoms: C4_6  and  C5_7 
REMARK    5  A    between atoms: C5_7  and  N1_8 
REMARK       I    between atoms: N1_8  and  C6_10 
REMARK    6  A    between atoms: C6_10  and  C7_12 
REMARK    7  A    between atoms: C7_12  and  C8_13 
REMARK    8  A    between atoms: C8_13  and  C9_14 
ROOT
HETATM    1  C5  UNL     1       0.799  14.687 -41.468  1.00  0.00     0.157 C 
ENDROOT
BRANCH   1   2
HETATM    2  C4  UNL     1      -0.386  13.772 -41.294  1.00  0.00    -0.045 C 
HETATM    3  C16 UNL     1      -0.355  12.620 -41.907  1.00  0.00     0.077 A 
HETATM    4  C17 UNL     1      -0.903  11.279 -42.302  1.00  0.00     0.238 A 
HETATM    5  C18 UNL     1       0.420  11.661 -42.811  1.00  0.00     0.339 A 
HETATM    6  O4  UNL     1      -1.781  10.386 -42.293  1.00  0.00    -0.285 OA
HETATM    7  F1  UNL     1       1.542  11.144 -42.175  1.00  0.00    -0.191 F 
HETATM    8  F2  UNL     1       0.560  12.165 -44.085  1.00  0.00    -0.191 F 
BRANCH   2   9
HETATM    9  C3  UNL     1      -1.462  14.275 -40.449  1.00  0.00     0.047 C 
BRANCH   9  10
HETATM   10  C2  UNL     1      -2.313  13.261 -39.767  1.00  0.00     0.117 C 
BRANCH  10  11
HETATM   11  C1  UNL     1      -2.002  13.202 -38.330  1.00  0.00     0.172 C 
HETATM   12  O1  UNL     1      -1.148  12.380 -37.918  1.00  0.00    -0.648 OA
HETATM   13  O2  UNL     1      -2.612  14.022 -37.385  1.00  0.00    -0.648 OA
ENDBRANCH  10  11
ENDBRANCH   9  10
ENDBRANCH   2   9
ENDBRANCH   1   2
BRANCH   1  14
HETATM   14  N1  UNL     1       1.829  14.396 -40.527  1.00  0.00    -0.357 N 
HETATM   15  C6  UNL     1       3.171  14.787 -40.807  1.00  0.00     0.217 C 
HETATM   16  O3  UNL     1       3.408  15.379 -41.876  1.00  0.00    -0.274 OA
ATOM     17  H1  UNL     1       1.607  13.910 -39.659  1.00  0.00     0.162 HD
BRANCH  15  18
HETATM   18  C7  UNL     1       4.229  14.481 -39.825  1.00  0.00     0.103 C 
BRANCH  18  19
HETATM   19  C8  UNL     1       5.596  14.462 -40.423  1.00  0.00     0.014 C 
BRANCH  19  20
HETATM   20  C9  UNL     1       6.532  13.613 -39.650  1.00  0.00    -0.010 C 
HETATM   21  C10 UNL     1       6.038  13.449 -38.187  1.00  0.00     0.009 C 
HETATM   22  C11 UNL     1       7.328  13.563 -37.436  1.00  0.00    -0.014 C 
HETATM   23  C12 UNL     1       8.268  12.489 -37.898  1.00  0.00     0.005 C 
HETATM   24  C15 UNL     1       7.919  14.783 -38.165  1.00  0.00     0.009 C 
HETATM   25  C13 UNL     1       8.829  12.929 -39.237  1.00  0.00     0.005 C 
HETATM   26  C14 UNL     1       7.937  14.117 -39.552  1.00  0.00    -0.010 C 
ENDBRANCH  19  20
ENDBRANCH  18  19
ENDBRANCH  15  18
ENDBRANCH   1  14
TORSDOF 8
ENDMDL
MODEL 5
REMARK VINA RESULT: -7.609840647      1.364      1.973
REMARK  8 active torsions:
REMARK  status: ('A' for Active; 'I' for Inactive)
REMARK    1  A    between atoms: C1_2  and  C2_4 
REMARK    2  A    between atoms: C2_4  and  C3_5 
REMARK    3  A    between atoms: C3_5  and  C4_6 
REMARK    4  A    between atoms: C4_6  and  C5_7 
REMARK    5  A    between atoms: C5_7  and  N1_8 
REMARK       I    between atoms: N1_8  and  C6_10 
REMARK    6  A    between atoms: C6_10  and  C7_12 
REMARK    7  A    between atoms: C7_12  and  C8_13 
REMARK    8  A    between atoms: C8_13  and  C9_14 
ROOT
HETATM    1  C5  UNL     1       0.589  14.902 -40.756  1.00  0.00     0.157 C 
ENDROOT
BRANCH   1   2
HETATM    2  C4  UNL     1      -0.281  13.808 -41.319  1.00  0.00    -0.045 C 
HETATM    3  C16 UNL     1      -1.342  13.469 -40.639  1.00  0.00     0.077 A 
HETATM    4  C17 UNL     1      -2.591  12.676 -40.379  1.00  0.00     0.238 A 
HETATM    5  C18 UNL     1      -2.211  13.705 -39.403  1.00  0.00     0.339 A 
HETATM    6  O4  UNL     1      -3.431  11.794 -40.667  1.00  0.00    -0.285 OA
HETATM    7  F1  UNL     1      -2.864  14.931 -39.457  1.00  0.00    -0.191 F 
HETATM    8  F2  UNL     1      -1.552  13.361 -38.245  1.00  0.00    -0.191 F 
BRANCH   2   9
HETATM    9  C3  UNL     1       0.160  13.228 -42.582  1.00  0.00     0.047 C 
BRANCH   9  10
HETATM   10  C2  UNL     1      -0.519  13.708 -43.817  1.00  0.00     0.117 C 
BRANCH  10  11
HETATM   11  C1  UNL     1       0.347  14.636 -44.562  1.00  0.00     0.172 C 
HETATM   12  O1  UNL     1       1.474  14.931 -44.097  1.00  0.00    -0.648 OA
HETATM   13  O2  UNL     1      -0.020  15.214 -45.774  1.00  0.00    -0.648 OA
ENDBRANCH  10  11
ENDBRANCH   9  10
ENDBRANCH   2   9
ENDBRANCH   1   2
BRANCH   1  14
HETATM   14  N1  UNL     1       1.973  14.578 -40.858  1.00  0.00    -0.357 N 
HETATM   15  C6  UNL     1       2.930  15.619 -41.038  1.00  0.00     0.217 C 
HETATM   16  O3  UNL     1       2.527  16.794 -41.102  1.00  0.00    -0.274 OA
ATOM     17  H1  UNL     1       2.277  13.606 -40.802  1.00  0.00     0.162 HD
BRANCH  15  18
HETATM   18  C7  UNL     1       4.361  15.270 -41.142  1.00  0.00     0.103 C 
BRANCH  18  19
HETATM   19  C8  UNL     1       5.125  15.559 -39.894  1.00  0.00     0.014 C 
BRANCH  19  20
HETATM   20  C9  UNL     1       5.969  14.413 -39.479  1.00  0.00    -0.010 C 
HETATM   21  C10 UNL     1       5.669  14.021 -38.007  1.00  0.00     0.009 C 
HETATM   22  C11 UNL     1       7.049  13.745 -37.499  1.00  0.00    -0.014 C 
HETATM   23  C12 UNL     1       7.671  12.653 -38.317  1.00  0.00     0.005 C 
HETATM   24  C15 UNL     1       7.766  14.975 -38.083  1.00  0.00     0.009 C 
HETATM   25  C13 UNL     1       8.111  13.272 -39.631  1.00  0.00     0.005 C 
HETATM   26  C14 UNL     1       7.446  14.635 -39.548  1.00  0.00    -0.010 C 
ENDBRANCH  19  20
ENDBRANCH  18  19
ENDBRANCH  15  18
ENDBRANCH   1  14
TORSDOF 8
ENDMDL
