MODEL 1
REMARK VINA RESULT: -7.215935035      0.000      0.000
REMARK  11 active torsions:
REMARK  status: ('A' for Active; 'I' for Inactive)
REMARK    1  A    between atoms: N2_4  and  C1_6 
REMARK    2  A    between atoms: N3_7  and  C2_9 
REMARK    3  A    between atoms: C2_9  and  C3_10 
REMARK    4  A    between atoms: C3_10  and  C4_11 
REMARK    5  A    between atoms: C4_11  and  C5_12 
REMARK    6  A    between atoms: C5_12  and  O1_13 
REMARK    7  A    between atoms: C5_12  and  N4_15 
REMARK       I    between atoms: N4_15  and  C6_17 
REMARK    8  A    between atoms: C6_17  and  C7_19 
REMARK    9  A    between atoms: C7_19  and  C11_24 
REMARK   10  A    between atoms: C8_20  and  C9_21 
REMARK   11  A    between atoms: C11_24  and  C12_25 
ROOT
HETATM    1  N4  UNL     1      -1.001  13.234 -39.907  1.00  0.00    -0.331 N 
ATOM      2  H4  UNL     1      -1.039  14.224 -39.664  1.00  0.00     0.165 HD
HETATM    3  C6  UNL     1      -0.256  12.788 -40.998  1.00  0.00     0.249 C 
HETATM    4  O2  UNL     1      -0.254  11.555 -41.241  1.00  0.00    -0.268 OA
ENDROOT
BRANCH   1   5
HETATM    5  C5  UNL     1      -1.737  12.217 -39.112  1.00  0.00     0.220 C 
BRANCH   5   6
HETATM    6  C4  UNL     1      -1.738  12.573 -37.683  1.00  0.00     0.055 C 
BRANCH   6   7
HETATM    7  C3  UNL     1      -1.932  13.976 -37.334  1.00  0.00     0.024 C 
BRANCH   7   8
HETATM    8  C2  UNL     1      -3.096  14.472 -36.599  1.00  0.00     0.120 C 
BRANCH   8   9
HETATM    9  N3  UNL     1      -4.184  15.026 -37.311  1.00  0.00    -0.385 N 
HETATM   10  C1  UNL     1      -4.018  15.528 -38.489  1.00  0.00     0.192 C 
ATOM     11  H3  UNL     1      -5.112  15.030 -36.888  1.00  0.00     0.160 HD
BRANCH  10  12
HETATM   12  N2  UNL     1      -5.070  16.094 -39.244  1.00  0.00    -0.303 N 
HETATM   13  N1  UNL     1      -6.038  15.396 -39.647  1.00  0.00    -0.344 N 
ATOM     14  H12 UNL     1      -6.047  14.403 -39.415  1.00  0.00     0.176 HD
ATOM     15  H11 UNL     1      -6.797  15.805 -40.191  1.00  0.00     0.176 HD
ATOM     16  H2  UNL     1      -5.046  17.090 -39.466  1.00  0.00     0.187 HD
ENDBRANCH  10  12
ENDBRANCH   8   9
ENDBRANCH   7   8
ENDBRANCH   6   7
ENDBRANCH   5   6
BRANCH   5  17
HETATM   17  O1  UNL     1      -2.929  12.036 -39.748  1.00  0.00    -0.377 OA
ATOM     18  H1  UNL     1      -2.940  11.590 -40.587  1.00  0.00     0.212 HD
ENDBRANCH   5  17
ENDBRANCH   1   5
BRANCH   3  19
HETATM   19  C7  UNL     1       0.502  13.710 -41.840  1.00  0.00     0.010 C 
HETATM   20  C8  UNL     1      -0.010  14.228 -42.937  1.00  0.00     0.013 C 
BRANCH  20  21
HETATM   21  C9  UNL     1       0.623  15.137 -43.846  1.00  0.00     0.008 C 
HETATM   22  C10 UNL     1       0.200  15.305 -45.095  1.00  0.00     0.056 C 
HETATM   23 BR1  UNL     1      -1.302  14.311 -45.727  1.00  0.00    -0.064 Br
ENDBRANCH  20  21
BRANCH  19  24
HETATM   24  C11 UNL     1       1.894  14.067 -41.400  1.00  0.00     0.049 C 
BRANCH  24  25
HETATM   25  C12 UNL     1       1.936  14.854 -40.133  1.00  0.00    -0.010 C 
HETATM   26  C13 UNL     1       1.662  16.304 -40.466  1.00  0.00     0.005 C 
HETATM   27  C14 UNL     1       2.961  17.032 -40.411  1.00  0.00     0.000 C 
HETATM   28  C15 UNL     1       4.041  16.037 -40.103  1.00  0.00     0.000 C 
HETATM   29  C16 UNL     1       3.331  14.826 -39.538  1.00  0.00     0.005 C 
ENDBRANCH  24  25
ENDBRANCH  19  24
ENDBRANCH   3  19
TORSDOF 11
ENDMDL
MODEL 2
REMARK VINA RESULT: -7.019261858      3.171      4.885
REMARK  11 active torsions:
REMARK  status: ('A' for Active; 'I' for Inactive)
REMARK    1  A    between atoms: N2_4  and  C1_6 
REMARK    2  A    between atoms: N3_7  and  C2_9 
REMARK    3  A    between atoms: C2_9  and  C3_10 
REMARK    4  A    between atoms: C3_10  and  C4_11 
REMARK    5  A    between atoms: C4_11  and  C5_12 
REMARK    6  A    between atoms: C5_12  and  O1_13 
REMARK    7  A    between atoms: C5_12  and  N4_15 
REMARK       I    between atoms: N4_15  and  C6_17 
REMARK    8  A    between atoms: C6_17  and  C7_19 
REMARK    9  A    between atoms: C7_19  and  C11_24 
REMARK   10  A    between atoms: C8_20  and  C9_21 
REMARK   11  A    between atoms: C11_24  and  C12_25 
ROOT
HETATM    1  N4  UNL     1       1.935  14.481 -40.602  1.00  0.00    -0.331 N 
ATOM      2  H4  UNL     1       1.543  15.361 -40.266  1.00  0.00     0.165 HD
HETATM    3  C6  UNL     1       3.276  14.163 -40.396  1.00  0.00     0.249 C 
HETATM    4  O2  UNL     1       3.692  13.062 -40.837  1.00  0.00    -0.268 OA
ENDROOT
BRANCH   1   5
HETATM    5  C5  UNL     1       1.095  13.494 -41.329  1.00  0.00     0.220 C 
BRANCH   5   6
HETATM    6  C4  UNL     1      -0.335  13.744 -41.084  1.00  0.00     0.055 C 
BRANCH   6   7
HETATM    7  C3  UNL     1      -0.722  14.223 -39.761  1.00  0.00     0.024 C 
BRANCH   7   8
HETATM    8  C2  UNL     1      -1.849  13.681 -39.004  1.00  0.00     0.120 C 
BRANCH   8   9
HETATM    9  N3  UNL     1      -2.676  14.556 -38.263  1.00  0.00    -0.385 N 
HETATM   10  C1  UNL     1      -2.645  14.560 -36.972  1.00  0.00     0.192 C 
ATOM     11  H3  UNL     1      -3.303  15.193 -38.754  1.00  0.00     0.160 HD
BRANCH  10  12
HETATM   12  N2  UNL     1      -3.449  15.414 -36.182  1.00  0.00    -0.303 N 
HETATM   13  N1  UNL     1      -3.842  16.530 -36.615  1.00  0.00    -0.344 N 
ATOM     14  H12 UNL     1      -3.566  16.808 -37.556  1.00  0.00     0.176 HD
ATOM     15  H11 UNL     1      -4.422  17.146 -36.045  1.00  0.00     0.176 HD
ATOM     16  H2  UNL     1      -3.717  15.120 -35.243  1.00  0.00     0.187 HD
ENDBRANCH  10  12
ENDBRANCH   8   9
ENDBRANCH   7   8
ENDBRANCH   6   7
ENDBRANCH   5   6
BRANCH   5  17
HETATM   17  O1  UNL     1       1.554  13.486 -42.613  1.00  0.00    -0.377 OA
ATOM     18  H1  UNL     1       2.247  12.881 -42.851  1.00  0.00     0.212 HD
ENDBRANCH   5  17
ENDBRANCH   1   5
BRANCH   3  19
HETATM   19  C7  UNL     1       4.181  15.068 -39.691  1.00  0.00     0.010 C 
HETATM   20  C8  UNL     1       4.596  16.194 -40.233  1.00  0.00     0.013 C 
BRANCH  20  21
HETATM   21  C9  UNL     1       5.478  17.164 -39.653  1.00  0.00     0.008 C 
HETATM   22  C10 UNL     1       5.082  18.397 -39.352  1.00  0.00     0.056 C 
HETATM   23 BR1  UNL     1       3.279  18.921 -39.693  1.00  0.00    -0.064 Br
ENDBRANCH  20  21
BRANCH  19  24
HETATM   24  C11 UNL     1       4.615  14.677 -38.307  1.00  0.00     0.049 C 
BRANCH  24  25
HETATM   25  C12 UNL     1       5.673  13.624 -38.288  1.00  0.00    -0.010 C 
HETATM   26  C13 UNL     1       6.237  13.544 -36.886  1.00  0.00     0.005 C 
HETATM   27  C14 UNL     1       7.567  14.218 -36.898  1.00  0.00     0.000 C 
HETATM   28  C15 UNL     1       7.803  14.761 -38.277  1.00  0.00     0.000 C 
HETATM   29  C16 UNL     1       6.835  14.025 -39.177  1.00  0.00     0.005 C 
ENDBRANCH  24  25
ENDBRANCH  19  24
ENDBRANCH   3  19
TORSDOF 11
ENDMDL
MODEL 3
REMARK VINA RESULT: -7.006298400      4.246      7.603
REMARK  11 active torsions:
REMARK  status: ('A' for Active; 'I' for Inactive)
REMARK    1  A    between atoms: N2_4  and  C1_6 
REMARK    2  A    between atoms: N3_7  and  C2_9 
REMARK    3  A    between atoms: C2_9  and  C3_10 
REMARK    4  A    between atoms: C3_10  and  C4_11 
REMARK    5  A    between atoms: C4_11  and  C5_12 
REMARK    6  A    between atoms: C5_12  and  O1_13 
REMARK    7  A    between atoms: C5_12  and  N4_15 
REMARK       I    between atoms: N4_15  and  C6_17 
REMARK    8  A    between atoms: C6_17  and  C7_19 
REMARK    9  A    between atoms: C7_19  and  C11_24 
REMARK   10  A    between atoms: C8_20  and  C9_21 
REMARK   11  A    between atoms: C11_24  and  C12_25 
ROOT
HETATM    1  N4  UNL     1       1.569  14.662 -39.943  1.00  0.00    -0.331 N 
ATOM      2  H4  UNL     1       1.306  14.891 -38.985  1.00  0.00     0.165 HD
HETATM    3  C6  UNL     1       0.611  14.297 -40.887  1.00  0.00     0.249 C 
HETATM    4  O2  UNL     1       1.005  14.028 -42.049  1.00  0.00    -0.268 OA
ENDROOT
BRANCH   1   5
HETATM    5  C5  UNL     1       2.988  14.706 -40.382  1.00  0.00     0.220 C 
BRANCH   5   6
HETATM    6  C4  UNL     1       3.819  15.413 -39.393  1.00  0.00     0.055 C 
BRANCH   6   7
HETATM    7  C3  UNL     1       4.863  14.650 -38.716  1.00  0.00     0.024 C 
BRANCH   7   8
HETATM    8  C2  UNL     1       5.227  14.848 -37.313  1.00  0.00     0.120 C 
BRANCH   8   9
HETATM    9  N3  UNL     1       5.869  13.805 -36.607  1.00  0.00    -0.385 N 
HETATM   10  C1  UNL     1       6.694  13.012 -37.204  1.00  0.00     0.192 C 
ATOM     11  H3  UNL     1       5.678  13.679 -35.613  1.00  0.00     0.160 HD
BRANCH  10  12
HETATM   12  N2  UNL     1       7.363  11.955 -36.546  1.00  0.00    -0.303 N 
HETATM   13  N1  UNL     1       6.767  10.885 -36.250  1.00  0.00    -0.344 N 
ATOM     14  H12 UNL     1       5.782  10.796 -36.497  1.00  0.00     0.176 HD
ATOM     15  H11 UNL     1       7.250  10.122 -35.776  1.00  0.00     0.176 HD
ATOM     16  H2  UNL     1       8.350  12.060 -36.306  1.00  0.00     0.187 HD
ENDBRANCH  10  12
ENDBRANCH   8   9
ENDBRANCH   7   8
ENDBRANCH   6   7
ENDBRANCH   5   6
BRANCH   5  17
HETATM   17  O1  UNL     1       3.314  13.427 -40.724  1.00  0.00    -0.377 OA
ATOM     18  H1  UNL     1       3.534  13.234 -41.628  1.00  0.00     0.212 HD
ENDBRANCH   5  17
ENDBRANCH   1   5
BRANCH   3  19
HETATM   19  C7  UNL     1      -0.810  14.227 -40.552  1.00  0.00     0.010 C 
HETATM   20  C8  UNL     1      -1.351  15.025 -39.655  1.00  0.00     0.013 C 
BRANCH  20  21
HETATM   21  C9  UNL     1      -2.721  15.059 -39.236  1.00  0.00     0.008 C 
HETATM   22  C10 UNL     1      -3.143  14.453 -38.131  1.00  0.00     0.056 C 
HETATM   23 BR1  UNL     1      -1.900  13.495 -37.045  1.00  0.00    -0.064 Br
ENDBRANCH  20  21
BRANCH  19  24
HETATM   24  C11 UNL     1      -1.646  13.215 -41.283  1.00  0.00     0.049 C 
BRANCH  24  25
HETATM   25  C12 UNL     1      -1.410  11.811 -40.836  1.00  0.00    -0.010 C 
HETATM   26  C13 UNL     1      -1.299  10.934 -42.065  1.00  0.00     0.005 C 
HETATM   27  C14 UNL     1      -2.579  10.181 -42.197  1.00  0.00     0.000 C 
HETATM   28  C15 UNL     1      -3.497  10.624 -41.095  1.00  0.00     0.000 C 
HETATM   29  C16 UNL     1      -2.610  11.290 -40.067  1.00  0.00     0.005 C 
ENDBRANCH  24  25
ENDBRANCH  19  24
ENDBRANCH   3  19
TORSDOF 11
ENDMDL
MODEL 4
REMARK VINA RESULT: -6.930684393      3.391      6.577
REMARK  11 active torsions:
REMARK  status: ('A' for Active; 'I' for Inactive)
REMARK    1  A    between atoms: N2_4  and  C1_6 
REMARK    2  A    between atoms: N3_7  and  C2_9 
REMARK    3  A    between atoms: C2_9  and  C3_10 
REMARK    4  A    between atoms: C3_10  and  C4_11 
REMARK    5  A    between atoms: C4_11  and  C5_12 
REMARK    6  A    between atoms: C5_12  and  O1_13 
REMARK    7  A    between atoms: C5_12  and  N4_15 
REMARK       I    between atoms: N4_15  and  C6_17 
REMARK    8  A    between atoms: C6_17  and  C7_19 
REMARK    9  A    between atoms: C7_19  and  C11_24 
REMARK   10  A    between atoms: C8_20  and  C9_21 
REMARK   11  A    between atoms: C11_24  and  C12_25 
ROOT
HETATM    1  N4  UNL     1       0.777  13.165 -40.870  1.00  0.00    -0.331 N 
ATOM      2  H4  UNL     1       0.811  12.732 -39.947  1.00  0.00     0.165 HD
HETATM    3  C6  UNL     1      -0.424  13.288 -41.566  1.00  0.00     0.249 C 
HETATM    4  O2  UNL     1      -0.392  13.831 -42.699  1.00  0.00    -0.268 OA
ENDROOT
BRANCH   1   5
HETATM    5  C5  UNL     1       2.008  13.684 -41.520  1.00  0.00     0.220 C 
BRANCH   5   6
HETATM    6  C4  UNL     1       2.840  14.419 -40.552  1.00  0.00     0.055 C 
BRANCH   6   7
HETATM    7  C3  UNL     1       4.171  13.893 -40.267  1.00  0.00     0.024 C 
BRANCH   7   8
HETATM    8  C2  UNL     1       5.357  14.736 -40.116  1.00  0.00     0.120 C 
BRANCH   8   9
HETATM    9  N3  UNL     1       5.258  16.126 -40.357  1.00  0.00    -0.385 N 
HETATM   10  C1  UNL     1       4.887  16.935 -39.422  1.00  0.00     0.192 C 
ATOM     11  H3  UNL     1       5.484  16.493 -41.282  1.00  0.00     0.160 HD
BRANCH  10  12
HETATM   12  N2  UNL     1       4.772  18.332 -39.610  1.00  0.00    -0.303 N 
HETATM   13  N1  UNL     1       3.672  18.864 -39.918  1.00  0.00    -0.344 N 
ATOM     14  H12 UNL     1       2.858  18.260 -40.031  1.00  0.00     0.176 HD
ATOM     15  H11 UNL     1       3.589  19.871 -40.053  1.00  0.00     0.176 HD
ATOM     16  H2  UNL     1       5.596  18.921 -39.492  1.00  0.00     0.187 HD
ENDBRANCH  10  12
ENDBRANCH   8   9
ENDBRANCH   7   8
ENDBRANCH   6   7
ENDBRANCH   5   6
BRANCH   5  17
HETATM   17  O1  UNL     1       2.552  12.629 -42.191  1.00  0.00    -0.377 OA
ATOM     18  H1  UNL     1       2.193  12.387 -43.037  1.00  0.00     0.212 HD
ENDBRANCH   5  17
ENDBRANCH   1   5
BRANCH   3  19
HETATM   19  C7  UNL     1      -1.687  12.809 -41.009  1.00  0.00     0.010 C 
HETATM   20  C8  UNL     1      -1.991  11.528 -40.982  1.00  0.00     0.013 C 
BRANCH  20  21
HETATM   21  C9  UNL     1      -3.187  10.929 -40.469  1.00  0.00     0.008 C 
HETATM   22  C10 UNL     1      -3.929  10.092 -41.187  1.00  0.00     0.056 C 
HETATM   23 BR1  UNL     1      -3.405   9.655 -42.970  1.00  0.00    -0.064 Br
ENDBRANCH  20  21
BRANCH  19  24
HETATM   24  C11 UNL     1      -2.632  13.833 -40.449  1.00  0.00     0.049 C 
BRANCH  24  25
HETATM   25  C12 UNL     1      -1.991  14.768 -39.478  1.00  0.00    -0.010 C 
HETATM   26  C13 UNL     1      -1.658  13.994 -38.222  1.00  0.00     0.005 C 
HETATM   27  C14 UNL     1      -2.668  14.358 -37.188  1.00  0.00     0.000 C 
HETATM   28  C15 UNL     1      -3.651  15.306 -37.809  1.00  0.00     0.000 C 
HETATM   29  C16 UNL     1      -2.973  15.843 -39.050  1.00  0.00     0.005 C 
ENDBRANCH  24  25
ENDBRANCH  19  24
ENDBRANCH   3  19
TORSDOF 11
ENDMDL
MODEL 5
REMARK VINA RESULT: -6.849391981      2.264      3.825
REMARK  11 active torsions:
REMARK  status: ('A' for Active; 'I' for Inactive)
REMARK    1  A    between atoms: N2_4  and  C1_6 
REMARK    2  A    between atoms: N3_7  and  C2_9 
REMARK    3  A    between atoms: C2_9  and  C3_10 
REMARK    4  A    between atoms: C3_10  and  C4_11 
REMARK    5  A    between atoms: C4_11  and  C5_12 
REMARK    6  A    between atoms: C5_12  and  O1_13 
REMARK    7  A    between atoms: C5_12  and  N4_15 
REMARK       I    between atoms: N4_15  and  C6_17 
REMARK    8  A    between atoms: C6_17  and  C7_19 
REMARK    9  A    between atoms: C7_19  and  C11_24 
REMARK   10  A    between atoms: C8_20  and  C9_21 
REMARK   11  A    between atoms: C11_24  and  C12_25 
ROOT
HETATM    1  N4  UNL     1      -0.717  13.004 -39.297  1.00  0.00    -0.331 N 
ATOM      2  H4  UNL     1      -0.015  12.277 -39.433  1.00  0.00     0.165 HD
HETATM    3  C6  UNL     1      -0.578  14.260 -39.885  1.00  0.00     0.249 C 
HETATM    4  O2  UNL     1      -1.481  15.108 -39.675  1.00  0.00    -0.268 OA
ENDROOT
BRANCH   1   5
HETATM    5  C5  UNL     1      -1.923  12.761 -38.464  1.00  0.00     0.220 C 
BRANCH   5   6
HETATM    6  C4  UNL     1      -1.778  13.389 -37.140  1.00  0.00     0.055 C 
BRANCH   6   7
HETATM    7  C3  UNL     1      -2.983  13.907 -36.500  1.00  0.00     0.024 C 
BRANCH   7   8
HETATM    8  C2  UNL     1      -3.432  15.293 -36.628  1.00  0.00     0.120 C 
BRANCH   8   9
HETATM    9  N3  UNL     1      -3.521  15.881 -37.911  1.00  0.00    -0.385 N 
HETATM   10  C1  UNL     1      -4.560  15.693 -38.654  1.00  0.00     0.192 C 
ATOM     11  H3  UNL     1      -2.755  16.461 -38.253  1.00  0.00     0.160 HD
BRANCH  10  12
HETATM   12  N2  UNL     1      -4.701  16.256 -39.943  1.00  0.00    -0.303 N 
HETATM   13  N1  UNL     1      -4.067  15.799 -40.931  1.00  0.00    -0.344 N 
ATOM     14  H12 UNL     1      -3.444  15.006 -40.781  1.00  0.00     0.176 HD
ATOM     15  H11 UNL     1      -4.169  16.205 -41.861  1.00  0.00     0.176 HD
ATOM     16  H2  UNL     1      -5.329  17.049 -40.076  1.00  0.00     0.187 HD
ENDBRANCH  10  12
ENDBRANCH   8   9
ENDBRANCH   7   8
ENDBRANCH   6   7
ENDBRANCH   5   6
BRANCH   5  17
HETATM   17  O1  UNL     1      -2.990  13.099 -39.242  1.00  0.00    -0.377 OA
ATOM     18  H1  UNL     1      -3.844  13.197 -38.836  1.00  0.00     0.212 HD
ENDBRANCH   5  17
ENDBRANCH   1   5
BRANCH   3  19
HETATM   19  C7  UNL     1       0.572  14.594 -40.723  1.00  0.00     0.010 C 
HETATM   20  C8  UNL     1       1.450  15.506 -40.362  1.00  0.00     0.013 C 
BRANCH  20  21
HETATM   21  C9  UNL     1       2.613  15.926 -41.085  1.00  0.00     0.008 C 
HETATM   22  C10 UNL     1       3.844  15.762 -40.612  1.00  0.00     0.056 C 
HETATM   23 BR1  UNL     1       4.100  14.939 -38.908  1.00  0.00    -0.064 Br
ENDBRANCH  20  21
BRANCH  19  24
HETATM   24  C11 UNL     1       0.732  13.843 -42.014  1.00  0.00     0.049 C 
BRANCH  24  25
HETATM   25  C12 UNL     1      -0.466  13.919 -42.901  1.00  0.00    -0.010 C 
HETATM   26  C13 UNL     1      -0.568  12.622 -43.673  1.00  0.00     0.005 C 
HETATM   27  C14 UNL     1      -0.103  12.888 -45.064  1.00  0.00     0.000 C 
HETATM   28  C15 UNL     1       0.337  14.321 -45.143  1.00  0.00     0.000 C 
HETATM   29  C16 UNL     1      -0.284  15.005 -43.945  1.00  0.00     0.005 C 
ENDBRANCH  24  25
ENDBRANCH  19  24
ENDBRANCH   3  19
TORSDOF 11
ENDMDL
