MODEL 1
REMARK VINA RESULT: -5.979277274      0.000      0.000
REMARK  3 active torsions:
REMARK  status: ('A' for Active; 'I' for Inactive)
REMARK    1  A    between atoms: C4_6  and  N1_7 
REMARK       I    between atoms: N1_7  and  C5_8 
REMARK    2  A    between atoms: C5_8  and  C6_10 
REMARK    3  A    between atoms: C6_10  and  C7_11 
ROOT
HETATM    1  N1  UNL     1       2.473  13.757 -42.033  1.00  0.00    -0.406 NA
HETATM    2  C5  UNL     1       1.290  13.538 -42.685  1.00  0.00     0.287 C 
HETATM    3  O1  UNL     1       1.120  12.764 -43.669  1.00  0.00    -0.258 OA
ENDROOT
BRANCH   1   4
HETATM    4  C4  UNL     1       3.657  13.976 -41.379  1.00  0.00     0.211 A 
HETATM    5  C2  UNL     1       3.990  15.476 -41.125  1.00  0.00     0.087 A 
HETATM    6  C1  UNL     1       5.366  15.903 -41.566  1.00  0.00     0.037 C 
HETATM    7 CL1  UNL     1       2.726  16.670 -41.518  1.00  0.00    -0.115 Cl
HETATM    8  C3  UNL     1       3.743  14.566 -40.009  1.00  0.00     0.146 A 
HETATM    9 CL2  UNL     1       5.125  14.062 -39.017  1.00  0.00    -0.119 Cl
ENDBRANCH   1   4
BRANCH   2  10
HETATM   10  C6  UNL     1      -0.010  14.222 -42.286  1.00  0.00     0.123 C 
BRANCH  10  11
HETATM   11  C7  UNL     1      -0.524  13.648 -41.018  1.00  0.00    -0.005 C 
HETATM   12  C8  UNL     1      -1.805  14.262 -40.489  1.00  0.00     0.005 C 
HETATM   13  C9  UNL     1      -2.159  12.860 -39.983  1.00  0.00     0.001 C 
HETATM   14  C10 UNL     1      -1.304  12.348 -41.148  1.00  0.00     0.005 C 
ENDBRANCH  10  11
ENDBRANCH   2  10
TORSDOF 3
ENDMDL
MODEL 2
REMARK VINA RESULT: -5.966403762      2.860      5.552
REMARK  3 active torsions:
REMARK  status: ('A' for Active; 'I' for Inactive)
REMARK    1  A    between atoms: C4_6  and  N1_7 
REMARK       I    between atoms: N1_7  and  C5_8 
REMARK    2  A    between atoms: C5_8  and  C6_10 
REMARK    3  A    between atoms: C6_10  and  C7_11 
ROOT
HETATM    1  N1  UNL     1       2.508  16.162 -41.490  1.00  0.00    -0.406 NA
HETATM    2  C5  UNL     1       3.738  16.675 -41.180  1.00  0.00     0.287 C 
HETATM    3  O1  UNL     1       3.961  17.820 -40.694  1.00  0.00    -0.258 OA
ENDROOT
BRANCH   1   4
HETATM    4  C4  UNL     1       1.275  15.648 -41.800  1.00  0.00     0.211 A 
HETATM    5  C2  UNL     1       1.277  14.133 -42.162  1.00  0.00     0.087 A 
HETATM    6  C1  UNL     1       0.581  13.789 -43.453  1.00  0.00     0.037 C 
HETATM    7 CL1  UNL     1       2.803  13.241 -41.929  1.00  0.00    -0.115 Cl
HETATM    8  C3  UNL     1       0.582  14.617 -40.971  1.00  0.00     0.146 A 
HETATM    9 CL2  UNL     1      -1.192  14.649 -40.990  1.00  0.00    -0.119 Cl
ENDBRANCH   1   4
BRANCH   2  10
HETATM   10  C6  UNL     1       5.030  15.898 -41.387  1.00  0.00     0.123 C 
BRANCH  10  11
HETATM   11  C7  UNL     1       5.598  15.488 -40.079  1.00  0.00    -0.005 C 
HETATM   12  C8  UNL     1       4.671  14.695 -39.180  1.00  0.00     0.005 C 
HETATM   13  C9  UNL     1       5.920  13.939 -38.714  1.00  0.00     0.001 C 
HETATM   14  C10 UNL     1       6.489  14.253 -40.103  1.00  0.00     0.005 C 
ENDBRANCH  10  11
ENDBRANCH   2  10
TORSDOF 3
ENDMDL
MODEL 3
REMARK VINA RESULT: -5.834572551      2.768      5.557
REMARK  3 active torsions:
REMARK  status: ('A' for Active; 'I' for Inactive)
REMARK    1  A    between atoms: C4_6  and  N1_7 
REMARK       I    between atoms: N1_7  and  C5_8 
REMARK    2  A    between atoms: C5_8  and  C6_10 
REMARK    3  A    between atoms: C6_10  and  C7_11 
ROOT
HETATM    1  N1  UNL     1       0.009  14.616 -41.419  1.00  0.00    -0.406 NA
HETATM    2  C5  UNL     1       1.113  14.976 -42.143  1.00  0.00     0.287 C 
HETATM    3  O1  UNL     1       1.530  14.403 -43.190  1.00  0.00    -0.258 OA
ENDROOT
BRANCH   1   4
HETATM    4  C4  UNL     1      -1.098  14.256 -40.695  1.00  0.00     0.211 A 
HETATM    5  C2  UNL     1      -1.625  12.820 -40.986  1.00  0.00     0.087 A 
HETATM    6  C1  UNL     1      -3.097  12.736 -41.295  1.00  0.00     0.037 C 
HETATM    7 CL1  UNL     1      -0.628  11.783 -42.039  1.00  0.00    -0.115 Cl
HETATM    8  C3  UNL     1      -1.092  13.168 -39.671  1.00  0.00     0.146 A 
HETATM    9 CL2  UNL     1      -2.233  13.344 -38.324  1.00  0.00    -0.119 Cl
ENDBRANCH   1   4
BRANCH   2  10
HETATM   10  C6  UNL     1       2.000  16.153 -41.764  1.00  0.00     0.123 C 
BRANCH  10  11
HETATM   11  C7  UNL     1       3.397  15.699 -41.561  1.00  0.00    -0.005 C 
HETATM   12  C8  UNL     1       4.314  16.683 -40.863  1.00  0.00     0.005 C 
HETATM   13  C9  UNL     1       4.990  15.463 -40.229  1.00  0.00     0.001 C 
HETATM   14  C10 UNL     1       3.626  14.777 -40.371  1.00  0.00     0.005 C 
ENDBRANCH  10  11
ENDBRANCH   2  10
TORSDOF 3
ENDMDL
MODEL 4
REMARK VINA RESULT: -5.812740105      2.814      5.498
REMARK  3 active torsions:
REMARK  status: ('A' for Active; 'I' for Inactive)
REMARK    1  A    between atoms: C4_6  and  N1_7 
REMARK       I    between atoms: N1_7  and  C5_8 
REMARK    2  A    between atoms: C5_8  and  C6_10 
REMARK    3  A    between atoms: C6_10  and  C7_11 
ROOT
HETATM    1  N1  UNL     1       0.290  13.958 -41.936  1.00  0.00    -0.406 NA
HETATM    2  C5  UNL     1       0.996  14.988 -42.494  1.00  0.00     0.287 C 
HETATM    3  O1  UNL     1       1.120  15.216 -43.731  1.00  0.00    -0.258 OA
ENDROOT
BRANCH   1   4
HETATM    4  C4  UNL     1      -0.418  12.926 -41.377  1.00  0.00     0.211 A 
HETATM    5  C2  UNL     1      -1.678  13.364 -40.573  1.00  0.00     0.087 A 
HETATM    6  C1  UNL     1      -1.773  12.792 -39.183  1.00  0.00     0.037 C 
HETATM    7 CL1  UNL     1      -2.141  15.084 -40.656  1.00  0.00    -0.115 Cl
HETATM    8  C3  UNL     1      -1.809  12.564 -41.789  1.00  0.00     0.146 A 
HETATM    9 CL2  UNL     1      -2.263  10.857 -41.625  1.00  0.00    -0.119 Cl
ENDBRANCH   1   4
BRANCH   2  10
HETATM   10  C6  UNL     1       1.740  16.023 -41.662  1.00  0.00     0.123 C 
BRANCH  10  11
HETATM   11  C7  UNL     1       3.181  15.679 -41.584  1.00  0.00    -0.005 C 
HETATM   12  C8  UNL     1       4.070  16.715 -40.925  1.00  0.00     0.005 C 
HETATM   13  C9  UNL     1       4.889  15.537 -40.388  1.00  0.00     0.001 C 
HETATM   14  C10 UNL     1       3.577  14.745 -40.448  1.00  0.00     0.005 C 
ENDBRANCH  10  11
ENDBRANCH   2  10
TORSDOF 3
ENDMDL
MODEL 5
REMARK VINA RESULT: -5.785716752      1.719      1.795
REMARK  3 active torsions:
REMARK  status: ('A' for Active; 'I' for Inactive)
REMARK    1  A    between atoms: C4_6  and  N1_7 
REMARK       I    between atoms: N1_7  and  C5_8 
REMARK    2  A    between atoms: C5_8  and  C6_10 
REMARK    3  A    between atoms: C6_10  and  C7_11 
ROOT
HETATM    1  N1  UNL     1       2.945  14.672 -40.763  1.00  0.00    -0.406 NA
HETATM    2  C5  UNL     1       1.739  15.007 -41.316  1.00  0.00     0.287 C 
HETATM    3  O1  UNL     1       1.362  16.175 -41.616  1.00  0.00    -0.258 OA
ENDROOT
BRANCH   1   4
HETATM    4  C4  UNL     1       4.154  14.335 -40.211  1.00  0.00     0.211 A 
HETATM    5  C2  UNL     1       5.226  15.464 -40.259  1.00  0.00     0.087 A 
HETATM    6  C1  UNL     1       6.558  15.049 -40.827  1.00  0.00     0.037 C 
HETATM    7 CL1  UNL     1       4.693  17.071 -40.821  1.00  0.00    -0.115 Cl
HETATM    8  C3  UNL     1       4.704  14.983 -38.981  1.00  0.00     0.146 A 
HETATM    9 CL2  UNL     1       5.762  13.982 -37.968  1.00  0.00    -0.119 Cl
ENDBRANCH   1   4
BRANCH   2  10
HETATM   10  C6  UNL     1       0.671  13.976 -41.651  1.00  0.00     0.123 C 
BRANCH  10  11
HETATM   11  C7  UNL     1      -0.629  14.372 -41.056  1.00  0.00    -0.005 C 
HETATM   12  C8  UNL     1      -1.863  13.946 -41.826  1.00  0.00     0.005 C 
HETATM   13  C9  UNL     1      -2.543  13.776 -40.464  1.00  0.00     0.001 C 
HETATM   14  C10 UNL     1      -1.136  13.486 -39.926  1.00  0.00     0.005 C 
ENDBRANCH  10  11
ENDBRANCH   2  10
TORSDOF 3
ENDMDL
