MODEL 1
REMARK VINA RESULT: -4.932581087      0.000      0.000
REMARK  3 active torsions:
REMARK  status: ('A' for Active; 'I' for Inactive)
REMARK    1  A    between atoms: C2_2  and  C3_3 
REMARK    2  A    between atoms: C2_2  and  C5_6 
REMARK    3  A    between atoms: C6_7  and  C7_9 
ROOT
HETATM    1  C5  UNL     1       1.636  15.836 -41.760  1.00  0.00     0.012 C 
HETATM    2  C6  UNL     1       2.872  15.592 -41.423  1.00  0.00     0.107 C 
HETATM    3 CL1  UNL     1       3.548  13.992 -41.235  1.00  0.00    -0.077 Cl
ENDROOT
BRANCH   1   4
HETATM    4  C2  UNL     1       0.568  14.907 -42.048  1.00  0.00     0.029 C 
HETATM    5  C1  UNL     1       0.783  13.905 -43.130  1.00  0.00     0.018 C 
BRANCH   4   6
HETATM    6  C3  UNL     1       0.061  14.203 -40.825  1.00  0.00    -0.011 C 
HETATM    7  C4  UNL     1      -1.217  13.928 -40.622  1.00  0.00     0.052 C 
HETATM    8 BR1  UNL     1      -1.702  13.026 -39.016  1.00  0.00    -0.064 Br
ENDBRANCH   4   6
ENDBRANCH   1   4
BRANCH   2   9
HETATM    9  C7  UNL     1       3.829  16.692 -41.166  1.00  0.00     0.221 C 
HETATM   10  O1  UNL     1       5.068  16.404 -41.234  1.00  0.00    -0.643 OA
HETATM   11  O2  UNL     1       3.474  17.972 -40.870  1.00  0.00    -0.643 OA
ENDBRANCH   2   9
TORSDOF 3
ENDMDL
MODEL 2
REMARK VINA RESULT: -4.877930503      1.825      1.964
REMARK  3 active torsions:
REMARK  status: ('A' for Active; 'I' for Inactive)
REMARK    1  A    between atoms: C2_2  and  C3_3 
REMARK    2  A    between atoms: C2_2  and  C5_6 
REMARK    3  A    between atoms: C6_7  and  C7_9 
ROOT
HETATM    1  C5  UNL     1       2.757  15.435 -41.690  1.00  0.00     0.012 C 
HETATM    2  C6  UNL     1       3.668  16.227 -41.195  1.00  0.00     0.107 C 
HETATM    3 CL1  UNL     1       3.447  17.939 -40.923  1.00  0.00    -0.077 Cl
ENDROOT
BRANCH   1   4
HETATM    4  C2  UNL     1       1.413  15.745 -42.118  1.00  0.00     0.029 C 
HETATM    5  C1  UNL     1       1.041  15.448 -43.530  1.00  0.00     0.018 C 
BRANCH   4   6
HETATM    6  C3  UNL     1       0.364  15.178 -41.208  1.00  0.00    -0.011 C 
HETATM    7  C4  UNL     1      -0.175  13.981 -41.379  1.00  0.00     0.052 C 
HETATM    8 BR1  UNL     1      -1.496  13.402 -40.135  1.00  0.00    -0.064 Br
ENDBRANCH   4   6
ENDBRANCH   1   4
BRANCH   2   9
HETATM    9  C7  UNL     1       5.003  15.715 -40.811  1.00  0.00     0.221 C 
HETATM   10  O1  UNL     1       5.837  15.523 -41.755  1.00  0.00    -0.643 OA
HETATM   11  O2  UNL     1       5.389  15.442 -39.536  1.00  0.00    -0.643 OA
ENDBRANCH   2   9
TORSDOF 3
ENDMDL
MODEL 3
REMARK VINA RESULT: -4.852154892      3.455      4.706
REMARK  3 active torsions:
REMARK  status: ('A' for Active; 'I' for Inactive)
REMARK    1  A    between atoms: C2_2  and  C3_3 
REMARK    2  A    between atoms: C2_2  and  C5_6 
REMARK    3  A    between atoms: C6_7  and  C7_9 
ROOT
HETATM    1  C5  UNL     1       5.743  15.761 -40.452  1.00  0.00     0.012 C 
HETATM    2  C6  UNL     1       6.243  14.929 -39.581  1.00  0.00     0.107 C 
HETATM    3 CL1  UNL     1       5.397  14.354 -38.165  1.00  0.00    -0.077 Cl
ENDROOT
BRANCH   1   4
HETATM    4  C2  UNL     1       4.441  16.386 -40.474  1.00  0.00     0.029 C 
HETATM    5  C1  UNL     1       4.376  17.863 -40.663  1.00  0.00     0.018 C 
BRANCH   4   6
HETATM    6  C3  UNL     1       3.494  15.731 -41.435  1.00  0.00    -0.011 C 
HETATM    7  C4  UNL     1       2.263  16.165 -41.652  1.00  0.00     0.052 C 
HETATM    8 BR1  UNL     1       1.182  15.221 -42.905  1.00  0.00    -0.064 Br
ENDBRANCH   4   6
ENDBRANCH   1   4
BRANCH   2   9
HETATM    9  C7  UNL     1       7.614  14.391 -39.734  1.00  0.00     0.221 C 
HETATM   10  O1  UNL     1       8.399  15.031 -40.506  1.00  0.00    -0.643 OA
HETATM   11  O2  UNL     1       8.081  13.276 -39.111  1.00  0.00    -0.643 OA
ENDBRANCH   2   9
TORSDOF 3
ENDMDL
MODEL 4
REMARK VINA RESULT: -4.816980564      3.546      4.947
REMARK  3 active torsions:
REMARK  status: ('A' for Active; 'I' for Inactive)
REMARK    1  A    between atoms: C2_2  and  C3_3 
REMARK    2  A    between atoms: C2_2  and  C5_6 
REMARK    3  A    between atoms: C6_7  and  C7_9 
ROOT
HETATM    1  C5  UNL     1       2.947  15.913 -41.407  1.00  0.00     0.012 C 
HETATM    2  C6  UNL     1       2.610  14.687 -41.700  1.00  0.00     0.107 C 
HETATM    3 CL1  UNL     1       3.690  13.317 -41.611  1.00  0.00    -0.077 Cl
ENDROOT
BRANCH   1   4
HETATM    4  C2  UNL     1       4.222  16.428 -40.963  1.00  0.00     0.029 C 
HETATM    5  C1  UNL     1       4.318  17.880 -40.641  1.00  0.00     0.018 C 
BRANCH   4   6
HETATM    6  C3  UNL     1       4.809  15.638 -39.831  1.00  0.00    -0.011 C 
HETATM    7  C4  UNL     1       6.047  15.171 -39.836  1.00  0.00     0.052 C 
HETATM    8 BR1  UNL     1       6.645  14.185 -38.320  1.00  0.00    -0.064 Br
ENDBRANCH   4   6
ENDBRANCH   1   4
BRANCH   2   9
HETATM    9  C7  UNL     1       1.237  14.355 -42.142  1.00  0.00     0.221 C 
HETATM   10  O1  UNL     1       1.125  13.726 -43.244  1.00  0.00    -0.643 OA
HETATM   11  O2  UNL     1       0.106  14.673 -41.457  1.00  0.00    -0.643 OA
ENDBRANCH   2   9
TORSDOF 3
ENDMDL
MODEL 5
REMARK VINA RESULT: -4.798268323      4.892      6.283
REMARK  3 active torsions:
REMARK  status: ('A' for Active; 'I' for Inactive)
REMARK    1  A    between atoms: C2_2  and  C3_3 
REMARK    2  A    between atoms: C2_2  and  C5_6 
REMARK    3  A    between atoms: C6_7  and  C7_9 
ROOT
HETATM    1  C5  UNL     1       4.830  14.465 -40.089  1.00  0.00     0.012 C 
HETATM    2  C6  UNL     1       4.138  15.258 -40.860  1.00  0.00     0.107 C 
HETATM    3 CL1  UNL     1       4.264  17.000 -40.853  1.00  0.00    -0.077 Cl
ENDROOT
BRANCH   1   4
HETATM    4  C2  UNL     1       5.818  14.798 -39.089  1.00  0.00     0.029 C 
HETATM    5  C1  UNL     1       5.932  13.913 -37.895  1.00  0.00     0.018 C 
BRANCH   4   6
HETATM    6  C3  UNL     1       7.185  15.013 -39.668  1.00  0.00    -0.011 C 
HETATM    7  C4  UNL     1       8.291  15.006 -38.941  1.00  0.00     0.052 C 
HETATM    8 BR1  UNL     1       9.953  15.296 -39.826  1.00  0.00    -0.064 Br
ENDBRANCH   4   6
ENDBRANCH   1   4
BRANCH   2   9
HETATM    9  C7  UNL     1       3.161  14.719 -41.834  1.00  0.00     0.221 C 
HETATM   10  O1  UNL     1       3.045  13.453 -41.889  1.00  0.00    -0.643 OA
HETATM   11  O2  UNL     1       2.392  15.480 -42.658  1.00  0.00    -0.643 OA
ENDBRANCH   2   9
TORSDOF 3
ENDMDL
