MODEL 1
REMARK VINA RESULT: -5.820193770      0.000      0.000
REMARK  3 active torsions:
REMARK  status: ('A' for Active; 'I' for Inactive)
REMARK    1  A    between atoms: C2_2  and  C3_3 
REMARK    2  A    between atoms: C3_3  and  C4_4 
REMARK    3  A    between atoms: C5_5  and  C6_6 
ROOT
HETATM    1  C4  UNL     1      -0.534  13.322 -40.938  1.00  0.00     0.036 C 
HETATM    2  C5  UNL     1      -1.867  13.309 -40.275  1.00  0.00     0.079 C 
HETATM    3  C7  UNL     1      -2.733  12.250 -40.903  1.00  0.00     0.017 C 
HETATM    4  C8  UNL     1      -1.924  10.958 -41.087  1.00  0.00     0.059 C 
HETATM    5  C9  UNL     1      -0.993  11.222 -42.242  1.00  0.00     0.230 A 
HETATM    6 CL2  UNL     1      -1.519  10.533 -43.798  1.00  0.00    -0.086 Cl
HETATM    7  N1  UNL     1       0.416  11.308 -42.055  1.00  0.00    -0.042 N 
ATOM      8  H11 UNL     1       1.242  10.935 -42.522  1.00  0.00     0.280 HD
ATOM      9  H12 UNL     1       1.089  10.954 -41.375  1.00  0.00     0.280 HD
HETATM   10  C10 UNL     1      -0.435  12.528 -42.189  1.00  0.00     0.244 A 
ENDROOT
BRANCH   1  11
HETATM   11  C3  UNL     1      -0.145  14.763 -41.261  1.00  0.00     0.034 C 
BRANCH  11  12
HETATM   12  C2  UNL     1       1.315  14.895 -41.510  1.00  0.00    -0.036 C 
HETATM   13  C1  UNL     1       1.800  16.072 -41.858  1.00  0.00     0.007 C 
ENDBRANCH  11  12
ENDBRANCH   1  11
BRANCH   2  14
HETATM   14  C6  UNL     1      -1.770  13.173 -38.806  1.00  0.00     0.223 C 
HETATM   15  O1  UNL     1      -0.991  12.387 -38.294  1.00  0.00    -0.279 OA
HETATM   16 CL1  UNL     1      -2.775  14.139 -37.744  1.00  0.00    -0.043 Cl
ENDBRANCH   2  14
TORSDOF 3
ENDMDL
MODEL 2
REMARK VINA RESULT: -5.781685822      1.656      1.780
REMARK  3 active torsions:
REMARK  status: ('A' for Active; 'I' for Inactive)
REMARK    1  A    between atoms: C2_2  and  C3_3 
REMARK    2  A    between atoms: C3_3  and  C4_4 
REMARK    3  A    between atoms: C5_5  and  C6_6 
ROOT
HETATM    1  C4  UNL     1       0.130  13.839 -41.568  1.00  0.00     0.036 C 
HETATM    2  C5  UNL     1      -1.338  14.088 -41.560  1.00  0.00     0.079 C 
HETATM    3  C7  UNL     1      -1.998  13.248 -42.622  1.00  0.00     0.017 C 
HETATM    4  C8  UNL     1      -1.435  11.821 -42.582  1.00  0.00     0.059 C 
HETATM    5  C9  UNL     1      -0.053  11.913 -43.175  1.00  0.00     0.230 A 
HETATM    6 CL2  UNL     1       0.068  11.388 -44.873  1.00  0.00    -0.086 Cl
HETATM    7  N1  UNL     1       1.111  11.699 -42.384  1.00  0.00    -0.042 N 
ATOM      8  H11 UNL     1       1.979  11.173 -42.483  1.00  0.00     0.280 HD
ATOM      9  H12 UNL     1       1.332  11.195 -41.525  1.00  0.00     0.280 HD
HETATM   10  C10 UNL     1       0.641  13.073 -42.733  1.00  0.00     0.244 A 
ENDROOT
BRANCH   1  11
HETATM   11  C3  UNL     1       0.869  15.174 -41.520  1.00  0.00     0.034 C 
BRANCH  11  12
HETATM   12  C2  UNL     1       2.306  14.994 -41.182  1.00  0.00    -0.036 C 
HETATM   13  C1  UNL     1       3.168  15.928 -41.540  1.00  0.00     0.007 C 
ENDBRANCH  11  12
ENDBRANCH   1  11
BRANCH   2  14
HETATM   14  C6  UNL     1      -1.940  13.898 -40.223  1.00  0.00     0.223 C 
HETATM   15  O1  UNL     1      -2.867  14.593 -39.843  1.00  0.00    -0.279 OA
HETATM   16 CL1  UNL     1      -1.339  12.666 -39.131  1.00  0.00    -0.043 Cl
ENDBRANCH   2  14
TORSDOF 3
ENDMDL
MODEL 3
REMARK VINA RESULT: -5.734171971      2.645      4.064
REMARK  3 active torsions:
REMARK  status: ('A' for Active; 'I' for Inactive)
REMARK    1  A    between atoms: C2_2  and  C3_3 
REMARK    2  A    between atoms: C3_3  and  C4_4 
REMARK    3  A    between atoms: C5_5  and  C6_6 
ROOT
HETATM    1  C4  UNL     1       0.413  14.112 -42.154  1.00  0.00     0.036 C 
HETATM    2  C5  UNL     1       0.466  12.757 -42.772  1.00  0.00     0.079 C 
HETATM    3  C7  UNL     1      -0.473  11.834 -42.042  1.00  0.00     0.017 C 
HETATM    4  C8  UNL     1      -1.812  12.541 -41.794  1.00  0.00     0.059 C 
HETATM    5  C9  UNL     1      -1.548  13.534 -40.691  1.00  0.00     0.230 A 
HETATM    6 CL2  UNL     1      -2.084  13.014 -39.074  1.00  0.00    -0.086 Cl
HETATM    7  N1  UNL     1      -1.592  14.937 -40.929  1.00  0.00    -0.042 N 
ATOM      8  H11 UNL     1      -2.000  15.748 -40.463  1.00  0.00     0.280 HD
ATOM      9  H12 UNL     1      -2.046  15.554 -41.603  1.00  0.00     0.280 HD
HETATM   10  C10 UNL     1      -0.299  14.194 -40.854  1.00  0.00     0.244 A 
ENDROOT
BRANCH   1  11
HETATM   11  C3  UNL     1       1.835  14.627 -41.947  1.00  0.00     0.034 C 
BRANCH  11  12
HETATM   12  C2  UNL     1       1.855  16.091 -41.682  1.00  0.00    -0.036 C 
HETATM   13  C1  UNL     1       2.994  16.662 -41.340  1.00  0.00     0.007 C 
ENDBRANCH  11  12
ENDBRANCH   1  11
BRANCH   2  14
HETATM   14  C6  UNL     1       0.223  12.787 -44.229  1.00  0.00     0.223 C 
HETATM   15  O1  UNL     1       0.421  11.804 -44.924  1.00  0.00    -0.279 OA
HETATM   16 CL1  UNL     1      -0.359  14.240 -45.017  1.00  0.00    -0.043 Cl
ENDBRANCH   2  14
TORSDOF 3
ENDMDL
MODEL 4
REMARK VINA RESULT: -5.533162476      3.065      4.436
REMARK  3 active torsions:
REMARK  status: ('A' for Active; 'I' for Inactive)
REMARK    1  A    between atoms: C2_2  and  C3_3 
REMARK    2  A    between atoms: C3_3  and  C4_4 
REMARK    3  A    between atoms: C5_5  and  C6_6 
ROOT
HETATM    1  C4  UNL     1      -1.670  13.073 -40.452  1.00  0.00     0.036 C 
HETATM    2  C5  UNL     1      -1.835  12.008 -41.479  1.00  0.00     0.079 C 
HETATM    3  C7  UNL     1      -3.043  12.307 -42.327  1.00  0.00     0.017 C 
HETATM    4  C8  UNL     1      -3.053  13.792 -42.715  1.00  0.00     0.059 C 
HETATM    5  C9  UNL     1      -3.447  14.536 -41.465  1.00  0.00     0.230 A 
HETATM    6 CL2  UNL     1      -5.152  15.046 -41.406  1.00  0.00    -0.086 Cl
HETATM    7  N1  UNL     1      -2.529  15.387 -40.787  1.00  0.00    -0.042 N 
ATOM      8  H11 UNL     1      -2.557  16.324 -40.385  1.00  0.00     0.280 HD
ATOM      9  H12 UNL     1      -1.695  15.917 -41.040  1.00  0.00     0.280 HD
HETATM   10  C10 UNL     1      -2.818  14.004 -40.306  1.00  0.00     0.244 A 
ENDROOT
BRANCH   1  11
HETATM   11  C3  UNL     1      -1.408  12.429 -39.093  1.00  0.00     0.034 C 
BRANCH  11  12
HETATM   12  C2  UNL     1      -1.997  13.226 -37.985  1.00  0.00    -0.036 C 
HETATM   13  C1  UNL     1      -1.817  12.822 -36.741  1.00  0.00     0.007 C 
ENDBRANCH  11  12
ENDBRANCH   1  11
BRANCH   2  14
HETATM   14  C6  UNL     1      -0.611  11.795 -42.281  1.00  0.00     0.223 C 
HETATM   15  O1  UNL     1      -0.409  10.740 -42.858  1.00  0.00    -0.279 OA
HETATM   16 CL1  UNL     1       0.598  13.054 -42.430  1.00  0.00    -0.043 Cl
ENDBRANCH   2  14
TORSDOF 3
ENDMDL
MODEL 5
REMARK VINA RESULT: -5.507458515      2.395      3.851
REMARK  3 active torsions:
REMARK  status: ('A' for Active; 'I' for Inactive)
REMARK    1  A    between atoms: C2_2  and  C3_3 
REMARK    2  A    between atoms: C3_3  and  C4_4 
REMARK    3  A    between atoms: C5_5  and  C6_6 
ROOT
HETATM    1  C4  UNL     1      -0.663  13.899 -42.157  1.00  0.00     0.036 C 
HETATM    2  C5  UNL     1      -0.679  12.435 -42.433  1.00  0.00     0.079 C 
HETATM    3  C7  UNL     1      -1.341  11.713 -41.290  1.00  0.00     0.017 C 
HETATM    4  C8  UNL     1      -2.618  12.456 -40.874  1.00  0.00     0.059 C 
HETATM    5  C9  UNL     1      -2.151  13.687 -40.141  1.00  0.00     0.230 A 
HETATM    6 CL2  UNL     1      -2.226  13.572 -38.365  1.00  0.00    -0.086 Cl
HETATM    7  N1  UNL     1      -2.345  14.990 -40.679  1.00  0.00    -0.042 N 
ATOM      8  H11 UNL     1      -2.675  15.888 -40.325  1.00  0.00     0.280 HD
ATOM      9  H12 UNL     1      -2.994  15.424 -41.336  1.00  0.00     0.280 HD
HETATM   10  C10 UNL     1      -1.029  14.291 -40.772  1.00  0.00     0.244 A 
ENDROOT
BRANCH   1  11
HETATM   11  C3  UNL     1       0.728  14.453 -42.452  1.00  0.00     0.034 C 
BRANCH  11  12
HETATM   12  C2  UNL     1       1.046  15.626 -41.595  1.00  0.00    -0.036 C 
HETATM   13  C1  UNL     1       2.256  16.150 -41.651  1.00  0.00     0.007 C 
ENDBRANCH  11  12
ENDBRANCH   1  11
BRANCH   2  14
HETATM   14  C6  UNL     1      -1.282  12.110 -43.743  1.00  0.00     0.223 C 
HETATM   15  O1  UNL     1      -1.080  11.036 -44.283  1.00  0.00    -0.279 OA
HETATM   16 CL1  UNL     1      -2.312  13.262 -44.571  1.00  0.00    -0.043 Cl
ENDBRANCH   2  14
TORSDOF 3
ENDMDL
