MODEL 1
REMARK VINA RESULT: -6.210126715      0.000      0.000
REMARK  3 active torsions:
REMARK  status: ('A' for Active; 'I' for Inactive)
REMARK    1  A    between atoms: C3_3  and  N1_4 
REMARK       I    between atoms: N1_4  and  C4_6 
REMARK    2  A    between atoms: C4_6  and  C5_8 
REMARK    3  A    between atoms: C6_9  and  C7_10 
ROOT
HETATM    1  N1  UNL     1       0.276  13.815 -40.984  1.00  0.00    -0.349 N 
ATOM      2  H1  UNL     1       0.252  13.898 -39.967  1.00  0.00     0.163 HD
HETATM    3  C4  UNL     1       1.370  14.331 -41.702  1.00  0.00     0.241 C 
HETATM    4  O1  UNL     1       1.423  14.238 -42.983  1.00  0.00    -0.269 OA
ENDROOT
BRANCH   1   5
HETATM    5  C3  UNL     1      -0.808  13.173 -41.672  1.00  0.00     0.130 A 
HETATM    6  C2  UNL     1      -2.213  13.585 -41.481  1.00  0.00     0.048 A 
HETATM    7  C1  UNL     1      -2.579  14.816 -40.689  1.00  0.00     0.015 C 
HETATM    8  C10 UNL     1      -1.745  12.404 -40.711  1.00  0.00     0.139 A 
HETATM    9 CL1  UNL     1      -1.520  12.639 -38.974  1.00  0.00    -0.099 Cl
HETATM   10 CL2  UNL     1      -2.201  10.771 -41.225  1.00  0.00    -0.099 Cl
ENDBRANCH   1   5
BRANCH   3  11
HETATM   11  C5  UNL     1       2.485  14.986 -41.058  1.00  0.00     0.070 C 
HETATM   12  C6  UNL     1       3.553  14.359 -40.649  1.00  0.00    -0.017 C 
BRANCH  12  13
HETATM   13  C7  UNL     1       4.692  15.048 -39.989  1.00  0.00     0.008 A 
HETATM   14  C8  UNL     1       5.958  14.228 -39.967  1.00  0.00     0.009 A 
HETATM   15  C9  UNL     1       5.242  14.607 -38.695  1.00  0.00     0.009 A 
ENDBRANCH  12  13
ENDBRANCH   3  11
TORSDOF 3
ENDMDL
MODEL 2
REMARK VINA RESULT: -6.185338159      1.396      1.670
REMARK  3 active torsions:
REMARK  status: ('A' for Active; 'I' for Inactive)
REMARK    1  A    between atoms: C3_3  and  N1_4 
REMARK       I    between atoms: N1_4  and  C4_6 
REMARK    2  A    between atoms: C4_6  and  C5_8 
REMARK    3  A    between atoms: C6_9  and  C7_10 
ROOT
HETATM    1  N1  UNL     1       0.139  13.716 -40.878  1.00  0.00    -0.349 N 
ATOM      2  H1  UNL     1       0.401  12.754 -40.665  1.00  0.00     0.163 HD
HETATM    3  C4  UNL     1       1.133  14.656 -41.206  1.00  0.00     0.241 C 
HETATM    4  O1  UNL     1       0.827  15.874 -41.478  1.00  0.00    -0.269 OA
ENDROOT
BRANCH   1   5
HETATM    5  C3  UNL     1      -1.242  14.103 -40.840  1.00  0.00     0.130 A 
HETATM    6  C2  UNL     1      -2.144  13.688 -39.747  1.00  0.00     0.048 A 
HETATM    7  C1  UNL     1      -1.629  12.982 -38.517  1.00  0.00     0.015 C 
HETATM    8  C10 UNL     1      -2.199  12.899 -41.003  1.00  0.00     0.139 A 
HETATM    9 CL1  UNL     1      -1.501  11.276 -40.941  1.00  0.00    -0.099 Cl
HETATM   10 CL2  UNL     1      -3.539  13.128 -42.140  1.00  0.00    -0.099 Cl
ENDBRANCH   1   5
BRANCH   3  11
HETATM   11  C5  UNL     1       2.536  14.318 -41.258  1.00  0.00     0.070 C 
HETATM   12  C6  UNL     1       3.391  14.635 -40.326  1.00  0.00    -0.017 C 
BRANCH  12  13
HETATM   13  C7  UNL     1       4.832  14.279 -40.395  1.00  0.00     0.008 A 
HETATM   14  C8  UNL     1       5.481  14.141 -39.039  1.00  0.00     0.009 A 
HETATM   15  C9  UNL     1       5.900  15.219 -40.008  1.00  0.00     0.009 A 
ENDBRANCH  12  13
ENDBRANCH   3  11
TORSDOF 3
ENDMDL
MODEL 3
REMARK VINA RESULT: -6.033233528      1.077      1.379
REMARK  3 active torsions:
REMARK  status: ('A' for Active; 'I' for Inactive)
REMARK    1  A    between atoms: C3_3  and  N1_4 
REMARK       I    between atoms: N1_4  and  C4_6 
REMARK    2  A    between atoms: C4_6  and  C5_8 
REMARK    3  A    between atoms: C6_9  and  C7_10 
ROOT
HETATM    1  N1  UNL     1       0.166  13.458 -41.325  1.00  0.00    -0.349 N 
ATOM      2  H1  UNL     1       0.225  13.752 -40.350  1.00  0.00     0.163 HD
HETATM    3  C4  UNL     1       1.314  13.498 -42.137  1.00  0.00     0.241 C 
HETATM    4  O1  UNL     1       1.265  13.133 -43.369  1.00  0.00    -0.269 OA
ENDROOT
BRANCH   1   5
HETATM    5  C3  UNL     1      -1.087  13.008 -41.859  1.00  0.00     0.130 A 
HETATM    6  C2  UNL     1      -2.369  13.643 -41.495  1.00  0.00     0.048 A 
HETATM    7  C1  UNL     1      -2.425  14.912 -40.681  1.00  0.00     0.015 C 
HETATM    8  C10 UNL     1      -2.006  12.396 -40.776  1.00  0.00     0.139 A 
HETATM    9 CL1  UNL     1      -1.524  12.578 -39.085  1.00  0.00    -0.099 Cl
HETATM   10 CL2  UNL     1      -2.785  10.863 -41.204  1.00  0.00    -0.099 Cl
ENDBRANCH   1   5
BRANCH   3  11
HETATM   11  C5  UNL     1       2.599  13.943 -41.649  1.00  0.00     0.070 C 
HETATM   12  C6  UNL     1       2.783  15.075 -41.028  1.00  0.00    -0.017 C 
BRANCH  12  13
HETATM   13  C7  UNL     1       4.112  15.517 -40.531  1.00  0.00     0.008 A 
HETATM   14  C8  UNL     1       4.387  16.981 -40.778  1.00  0.00     0.009 A 
HETATM   15  C9  UNL     1       5.209  15.902 -41.438  1.00  0.00     0.009 A 
ENDBRANCH  12  13
ENDBRANCH   3  11
TORSDOF 3
ENDMDL
MODEL 4
REMARK VINA RESULT: -5.905834482      1.110      1.229
REMARK  3 active torsions:
REMARK  status: ('A' for Active; 'I' for Inactive)
REMARK    1  A    between atoms: C3_3  and  N1_4 
REMARK       I    between atoms: N1_4  and  C4_6 
REMARK    2  A    between atoms: C4_6  and  C5_8 
REMARK    3  A    between atoms: C6_9  and  C7_10 
ROOT
HETATM    1  N1  UNL     1      -0.509  14.424 -41.849  1.00  0.00    -0.349 N 
ATOM      2  H1  UNL     1      -0.778  15.139 -41.172  1.00  0.00     0.163 HD
HETATM    3  C4  UNL     1       0.796  14.414 -42.375  1.00  0.00     0.241 C 
HETATM    4  O1  UNL     1       1.157  13.524 -43.229  1.00  0.00    -0.269 OA
ENDROOT
BRANCH   1   5
HETATM    5  C3  UNL     1      -1.466  13.436 -42.259  1.00  0.00     0.130 A 
HETATM    6  C2  UNL     1      -2.888  13.512 -41.870  1.00  0.00     0.048 A 
HETATM    7  C1  UNL     1      -3.457  14.721 -41.170  1.00  0.00     0.015 C 
HETATM    8  C10 UNL     1      -2.017  12.617 -41.068  1.00  0.00     0.139 A 
HETATM    9 CL1  UNL     1      -1.620  13.166 -39.435  1.00  0.00    -0.099 Cl
HETATM   10 CL2  UNL     1      -2.084  10.862 -41.306  1.00  0.00    -0.099 Cl
ENDBRANCH   1   5
BRANCH   3  11
HETATM   11  C5  UNL     1       1.795  15.386 -41.997  1.00  0.00     0.070 C 
HETATM   12  C6  UNL     1       3.010  15.071 -41.641  1.00  0.00    -0.017 C 
BRANCH  12  13
HETATM   13  C7  UNL     1       4.027  16.084 -41.255  1.00  0.00     0.008 A 
HETATM   14  C8  UNL     1       5.446  15.629 -41.492  1.00  0.00     0.009 A 
HETATM   15  C9  UNL     1       4.928  15.902 -40.103  1.00  0.00     0.009 A 
ENDBRANCH  12  13
ENDBRANCH   3  11
TORSDOF 3
ENDMDL
MODEL 5
REMARK VINA RESULT: -5.846939666      3.117      6.131
REMARK  3 active torsions:
REMARK  status: ('A' for Active; 'I' for Inactive)
REMARK    1  A    between atoms: C3_3  and  N1_4 
REMARK       I    between atoms: N1_4  and  C4_6 
REMARK    2  A    between atoms: C4_6  and  C5_8 
REMARK    3  A    between atoms: C6_9  and  C7_10 
ROOT
HETATM    1  N1  UNL     1       2.248  14.987 -41.319  1.00  0.00    -0.349 N 
ATOM      2  H1  UNL     1       2.227  14.699 -40.341  1.00  0.00     0.163 HD
HETATM    3  C4  UNL     1       1.197  14.618 -42.180  1.00  0.00     0.241 C 
HETATM    4  O1  UNL     1       1.201  14.970 -43.416  1.00  0.00    -0.269 OA
ENDROOT
BRANCH   1   5
HETATM    5  C3  UNL     1       3.349  15.766 -41.809  1.00  0.00     0.130 A 
HETATM    6  C2  UNL     1       4.729  15.243 -41.840  1.00  0.00     0.048 A 
HETATM    7  C1  UNL     1       5.039  13.800 -41.525  1.00  0.00     0.015 C 
HETATM    8  C10 UNL     1       4.366  16.118 -40.698  1.00  0.00     0.139 A 
HETATM    9 CL1  UNL     1       4.181  15.324 -39.129  1.00  0.00    -0.099 Cl
HETATM   10 CL2  UNL     1       4.912  17.803 -40.660  1.00  0.00    -0.099 Cl
ENDBRANCH   1   5
BRANCH   3  11
HETATM   11  C5  UNL     1       0.067  13.836 -41.737  1.00  0.00     0.070 C 
HETATM   12  C6  UNL     1      -0.739  14.207 -40.782  1.00  0.00    -0.017 C 
BRANCH  12  13
HETATM   13  C7  UNL     1      -1.898  13.389 -40.339  1.00  0.00     0.008 A 
HETATM   14  C8  UNL     1      -1.805  12.946 -38.899  1.00  0.00     0.009 A 
HETATM   15  C9  UNL     1      -1.783  11.952 -40.032  1.00  0.00     0.009 A 
ENDBRANCH  12  13
ENDBRANCH   3  11
TORSDOF 3
ENDMDL
