MODEL 1
REMARK VINA RESULT: -6.063587882      0.000      0.000
REMARK  9 active torsions:
REMARK  status: ('A' for Active; 'I' for Inactive)
REMARK    1  A    between atoms: N1_1  and  C1_4 
REMARK    2  A    between atoms: C2_7  and  C3_8 
REMARK    3  A    between atoms: C4_9  and  C5_10 
REMARK    4  A    between atoms: C5_10  and  O1_11 
REMARK    5  A    between atoms: O1_11  and  C6_12 
REMARK    6  A    between atoms: C6_12  and  C7_13 
REMARK    7  A    between atoms: C7_13  and  C8_14 
REMARK    8  A    between atoms: C8_14  and  C9_15 
REMARK    9  A    between atoms: C9_15  and  N3_16 
ROOT
HETATM    1  C3  UNL     1      30.300  -8.315  13.706  1.00  0.00    -0.043 C 
HETATM    2  C4  UNL     1      29.246  -8.033  13.201  1.00  0.00    -0.073 C 
ENDROOT
BRANCH   1   3
HETATM    3  C2  UNL     1      31.562  -8.663  14.285  1.00  0.00     0.144 A 
HETATM    4  N2  UNL     1      32.531  -9.478  13.805  1.00  0.00    -0.181 N 
HETATM    5  C1  UNL     1      33.556  -9.533  14.660  1.00  0.00     0.678 A 
ATOM      6  H2  UNL     1      32.484  -9.978  12.918  1.00  0.00     0.185 HD
HETATM    7  N5  UNL     1      33.240  -8.742  15.700  1.00  0.00    -0.176 N 
HETATM    8  C13 UNL     1      32.015  -8.194  15.491  1.00  0.00     0.167 A 
ATOM      9  H5  UNL     1      33.828  -8.579  16.517  1.00  0.00     0.185 HD
HETATM   10  N4  UNL     1      31.295  -7.304  16.327  1.00  0.00    -0.079 NA
BRANCH   5  11
HETATM   11  N1  UNL     1      34.671 -10.192  14.578  1.00  0.00    -0.234 N 
ATOM     12  H12 UNL     1      34.837 -11.077  15.057  1.00  0.00     0.174 HD
ATOM     13  H11 UNL     1      35.524  -9.970  14.063  1.00  0.00     0.174 HD
ENDBRANCH   5  11
ENDBRANCH   1   3
BRANCH   2  14
HETATM   14  C5  UNL     1      27.926  -7.696  12.591  1.00  0.00     0.261 C 
BRANCH  14  15
HETATM   15  O1  UNL     1      26.953  -7.608  13.543  1.00  0.00    -0.379 OA
BRANCH  15  16
HETATM   16  C6  UNL     1      26.338  -8.746  13.954  1.00  0.00     0.168 C 
BRANCH  16  17
HETATM   17  C7  UNL     1      26.233  -8.774  15.462  1.00  0.00     0.028 C 
BRANCH  17  18
HETATM   18  C8  UNL     1      27.019  -9.914  16.017  1.00  0.00     0.022 C 
BRANCH  18  19
HETATM   19  C9  UNL     1      28.293  -9.560  16.683  1.00  0.00     0.128 C 
BRANCH  19  20
HETATM   20  N3  UNL     1      29.365 -10.566  16.446  1.00  0.00    -0.360 N 
HETATM   21  C10 UNL     1      30.387 -10.736  17.231  1.00  0.00     0.098 A 
HETATM   22  C11 UNL     1      31.310 -11.694  16.889  1.00  0.00     0.068 A 
HETATM   23  S1  UNL     1      30.660 -12.313  15.443  1.00  0.00    -0.095 SA
HETATM   24  C12 UNL     1      29.270 -11.333  15.352  1.00  0.00     0.140 A 
ENDBRANCH  19  20
ENDBRANCH  18  19
ENDBRANCH  17  18
ENDBRANCH  16  17
ENDBRANCH  15  16
ENDBRANCH  14  15
ENDBRANCH   2  14
TORSDOF 9
ENDMDL
MODEL 2
REMARK VINA RESULT: -5.951954535      1.804      2.416
REMARK  9 active torsions:
REMARK  status: ('A' for Active; 'I' for Inactive)
REMARK    1  A    between atoms: N1_1  and  C1_4 
REMARK    2  A    between atoms: C2_7  and  C3_8 
REMARK    3  A    between atoms: C4_9  and  C5_10 
REMARK    4  A    between atoms: C5_10  and  O1_11 
REMARK    5  A    between atoms: O1_11  and  C6_12 
REMARK    6  A    between atoms: C6_12  and  C7_13 
REMARK    7  A    between atoms: C7_13  and  C8_14 
REMARK    8  A    between atoms: C8_14  and  C9_15 
REMARK    9  A    between atoms: C9_15  and  N3_16 
ROOT
HETATM    1  C3  UNL     1      28.381  -8.106  12.408  1.00  0.00    -0.043 C 
HETATM    2  C4  UNL     1      27.250  -8.299  12.047  1.00  0.00    -0.073 C 
ENDROOT
BRANCH   1   3
HETATM    3  C2  UNL     1      29.723  -7.889  12.859  1.00  0.00     0.144 A 
HETATM    4  N2  UNL     1      30.510  -8.683  13.621  1.00  0.00    -0.181 N 
HETATM    5  C1  UNL     1      31.700  -8.107  13.815  1.00  0.00     0.678 A 
ATOM      6  H2  UNL     1      30.234  -9.592  13.994  1.00  0.00     0.185 HD
HETATM    7  N5  UNL     1      31.674  -6.930  13.167  1.00  0.00    -0.176 N 
HETATM    8  C13 UNL     1      30.464  -6.773  12.569  1.00  0.00     0.167 A 
ATOM      9  H5  UNL     1      32.441  -6.260  13.130  1.00  0.00     0.185 HD
HETATM   10  N4  UNL     1      30.004  -5.684  11.786  1.00  0.00    -0.079 NA
BRANCH   5  11
HETATM   11  N1  UNL     1      32.730  -8.533  14.480  1.00  0.00    -0.234 N 
ATOM     12  H12 UNL     1      33.128  -9.465  14.361  1.00  0.00     0.174 HD
ATOM     13  H11 UNL     1      33.290  -8.060  15.190  1.00  0.00     0.174 HD
ENDBRANCH   5  11
ENDBRANCH   1   3
BRANCH   2  14
HETATM   14  C5  UNL     1      25.843  -8.515  11.599  1.00  0.00     0.261 C 
BRANCH  14  15
HETATM   15  O1  UNL     1      24.969  -8.359  12.634  1.00  0.00    -0.379 OA
BRANCH  15  16
HETATM   16  C6  UNL     1      24.899  -9.329  13.581  1.00  0.00     0.168 C 
BRANCH  16  17
HETATM   17  C7  UNL     1      25.007  -8.726  14.963  1.00  0.00     0.028 C 
BRANCH  17  18
HETATM   18  C8  UNL     1      26.294  -9.124  15.604  1.00  0.00     0.022 C 
BRANCH  18  19
HETATM   19  C9  UNL     1      26.929 -10.352  15.074  1.00  0.00     0.128 C 
BRANCH  19  20
HETATM   20  N3  UNL     1      28.291 -10.581  15.631  1.00  0.00    -0.360 N 
HETATM   21  C10 UNL     1      28.814  -9.871  16.586  1.00  0.00     0.098 A 
HETATM   22  C11 UNL     1      30.086 -10.184  17.000  1.00  0.00     0.068 A 
HETATM   23  S1  UNL     1      30.475 -11.497  15.989  1.00  0.00    -0.095 SA
HETATM   24  C12 UNL     1      29.021 -11.576  15.107  1.00  0.00     0.140 A 
ENDBRANCH  19  20
ENDBRANCH  18  19
ENDBRANCH  17  18
ENDBRANCH  16  17
ENDBRANCH  15  16
ENDBRANCH  14  15
ENDBRANCH   2  14
TORSDOF 9
ENDMDL
MODEL 3
REMARK VINA RESULT: -5.936974050      2.945      4.022
REMARK  9 active torsions:
REMARK  status: ('A' for Active; 'I' for Inactive)
REMARK    1  A    between atoms: N1_1  and  C1_4 
REMARK    2  A    between atoms: C2_7  and  C3_8 
REMARK    3  A    between atoms: C4_9  and  C5_10 
REMARK    4  A    between atoms: C5_10  and  O1_11 
REMARK    5  A    between atoms: O1_11  and  C6_12 
REMARK    6  A    between atoms: C6_12  and  C7_13 
REMARK    7  A    between atoms: C7_13  and  C8_14 
REMARK    8  A    between atoms: C8_14  and  C9_15 
REMARK    9  A    between atoms: C9_15  and  N3_16 
ROOT
HETATM    1  C3  UNL     1      27.329  -8.061  11.530  1.00  0.00    -0.043 C 
HETATM    2  C4  UNL     1      26.411  -8.640  12.048  1.00  0.00    -0.073 C 
ENDROOT
BRANCH   1   3
HETATM    3  C2  UNL     1      28.431  -7.367  10.935  1.00  0.00     0.144 A 
HETATM    4  N2  UNL     1      29.342  -7.813  10.039  1.00  0.00    -0.181 N 
HETATM    5  C1  UNL     1      30.211  -6.842   9.739  1.00  0.00     0.678 A 
ATOM      6  H2  UNL     1      29.363  -8.754   9.648  1.00  0.00     0.185 HD
HETATM    7  N5  UNL     1      29.849  -5.762  10.451  1.00  0.00    -0.176 N 
HETATM    8  C13 UNL     1      28.754  -6.060  11.197  1.00  0.00     0.167 A 
ATOM      9  H5  UNL     1      30.323  -4.859  10.435  1.00  0.00     0.185 HD
HETATM   10  N4  UNL     1      28.042  -5.222  12.091  1.00  0.00    -0.079 NA
BRANCH   5  11
HETATM   11  N1  UNL     1      31.226  -6.857   8.930  1.00  0.00    -0.234 N 
ATOM     12  H12 UNL     1      31.151  -6.664   7.931  1.00  0.00     0.174 HD
ATOM     13  H11 UNL     1      32.209  -7.051   9.121  1.00  0.00     0.174 HD
ENDBRANCH   5  11
ENDBRANCH   1   3
BRANCH   2  14
HETATM   14  C5  UNL     1      25.257  -9.342  12.682  1.00  0.00     0.261 C 
BRANCH  14  15
HETATM   15  O1  UNL     1      24.750  -8.616  13.719  1.00  0.00    -0.379 OA
BRANCH  15  16
HETATM   16  C6  UNL     1      24.852  -9.114  14.977  1.00  0.00     0.168 C 
BRANCH  16  17
HETATM   17  C7  UNL     1      25.972  -8.428  15.728  1.00  0.00     0.028 C 
BRANCH  17  18
HETATM   18  C8  UNL     1      27.028  -9.414  16.100  1.00  0.00     0.022 C 
BRANCH  18  19
HETATM   19  C9  UNL     1      28.181  -9.508  15.176  1.00  0.00     0.128 C 
BRANCH  19  20
HETATM   20  N3  UNL     1      29.216 -10.471  15.644  1.00  0.00    -0.360 N 
HETATM   21  C10 UNL     1      29.313 -11.696  15.220  1.00  0.00     0.098 A 
HETATM   22  C11 UNL     1      30.310 -12.482  15.743  1.00  0.00     0.068 A 
HETATM   23  S1  UNL     1      31.071 -11.415  16.830  1.00  0.00    -0.095 SA
HETATM   24  C12 UNL     1      30.093 -10.046  16.564  1.00  0.00     0.140 A 
ENDBRANCH  19  20
ENDBRANCH  18  19
ENDBRANCH  17  18
ENDBRANCH  16  17
ENDBRANCH  15  16
ENDBRANCH  14  15
ENDBRANCH   2  14
TORSDOF 9
ENDMDL
MODEL 4
REMARK VINA RESULT: -5.832575195      3.050      4.259
REMARK  9 active torsions:
REMARK  status: ('A' for Active; 'I' for Inactive)
REMARK    1  A    between atoms: N1_1  and  C1_4 
REMARK    2  A    between atoms: C2_7  and  C3_8 
REMARK    3  A    between atoms: C4_9  and  C5_10 
REMARK    4  A    between atoms: C5_10  and  O1_11 
REMARK    5  A    between atoms: O1_11  and  C6_12 
REMARK    6  A    between atoms: C6_12  and  C7_13 
REMARK    7  A    between atoms: C7_13  and  C8_14 
REMARK    8  A    between atoms: C8_14  and  C9_15 
REMARK    9  A    between atoms: C9_15  and  N3_16 
ROOT
HETATM    1  C3  UNL     1      27.286  -8.027  11.514  1.00  0.00    -0.043 C 
HETATM    2  C4  UNL     1      26.363  -8.612  12.016  1.00  0.00    -0.073 C 
ENDROOT
BRANCH   1   3
HETATM    3  C2  UNL     1      28.401  -7.347  10.927  1.00  0.00     0.144 A 
HETATM    4  N2  UNL     1      29.316  -7.807  10.041  1.00  0.00    -0.181 N 
HETATM    5  C1  UNL     1      30.197  -6.847   9.745  1.00  0.00     0.678 A 
ATOM      6  H2  UNL     1      29.330  -8.751   9.655  1.00  0.00     0.185 HD
HETATM    7  N5  UNL     1      29.840  -5.760  10.449  1.00  0.00    -0.176 N 
HETATM    8  C13 UNL     1      28.735  -6.043  11.185  1.00  0.00     0.167 A 
ATOM      9  H5  UNL     1      30.323  -4.862  10.433  1.00  0.00     0.185 HD
HETATM   10  N4  UNL     1      28.023  -5.193  12.069  1.00  0.00    -0.079 NA
BRANCH   5  11
HETATM   11  N1  UNL     1      31.220  -6.877   8.946  1.00  0.00    -0.234 N 
ATOM     12  H12 UNL     1      32.083  -6.363   9.121  1.00  0.00     0.174 HD
ATOM     13  H11 UNL     1      31.344  -7.374   8.064  1.00  0.00     0.174 HD
ENDBRANCH   5  11
ENDBRANCH   1   3
BRANCH   2  14
HETATM   14  C5  UNL     1      25.213  -9.319  12.652  1.00  0.00     0.261 C 
BRANCH  14  15
HETATM   15  O1  UNL     1      24.719  -8.605  13.704  1.00  0.00    -0.379 OA
BRANCH  15  16
HETATM   16  C6  UNL     1      24.867  -9.105  14.958  1.00  0.00     0.168 C 
BRANCH  16  17
HETATM   17  C7  UNL     1      25.996  -8.403  15.677  1.00  0.00     0.028 C 
BRANCH  17  18
HETATM   18  C8  UNL     1      26.977  -9.398  16.200  1.00  0.00     0.022 C 
BRANCH  18  19
HETATM   19  C9  UNL     1      27.859 -10.029  15.192  1.00  0.00     0.128 C 
BRANCH  19  20
HETATM   20  N3  UNL     1      29.218  -9.422  15.157  1.00  0.00    -0.360 N 
HETATM   21  C10 UNL     1      29.670  -8.712  14.166  1.00  0.00     0.098 A 
HETATM   22  C11 UNL     1      30.949  -8.218  14.258  1.00  0.00     0.068 A 
HETATM   23  S1  UNL     1      31.447  -8.802  15.777  1.00  0.00    -0.095 SA
HETATM   24  C12 UNL     1      30.023  -9.631  16.208  1.00  0.00     0.140 A 
ENDBRANCH  19  20
ENDBRANCH  18  19
ENDBRANCH  17  18
ENDBRANCH  16  17
ENDBRANCH  15  16
ENDBRANCH  14  15
ENDBRANCH   2  14
TORSDOF 9
ENDMDL
MODEL 5
REMARK VINA RESULT: -5.664080326      2.803      4.459
REMARK  9 active torsions:
REMARK  status: ('A' for Active; 'I' for Inactive)
REMARK    1  A    between atoms: N1_1  and  C1_4 
REMARK    2  A    between atoms: C2_7  and  C3_8 
REMARK    3  A    between atoms: C4_9  and  C5_10 
REMARK    4  A    between atoms: C5_10  and  O1_11 
REMARK    5  A    between atoms: O1_11  and  C6_12 
REMARK    6  A    between atoms: C6_12  and  C7_13 
REMARK    7  A    between atoms: C7_13  and  C8_14 
REMARK    8  A    between atoms: C8_14  and  C9_15 
REMARK    9  A    between atoms: C9_15  and  N3_16 
ROOT
HETATM    1  C3  UNL     1      29.264 -10.862  15.093  1.00  0.00    -0.043 C 
HETATM    2  C4  UNL     1      28.367 -11.581  14.740  1.00  0.00    -0.073 C 
ENDROOT
BRANCH   1   3
HETATM    3  C2  UNL     1      30.323 -10.006  15.537  1.00  0.00     0.144 A 
HETATM    4  N2  UNL     1      30.374  -8.653  15.572  1.00  0.00    -0.181 N 
HETATM    5  C1  UNL     1      31.550  -8.247  16.059  1.00  0.00     0.678 A 
ATOM      6  H2  UNL     1      29.622  -8.034  15.271  1.00  0.00     0.185 HD
HETATM    7  N5  UNL     1      32.259  -9.353  16.340  1.00  0.00    -0.176 N 
HETATM    8  C13 UNL     1      31.523 -10.451  16.027  1.00  0.00     0.167 A 
ATOM      9  H5  UNL     1      33.202  -9.366  16.728  1.00  0.00     0.185 HD
HETATM   10  N4  UNL     1      31.879 -11.817  16.159  1.00  0.00    -0.079 NA
BRANCH   5  11
HETATM   11  N1  UNL     1      31.995  -7.044  16.256  1.00  0.00    -0.234 N 
ATOM     12  H12 UNL     1      32.985  -6.800  16.229  1.00  0.00     0.174 HD
ATOM     13  H11 UNL     1      31.485  -6.184  16.461  1.00  0.00     0.174 HD
ENDBRANCH   5  11
ENDBRANCH   1   3
BRANCH   2  14
HETATM   14  C5  UNL     1      27.246 -12.455  14.286  1.00  0.00     0.261 C 
BRANCH  14  15
HETATM   15  O1  UNL     1      26.807 -12.089  13.049  1.00  0.00    -0.379 OA
BRANCH  15  16
HETATM   16  C6  UNL     1      27.719 -11.907  12.060  1.00  0.00     0.168 C 
BRANCH  16  17
HETATM   17  C7  UNL     1      27.168 -10.983  10.997  1.00  0.00     0.028 C 
BRANCH  17  18
HETATM   18  C8  UNL     1      27.682  -9.597  11.197  1.00  0.00     0.022 C 
BRANCH  18  19
HETATM   19  C9  UNL     1      26.668  -8.575  11.545  1.00  0.00     0.128 C 
BRANCH  19  20
HETATM   20  N3  UNL     1      26.229  -8.662  12.965  1.00  0.00    -0.360 N 
HETATM   21  C10 UNL     1      26.974  -8.329  13.977  1.00  0.00     0.098 A 
HETATM   22  C11 UNL     1      26.449  -8.468  15.239  1.00  0.00     0.068 A 
HETATM   23  S1  UNL     1      24.892  -9.074  14.910  1.00  0.00    -0.095 SA
HETATM   24  C12 UNL     1      24.993  -9.118  13.210  1.00  0.00     0.140 A 
ENDBRANCH  19  20
ENDBRANCH  18  19
ENDBRANCH  17  18
ENDBRANCH  16  17
ENDBRANCH  15  16
ENDBRANCH  14  15
ENDBRANCH   2  14
TORSDOF 9
ENDMDL
