MODEL 1
REMARK VINA RESULT: -6.730568800      0.000      0.000
REMARK  9 active torsions:
REMARK  status: ('A' for Active; 'I' for Inactive)
REMARK    1  A    between atoms: N1_1  and  C1_5 
REMARK    2  A    between atoms: C1_5  and  C2_6 
REMARK    3  A    between atoms: C2_6  and  C3_7 
REMARK    4  A    between atoms: C3_7  and  C4_8 
REMARK    5  A    between atoms: C4_8  and  N2_9 
REMARK    6  A    between atoms: N2_9  and  C5_11 
REMARK    7  A    between atoms: C5_11  and  C6_12 
REMARK    8  A    between atoms: C9_15  and  C10_16 
REMARK    9  A    between atoms: C10_16  and  C11_17 
ROOT
HETATM    1  C6  UNL     1      29.788 -10.968  16.401  1.00  0.00     0.047 A 
HETATM    2  C7  UNL     1      29.238 -11.384  15.192  1.00  0.00     0.021 A 
HETATM    3  C8  UNL     1      28.116 -10.736  14.754  1.00  0.00     0.030 A 
HETATM    4  C9  UNL     1      27.496  -9.704  15.428  1.00  0.00     0.035 A 
HETATM    5  N3  UNL     1      28.049  -9.322  16.596  1.00  0.00    -0.323 N 
ATOM      6  H3  UNL     1      27.631  -8.563  17.134  1.00  0.00     0.169 HD
HETATM    7  C17 UNL     1      29.152  -9.938  17.052  1.00  0.00     0.257 A 
HETATM    8  O1  UNL     1      29.659  -9.561  18.160  1.00  0.00    -0.267 OA
ENDROOT
BRANCH   1   9
HETATM    9  C5  UNL     1      30.869 -11.582  16.835  1.00  0.00     0.100 C 
BRANCH   9  10
HETATM   10  N2  UNL     1      32.106 -10.894  16.800  1.00  0.00    -0.398 N 
ATOM     11  H2  UNL     1      32.755 -10.923  17.586  1.00  0.00     0.158 HD
BRANCH  10  12
HETATM   12  C4  UNL     1      32.408 -10.145  15.589  1.00  0.00     0.119 C 
BRANCH  12  13
HETATM   13  C3  UNL     1      32.807  -8.730  15.939  1.00  0.00     0.021 C 
BRANCH  13  14
HETATM   14  C2  UNL     1      31.640  -7.805  15.625  1.00  0.00     0.029 C 
BRANCH  14  15
HETATM   15  C1  UNL     1      31.125  -8.045  14.221  1.00  0.00     0.229 C 
BRANCH  15  16
HETATM   16  N1  UNL     1      31.606  -7.032  13.308  1.00  0.00    -0.079 N 
ATOM     17  H13 UNL     1      32.476  -6.613  13.637  1.00  0.00     0.274 HD
ATOM     18  H12 UNL     1      31.949  -7.442  12.439  1.00  0.00     0.274 HD
ATOM     19  H11 UNL     1      30.891  -6.325  13.133  1.00  0.00     0.274 HD
ENDBRANCH  15  16
ENDBRANCH  14  15
ENDBRANCH  13  14
ENDBRANCH  12  13
ENDBRANCH  10  12
ENDBRANCH   9  10
ENDBRANCH   1   9
BRANCH   4  20
HETATM   20  C10 UNL     1      26.417  -9.139  14.929  1.00  0.00     0.041 C 
BRANCH  20  21
HETATM   21  C11 UNL     1      26.267  -8.772  13.524  1.00  0.00    -0.034 A 
HETATM   22  C12 UNL     1      25.136  -9.105  12.845  1.00  0.00     0.011 A 
HETATM   23  C13 UNL     1      24.962  -8.779  11.517  1.00  0.00     0.001 A 
HETATM   24  C14 UNL     1      25.977  -8.096  10.880  1.00  0.00     0.000 A 
HETATM   25  C15 UNL     1      27.129  -7.750  11.548  1.00  0.00     0.001 A 
HETATM   26  C16 UNL     1      27.265  -8.095  12.882  1.00  0.00     0.011 A 
ENDBRANCH  20  21
ENDBRANCH   4  20
TORSDOF 9
ENDMDL
MODEL 2
REMARK VINA RESULT: -6.511628432      1.253      1.488
REMARK  9 active torsions:
REMARK  status: ('A' for Active; 'I' for Inactive)
REMARK    1  A    between atoms: N1_1  and  C1_5 
REMARK    2  A    between atoms: C1_5  and  C2_6 
REMARK    3  A    between atoms: C2_6  and  C3_7 
REMARK    4  A    between atoms: C3_7  and  C4_8 
REMARK    5  A    between atoms: C4_8  and  N2_9 
REMARK    6  A    between atoms: N2_9  and  C5_11 
REMARK    7  A    between atoms: C5_11  and  C6_12 
REMARK    8  A    between atoms: C9_15  and  C10_16 
REMARK    9  A    between atoms: C10_16  and  C11_17 
ROOT
HETATM    1  C6  UNL     1      29.942 -11.010  16.397  1.00  0.00     0.047 A 
HETATM    2  C7  UNL     1      29.242  -9.922  16.909  1.00  0.00     0.021 A 
HETATM    3  C8  UNL     1      28.038  -9.620  16.336  1.00  0.00     0.030 A 
HETATM    4  C9  UNL     1      27.473 -10.320  15.289  1.00  0.00     0.035 A 
HETATM    5  N3  UNL     1      28.172 -11.369  14.813  1.00  0.00    -0.323 N 
ATOM      6  H3  UNL     1      27.800 -11.920  14.040  1.00  0.00     0.169 HD
HETATM    7  C17 UNL     1      29.358 -11.690  15.355  1.00  0.00     0.257 A 
HETATM    8  O1  UNL     1      30.004 -12.686  14.888  1.00  0.00    -0.267 OA
ENDROOT
BRANCH   1   9
HETATM    9  C5  UNL     1      31.103 -11.313  16.939  1.00  0.00     0.100 C 
BRANCH   9  10
HETATM   10  N2  UNL     1      32.263 -11.291  16.128  1.00  0.00    -0.398 N 
ATOM     11  H2  UNL     1      32.953 -12.042  16.161  1.00  0.00     0.158 HD
BRANCH  10  12
HETATM   12  C4  UNL     1      32.425 -10.146  15.243  1.00  0.00     0.119 C 
BRANCH  12  13
HETATM   13  C3  UNL     1      32.905  -8.947  16.029  1.00  0.00     0.021 C 
BRANCH  13  14
HETATM   14  C2  UNL     1      31.919  -7.806  15.823  1.00  0.00     0.029 C 
BRANCH  14  15
HETATM   15  C1  UNL     1      31.273  -7.892  14.456  1.00  0.00     0.229 C 
BRANCH  15  16
HETATM   16  N1  UNL     1      31.631  -6.756  13.637  1.00  0.00    -0.079 N 
ATOM     17  H13 UNL     1      32.572  -6.422  13.847  1.00  0.00     0.274 HD
ATOM     18  H12 UNL     1      31.776  -7.025  12.663  1.00  0.00     0.274 HD
ATOM     19  H11 UNL     1      30.941  -6.009  13.721  1.00  0.00     0.274 HD
ENDBRANCH  15  16
ENDBRANCH  14  15
ENDBRANCH  13  14
ENDBRANCH  12  13
ENDBRANCH  10  12
ENDBRANCH   9  10
ENDBRANCH   1   9
BRANCH   4  20
HETATM   20  C10 UNL     1      26.307  -9.956  14.801  1.00  0.00     0.041 C 
BRANCH  20  21
HETATM   21  C11 UNL     1      26.127  -9.362  13.479  1.00  0.00    -0.034 A 
HETATM   22  C12 UNL     1      25.020  -9.649  12.743  1.00  0.00     0.011 A 
HETATM   23  C13 UNL     1      24.819  -9.111  11.490  1.00  0.00     0.001 A 
HETATM   24  C14 UNL     1      25.782  -8.260  10.989  1.00  0.00     0.000 A 
HETATM   25  C15 UNL     1      26.910  -7.956  11.717  1.00  0.00     0.001 A 
HETATM   26  C16 UNL     1      27.074  -8.517  12.973  1.00  0.00     0.011 A 
ENDBRANCH  20  21
ENDBRANCH   4  20
TORSDOF 9
ENDMDL
MODEL 3
REMARK VINA RESULT: -6.328537568      2.431      6.455
REMARK  9 active torsions:
REMARK  status: ('A' for Active; 'I' for Inactive)
REMARK    1  A    between atoms: N1_1  and  C1_5 
REMARK    2  A    between atoms: C1_5  and  C2_6 
REMARK    3  A    between atoms: C2_6  and  C3_7 
REMARK    4  A    between atoms: C3_7  and  C4_8 
REMARK    5  A    between atoms: C4_8  and  N2_9 
REMARK    6  A    between atoms: N2_9  and  C5_11 
REMARK    7  A    between atoms: C5_11  and  C6_12 
REMARK    8  A    between atoms: C9_15  and  C10_16 
REMARK    9  A    between atoms: C10_16  and  C11_17 
ROOT
HETATM    1  C6  UNL     1      27.447  -8.455  11.885  1.00  0.00     0.047 A 
HETATM    2  C7  UNL     1      27.997  -9.721  12.058  1.00  0.00     0.021 A 
HETATM    3  C8  UNL     1      29.134  -9.817  12.812  1.00  0.00     0.030 A 
HETATM    4  C9  UNL     1      29.768  -8.748  13.409  1.00  0.00     0.035 A 
HETATM    5  N3  UNL     1      29.215  -7.534  13.226  1.00  0.00    -0.323 N 
ATOM      6  H3  UNL     1      29.644  -6.709  13.646  1.00  0.00     0.169 HD
HETATM    7  C17 UNL     1      28.098  -7.406  12.491  1.00  0.00     0.257 A 
HETATM    8  O1  UNL     1      27.591  -6.247  12.329  1.00  0.00    -0.267 OA
ENDROOT
BRANCH   1   9
HETATM    9  C5  UNL     1      26.352  -8.346  11.162  1.00  0.00     0.100 C 
BRANCH   9  10
HETATM   10  N2  UNL     1      25.098  -8.320  11.819  1.00  0.00    -0.398 N 
ATOM     11  H2  UNL     1      24.445  -7.547  11.693  1.00  0.00     0.158 HD
BRANCH  10  12
HETATM   12  C4  UNL     1      24.786  -9.449  12.684  1.00  0.00     0.119 C 
BRANCH  12  13
HETATM   13  C3  UNL     1      24.921  -9.046  14.134  1.00  0.00     0.021 C 
BRANCH  13  14
HETATM   14  C2  UNL     1      25.581 -10.186  14.895  1.00  0.00     0.029 C 
BRANCH  14  15
HETATM   15  C1  UNL     1      26.752  -9.682  15.712  1.00  0.00     0.229 C 
BRANCH  15  16
HETATM   16  N1  UNL     1      26.382  -8.525  16.497  1.00  0.00    -0.079 N 
ATOM     17  H13 UNL     1      27.202  -8.034  16.853  1.00  0.00     0.274 HD
ATOM     18  H12 UNL     1      25.997  -7.783  15.913  1.00  0.00     0.274 HD
ATOM     19  H11 UNL     1      25.742  -8.780  17.249  1.00  0.00     0.274 HD
ENDBRANCH  15  16
ENDBRANCH  14  15
ENDBRANCH  13  14
ENDBRANCH  12  13
ENDBRANCH  10  12
ENDBRANCH   9  10
ENDBRANCH   1   9
BRANCH   4  20
HETATM   20  C10 UNL     1      30.861  -8.937  14.118  1.00  0.00     0.041 C 
BRANCH  20  21
HETATM   21  C11 UNL     1      31.020 -10.009  15.097  1.00  0.00    -0.034 A 
HETATM   22  C12 UNL     1      31.791 -11.092  14.807  1.00  0.00     0.011 A 
HETATM   23  C13 UNL     1      31.960 -12.125  15.704  1.00  0.00     0.001 A 
HETATM   24  C14 UNL     1      31.320 -12.036  16.923  1.00  0.00     0.000 A 
HETATM   25  C15 UNL     1      30.536 -10.949  17.236  1.00  0.00     0.001 A 
HETATM   26  C16 UNL     1      30.392  -9.931  16.307  1.00  0.00     0.011 A 
ENDBRANCH  20  21
ENDBRANCH   4  20
TORSDOF 9
ENDMDL
MODEL 4
REMARK VINA RESULT: -6.247966595      1.915      5.720
REMARK  9 active torsions:
REMARK  status: ('A' for Active; 'I' for Inactive)
REMARK    1  A    between atoms: N1_1  and  C1_5 
REMARK    2  A    between atoms: C1_5  and  C2_6 
REMARK    3  A    between atoms: C2_6  and  C3_7 
REMARK    4  A    between atoms: C3_7  and  C4_8 
REMARK    5  A    between atoms: C4_8  and  N2_9 
REMARK    6  A    between atoms: N2_9  and  C5_11 
REMARK    7  A    between atoms: C5_11  and  C6_12 
REMARK    8  A    between atoms: C9_15  and  C10_16 
REMARK    9  A    between atoms: C10_16  and  C11_17 
ROOT
HETATM    1  C6  UNL     1      25.962  -9.581  14.562  1.00  0.00     0.047 A 
HETATM    2  C7  UNL     1      26.751 -10.655  14.164  1.00  0.00     0.021 A 
HETATM    3  C8  UNL     1      27.919 -10.866  14.844  1.00  0.00     0.030 A 
HETATM    4  C9  UNL     1      28.364 -10.089  15.894  1.00  0.00     0.035 A 
HETATM    5  N3  UNL     1      27.580  -9.056  16.259  1.00  0.00    -0.323 N 
ATOM      6  H3  UNL     1      27.862  -8.450  17.029  1.00  0.00     0.169 HD
HETATM    7  C17 UNL     1      26.427  -8.822  15.610  1.00  0.00     0.257 A 
HETATM    8  O1  UNL     1      25.700  -7.838  15.972  1.00  0.00    -0.267 OA
ENDROOT
BRANCH   1   9
HETATM    9  C5  UNL     1      24.834  -9.365  13.917  1.00  0.00     0.100 C 
BRANCH   9  10
HETATM   10  N2  UNL     1      24.776  -9.646  12.531  1.00  0.00    -0.398 N 
ATOM     11  H2  UNL     1      24.564 -10.582  12.184  1.00  0.00     0.158 HD
BRANCH  10  12
HETATM   12  C4  UNL     1      25.031  -8.537  11.624  1.00  0.00     0.119 C 
BRANCH  12  13
HETATM   13  C3  UNL     1      26.405  -8.676  11.008  1.00  0.00     0.021 C 
BRANCH  13  14
HETATM   14  C2  UNL     1      27.334  -7.663  11.660  1.00  0.00     0.029 C 
BRANCH  14  15
HETATM   15  C1  UNL     1      28.631  -8.317  12.087  1.00  0.00     0.229 C 
BRANCH  15  16
HETATM   16  N1  UNL     1      29.148  -7.712  13.294  1.00  0.00    -0.079 N 
ATOM     17  H13 UNL     1      29.603  -6.820  13.101  1.00  0.00     0.274 HD
ATOM     18  H12 UNL     1      28.397  -7.378  13.898  1.00  0.00     0.274 HD
ATOM     19  H11 UNL     1      29.770  -8.352  13.789  1.00  0.00     0.274 HD
ENDBRANCH  15  16
ENDBRANCH  14  15
ENDBRANCH  13  14
ENDBRANCH  12  13
ENDBRANCH  10  12
ENDBRANCH   9  10
ENDBRANCH   1   9
BRANCH   4  20
HETATM   20  C10 UNL     1      29.503 -10.368  16.490  1.00  0.00     0.041 C 
BRANCH  20  21
HETATM   21  C11 UNL     1      30.811 -10.213  15.859  1.00  0.00    -0.034 A 
HETATM   22  C12 UNL     1      31.417 -11.279  15.268  1.00  0.00     0.011 A 
HETATM   23  C13 UNL     1      32.653 -11.171  14.668  1.00  0.00     0.001 A 
HETATM   24  C14 UNL     1      33.273  -9.939  14.679  1.00  0.00     0.000 A 
HETATM   25  C15 UNL     1      32.678  -8.849  15.271  1.00  0.00     0.001 A 
HETATM   26  C16 UNL     1      31.434  -8.998  15.864  1.00  0.00     0.011 A 
ENDBRANCH  20  21
ENDBRANCH   4  20
TORSDOF 9
ENDMDL
MODEL 5
REMARK VINA RESULT: -6.243822037      1.941      5.716
REMARK  9 active torsions:
REMARK  status: ('A' for Active; 'I' for Inactive)
REMARK    1  A    between atoms: N1_1  and  C1_5 
REMARK    2  A    between atoms: C1_5  and  C2_6 
REMARK    3  A    between atoms: C2_6  and  C3_7 
REMARK    4  A    between atoms: C3_7  and  C4_8 
REMARK    5  A    between atoms: C4_8  and  N2_9 
REMARK    6  A    between atoms: N2_9  and  C5_11 
REMARK    7  A    between atoms: C5_11  and  C6_12 
REMARK    8  A    between atoms: C9_15  and  C10_16 
REMARK    9  A    between atoms: C10_16  and  C11_17 
ROOT
HETATM    1  C6  UNL     1      26.067  -9.864  14.818  1.00  0.00     0.047 A 
HETATM    2  C7  UNL     1      26.812 -10.992  14.489  1.00  0.00     0.021 A 
HETATM    3  C8  UNL     1      28.026 -11.146  15.100  1.00  0.00     0.030 A 
HETATM    4  C9  UNL     1      28.559 -10.261  16.015  1.00  0.00     0.035 A 
HETATM    5  N3  UNL     1      27.816  -9.178  16.316  1.00  0.00    -0.323 N 
ATOM      6  H3  UNL     1      28.163  -8.493  16.987  1.00  0.00     0.169 HD
HETATM    7  C17 UNL     1      26.619  -8.999  15.733  1.00  0.00     0.257 A 
HETATM    8  O1  UNL     1      25.933  -7.966  16.031  1.00  0.00    -0.267 OA
ENDROOT
BRANCH   1   9
HETATM    9  C5  UNL     1      24.896  -9.702  14.238  1.00  0.00     0.100 C 
BRANCH   9  10
HETATM   10  N2  UNL     1      24.764  -8.724  13.224  1.00  0.00    -0.398 N 
ATOM     11  H2  UNL     1      24.358  -7.808  13.415  1.00  0.00     0.158 HD
BRANCH  10  12
HETATM   12  C4  UNL     1      25.236  -9.086  11.896  1.00  0.00     0.119 C 
BRANCH  12  13
HETATM   13  C3  UNL     1      26.409  -8.216  11.506  1.00  0.00     0.021 C 
BRANCH  13  14
HETATM   14  C2  UNL     1      27.656  -9.084  11.437  1.00  0.00     0.029 C 
BRANCH  14  15
HETATM   15  C1  UNL     1      28.716  -8.582  12.395  1.00  0.00     0.229 C 
BRANCH  15  16
HETATM   16  N1  UNL     1      28.284  -7.375  13.065  1.00  0.00    -0.079 N 
ATOM     17  H13 UNL     1      29.077  -6.812  13.372  1.00  0.00     0.274 HD
ATOM     18  H12 UNL     1      27.866  -6.713  12.412  1.00  0.00     0.274 HD
ATOM     19  H11 UNL     1      27.653  -7.589  13.838  1.00  0.00     0.274 HD
ENDBRANCH  15  16
ENDBRANCH  14  15
ENDBRANCH  13  14
ENDBRANCH  12  13
ENDBRANCH  10  12
ENDBRANCH   9  10
ENDBRANCH   1   9
BRANCH   4  20
HETATM   20  C10 UNL     1      29.737 -10.492  16.553  1.00  0.00     0.041 C 
BRANCH  20  21
HETATM   21  C11 UNL     1      31.003 -10.310  15.848  1.00  0.00    -0.034 A 
HETATM   22  C12 UNL     1      31.574  -9.078  15.774  1.00  0.00     0.011 A 
HETATM   23  C13 UNL     1      32.766  -8.867  15.112  1.00  0.00     0.001 A 
HETATM   24  C14 UNL     1      33.376  -9.951  14.517  1.00  0.00     0.000 A 
HETATM   25  C15 UNL     1      32.815 -11.206  14.580  1.00  0.00     0.001 A 
HETATM   26  C16 UNL     1      31.617 -11.377  15.255  1.00  0.00     0.011 A 
ENDBRANCH  20  21
ENDBRANCH   4  20
TORSDOF 9
ENDMDL
