MODEL 1
REMARK VINA RESULT: -6.945067306      0.000      0.000
REMARK  8 active torsions:
REMARK  status: ('A' for Active; 'I' for Inactive)
REMARK    1  A    between atoms: N1_1  and  N2_4 
REMARK    2  A    between atoms: N2_4  and  C1_5 
REMARK    3  A    between atoms: C1_5  and  C2_6 
REMARK    4  A    between atoms: C2_6  and  N3_7 
REMARK       I    between atoms: N3_7  and  C3_9 
REMARK       I    between atoms: C3_9  and  N7_20 
REMARK    5  A    between atoms: N4_10  and  C4_12 
REMARK    6  A    between atoms: C4_12  and  C5_13 
REMARK    7  A    between atoms: N7_20  and  C8_22 
REMARK    8  A    between atoms: C8_22  and  C9_23 
ROOT
HETATM    1  N3  UNL     1      28.995  -8.389  11.191  1.00  0.00    -0.221 N 
ATOM      2  H3  UNL     1      29.640  -8.641  10.443  1.00  0.00     0.178 HD
HETATM    3  C3  UNL     1      28.341  -9.458  11.870  1.00  0.00     0.670 C 
HETATM    4  N4  UNL     1      27.126  -9.697  11.581  1.00  0.00    -0.221 N 
ATOM      5  H4  UNL     1      26.658  -9.123  10.880  1.00  0.00     0.178 HD
HETATM    6  N7  UNL     1      29.060 -10.217  12.830  1.00  0.00    -0.222 N 
ATOM      7  H7  UNL     1      28.875 -11.211  12.962  1.00  0.00     0.178 HD
ENDROOT
BRANCH   1   8
HETATM    8  C2  UNL     1      28.829  -7.002  11.463  1.00  0.00     0.199 C 
BRANCH   8   9
HETATM    9  C1  UNL     1      30.128  -6.314  11.383  1.00  0.00     0.201 C 
BRANCH   9  10
HETATM   10  N2  UNL     1      30.843  -6.202  12.394  1.00  0.00    -0.348 NA
BRANCH  10  11
HETATM   11  N1  UNL     1      31.631  -6.477  13.323  1.00  0.00    -0.281 N 
ATOM     12  H12 UNL     1      32.479  -6.211  12.822  1.00  0.00     0.191 HD
ATOM     13  H11 UNL     1      31.991  -6.783  14.227  1.00  0.00     0.191 HD
ENDBRANCH  10  11
ENDBRANCH   9  10
ENDBRANCH   8   9
ENDBRANCH   1   8
BRANCH   4  14
HETATM   14  C4  UNL     1      26.392 -10.763  12.224  1.00  0.00     0.196 C 
BRANCH  14  15
HETATM   15  C5  UNL     1      25.805 -10.164  13.464  1.00  0.00     0.044 A 
HETATM   16  C6  UNL     1      26.019 -10.709  14.706  1.00  0.00     0.115 A 
HETATM   17  N5  UNL     1      25.372  -9.967  15.618  1.00  0.00    -0.360 N 
HETATM   18  C7  UNL     1      24.765  -8.975  14.946  1.00  0.00     0.180 A 
ATOM     19  H5  UNL     1      25.347 -10.125  16.626  1.00  0.00     0.166 HD
HETATM   20  N6  UNL     1      25.028  -9.093  13.625  1.00  0.00    -0.353 N 
ATOM     21  H6  UNL     1      24.693  -8.475  12.885  1.00  0.00     0.166 HD
ENDBRANCH  14  15
ENDBRANCH   4  14
BRANCH   6  22
HETATM   22  C8  UNL     1      30.053  -9.541  13.609  1.00  0.00     0.176 C 
BRANCH  22  23
HETATM   23  C9  UNL     1      30.441 -10.350  14.775  1.00  0.00    -0.040 A 
HETATM   24  C10 UNL     1      31.389 -11.348  14.578  1.00  0.00     0.009 A 
HETATM   25  C11 UNL     1      31.770 -12.102  15.660  1.00  0.00     0.001 A 
HETATM   26  C12 UNL     1      31.262 -11.919  16.926  1.00  0.00     0.000 A 
HETATM   27  C13 UNL     1      30.320 -10.908  17.064  1.00  0.00     0.001 A 
HETATM   28  C14 UNL     1      29.900 -10.121  16.014  1.00  0.00     0.009 A 
ENDBRANCH  22  23
ENDBRANCH   6  22
TORSDOF 8
ENDMDL
MODEL 2
REMARK VINA RESULT: -6.445116144      2.218      4.724
REMARK  8 active torsions:
REMARK  status: ('A' for Active; 'I' for Inactive)
REMARK    1  A    between atoms: N1_1  and  N2_4 
REMARK    2  A    between atoms: N2_4  and  C1_5 
REMARK    3  A    between atoms: C1_5  and  C2_6 
REMARK    4  A    between atoms: C2_6  and  N3_7 
REMARK       I    between atoms: N3_7  and  C3_9 
REMARK       I    between atoms: C3_9  and  N7_20 
REMARK    5  A    between atoms: N4_10  and  C4_12 
REMARK    6  A    between atoms: C4_12  and  C5_13 
REMARK    7  A    between atoms: N7_20  and  C8_22 
REMARK    8  A    between atoms: C8_22  and  C9_23 
ROOT
HETATM    1  N3  UNL     1      28.018  -8.083  14.399  1.00  0.00    -0.221 N 
ATOM      2  H3  UNL     1      28.534  -7.933  15.266  1.00  0.00     0.178 HD
HETATM    3  C3  UNL     1      28.754  -7.982  13.183  1.00  0.00     0.670 C 
HETATM    4  N4  UNL     1      28.626  -6.924  12.491  1.00  0.00    -0.221 N 
ATOM      5  H4  UNL     1      28.007  -6.183  12.822  1.00  0.00     0.178 HD
HETATM    6  N7  UNL     1      29.601  -9.052  12.791  1.00  0.00    -0.222 N 
ATOM      7  H7  UNL     1      30.468  -8.878  12.283  1.00  0.00     0.178 HD
ENDROOT
BRANCH   1   8
HETATM    8  C2  UNL     1      26.630  -8.372  14.514  1.00  0.00     0.199 C 
BRANCH   8   9
HETATM    9  C1  UNL     1      26.404  -9.335  15.605  1.00  0.00     0.201 C 
BRANCH   9  10
HETATM   10  N2  UNL     1      27.270  -9.507  16.481  1.00  0.00    -0.348 NA
BRANCH  10  11
HETATM   11  N1  UNL     1      27.851  -9.511  17.585  1.00  0.00    -0.281 N 
ATOM     12  H12 UNL     1      28.719  -9.094  17.247  1.00  0.00     0.191 HD
ATOM     13  H11 UNL     1      28.040  -9.647  18.579  1.00  0.00     0.191 HD
ENDBRANCH  10  11
ENDBRANCH   9  10
ENDBRANCH   8   9
ENDBRANCH   1   8
BRANCH   4  14
HETATM   14  C4  UNL     1      29.337  -6.744  11.246  1.00  0.00     0.196 C 
BRANCH  14  15
HETATM   15  C5  UNL     1      28.383  -6.047  10.328  1.00  0.00     0.044 A 
HETATM   16  C6  UNL     1      28.817  -5.245   9.301  1.00  0.00     0.115 A 
HETATM   17  N5  UNL     1      27.747  -4.757   8.655  1.00  0.00    -0.360 N 
HETATM   18  C7  UNL     1      26.664  -5.252   9.277  1.00  0.00     0.180 A 
ATOM     19  H5  UNL     1      27.754  -4.132   7.849  1.00  0.00     0.166 HD
HETATM   20  N6  UNL     1      27.050  -6.043  10.303  1.00  0.00    -0.353 N 
ATOM     21  H6  UNL     1      26.434  -6.545  10.943  1.00  0.00     0.166 HD
ENDBRANCH  14  15
ENDBRANCH   4  14
BRANCH   6  22
HETATM   22  C8  UNL     1      29.197 -10.383  13.131  1.00  0.00     0.176 C 
BRANCH  22  23
HETATM   23  C9  UNL     1      30.036 -10.922  14.213  1.00  0.00    -0.040 A 
HETATM   24  C10 UNL     1      29.466 -11.870  15.056  1.00  0.00     0.009 A 
HETATM   25  C11 UNL     1      30.241 -12.391  16.062  1.00  0.00     0.001 A 
HETATM   26  C12 UNL     1      31.549 -12.023  16.276  1.00  0.00     0.000 A 
HETATM   27  C13 UNL     1      32.066 -11.073  15.405  1.00  0.00     0.001 A 
HETATM   28  C14 UNL     1      31.335 -10.516  14.379  1.00  0.00     0.009 A 
ENDBRANCH  22  23
ENDBRANCH   6  22
TORSDOF 8
ENDMDL
MODEL 3
REMARK VINA RESULT: -6.435558426      0.968      1.069
REMARK  8 active torsions:
REMARK  status: ('A' for Active; 'I' for Inactive)
REMARK    1  A    between atoms: N1_1  and  N2_4 
REMARK    2  A    between atoms: N2_4  and  C1_5 
REMARK    3  A    between atoms: C1_5  and  C2_6 
REMARK    4  A    between atoms: C2_6  and  N3_7 
REMARK       I    between atoms: N3_7  and  C3_9 
REMARK       I    between atoms: C3_9  and  N7_20 
REMARK    5  A    between atoms: N4_10  and  C4_12 
REMARK    6  A    between atoms: C4_12  and  C5_13 
REMARK    7  A    between atoms: N7_20  and  C8_22 
REMARK    8  A    between atoms: C8_22  and  C9_23 
ROOT
HETATM    1  N3  UNL     1      29.106  -8.138  11.272  1.00  0.00    -0.221 N 
ATOM      2  H3  UNL     1      29.769  -8.362  10.530  1.00  0.00     0.178 HD
HETATM    3  C3  UNL     1      28.441  -9.233  11.897  1.00  0.00     0.670 C 
HETATM    4  N4  UNL     1      27.233  -9.463  11.573  1.00  0.00    -0.221 N 
ATOM      5  H4  UNL     1      26.779  -8.865  10.883  1.00  0.00     0.178 HD
HETATM    6  N7  UNL     1      29.141 -10.024  12.845  1.00  0.00    -0.222 N 
ATOM      7  H7  UNL     1      28.956 -11.023  12.936  1.00  0.00     0.178 HD
ENDROOT
BRANCH   1   8
HETATM    8  C2  UNL     1      28.931  -6.763  11.590  1.00  0.00     0.199 C 
BRANCH   8   9
HETATM    9  C1  UNL     1      29.495  -5.922  10.522  1.00  0.00     0.201 C 
BRANCH   9  10
HETATM   10  N2  UNL     1      30.598  -6.201  10.019  1.00  0.00    -0.348 NA
BRANCH  10  11
HETATM   11  N1  UNL     1      31.469  -6.711   9.283  1.00  0.00    -0.281 N 
ATOM     12  H12 UNL     1      30.813  -7.171   8.651  1.00  0.00     0.191 HD
ATOM     13  H11 UNL     1      32.375  -6.973   8.896  1.00  0.00     0.191 HD
ENDBRANCH  10  11
ENDBRANCH   9  10
ENDBRANCH   8   9
ENDBRANCH   1   8
BRANCH   4  14
HETATM   14  C4  UNL     1      26.489 -10.553  12.161  1.00  0.00     0.196 C 
BRANCH  14  15
HETATM   15  C5  UNL     1      25.878 -10.003  13.412  1.00  0.00     0.044 A 
HETATM   16  C6  UNL     1      26.035 -10.618  14.629  1.00  0.00     0.115 A 
HETATM   17  N5  UNL     1      25.380  -9.906  15.559  1.00  0.00    -0.360 N 
HETATM   18  C7  UNL     1      24.824  -8.862  14.922  1.00  0.00     0.180 A 
ATOM     19  H5  UNL     1      25.317 -10.116  16.555  1.00  0.00     0.166 HD
HETATM   20  N6  UNL     1      25.127  -8.918  13.605  1.00  0.00    -0.353 N 
ATOM     21  H6  UNL     1      24.835  -8.252  12.890  1.00  0.00     0.166 HD
ENDBRANCH  14  15
ENDBRANCH   4  14
BRANCH   6  22
HETATM   22  C8  UNL     1      30.115  -9.375  13.669  1.00  0.00     0.176 C 
BRANCH  22  23
HETATM   23  C9  UNL     1      30.497 -10.234  14.801  1.00  0.00    -0.040 A 
HETATM   24  C10 UNL     1      31.400 -11.261  14.552  1.00  0.00     0.009 A 
HETATM   25  C11 UNL     1      31.775 -12.062  15.602  1.00  0.00     0.001 A 
HETATM   26  C12 UNL     1      31.302 -11.899  16.883  1.00  0.00     0.000 A 
HETATM   27  C13 UNL     1      30.403 -10.859  17.074  1.00  0.00     0.001 A 
HETATM   28  C14 UNL     1      29.991 -10.024  16.058  1.00  0.00     0.009 A 
ENDBRANCH  22  23
ENDBRANCH   6  22
TORSDOF 8
ENDMDL
MODEL 4
REMARK VINA RESULT: -6.370400096      2.095      4.812
REMARK  8 active torsions:
REMARK  status: ('A' for Active; 'I' for Inactive)
REMARK    1  A    between atoms: N1_1  and  N2_4 
REMARK    2  A    between atoms: N2_4  and  C1_5 
REMARK    3  A    between atoms: C1_5  and  C2_6 
REMARK    4  A    between atoms: C2_6  and  N3_7 
REMARK       I    between atoms: N3_7  and  C3_9 
REMARK       I    between atoms: C3_9  and  N7_20 
REMARK    5  A    between atoms: N4_10  and  C4_12 
REMARK    6  A    between atoms: C4_12  and  C5_13 
REMARK    7  A    between atoms: N7_20  and  C8_22 
REMARK    8  A    between atoms: C8_22  and  C9_23 
ROOT
HETATM    1  N3  UNL     1      28.042  -8.148  14.492  1.00  0.00    -0.221 N 
ATOM      2  H3  UNL     1      28.575  -7.989  15.347  1.00  0.00     0.178 HD
HETATM    3  C3  UNL     1      28.748  -8.038  13.259  1.00  0.00     0.670 C 
HETATM    4  N4  UNL     1      28.587  -6.983  12.569  1.00  0.00    -0.221 N 
ATOM      5  H4  UNL     1      27.964  -6.252  12.913  1.00  0.00     0.178 HD
HETATM    6  N7  UNL     1      29.602  -9.096  12.849  1.00  0.00    -0.222 N 
ATOM      7  H7  UNL     1      30.454  -8.909  12.321  1.00  0.00     0.178 HD
ENDROOT
BRANCH   1   8
HETATM    8  C2  UNL     1      26.661  -8.459  14.639  1.00  0.00     0.199 C 
BRANCH   8   9
HETATM    9  C1  UNL     1      26.486  -9.507  15.658  1.00  0.00     0.201 C 
BRANCH   9  10
HETATM   10  N2  UNL     1      26.166 -10.661  15.324  1.00  0.00    -0.348 NA
BRANCH  10  11
HETATM   11  N1  UNL     1      26.004 -11.693  14.641  1.00  0.00    -0.281 N 
ATOM     12  H12 UNL     1      26.418 -11.319  13.787  1.00  0.00     0.191 HD
ATOM     13  H11 UNL     1      25.741 -12.640  14.366  1.00  0.00     0.191 HD
ENDBRANCH  10  11
ENDBRANCH   9  10
ENDBRANCH   8   9
ENDBRANCH   1   8
BRANCH   4  14
HETATM   14  C4  UNL     1      29.266  -6.795  11.308  1.00  0.00     0.196 C 
BRANCH  14  15
HETATM   15  C5  UNL     1      28.277  -6.123  10.407  1.00  0.00     0.044 A 
HETATM   16  C6  UNL     1      28.668  -5.260   9.414  1.00  0.00     0.115 A 
HETATM   17  N5  UNL     1      27.574  -4.814   8.777  1.00  0.00    -0.360 N 
HETATM   18  C7  UNL     1      26.519  -5.396   9.372  1.00  0.00     0.180 A 
ATOM     19  H5  UNL     1      27.548  -4.161   7.994  1.00  0.00     0.166 HD
HETATM   20  N6  UNL     1      26.947  -6.199  10.372  1.00  0.00    -0.353 N 
ATOM     21  H6  UNL     1      26.358  -6.761  10.988  1.00  0.00     0.166 HD
ENDBRANCH  14  15
ENDBRANCH   4  14
BRANCH   6  22
HETATM   22  C8  UNL     1      29.227 -10.432  13.200  1.00  0.00     0.176 C 
BRANCH  22  23
HETATM   23  C9  UNL     1      30.084 -10.948  14.280  1.00  0.00    -0.040 A 
HETATM   24  C10 UNL     1      29.557 -11.941  15.098  1.00  0.00     0.009 A 
HETATM   25  C11 UNL     1      30.350 -12.440  16.101  1.00  0.00     0.001 A 
HETATM   26  C12 UNL     1      31.635 -12.007  16.336  1.00  0.00     0.000 A 
HETATM   27  C13 UNL     1      32.107 -11.014  15.489  1.00  0.00     0.001 A 
HETATM   28  C14 UNL     1      31.358 -10.476  14.466  1.00  0.00     0.009 A 
ENDBRANCH  22  23
ENDBRANCH   6  22
TORSDOF 8
ENDMDL
MODEL 5
REMARK VINA RESULT: -6.358968521      1.787      4.821
REMARK  8 active torsions:
REMARK  status: ('A' for Active; 'I' for Inactive)
REMARK    1  A    between atoms: N1_1  and  N2_4 
REMARK    2  A    between atoms: N2_4  and  C1_5 
REMARK    3  A    between atoms: C1_5  and  C2_6 
REMARK    4  A    between atoms: C2_6  and  N3_7 
REMARK       I    between atoms: N3_7  and  C3_9 
REMARK       I    between atoms: C3_9  and  N7_20 
REMARK    5  A    between atoms: N4_10  and  C4_12 
REMARK    6  A    between atoms: C4_12  and  C5_13 
REMARK    7  A    between atoms: N7_20  and  C8_22 
REMARK    8  A    between atoms: C8_22  and  C9_23 
ROOT
HETATM    1  N3  UNL     1      27.668  -8.044  13.796  1.00  0.00    -0.221 N 
ATOM      2  H3  UNL     1      27.713  -7.827  14.792  1.00  0.00     0.178 HD
HETATM    3  C3  UNL     1      28.852  -7.824  13.033  1.00  0.00     0.670 C 
HETATM    4  N4  UNL     1      28.905  -6.790  12.295  1.00  0.00    -0.221 N 
ATOM      5  H4  UNL     1      28.109  -6.153  12.270  1.00  0.00     0.178 HD
HETATM    6  N7  UNL     1      29.922  -8.752  13.124  1.00  0.00    -0.222 N 
ATOM      7  H7  UNL     1      30.892  -8.446  13.047  1.00  0.00     0.178 HD
ENDROOT
BRANCH   1   8
HETATM    8  C2  UNL     1      26.431  -8.538  13.296  1.00  0.00     0.199 C 
BRANCH   8   9
HETATM    9  C1  UNL     1      25.504  -8.796  14.409  1.00  0.00     0.201 C 
BRANCH   9  10
HETATM   10  N2  UNL     1      25.859  -8.590  15.583  1.00  0.00    -0.348 NA
BRANCH  10  11
HETATM   11  N1  UNL     1      26.415  -8.725  16.693  1.00  0.00    -0.281 N 
ATOM     12  H12 UNL     1      27.123  -9.388  16.374  1.00  0.00     0.191 HD
ATOM     13  H11 UNL     1      26.635  -8.622  17.684  1.00  0.00     0.191 HD
ENDBRANCH  10  11
ENDBRANCH   9  10
ENDBRANCH   8   9
ENDBRANCH   1   8
BRANCH   4  14
HETATM   14  C4  UNL     1      30.068  -6.495  11.491  1.00  0.00     0.196 C 
BRANCH  14  15
HETATM   15  C5  UNL     1      29.653  -6.730  10.072  1.00  0.00     0.044 A 
HETATM   16  C6  UNL     1      28.970  -5.783   9.349  1.00  0.00     0.115 A 
HETATM   17  N5  UNL     1      28.733  -6.269   8.121  1.00  0.00    -0.360 N 
HETATM   18  C7  UNL     1      29.264  -7.503   8.086  1.00  0.00     0.180 A 
ATOM     19  H5  UNL     1      28.244  -5.795   7.361  1.00  0.00     0.166 HD
HETATM   20  N6  UNL     1      29.829  -7.788   9.281  1.00  0.00    -0.353 N 
ATOM     21  H6  UNL     1      30.304  -8.656   9.532  1.00  0.00     0.166 HD
ENDBRANCH  14  15
ENDBRANCH   4  14
BRANCH   6  22
HETATM   22  C8  UNL     1      29.595 -10.131  13.326  1.00  0.00     0.176 C 
BRANCH  22  23
HETATM   23  C9  UNL     1      30.155 -10.620  14.596  1.00  0.00    -0.040 A 
HETATM   24  C10 UNL     1      31.266 -11.453  14.529  1.00  0.00     0.009 A 
HETATM   25  C11 UNL     1      31.807 -11.906  15.707  1.00  0.00     0.001 A 
HETATM   26  C12 UNL     1      31.306 -11.576  16.945  1.00  0.00     0.000 A 
HETATM   27  C13 UNL     1      30.196 -10.742  16.951  1.00  0.00     0.001 A 
HETATM   28  C14 UNL     1      29.611 -10.258  15.802  1.00  0.00     0.009 A 
ENDBRANCH  22  23
ENDBRANCH   6  22
TORSDOF 8
ENDMDL
