MODEL 1
REMARK VINA RESULT: -7.729623495      0.000      0.000
REMARK  9 active torsions:
REMARK  status: ('A' for Active; 'I' for Inactive)
REMARK    1  A    between atoms: N1_2  and  C2_4 
REMARK    2  A    between atoms: C4_10  and  N4_11 
REMARK    3  A    between atoms: N5_14  and  C7_15 
REMARK    4  A    between atoms: C7_15  and  C8_16 
REMARK    5  A    between atoms: C8_16  and  O1_17 
REMARK    6  A    between atoms: C11_23  and  N7_24 
REMARK    7  A    between atoms: N7_24  and  N8_26 
REMARK    8  A    between atoms: C12_28  and  C14_30 
REMARK    9  A    between atoms: C14_30  and  C15_31 
ROOT
HETATM    1  C2  UNL     1      -1.443   4.547  12.021  1.00  0.00     0.146 A 
HETATM    2  N2  UNL     1      -0.151   4.690  12.287  1.00  0.00    -0.321 N 
ATOM      3  H2  UNL     1       0.153   5.190  13.122  1.00  0.00     0.169 HD
HETATM    4  C3  UNL     1       0.723   4.181  11.461  1.00  0.00     0.144 A 
HETATM    5  N3  UNL     1       2.092   4.219  11.551  1.00  0.00    -0.175 N 
ATOM      6  H3  UNL     1       2.509   4.697  12.351  1.00  0.00     0.186 HD
HETATM    7  C4  UNL     1       2.905   3.668  10.653  1.00  0.00     0.683 A 
HETATM    8  N6  UNL     1       2.447   3.016   9.562  1.00  0.00    -0.174 N 
ATOM      9  H6  UNL     1       3.083   2.598   8.882  1.00  0.00     0.186 HD
HETATM   10  C11 UNL     1       1.115   2.944   9.415  1.00  0.00     0.156 A 
HETATM   11  C22 UNL     1       0.252   3.523  10.358  1.00  0.00     0.099 A 
HETATM   12  S1  UNL     1      -1.438   3.663  10.555  1.00  0.00    -0.047 SA
ENDROOT
BRANCH  10  13
HETATM   13  N7  UNL     1       0.570   2.350   8.422  1.00  0.00    -0.284 N 
ATOM     14  H7  UNL     1      -0.271   1.814   8.638  1.00  0.00     0.188 HD
BRANCH  13  15
HETATM   15  N8  UNL     1       0.957   2.332   7.113  1.00  0.00    -0.307 N 
HETATM   16  C12 UNL     1       1.255   1.296   6.424  1.00  0.00     0.004 C 
HETATM   17  C13 UNL     1       1.653   1.472   5.015  1.00  0.00     0.065 C 
ATOM     18  H8  UNL     1       1.013   3.232   6.637  1.00  0.00     0.186 HD
BRANCH  16  19
HETATM   19  C14 UNL     1       1.199  -0.029   7.026  1.00  0.00     0.087 C 
BRANCH  19  20
HETATM   20  C15 UNL     1       2.398  -0.406   7.795  1.00  0.00    -0.078 C 
HETATM   21  C16 UNL     1       2.162  -0.632   9.085  1.00  0.00    -0.024 C 
HETATM   22  C17 UNL     1       3.037  -1.023  10.204  1.00  0.00     0.027 C 
HETATM   23  C18 UNL     1       4.322  -0.229  10.250  1.00  0.00     0.004 C 
HETATM   24  C19 UNL     1       5.194  -0.736   9.116  1.00  0.00     0.001 C 
HETATM   25  C20 UNL     1       4.841   0.088   7.899  1.00  0.00     0.004 C 
HETATM   26  C21 UNL     1       3.701  -0.500   7.110  1.00  0.00     0.034 C 
ENDBRANCH  19  20
ENDBRANCH  16  19
ENDBRANCH  13  15
ENDBRANCH  10  13
BRANCH   7  27
HETATM   27  N4  UNL     1       4.342   3.764  10.826  1.00  0.00    -0.214 N 
HETATM   28  C5  UNL     1       5.189   3.225   9.788  1.00  0.00     0.161 C 
HETATM   29  C6  UNL     1       6.511   2.809  10.446  1.00  0.00     0.142 C 
HETATM   30  N5  UNL     1       7.151   3.942  11.013  1.00  0.00    -0.388 N 
HETATM   31  C9  UNL     1       6.352   4.789  11.818  1.00  0.00     0.142 C 
HETATM   32  C10 UNL     1       4.910   4.368  11.974  1.00  0.00     0.161 C 
BRANCH  30  33
HETATM   33  C7  UNL     1       8.525   3.847  11.313  1.00  0.00     0.084 C 
BRANCH  33  34
HETATM   34  C8  UNL     1       9.291   2.988  10.342  1.00  0.00     0.208 C 
BRANCH  34  35
HETATM   35  O1  UNL     1      10.587   3.410  10.185  1.00  0.00    -0.396 OA
ATOM     36  H1  UNL     1      11.113   2.785   9.700  1.00  0.00     0.209 HD
ENDBRANCH  34  35
ENDBRANCH  33  34
ENDBRANCH  30  33
ENDBRANCH   7  27
BRANCH   1  37
HETATM   37  N1  UNL     1      -2.471   4.978  12.716  1.00  0.00    -0.375 N 
HETATM   38  C1  UNL     1      -2.678   6.401  12.789  1.00  0.00     0.148 C 
ATOM     39  H1  UNL     1      -3.100   4.328  13.188  1.00  0.00     0.161 HD
ENDBRANCH   1  37
TORSDOF 9
ENDMDL
MODEL 2
REMARK VINA RESULT: -7.333231435      0.907      1.595
REMARK  9 active torsions:
REMARK  status: ('A' for Active; 'I' for Inactive)
REMARK    1  A    between atoms: N1_2  and  C2_4 
REMARK    2  A    between atoms: C4_10  and  N4_11 
REMARK    3  A    between atoms: N5_14  and  C7_15 
REMARK    4  A    between atoms: C7_15  and  C8_16 
REMARK    5  A    between atoms: C8_16  and  O1_17 
REMARK    6  A    between atoms: C11_23  and  N7_24 
REMARK    7  A    between atoms: N7_24  and  N8_26 
REMARK    8  A    between atoms: C12_28  and  C14_30 
REMARK    9  A    between atoms: C14_30  and  C15_31 
ROOT
HETATM    1  C2  UNL     1      -1.487   4.648  12.119  1.00  0.00     0.146 A 
HETATM    2  N2  UNL     1      -0.192   4.688  12.403  1.00  0.00    -0.321 N 
ATOM      3  H2  UNL     1       0.132   5.065  13.294  1.00  0.00     0.169 HD
HETATM    4  C3  UNL     1       0.662   4.237  11.523  1.00  0.00     0.144 A 
HETATM    5  N3  UNL     1       2.029   4.190  11.620  1.00  0.00    -0.175 N 
ATOM      6  H3  UNL     1       2.464   4.543  12.473  1.00  0.00     0.186 HD
HETATM    7  C4  UNL     1       2.819   3.710  10.663  1.00  0.00     0.683 A 
HETATM    8  N6  UNL     1       2.337   3.221   9.499  1.00  0.00    -0.174 N 
ATOM      9  H6  UNL     1       2.956   2.856   8.775  1.00  0.00     0.186 HD
HETATM   10  C11 UNL     1       1.004   3.240   9.342  1.00  0.00     0.156 A 
HETATM   11  C22 UNL     1       0.166   3.745  10.347  1.00  0.00     0.099 A 
HETATM   12  S1  UNL     1      -1.516   3.951  10.557  1.00  0.00    -0.047 SA
ENDROOT
BRANCH  10  13
HETATM   13  N7  UNL     1       0.438   2.802   8.282  1.00  0.00    -0.284 N 
ATOM     14  H7  UNL     1       0.473   3.426   7.476  1.00  0.00     0.188 HD
BRANCH  13  15
HETATM   15  N8  UNL     1      -0.208   1.617   8.078  1.00  0.00    -0.307 N 
HETATM   16  C12 UNL     1       0.162   0.677   7.294  1.00  0.00     0.004 C 
HETATM   17  C13 UNL     1      -0.668  -0.539   7.203  1.00  0.00     0.065 C 
ATOM     18  H8  UNL     1      -1.070   1.466   8.602  1.00  0.00     0.186 HD
BRANCH  16  19
HETATM   19  C14 UNL     1       1.382   0.809   6.511  1.00  0.00     0.087 C 
BRANCH  19  20
HETATM   20  C15 UNL     1       2.472  -0.099   6.912  1.00  0.00    -0.078 C 
HETATM   21  C16 UNL     1       2.880  -0.912   5.941  1.00  0.00    -0.024 C 
HETATM   22  C17 UNL     1       3.916  -1.959   5.890  1.00  0.00     0.027 C 
HETATM   23  C18 UNL     1       3.878  -2.883   7.084  1.00  0.00     0.004 C 
HETATM   24  C19 UNL     1       4.429  -2.104   8.263  1.00  0.00     0.001 C 
HETATM   25  C20 UNL     1       3.254  -1.392   8.896  1.00  0.00     0.004 C 
HETATM   26  C21 UNL     1       2.998  -0.038   8.288  1.00  0.00     0.034 C 
ENDBRANCH  19  20
ENDBRANCH  16  19
ENDBRANCH  13  15
ENDBRANCH  10  13
BRANCH   7  27
HETATM   27  N4  UNL     1       4.259   3.707  10.850  1.00  0.00    -0.214 N 
HETATM   28  C5  UNL     1       5.064   2.973   9.902  1.00  0.00     0.161 C 
HETATM   29  C6  UNL     1       6.341   2.534  10.631  1.00  0.00     0.142 C 
HETATM   30  N5  UNL     1       7.071   3.671  11.065  1.00  0.00    -0.388 N 
HETATM   31  C9  UNL     1       6.341   4.676  11.744  1.00  0.00     0.142 C 
HETATM   32  C10 UNL     1       4.867   4.400  11.924  1.00  0.00     0.161 C 
BRANCH  30  33
HETATM   33  C7  UNL     1       8.429   3.500  11.400  1.00  0.00     0.084 C 
BRANCH  33  34
HETATM   34  C8  UNL     1       9.262   2.966  10.265  1.00  0.00     0.208 C 
BRANCH  34  35
HETATM   35  O1  UNL     1      10.513   3.528  10.228  1.00  0.00    -0.396 OA
ATOM     36  H1  UNL     1      10.486   4.473  10.324  1.00  0.00     0.209 HD
ENDBRANCH  34  35
ENDBRANCH  33  34
ENDBRANCH  30  33
ENDBRANCH   7  27
BRANCH   1  37
HETATM   37  N1  UNL     1      -2.497   5.045  12.860  1.00  0.00    -0.375 N 
HETATM   38  C1  UNL     1      -2.750   6.461  12.938  1.00  0.00     0.148 C 
ATOM     39  H1  UNL     1      -3.080   4.376  13.362  1.00  0.00     0.161 HD
ENDBRANCH   1  37
TORSDOF 9
ENDMDL
MODEL 3
REMARK VINA RESULT: -7.284341505      3.358      6.888
REMARK  9 active torsions:
REMARK  status: ('A' for Active; 'I' for Inactive)
REMARK    1  A    between atoms: N1_2  and  C2_4 
REMARK    2  A    between atoms: C4_10  and  N4_11 
REMARK    3  A    between atoms: N5_14  and  C7_15 
REMARK    4  A    between atoms: C7_15  and  C8_16 
REMARK    5  A    between atoms: C8_16  and  O1_17 
REMARK    6  A    between atoms: C11_23  and  N7_24 
REMARK    7  A    between atoms: N7_24  and  N8_26 
REMARK    8  A    between atoms: C12_28  and  C14_30 
REMARK    9  A    between atoms: C14_30  and  C15_31 
ROOT
HETATM    1  C2  UNL     1       8.656   3.625  11.219  1.00  0.00     0.146 A 
HETATM    2  N2  UNL     1       7.440   4.120  11.406  1.00  0.00    -0.321 N 
ATOM      3  H2  UNL     1       7.313   5.026  11.856  1.00  0.00     0.169 HD
HETATM    4  C3  UNL     1       6.408   3.428  11.003  1.00  0.00     0.144 A 
HETATM    5  N3  UNL     1       5.080   3.758  11.101  1.00  0.00    -0.175 N 
ATOM      6  H3  UNL     1       4.835   4.648  11.538  1.00  0.00     0.186 HD
HETATM    7  C4  UNL     1       4.094   2.982  10.659  1.00  0.00     0.683 A 
HETATM    8  N6  UNL     1       4.317   1.788  10.068  1.00  0.00    -0.174 N 
ATOM      9  H6  UNL     1       3.550   1.204   9.733  1.00  0.00     0.186 HD
HETATM   10  C11 UNL     1       5.598   1.407   9.942  1.00  0.00     0.156 A 
HETATM   11  C22 UNL     1       6.643   2.220  10.406  1.00  0.00     0.099 A 
HETATM   12  S1  UNL     1       8.347   2.128  10.448  1.00  0.00    -0.047 SA
ENDROOT
BRANCH  10  13
HETATM   13  N7  UNL     1       5.928   0.297   9.397  1.00  0.00    -0.284 N 
ATOM     14  H7  UNL     1       6.900   0.229   9.094  1.00  0.00     0.188 HD
BRANCH  13  15
HETATM   15  N8  UNL     1       5.162  -0.808   9.164  1.00  0.00    -0.307 N 
HETATM   16  C12 UNL     1       4.667  -1.165   8.041  1.00  0.00     0.004 C 
HETATM   17  C13 UNL     1       3.861  -2.398   7.980  1.00  0.00     0.065 C 
ATOM     18  H8  UNL     1       4.965  -1.409   9.965  1.00  0.00     0.186 HD
BRANCH  16  19
HETATM   19  C14 UNL     1       4.902  -0.366   6.846  1.00  0.00     0.087 C 
BRANCH  19  20
HETATM   20  C15 UNL     1       3.711   0.332   6.330  1.00  0.00    -0.078 C 
HETATM   21  C16 UNL     1       3.491   1.515   6.898  1.00  0.00    -0.024 C 
HETATM   22  C17 UNL     1       2.446   2.534   6.702  1.00  0.00     0.027 C 
HETATM   23  C18 UNL     1       1.056   1.947   6.642  1.00  0.00     0.004 C 
HETATM   24  C19 UNL     1       0.926   1.256   5.298  1.00  0.00     0.001 C 
HETATM   25  C20 UNL     1       1.413  -0.162   5.493  1.00  0.00     0.004 C 
HETATM   26  C21 UNL     1       2.897  -0.302   5.275  1.00  0.00     0.034 C 
ENDBRANCH  19  20
ENDBRANCH  16  19
ENDBRANCH  13  15
ENDBRANCH  10  13
BRANCH   7  27
HETATM   27  N4  UNL     1       2.715   3.409  10.812  1.00  0.00    -0.214 N 
HETATM   28  C5  UNL     1       1.672   2.461  10.498  1.00  0.00     0.161 C 
HETATM   29  C6  UNL     1       0.440   3.266  10.062  1.00  0.00     0.142 C 
HETATM   30  N5  UNL     1      -0.003   4.095  11.126  1.00  0.00    -0.388 N 
HETATM   31  C9  UNL     1       0.983   4.869  11.784  1.00  0.00     0.142 C 
HETATM   32  C10 UNL     1       2.390   4.714  11.258  1.00  0.00     0.161 C 
BRANCH  30  33
HETATM   33  C7  UNL     1      -1.315   4.606  11.067  1.00  0.00     0.084 C 
BRANCH  33  34
HETATM   34  C8  UNL     1      -1.607   5.627  12.134  1.00  0.00     0.208 C 
BRANCH  34  35
HETATM   35  O1  UNL     1      -1.891   5.047  13.345  1.00  0.00    -0.396 OA
ATOM     36  H1  UNL     1      -1.923   5.683  14.050  1.00  0.00     0.209 HD
ENDBRANCH  34  35
ENDBRANCH  33  34
ENDBRANCH  30  33
ENDBRANCH   7  27
BRANCH   1  37
HETATM   37  N1  UNL     1       9.813   4.156  11.546  1.00  0.00    -0.375 N 
HETATM   38  C1  UNL     1      11.004   3.524  11.042  1.00  0.00     0.148 C 
ATOM     39  H1  UNL     1       9.864   4.986  12.137  1.00  0.00     0.161 HD
ENDBRANCH   1  37
TORSDOF 9
ENDMDL
MODEL 4
REMARK VINA RESULT: -7.228146154      3.389      6.997
REMARK  9 active torsions:
REMARK  status: ('A' for Active; 'I' for Inactive)
REMARK    1  A    between atoms: N1_2  and  C2_4 
REMARK    2  A    between atoms: C4_10  and  N4_11 
REMARK    3  A    between atoms: N5_14  and  C7_15 
REMARK    4  A    between atoms: C7_15  and  C8_16 
REMARK    5  A    between atoms: C8_16  and  O1_17 
REMARK    6  A    between atoms: C11_23  and  N7_24 
REMARK    7  A    between atoms: N7_24  and  N8_26 
REMARK    8  A    between atoms: C12_28  and  C14_30 
REMARK    9  A    between atoms: C14_30  and  C15_31 
ROOT
HETATM    1  C2  UNL     1       8.199   3.556  10.998  1.00  0.00     0.146 A 
HETATM    2  N2  UNL     1       6.988   4.072  11.168  1.00  0.00    -0.321 N 
ATOM      3  H2  UNL     1       6.874   5.010  11.551  1.00  0.00     0.169 HD
HETATM    4  C3  UNL     1       5.945   3.357  10.837  1.00  0.00     0.144 A 
HETATM    5  N3  UNL     1       4.621   3.701  10.934  1.00  0.00    -0.175 N 
ATOM      6  H3  UNL     1       4.389   4.622  11.306  1.00  0.00     0.186 HD
HETATM    7  C4  UNL     1       3.624   2.899  10.569  1.00  0.00     0.683 A 
HETATM    8  N6  UNL     1       3.832   1.663  10.066  1.00  0.00    -0.174 N 
ATOM      9  H6  UNL     1       3.056   1.059   9.791  1.00  0.00     0.186 HD
HETATM   10  C11 UNL     1       5.108   1.266   9.947  1.00  0.00     0.156 A 
HETATM   11  C22 UNL     1       6.165   2.106  10.330  1.00  0.00     0.099 A 
HETATM   12  S1  UNL     1       7.869   2.008  10.349  1.00  0.00    -0.047 SA
ENDROOT
BRANCH  10  13
HETATM   13  N7  UNL     1       5.423   0.116   9.483  1.00  0.00    -0.284 N 
ATOM     14  H7  UNL     1       6.423  -0.048   9.358  1.00  0.00     0.188 HD
BRANCH  13  15
HETATM   15  N8  UNL     1       4.610  -0.922   9.129  1.00  0.00    -0.307 N 
HETATM   16  C12 UNL     1       4.389  -1.341   7.942  1.00  0.00     0.004 C 
HETATM   17  C13 UNL     1       3.474  -2.482   7.751  1.00  0.00     0.065 C 
ATOM     18  H8  UNL     1       4.133  -1.411   9.886  1.00  0.00     0.186 HD
BRANCH  16  19
HETATM   19  C14 UNL     1       5.032  -0.701   6.803  1.00  0.00     0.087 C 
BRANCH  19  20
HETATM   20  C15 UNL     1       4.115   0.029   5.909  1.00  0.00    -0.078 C 
HETATM   21  C16 UNL     1       4.115  -0.416   4.656  1.00  0.00    -0.024 C 
HETATM   22  C17 UNL     1       3.377   0.001   3.451  1.00  0.00     0.027 C 
HETATM   23  C18 UNL     1       3.368   1.498   3.255  1.00  0.00     0.004 C 
HETATM   24  C19 UNL     1       2.418   2.073   4.290  1.00  0.00     0.001 C 
HETATM   25  C20 UNL     1       3.240   2.335   5.531  1.00  0.00     0.004 C 
HETATM   26  C21 UNL     1       3.308   1.141   6.447  1.00  0.00     0.034 C 
ENDBRANCH  19  20
ENDBRANCH  16  19
ENDBRANCH  13  15
ENDBRANCH  10  13
BRANCH   7  27
HETATM   27  N4  UNL     1       2.250   3.345  10.714  1.00  0.00    -0.214 N 
HETATM   28  C5  UNL     1       2.018   4.724  11.074  1.00  0.00     0.161 C 
HETATM   29  C6  UNL     1       0.677   4.782  11.819  1.00  0.00     0.142 C 
HETATM   30  N5  UNL     1      -0.373   4.350  10.967  1.00  0.00    -0.388 N 
HETATM   31  C9  UNL     1      -0.164   3.142  10.258  1.00  0.00     0.142 C 
HETATM   32  C10 UNL     1       1.161   2.462  10.509  1.00  0.00     0.161 C 
BRANCH  30  33
HETATM   33  C7  UNL     1      -1.695   4.689  11.318  1.00  0.00     0.084 C 
BRANCH  33  34
HETATM   34  C8  UNL     1      -1.777   5.774  12.359  1.00  0.00     0.208 C 
BRANCH  34  35
HETATM   35  O1  UNL     1      -2.130   5.286  13.592  1.00  0.00    -0.396 OA
ATOM     36  H1  UNL     1      -1.992   5.922  14.284  1.00  0.00     0.209 HD
ENDBRANCH  34  35
ENDBRANCH  33  34
ENDBRANCH  30  33
ENDBRANCH   7  27
BRANCH   1  37
HETATM   37  N1  UNL     1       9.363   4.105  11.264  1.00  0.00    -0.375 N 
HETATM   38  C1  UNL     1      10.546   3.380  10.876  1.00  0.00     0.148 C 
ATOM     39  H1  UNL     1       9.427   5.010  11.728  1.00  0.00     0.161 HD
ENDBRANCH   1  37
TORSDOF 9
ENDMDL
MODEL 5
REMARK VINA RESULT: -7.227823510      3.351      6.880
REMARK  9 active torsions:
REMARK  status: ('A' for Active; 'I' for Inactive)
REMARK    1  A    between atoms: N1_2  and  C2_4 
REMARK    2  A    between atoms: C4_10  and  N4_11 
REMARK    3  A    between atoms: N5_14  and  C7_15 
REMARK    4  A    between atoms: C7_15  and  C8_16 
REMARK    5  A    between atoms: C8_16  and  O1_17 
REMARK    6  A    between atoms: C11_23  and  N7_24 
REMARK    7  A    between atoms: N7_24  and  N8_26 
REMARK    8  A    between atoms: C12_28  and  C14_30 
REMARK    9  A    between atoms: C14_30  and  C15_31 
ROOT
HETATM    1  C2  UNL     1       8.384   3.585  11.261  1.00  0.00     0.146 A 
HETATM    2  N2  UNL     1       7.159   4.057  11.451  1.00  0.00    -0.321 N 
ATOM      3  H2  UNL     1       7.013   4.926  11.964  1.00  0.00     0.169 HD
HETATM    4  C3  UNL     1       6.144   3.389  10.972  1.00  0.00     0.144 A 
HETATM    5  N3  UNL     1       4.811   3.701  11.060  1.00  0.00    -0.175 N 
ATOM      6  H3  UNL     1       4.547   4.554  11.554  1.00  0.00     0.186 HD
HETATM    7  C4  UNL     1       3.844   2.952  10.536  1.00  0.00     0.683 A 
HETATM    8  N6  UNL     1       4.094   1.807   9.864  1.00  0.00    -0.174 N 
ATOM      9  H6  UNL     1       3.341   1.243   9.468  1.00  0.00     0.186 HD
HETATM   10  C11 UNL     1       5.381   1.445   9.745  1.00  0.00     0.156 A 
HETATM   11  C22 UNL     1       6.406   2.230  10.294  1.00  0.00     0.099 A 
HETATM   12  S1  UNL     1       8.109   2.148  10.374  1.00  0.00    -0.047 SA
ENDROOT
BRANCH  10  13
HETATM   13  N7  UNL     1       5.734   0.381   9.129  1.00  0.00    -0.284 N 
ATOM     14  H7  UNL     1       6.666   0.404   8.712  1.00  0.00     0.188 HD
BRANCH  13  15
HETATM   15  N8  UNL     1       5.041  -0.781   8.950  1.00  0.00    -0.307 N 
HETATM   16  C12 UNL     1       4.487  -1.175   7.867  1.00  0.00     0.004 C 
HETATM   17  C13 UNL     1       3.777  -2.467   7.863  1.00  0.00     0.065 C 
ATOM     18  H8  UNL     1       4.957  -1.395   9.760  1.00  0.00     0.186 HD
BRANCH  16  19
HETATM   19  C14 UNL     1       4.563  -0.360   6.663  1.00  0.00     0.087 C 
BRANCH  19  20
HETATM   20  C15 UNL     1       3.431   0.567   6.476  1.00  0.00    -0.078 C 
HETATM   21  C16 UNL     1       3.793   1.841   6.354  1.00  0.00    -0.024 C 
HETATM   22  C17 UNL     1       3.022   3.081   6.158  1.00  0.00     0.027 C 
HETATM   23  C18 UNL     1       1.821   3.177   7.069  1.00  0.00     0.004 C 
HETATM   24  C19 UNL     1       0.786   2.202   6.541  1.00  0.00     0.001 C 
HETATM   25  C20 UNL     1       1.066   0.874   7.206  1.00  0.00     0.004 C 
HETATM   26  C21 UNL     1       2.056   0.036   6.439  1.00  0.00     0.034 C 
ENDBRANCH  19  20
ENDBRANCH  16  19
ENDBRANCH  13  15
ENDBRANCH  10  13
BRANCH   7  27
HETATM   27  N4  UNL     1       2.458   3.357  10.684  1.00  0.00    -0.214 N 
HETATM   28  C5  UNL     1       2.180   4.752  10.933  1.00  0.00     0.161 C 
HETATM   29  C6  UNL     1       0.859   4.823  11.711  1.00  0.00     0.142 C 
HETATM   30  N5  UNL     1      -0.196   4.281  10.930  1.00  0.00    -0.388 N 
HETATM   31  C9  UNL     1       0.042   3.026  10.320  1.00  0.00     0.142 C 
HETATM   32  C10 UNL     1       1.400   2.420  10.587  1.00  0.00     0.161 C 
BRANCH  30  33
HETATM   33  C7  UNL     1      -1.520   4.600  11.292  1.00  0.00     0.084 C 
BRANCH  33  34
HETATM   34  C8  UNL     1      -1.611   5.680  12.337  1.00  0.00     0.208 C 
BRANCH  34  35
HETATM   35  O1  UNL     1      -1.924   5.179  13.575  1.00  0.00    -0.396 OA
ATOM     36  H1  UNL     1      -1.790   5.818  14.266  1.00  0.00     0.209 HD
ENDBRANCH  34  35
ENDBRANCH  33  34
ENDBRANCH  30  33
ENDBRANCH   7  27
BRANCH   1  37
HETATM   37  N1  UNL     1       9.527   4.100  11.656  1.00  0.00    -0.375 N 
HETATM   38  C1  UNL     1      10.736   3.547  11.101  1.00  0.00     0.148 C 
ATOM     39  H1  UNL     1       9.557   4.863  12.332  1.00  0.00     0.161 HD
ENDBRANCH   1  37
TORSDOF 9
ENDMDL
