MODEL 1
REMARK VINA RESULT: -8.472216034      0.000      0.000
REMARK  9 active torsions:
REMARK  status: ('A' for Active; 'I' for Inactive)
REMARK    1  A    between atoms: C2_2  and  C3_3 
REMARK    2  A    between atoms: C3_3  and  C4_4 
REMARK    3  A    between atoms: C5_5  and  C6_6 
REMARK    4  A    between atoms: C16_18  and  C17_19 
REMARK    5  A    between atoms: C17_19  and  O3_20 
REMARK    6  A    between atoms: C18_23  and  C19_24 
REMARK    7  A    between atoms: C19_24  and  O5_25 
REMARK    8  A    between atoms: C20_27  and  O6_28 
REMARK    9  A    between atoms: C21_30  and  O7_31 
ROOT
HETATM    1  C6  UNL     1       1.113  -0.226   8.183  1.00  0.00    -0.059 C 
HETATM    2  C7  UNL     1       0.380   0.870   7.986  1.00  0.00    -0.016 C 
HETATM    3  C8  UNL     1       0.333   2.259   8.354  1.00  0.00     0.057 C 
HETATM    4  C9  UNL     1       1.581   2.935   8.710  1.00  0.00     0.014 C 
HETATM    5  C10 UNL     1       2.905   2.726   8.832  1.00  0.00     0.072 C 
HETATM    6  O1  UNL     1       3.659   1.583   8.620  1.00  0.00    -0.335 OA
HETATM    7  C11 UNL     1       3.569   0.238   8.347  1.00  0.00     0.122 C 
HETATM    8  C12 UNL     1       3.895  -0.217   6.973  1.00  0.00     0.210 C 
HETATM    9  O2  UNL     1       4.473  -1.342   7.514  1.00  0.00    -0.376 OA
HETATM   10  C13 UNL     1       4.733  -0.603   8.672  1.00  0.00     0.181 C 
HETATM   11  C14 UNL     1       6.056   0.020   8.688  1.00  0.00     0.009 C 
HETATM   12  C15 UNL     1       6.653   0.730   9.590  1.00  0.00     0.042 C 
HETATM   13  C16 UNL     1       6.251   1.184  10.927  1.00  0.00     0.208 C 
HETATM   14  O4  UNL     1       7.361   1.682  11.614  1.00  0.00    -0.340 OA
HETATM   15  C18 UNL     1       7.742   2.951  11.354  1.00  0.00     0.183 C 
HETATM   16  C20 UNL     1       6.786   3.730  10.493  1.00  0.00     0.215 C 
HETATM   17  C21 UNL     1       5.337   3.318  10.860  1.00  0.00     0.214 C 
HETATM   18  C22 UNL     1       4.476   4.195  10.087  1.00  0.00     0.053 C 
HETATM   19  C23 UNL     1       3.484   3.996   9.259  1.00  0.00    -0.027 C 
HETATM   20  C24 UNL     1       2.837   5.230   8.657  1.00  0.00     0.051 C 
HETATM   21  O8  UNL     1       5.162   1.999  10.879  1.00  0.00    -0.307 OA
HETATM   22  C25 UNL     1       2.322  -0.380   8.993  1.00  0.00     0.082 C 
ENDROOT
BRANCH   1  23
HETATM   23  C5  UNL     1       0.586  -1.376   7.485  1.00  0.00     0.003 C 
HETATM   24  C4  UNL     1      -0.685  -1.626   7.252  1.00  0.00    -0.026 C 
BRANCH  24  25
HETATM   25  C3  UNL     1      -1.134  -2.846   6.519  1.00  0.00     0.027 C 
BRANCH  25  26
HETATM   26  C2  UNL     1      -1.986  -3.667   7.473  1.00  0.00    -0.001 C 
HETATM   27  C1  UNL     1      -1.551  -5.116   7.485  1.00  0.00     0.005 C 
ENDBRANCH  25  26
ENDBRANCH  24  25
ENDBRANCH   1  23
BRANCH  13  28
HETATM   28  C17 UNL     1       5.824   0.022  11.854  1.00  0.00     0.237 C 
BRANCH  28  29
HETATM   29  O3  UNL     1       7.005  -0.517  12.443  1.00  0.00    -0.395 OA
ATOM     30  H3  UNL     1       6.872  -1.451  12.551  1.00  0.00     0.209 HD
ENDBRANCH  28  29
ENDBRANCH  13  28
BRANCH  17  31
HETATM   31  O7  UNL     1       5.265   3.748  12.226  1.00  0.00    -0.360 OA
ATOM     32  H7  UNL     1       6.186   3.840  12.438  1.00  0.00     0.213 HD
ENDBRANCH  17  31
BRANCH  16  33
HETATM   33  O6  UNL     1       6.875   5.083  10.812  1.00  0.00    -0.387 OA
ATOM     34  H6  UNL     1       6.057   5.369  11.199  1.00  0.00     0.210 HD
ENDBRANCH  16  33
BRANCH  15  35
HETATM   35  C19 UNL     1       9.156   3.104  10.848  1.00  0.00     0.199 C 
BRANCH  35  36
HETATM   36  O5  UNL     1       9.813   4.158  11.521  1.00  0.00    -0.398 OA
ATOM     37  H5  UNL     1      10.156   4.788  10.898  1.00  0.00     0.209 HD
ENDBRANCH  35  36
ENDBRANCH  15  35
TORSDOF 9
ENDMDL
MODEL 2
REMARK VINA RESULT: -8.030866804      2.560      7.597
REMARK  9 active torsions:
REMARK  status: ('A' for Active; 'I' for Inactive)
REMARK    1  A    between atoms: C2_2  and  C3_3 
REMARK    2  A    between atoms: C3_3  and  C4_4 
REMARK    3  A    between atoms: C5_5  and  C6_6 
REMARK    4  A    between atoms: C16_18  and  C17_19 
REMARK    5  A    between atoms: C17_19  and  O3_20 
REMARK    6  A    between atoms: C18_23  and  C19_24 
REMARK    7  A    between atoms: C19_24  and  O5_25 
REMARK    8  A    between atoms: C20_27  and  O6_28 
REMARK    9  A    between atoms: C21_30  and  O7_31 
ROOT
HETATM    1  C6  UNL     1       5.257   4.023  11.032  1.00  0.00    -0.059 C 
HETATM    2  C7  UNL     1       4.420   4.511  11.946  1.00  0.00    -0.016 C 
HETATM    3  C8  UNL     1       3.026   4.817  12.130  1.00  0.00     0.057 C 
HETATM    4  C9  UNL     1       2.034   4.077  11.347  1.00  0.00     0.014 C 
HETATM    5  C10 UNL     1       1.920   3.107  10.422  1.00  0.00     0.072 C 
HETATM    6  O1  UNL     1       2.892   2.348   9.789  1.00  0.00    -0.335 OA
HETATM    7  C11 UNL     1       4.251   2.209   9.628  1.00  0.00     0.122 C 
HETATM    8  C12 UNL     1       4.924   1.090  10.331  1.00  0.00     0.210 C 
HETATM    9  O2  UNL     1       5.745   0.935   9.238  1.00  0.00    -0.376 OA
HETATM   10  C13 UNL     1       4.725   1.470   8.446  1.00  0.00     0.181 C 
HETATM   11  C14 UNL     1       3.845   0.460   7.860  1.00  0.00     0.009 C 
HETATM   12  C15 UNL     1       2.836   0.570   7.056  1.00  0.00     0.042 C 
HETATM   13  C16 UNL     1       2.189   1.726   6.425  1.00  0.00     0.208 C 
HETATM   14  O4  UNL     1       1.321   1.294   5.419  1.00  0.00    -0.340 OA
HETATM   15  C18 UNL     1       0.093   0.873   5.788  1.00  0.00     0.183 C 
HETATM   16  C20 UNL     1      -0.245   1.116   7.234  1.00  0.00     0.215 C 
HETATM   17  C21 UNL     1       0.374   2.468   7.669  1.00  0.00     0.214 C 
HETATM   18  C22 UNL     1      -0.098   2.693   9.024  1.00  0.00     0.053 C 
HETATM   19  C23 UNL     1       0.493   2.954  10.160  1.00  0.00    -0.027 C 
HETATM   20  C24 UNL     1      -0.404   3.128  11.373  1.00  0.00     0.051 C 
HETATM   21  O8  UNL     1       1.660   2.577   7.346  1.00  0.00    -0.307 OA
HETATM   22  C25 UNL     1       4.960   3.569   9.673  1.00  0.00     0.082 C 
ENDROOT
BRANCH   1  23
HETATM   23  C5  UNL     1       6.621   3.970  11.505  1.00  0.00     0.003 C 
HETATM   24  C4  UNL     1       7.680   3.660  10.786  1.00  0.00    -0.026 C 
BRANCH  24  25
HETATM   25  C3  UNL     1       9.055   3.632  11.367  1.00  0.00     0.027 C 
BRANCH  25  26
HETATM   26  C2  UNL     1       9.937   2.835  10.420  1.00  0.00    -0.001 C 
HETATM   27  C1  UNL     1       9.277   1.533  10.025  1.00  0.00     0.005 C 
ENDBRANCH  25  26
ENDBRANCH  24  25
ENDBRANCH   1  23
BRANCH  13  28
HETATM   28  C17 UNL     1       3.175   2.599   5.613  1.00  0.00     0.237 C 
BRANCH  28  29
HETATM   29  O3  UNL     1       3.732   1.781   4.586  1.00  0.00    -0.395 OA
ATOM     30  H3  UNL     1       3.121   1.778   3.858  1.00  0.00     0.209 HD
ENDBRANCH  28  29
ENDBRANCH  13  28
BRANCH  17  31
HETATM   31  O7  UNL     1      -0.329   3.382   6.817  1.00  0.00    -0.360 OA
ATOM     32  H7  UNL     1       0.332   3.564   6.159  1.00  0.00     0.213 HD
ENDBRANCH  17  31
BRANCH  16  33
HETATM   33  O6  UNL     1      -1.623   1.285   7.363  1.00  0.00    -0.387 OA
ATOM     34  H6  UNL     1      -1.874   1.139   8.267  1.00  0.00     0.210 HD
ENDBRANCH  16  33
BRANCH  15  35
HETATM   35  C19 UNL     1      -0.242  -0.546   5.396  1.00  0.00     0.199 C 
BRANCH  35  36
HETATM   36  O5  UNL     1      -0.182  -1.398   6.520  1.00  0.00    -0.398 OA
ATOM     37  H5  UNL     1       0.542  -2.008   6.438  1.00  0.00     0.209 HD
ENDBRANCH  35  36
ENDBRANCH  15  35
TORSDOF 9
ENDMDL
MODEL 3
REMARK VINA RESULT: -7.404878592      2.642      7.740
REMARK  9 active torsions:
REMARK  status: ('A' for Active; 'I' for Inactive)
REMARK    1  A    between atoms: C2_2  and  C3_3 
REMARK    2  A    between atoms: C3_3  and  C4_4 
REMARK    3  A    between atoms: C5_5  and  C6_6 
REMARK    4  A    between atoms: C16_18  and  C17_19 
REMARK    5  A    between atoms: C17_19  and  O3_20 
REMARK    6  A    between atoms: C18_23  and  C19_24 
REMARK    7  A    between atoms: C19_24  and  O5_25 
REMARK    8  A    between atoms: C20_27  and  O6_28 
REMARK    9  A    between atoms: C21_30  and  O7_31 
ROOT
HETATM    1  C6  UNL     1       5.259   2.434  10.034  1.00  0.00    -0.059 C 
HETATM    2  C7  UNL     1       4.658   3.408  10.718  1.00  0.00    -0.016 C 
HETATM    3  C8  UNL     1       3.421   4.139  10.760  1.00  0.00     0.057 C 
HETATM    4  C9  UNL     1       2.208   3.501  10.244  1.00  0.00     0.014 C 
HETATM    5  C10 UNL     1       1.763   2.359   9.688  1.00  0.00     0.072 C 
HETATM    6  O1  UNL     1       2.439   1.194   9.361  1.00  0.00    -0.335 OA
HETATM    7  C11 UNL     1       3.692   0.630   9.284  1.00  0.00     0.122 C 
HETATM    8  C12 UNL     1       4.081  -0.345  10.331  1.00  0.00     0.210 C 
HETATM    9  O2  UNL     1       4.745  -1.070   9.368  1.00  0.00    -0.376 OA
HETATM   10  C13 UNL     1       3.855  -0.552   8.422  1.00  0.00     0.181 C 
HETATM   11  C14 UNL     1       2.691  -1.402   8.183  1.00  0.00     0.009 C 
HETATM   12  C15 UNL     1       1.695  -1.275   7.366  1.00  0.00     0.042 C 
HETATM   13  C16 UNL     1       1.346  -0.251   6.375  1.00  0.00     0.208 C 
HETATM   14  O4  UNL     1       0.320  -0.718   5.549  1.00  0.00    -0.340 OA
HETATM   15  C18 UNL     1      -0.946  -0.630   6.009  1.00  0.00     0.183 C 
HETATM   16  C20 UNL     1      -1.096   0.150   7.287  1.00  0.00     0.215 C 
HETATM   17  C21 UNL     1      -0.098   1.335   7.266  1.00  0.00     0.214 C 
HETATM   18  C22 UNL     1      -0.389   2.109   8.460  1.00  0.00     0.053 C 
HETATM   19  C23 UNL     1       0.334   2.543   9.460  1.00  0.00    -0.027 C 
HETATM   20  C24 UNL     1      -0.388   3.345  10.528  1.00  0.00     0.051 C 
HETATM   21  O8  UNL     1       1.141   0.964   6.953  1.00  0.00    -0.307 OA
HETATM   22  C25 UNL     1       4.749   1.672   8.894  1.00  0.00     0.082 C 
ENDROOT
BRANCH   1  23
HETATM   23  C5  UNL     1       6.587   2.152  10.527  1.00  0.00     0.003 C 
HETATM   24  C4  UNL     1       7.383   1.192  10.105  1.00  0.00    -0.026 C 
BRANCH  24  25
HETATM   25  C3  UNL     1       8.744   0.978  10.679  1.00  0.00     0.027 C 
BRANCH  25  26
HETATM   26  C2  UNL     1       9.727   1.781   9.843  1.00  0.00    -0.001 C 
HETATM   27  C1  UNL     1      10.039   3.110  10.494  1.00  0.00     0.005 C 
ENDBRANCH  25  26
ENDBRANCH  24  25
ENDBRANCH   1  23
BRANCH  13  28
HETATM   28  C17 UNL     1       2.470  -0.003   5.342  1.00  0.00     0.237 C 
BRANCH  28  29
HETATM   29  O3  UNL     1       2.685  -1.224   4.637  1.00  0.00    -0.395 OA
ATOM     30  H3  UNL     1       2.179  -1.900   5.072  1.00  0.00     0.209 HD
ENDBRANCH  28  29
ENDBRANCH  13  28
BRANCH  17  31
HETATM   31  O7  UNL     1      -0.583   2.087   6.145  1.00  0.00    -0.360 OA
ATOM     32  H7  UNL     1      -0.354   1.510   5.425  1.00  0.00     0.213 HD
ENDBRANCH  17  31
BRANCH  16  33
HETATM   33  O6  UNL     1      -2.361   0.735   7.323  1.00  0.00    -0.387 OA
ATOM     34  H6  UNL     1      -2.472   1.290   6.561  1.00  0.00     0.210 HD
ENDBRANCH  16  33
BRANCH  15  35
HETATM   35  C19 UNL     1      -1.686  -1.943   6.100  1.00  0.00     0.199 C 
BRANCH  35  36
HETATM   36  O5  UNL     1      -1.866  -2.319   7.449  1.00  0.00    -0.398 OA
ATOM     37  H5  UNL     1      -2.587  -1.836   7.837  1.00  0.00     0.209 HD
ENDBRANCH  35  36
ENDBRANCH  15  35
TORSDOF 9
ENDMDL
MODEL 4
REMARK VINA RESULT: -7.342430949      4.069      7.261
REMARK  9 active torsions:
REMARK  status: ('A' for Active; 'I' for Inactive)
REMARK    1  A    between atoms: C2_2  and  C3_3 
REMARK    2  A    between atoms: C3_3  and  C4_4 
REMARK    3  A    between atoms: C5_5  and  C6_6 
REMARK    4  A    between atoms: C16_18  and  C17_19 
REMARK    5  A    between atoms: C17_19  and  O3_20 
REMARK    6  A    between atoms: C18_23  and  C19_24 
REMARK    7  A    between atoms: C19_24  and  O5_25 
REMARK    8  A    between atoms: C20_27  and  O6_28 
REMARK    9  A    between atoms: C21_30  and  O7_31 
ROOT
HETATM    1  C6  UNL     1       0.762   2.574   9.370  1.00  0.00    -0.059 C 
HETATM    2  C7  UNL     1       1.372   1.929  10.364  1.00  0.00    -0.016 C 
HETATM    3  C8  UNL     1       2.247   0.812  10.595  1.00  0.00     0.057 C 
HETATM    4  C9  UNL     1       3.151   0.392   9.522  1.00  0.00     0.014 C 
HETATM    5  C10 UNL     1       3.516   0.693   8.263  1.00  0.00     0.072 C 
HETATM    6  O1  UNL     1       3.069   1.689   7.410  1.00  0.00    -0.335 OA
HETATM    7  C11 UNL     1       2.124   2.679   7.269  1.00  0.00     0.122 C 
HETATM    8  C12 UNL     1       2.557   4.086   7.447  1.00  0.00     0.210 C 
HETATM    9  O2  UNL     1       1.696   4.448   6.437  1.00  0.00    -0.376 OA
HETATM   10  C13 UNL     1       1.839   3.162   5.908  1.00  0.00     0.181 C 
HETATM   11  C14 UNL     1       2.892   3.054   4.900  1.00  0.00     0.009 C 
HETATM   12  C15 UNL     1       3.281   2.054   4.177  1.00  0.00     0.042 C 
HETATM   13  C16 UNL     1       2.831   0.660   4.081  1.00  0.00     0.208 C 
HETATM   14  O4  UNL     1       3.382   0.059   2.947  1.00  0.00    -0.340 OA
HETATM   15  C18 UNL     1       4.645  -0.410   3.036  1.00  0.00     0.183 C 
HETATM   16  C20 UNL     1       5.222  -0.395   4.425  1.00  0.00     0.215 C 
HETATM   17  C21 UNL     1       4.098  -0.737   5.435  1.00  0.00     0.214 C 
HETATM   18  C22 UNL     1       4.752  -0.830   6.728  1.00  0.00     0.053 C 
HETATM   19  C23 UNL     1       4.547  -0.271   7.892  1.00  0.00    -0.027 C 
HETATM   20  C24 UNL     1       5.490  -0.664   9.015  1.00  0.00     0.051 C 
HETATM   21  O8  UNL     1       2.999  -0.009   5.254  1.00  0.00    -0.307 OA
HETATM   22  C25 UNL     1       0.799   2.283   7.936  1.00  0.00     0.082 C 
ENDROOT
BRANCH   1  23
HETATM   23  C5  UNL     1      -0.028   3.690   9.838  1.00  0.00     0.003 C 
HETATM   24  C4  UNL     1       0.106   4.303  10.995  1.00  0.00    -0.026 C 
BRANCH  24  25
HETATM   25  C3  UNL     1      -0.762   5.451  11.390  1.00  0.00     0.027 C 
BRANCH  25  26
HETATM   26  C2  UNL     1      -1.896   4.898  12.237  1.00  0.00    -0.001 C 
HETATM   27  C1  UNL     1      -2.543   5.988  13.063  1.00  0.00     0.005 C 
ENDBRANCH  25  26
ENDBRANCH  24  25
ENDBRANCH   1  23
BRANCH  13  28
HETATM   28  C17 UNL     1       1.319   0.535   3.778  1.00  0.00     0.237 C 
BRANCH  28  29
HETATM   29  O3  UNL     1       0.954  -0.832   3.956  1.00  0.00    -0.395 OA
ATOM     30  H3  UNL     1       0.030  -0.856   4.177  1.00  0.00     0.209 HD
ENDBRANCH  28  29
ENDBRANCH  13  28
BRANCH  17  31
HETATM   31  O7  UNL     1       3.761  -2.072   5.033  1.00  0.00    -0.360 OA
ATOM     32  H7  UNL     1       3.751  -2.519   5.872  1.00  0.00     0.213 HD
ENDBRANCH  17  31
BRANCH  16  33
HETATM   33  O6  UNL     1       6.153  -1.426   4.549  1.00  0.00    -0.387 OA
ATOM     34  H6  UNL     1       5.881  -2.012   5.244  1.00  0.00     0.210 HD
ENDBRANCH  16  33
BRANCH  15  35
HETATM   35  C19 UNL     1       5.621   0.186   2.050  1.00  0.00     0.199 C 
BRANCH  35  36
HETATM   36  O5  UNL     1       6.582  -0.773   1.663  1.00  0.00    -0.398 OA
ATOM     37  H5  UNL     1       6.591  -0.873   0.718  1.00  0.00     0.209 HD
ENDBRANCH  35  36
ENDBRANCH  15  35
TORSDOF 9
ENDMDL
MODEL 5
REMARK VINA RESULT: -6.883867102      2.806      8.238
REMARK  9 active torsions:
REMARK  status: ('A' for Active; 'I' for Inactive)
REMARK    1  A    between atoms: C2_2  and  C3_3 
REMARK    2  A    between atoms: C3_3  and  C4_4 
REMARK    3  A    between atoms: C5_5  and  C6_6 
REMARK    4  A    between atoms: C16_18  and  C17_19 
REMARK    5  A    between atoms: C17_19  and  O3_20 
REMARK    6  A    between atoms: C18_23  and  C19_24 
REMARK    7  A    between atoms: C19_24  and  O5_25 
REMARK    8  A    between atoms: C20_27  and  O6_28 
REMARK    9  A    between atoms: C21_30  and  O7_31 
ROOT
HETATM    1  C6  UNL     1       5.088   1.816  10.399  1.00  0.00    -0.059 C 
HETATM    2  C7  UNL     1       5.618   0.598  10.294  1.00  0.00    -0.016 C 
HETATM    3  C8  UNL     1       5.272  -0.735   9.877  1.00  0.00     0.057 C 
HETATM    4  C9  UNL     1       4.212  -0.909   8.883  1.00  0.00     0.014 C 
HETATM    5  C10 UNL     1       3.345  -0.215   8.122  1.00  0.00     0.072 C 
HETATM    6  O1  UNL     1       3.136   1.150   8.014  1.00  0.00    -0.335 OA
HETATM    7  C11 UNL     1       3.483   2.366   8.556  1.00  0.00     0.122 C 
HETATM    8  C12 UNL     1       4.424   3.224   7.795  1.00  0.00     0.210 C 
HETATM    9  O2  UNL     1       3.710   4.325   8.210  1.00  0.00    -0.376 OA
HETATM   10  C13 UNL     1       2.582   3.505   8.312  1.00  0.00     0.181 C 
HETATM   11  C14 UNL     1       1.755   3.488   7.106  1.00  0.00     0.009 C 
HETATM   12  C15 UNL     1       0.637   2.890   6.846  1.00  0.00     0.042 C 
HETATM   13  C16 UNL     1      -0.229   2.011   7.640  1.00  0.00     0.208 C 
HETATM   14  O4  UNL     1      -1.464   1.860   7.005  1.00  0.00    -0.340 OA
HETATM   15  C18 UNL     1      -1.549   0.956   6.006  1.00  0.00     0.183 C 
HETATM   16  C20 UNL     1      -0.335   0.084   5.844  1.00  0.00     0.215 C 
HETATM   17  C21 UNL     1       0.245  -0.228   7.246  1.00  0.00     0.214 C 
HETATM   18  C22 UNL     1       1.327  -1.170   7.020  1.00  0.00     0.053 C 
HETATM   19  C23 UNL     1       2.590  -1.201   7.356  1.00  0.00    -0.027 C 
HETATM   20  C24 UNL     1       3.388  -2.411   6.906  1.00  0.00     0.051 C 
HETATM   21  O8  UNL     1       0.406   0.861   7.994  1.00  0.00    -0.307 OA
HETATM   22  C25 UNL     1       3.731   2.252  10.066  1.00  0.00     0.082 C 
ENDROOT
BRANCH   1  23
HETATM   23  C5  UNL     1       6.025   2.782  10.925  1.00  0.00     0.003 C 
HETATM   24  C4  UNL     1       7.335   2.734  10.808  1.00  0.00    -0.026 C 
BRANCH  24  25
HETATM   25  C3  UNL     1       8.223   3.784  11.388  1.00  0.00     0.027 C 
BRANCH  25  26
HETATM   26  C2  UNL     1       9.629   3.535  10.868  1.00  0.00    -0.001 C 
HETATM   27  C1  UNL     1       9.680   2.294  10.005  1.00  0.00     0.005 C 
ENDBRANCH  25  26
ENDBRANCH  24  25
ENDBRANCH   1  23
BRANCH  13  28
HETATM   28  C17 UNL     1      -0.661   2.644   8.984  1.00  0.00     0.237 C 
BRANCH  28  29
HETATM   29  O3  UNL     1       0.082   2.006  10.020  1.00  0.00    -0.395 OA
ATOM     30  H3  UNL     1       0.488   2.687  10.545  1.00  0.00     0.209 HD
ENDBRANCH  28  29
ENDBRANCH  13  28
BRANCH  17  31
HETATM   31  O7  UNL     1      -0.837  -0.960   7.838  1.00  0.00    -0.360 OA
ATOM     32  H7  UNL     1      -1.227  -1.362   7.070  1.00  0.00     0.213 HD
ENDBRANCH  17  31
BRANCH  16  33
HETATM   33  O6  UNL     1      -0.720  -1.150   5.323  1.00  0.00    -0.387 OA
ATOM     34  H6  UNL     1      -0.521  -1.833   5.952  1.00  0.00     0.210 HD
ENDBRANCH  16  33
BRANCH  15  35
HETATM   35  C19 UNL     1      -1.983   1.515   4.672  1.00  0.00     0.199 C 
BRANCH  35  36
HETATM   36  O5  UNL     1      -0.971   1.329   3.704  1.00  0.00    -0.398 OA
ATOM     37  H5  UNL     1      -1.139   1.865   2.939  1.00  0.00     0.209 HD
ENDBRANCH  35  36
ENDBRANCH  15  35
TORSDOF 9
ENDMDL
