MODEL 1
REMARK VINA RESULT: -6.643265909      0.000      0.000
REMARK  7 active torsions:
REMARK  status: ('A' for Active; 'I' for Inactive)
REMARK    1  A    between atoms: C6_7  and  C7_8 
REMARK    2  A    between atoms: C7_8  and  C8_9 
REMARK    3  A    between atoms: N3_16  and  C12_18 
REMARK    4  A    between atoms: C12_18  and  C13_19 
REMARK    5  A    between atoms: C13_19  and  C14_20 
REMARK    6  A    between atoms: C14_20  and  C15_21 
REMARK    7  A    between atoms: C15_21  and  O2_22 
ROOT
HETATM    1  C8  UNL     1      22.591  23.390 -41.333  1.00  0.00     0.037 A 
HETATM    2  C9  UNL     1      23.039  24.657 -41.082  1.00  0.00     0.100 A 
HETATM    3  C10 UNL     1      24.318  25.071 -41.481  1.00  0.00     0.261 A 
HETATM    4  O1  UNL     1      24.722  26.243 -41.244  1.00  0.00    -0.268 OA
HETATM    5  N2  UNL     1      25.121  24.207 -42.126  1.00  0.00    -0.156 N 
ATOM      6  H2  UNL     1      26.054  24.496 -42.423  1.00  0.00     0.187 HD
HETATM    7  C11 UNL     1      24.688  22.963 -42.376  1.00  0.00     0.681 A 
HETATM    8  N3  UNL     1      25.435  22.117 -42.990  1.00  0.00    -0.226 N 
ATOM      9  H3  UNL     1      25.053  21.186 -43.154  1.00  0.00     0.177 HD
HETATM   10  N4  UNL     1      23.434  22.569 -41.980  1.00  0.00    -0.195 N 
ATOM     11  H4  UNL     1      23.132  21.617 -42.185  1.00  0.00     0.184 HD
ENDROOT
BRANCH   1  12
HETATM   12  C7  UNL     1      21.236  22.967 -40.913  1.00  0.00     0.115 C 
BRANCH  12  13
HETATM   13  C6  UNL     1      20.728  21.761 -41.539  1.00  0.00     0.016 A 
HETATM   14  N1  UNL     1      20.872  20.565 -40.987  1.00  0.00    -0.364 N 
HETATM   15  C1  UNL     1      21.554  20.384 -39.754  1.00  0.00     0.155 C 
HETATM   16  C2  UNL     1      20.378  19.437 -41.583  1.00  0.00     0.090 A 
HETATM   17  C3  UNL     1      19.708  19.484 -42.788  1.00  0.00     0.017 A 
HETATM   18  C4  UNL     1      19.550  20.718 -43.375  1.00  0.00     0.003 A 
HETATM   19  C5  UNL     1      20.057  21.836 -42.751  1.00  0.00     0.025 A 
ENDBRANCH  12  13
ENDBRANCH   1  12
BRANCH   8  20
HETATM   20  C12 UNL     1      26.749  22.376 -43.460  1.00  0.00     0.138 C 
BRANCH  20  21
HETATM   21  C13 UNL     1      27.830  21.603 -42.713  1.00  0.00     0.022 C 
BRANCH  21  22
HETATM   22  C14 UNL     1      27.254  20.300 -42.194  1.00  0.00     0.028 C 
BRANCH  22  23
HETATM   23  C15 UNL     1      27.252  20.227 -40.704  1.00  0.00     0.164 C 
BRANCH  23  24
HETATM   24  O2  UNL     1      27.092  21.461 -40.093  1.00  0.00    -0.401 OA
ATOM     25  H2  UNL     1      27.426  21.487 -39.204  1.00  0.00     0.209 HD
ENDBRANCH  23  24
ENDBRANCH  22  23
ENDBRANCH  21  22
ENDBRANCH  20  21
ENDBRANCH   8  20
TORSDOF 7
ENDMDL
MODEL 2
REMARK VINA RESULT: -6.621025459      2.805      3.549
REMARK  7 active torsions:
REMARK  status: ('A' for Active; 'I' for Inactive)
REMARK    1  A    between atoms: C6_7  and  C7_8 
REMARK    2  A    between atoms: C7_8  and  C8_9 
REMARK    3  A    between atoms: N3_16  and  C12_18 
REMARK    4  A    between atoms: C12_18  and  C13_19 
REMARK    5  A    between atoms: C13_19  and  C14_20 
REMARK    6  A    between atoms: C14_20  and  C15_21 
REMARK    7  A    between atoms: C15_21  and  O2_22 
ROOT
HETATM    1  C8  UNL     1      23.717  20.539 -40.879  1.00  0.00     0.037 A 
HETATM    2  C9  UNL     1      24.258  21.736 -41.258  1.00  0.00     0.100 A 
HETATM    3  C10 UNL     1      25.532  21.811 -41.838  1.00  0.00     0.261 A 
HETATM    4  O1  UNL     1      26.022  22.921 -42.183  1.00  0.00    -0.268 OA
HETATM    5  N2  UNL     1      26.239  20.682 -42.027  1.00  0.00    -0.156 N 
ATOM      6  H2  UNL     1      27.167  20.723 -42.449  1.00  0.00     0.187 HD
HETATM    7  C11 UNL     1      25.715  19.505 -41.658  1.00  0.00     0.681 A 
HETATM    8  N3  UNL     1      26.369  18.412 -41.828  1.00  0.00    -0.226 N 
ATOM      9  H3  UNL     1      25.920  17.546 -41.529  1.00  0.00     0.177 HD
HETATM   10  N4  UNL     1      24.466  19.445 -41.092  1.00  0.00    -0.195 N 
ATOM     11  H4  UNL     1      24.093  18.535 -40.822  1.00  0.00     0.184 HD
ENDROOT
BRANCH   1  12
HETATM   12  C7  UNL     1      22.367  20.473 -40.274  1.00  0.00     0.115 C 
BRANCH  12  13
HETATM   13  C6  UNL     1      21.256  20.508 -41.205  1.00  0.00     0.016 A 
HETATM   14  N1  UNL     1      20.479  21.574 -41.338  1.00  0.00    -0.364 N 
HETATM   15  C1  UNL     1      20.673  22.745 -40.557  1.00  0.00     0.155 C 
HETATM   16  C2  UNL     1      19.441  21.598 -42.228  1.00  0.00     0.090 A 
HETATM   17  C3  UNL     1      19.147  20.517 -43.032  1.00  0.00     0.017 A 
HETATM   18  C4  UNL     1      19.942  19.402 -42.908  1.00  0.00     0.003 A 
HETATM   19  C5  UNL     1      20.981  19.407 -42.004  1.00  0.00     0.025 A 
ENDBRANCH  12  13
ENDBRANCH   1  12
BRANCH   8  20
HETATM   20  C12 UNL     1      27.664  18.314 -42.398  1.00  0.00     0.138 C 
BRANCH  20  21
HETATM   21  C13 UNL     1      27.986  16.931 -42.954  1.00  0.00     0.022 C 
BRANCH  21  22
HETATM   22  C14 UNL     1      28.369  16.005 -41.816  1.00  0.00     0.028 C 
BRANCH  22  23
HETATM   23  C15 UNL     1      27.385  14.902 -41.618  1.00  0.00     0.164 C 
BRANCH  23  24
HETATM   24  O2  UNL     1      26.102  15.352 -41.343  1.00  0.00    -0.401 OA
ATOM     25  H2  UNL     1      25.439  14.679 -41.439  1.00  0.00     0.209 HD
ENDBRANCH  23  24
ENDBRANCH  22  23
ENDBRANCH  21  22
ENDBRANCH  20  21
ENDBRANCH   8  20
TORSDOF 7
ENDMDL
MODEL 3
REMARK VINA RESULT: -6.592557719      3.041      5.602
REMARK  7 active torsions:
REMARK  status: ('A' for Active; 'I' for Inactive)
REMARK    1  A    between atoms: C6_7  and  C7_8 
REMARK    2  A    between atoms: C7_8  and  C8_9 
REMARK    3  A    between atoms: N3_16  and  C12_18 
REMARK    4  A    between atoms: C12_18  and  C13_19 
REMARK    5  A    between atoms: C13_19  and  C14_20 
REMARK    6  A    between atoms: C14_20  and  C15_21 
REMARK    7  A    between atoms: C15_21  and  O2_22 
ROOT
HETATM    1  C8  UNL     1      22.220  23.854 -41.452  1.00  0.00     0.037 A 
HETATM    2  C9  UNL     1      21.084  24.279 -40.820  1.00  0.00     0.100 A 
HETATM    3  C10 UNL     1      20.303  23.401 -40.055  1.00  0.00     0.261 A 
HETATM    4  O1  UNL     1      19.256  23.803 -39.477  1.00  0.00    -0.268 OA
HETATM    5  N2  UNL     1      20.677  22.115 -39.938  1.00  0.00    -0.156 N 
ATOM      6  H2  UNL     1      20.118  21.466 -39.383  1.00  0.00     0.187 HD
HETATM    7  C11 UNL     1      21.790  21.692 -40.554  1.00  0.00     0.681 A 
HETATM    8  N3  UNL     1      22.171  20.469 -40.458  1.00  0.00    -0.226 N 
ATOM      9  H3  UNL     1      23.026  20.204 -40.947  1.00  0.00     0.177 HD
HETATM   10  N4  UNL     1      22.547  22.561 -41.300  1.00  0.00    -0.195 N 
ATOM     11  H4  UNL     1      23.389  22.211 -41.757  1.00  0.00     0.184 HD
ENDROOT
BRANCH   1  12
HETATM   12  C7  UNL     1      23.040  24.793 -42.251  1.00  0.00     0.115 C 
BRANCH  12  13
HETATM   13  C6  UNL     1      23.350  24.367 -43.603  1.00  0.00     0.016 A 
HETATM   14  N1  UNL     1      24.578  24.029 -43.972  1.00  0.00    -0.364 N 
HETATM   15  C1  UNL     1      25.674  24.085 -43.071  1.00  0.00     0.155 C 
HETATM   16  C2  UNL     1      24.855  23.619 -45.247  1.00  0.00     0.090 A 
HETATM   17  C3  UNL     1      23.874  23.536 -46.214  1.00  0.00     0.017 A 
HETATM   18  C4  UNL     1      22.595  23.883 -45.848  1.00  0.00     0.003 A 
HETATM   19  C5  UNL     1      22.346  24.292 -44.557  1.00  0.00     0.025 A 
ENDBRANCH  12  13
ENDBRANCH   1  12
BRANCH   8  20
HETATM   20  C12 UNL     1      21.497  19.457 -39.726  1.00  0.00     0.138 C 
BRANCH  20  21
HETATM   21  C13 UNL     1      20.657  18.528 -40.594  1.00  0.00     0.022 C 
BRANCH  21  22
HETATM   22  C14 UNL     1      20.867  18.873 -42.055  1.00  0.00     0.028 C 
BRANCH  22  23
HETATM   23  C15 UNL     1      19.663  19.498 -42.675  1.00  0.00     0.164 C 
BRANCH  23  24
HETATM   24  O2  UNL     1      18.869  20.183 -41.768  1.00  0.00    -0.401 OA
ATOM     25  H2  UNL     1      17.954  20.222 -42.021  1.00  0.00     0.209 HD
ENDBRANCH  23  24
ENDBRANCH  22  23
ENDBRANCH  21  22
ENDBRANCH  20  21
ENDBRANCH   8  20
TORSDOF 7
ENDMDL
MODEL 4
REMARK VINA RESULT: -6.580530437      0.585      1.552
REMARK  7 active torsions:
REMARK  status: ('A' for Active; 'I' for Inactive)
REMARK    1  A    between atoms: C6_7  and  C7_8 
REMARK    2  A    between atoms: C7_8  and  C8_9 
REMARK    3  A    between atoms: N3_16  and  C12_18 
REMARK    4  A    between atoms: C12_18  and  C13_19 
REMARK    5  A    between atoms: C13_19  and  C14_20 
REMARK    6  A    between atoms: C14_20  and  C15_21 
REMARK    7  A    between atoms: C15_21  and  O2_22 
ROOT
HETATM    1  C8  UNL     1      22.597  23.257 -41.538  1.00  0.00     0.037 A 
HETATM    2  C9  UNL     1      22.990  24.510 -41.155  1.00  0.00     0.100 A 
HETATM    3  C10 UNL     1      24.276  24.989 -41.438  1.00  0.00     0.261 A 
HETATM    4  O1  UNL     1      24.629  26.147 -41.080  1.00  0.00    -0.268 OA
HETATM    5  N2  UNL     1      25.144  24.204 -42.101  1.00  0.00    -0.156 N 
ATOM      6  H2  UNL     1      26.083  24.541 -42.314  1.00  0.00     0.187 HD
HETATM    7  C11 UNL     1      24.766  22.975 -42.479  1.00  0.00     0.681 A 
HETATM    8  N3  UNL     1      25.574  22.204 -43.114  1.00  0.00    -0.226 N 
ATOM      9  H3  UNL     1      25.232  21.280 -43.377  1.00  0.00     0.177 HD
HETATM   10  N4  UNL     1      23.503  22.516 -42.197  1.00  0.00    -0.195 N 
ATOM     11  H4  UNL     1      23.244  21.577 -42.498  1.00  0.00     0.184 HD
ENDROOT
BRANCH   1  12
HETATM   12  C7  UNL     1      21.233  22.764 -41.239  1.00  0.00     0.115 C 
BRANCH  12  13
HETATM   13  C6  UNL     1      21.062  21.324 -41.265  1.00  0.00     0.016 A 
HETATM   14  N1  UNL     1      20.601  20.687 -42.333  1.00  0.00    -0.364 N 
HETATM   15  C1  UNL     1      20.223  21.379 -43.514  1.00  0.00     0.155 C 
HETATM   16  C2  UNL     1      20.455  19.327 -42.348  1.00  0.00     0.090 A 
HETATM   17  C3  UNL     1      20.778  18.548 -41.256  1.00  0.00     0.017 A 
HETATM   18  C4  UNL     1      21.257  19.193 -40.140  1.00  0.00     0.003 A 
HETATM   19  C5  UNL     1      21.394  20.563 -40.154  1.00  0.00     0.025 A 
ENDBRANCH  12  13
ENDBRANCH   1  12
BRANCH   8  20
HETATM   20  C12 UNL     1      26.905  22.535 -43.477  1.00  0.00     0.138 C 
BRANCH  20  21
HETATM   21  C13 UNL     1      27.963  21.750 -42.711  1.00  0.00     0.022 C 
BRANCH  21  22
HETATM   22  C14 UNL     1      27.381  20.427 -42.256  1.00  0.00     0.028 C 
BRANCH  22  23
HETATM   23  C15 UNL     1      27.371  20.286 -40.770  1.00  0.00     0.164 C 
BRANCH  23  24
HETATM   24  O2  UNL     1      27.041  21.458 -40.109  1.00  0.00    -0.401 OA
ATOM     25  H2  UNL     1      26.843  21.328 -39.188  1.00  0.00     0.209 HD
ENDBRANCH  23  24
ENDBRANCH  22  23
ENDBRANCH  21  22
ENDBRANCH  20  21
ENDBRANCH   8  20
TORSDOF 7
ENDMDL
MODEL 5
REMARK VINA RESULT: -6.498009757      2.840      3.553
REMARK  7 active torsions:
REMARK  status: ('A' for Active; 'I' for Inactive)
REMARK    1  A    between atoms: C6_7  and  C7_8 
REMARK    2  A    between atoms: C7_8  and  C8_9 
REMARK    3  A    between atoms: N3_16  and  C12_18 
REMARK    4  A    between atoms: C12_18  and  C13_19 
REMARK    5  A    between atoms: C13_19  and  C14_20 
REMARK    6  A    between atoms: C14_20  and  C15_21 
REMARK    7  A    between atoms: C15_21  and  O2_22 
ROOT
HETATM    1  C8  UNL     1      23.813  20.409 -40.913  1.00  0.00     0.037 A 
HETATM    2  C9  UNL     1      24.351  21.627 -41.223  1.00  0.00     0.100 A 
HETATM    3  C10 UNL     1      25.636  21.739 -41.771  1.00  0.00     0.261 A 
HETATM    4  O1  UNL     1      26.123  22.869 -42.053  1.00  0.00    -0.268 OA
HETATM    5  N2  UNL     1      26.357  20.627 -42.000  1.00  0.00    -0.156 N 
ATOM      6  H2  UNL     1      27.293  20.695 -42.400  1.00  0.00     0.187 HD
HETATM    7  C11 UNL     1      25.836  19.429 -41.699  1.00  0.00     0.681 A 
HETATM    8  N3  UNL     1      26.502  18.351 -41.907  1.00  0.00    -0.226 N 
ATOM      9  H3  UNL     1      26.055  17.468 -41.660  1.00  0.00     0.177 HD
HETATM   10  N4  UNL     1      24.576  19.332 -41.162  1.00  0.00    -0.195 N 
ATOM     11  H4  UNL     1      24.206  18.407 -40.945  1.00  0.00     0.184 HD
ENDROOT
BRANCH   1  12
HETATM   12  C7  UNL     1      22.452  20.303 -40.341  1.00  0.00     0.115 C 
BRANCH  12  13
HETATM   13  C6  UNL     1      21.358  20.426 -41.286  1.00  0.00     0.016 A 
HETATM   14  N1  UNL     1      20.685  19.373 -41.727  1.00  0.00    -0.364 N 
HETATM   15  C1  UNL     1      21.007  18.051 -41.318  1.00  0.00     0.155 C 
HETATM   16  C2  UNL     1      19.648  19.504 -42.611  1.00  0.00     0.090 A 
HETATM   17  C3  UNL     1      19.251  20.736 -43.089  1.00  0.00     0.017 A 
HETATM   18  C4  UNL     1      19.939  21.839 -42.642  1.00  0.00     0.003 A 
HETATM   19  C5  UNL     1      20.978  21.676 -41.752  1.00  0.00     0.025 A 
ENDBRANCH  12  13
ENDBRANCH   1  12
BRANCH   8  20
HETATM   20  C12 UNL     1      27.810  18.290 -42.454  1.00  0.00     0.138 C 
BRANCH  20  21
HETATM   21  C13 UNL     1      28.219  16.895 -42.912  1.00  0.00     0.022 C 
BRANCH  21  22
HETATM   22  C14 UNL     1      28.397  15.997 -41.704  1.00  0.00     0.028 C 
BRANCH  22  23
HETATM   23  C15 UNL     1      27.391  14.897 -41.654  1.00  0.00     0.164 C 
BRANCH  23  24
HETATM   24  O2  UNL     1      26.133  15.320 -41.253  1.00  0.00    -0.401 OA
ATOM     25  H2  UNL     1      26.138  15.786 -40.425  1.00  0.00     0.209 HD
ENDBRANCH  23  24
ENDBRANCH  22  23
ENDBRANCH  21  22
ENDBRANCH  20  21
ENDBRANCH   8  20
TORSDOF 7
ENDMDL
