MODEL 1
REMARK VINA RESULT: -6.901242380      0.000      0.000
REMARK  6 active torsions:
REMARK  status: ('A' for Active; 'I' for Inactive)
REMARK    1  A    between atoms: S1_2  and  N1_4 
REMARK    2  A    between atoms: S1_2  and  N3_13 
REMARK    3  A    between atoms: N3_13  and  C6_15 
REMARK    4  A    between atoms: C6_15  and  C7_16 
REMARK    5  A    between atoms: C7_16  and  C8_17 
REMARK    6  A    between atoms: C8_17  and  C9_18 
ROOT
HETATM    1  O1  UNL     1      22.951  24.073 -42.784  1.00  0.00    -0.182 OA
HETATM    2  S1  UNL     1      22.930  23.856 -41.302  1.00  0.00     0.320 S 
HETATM    3  O2  UNL     1      23.257  25.134 -40.561  1.00  0.00    -0.182 OA
ENDROOT
BRANCH   2   4
HETATM    4  N1  UNL     1      21.422  23.289 -40.758  1.00  0.00    -0.253 N 
HETATM    5  C1  UNL     1      20.744  22.495 -41.508  1.00  0.00     0.115 A 
HETATM    6  C2  UNL     1      21.118  22.046 -42.734  1.00  0.00     0.049 A 
HETATM    7  N2  UNL     1      19.543  22.065 -41.036  1.00  0.00    -0.352 N 
HETATM    8  C3  UNL     1      20.351  21.192 -43.503  1.00  0.00     0.005 A 
HETATM    9  C4  UNL     1      19.143  20.777 -42.993  1.00  0.00     0.017 A 
HETATM   10  C5  UNL     1      18.764  21.234 -41.750  1.00  0.00     0.089 A 
ATOM     11  H2  UNL     1      19.226  22.380 -40.120  1.00  0.00     0.166 HD
ATOM     12  H1  UNL     1      21.059  23.575 -39.849  1.00  0.00     0.182 HD
ENDBRANCH   2   4
BRANCH   2  13
HETATM   13  N3  UNL     1      24.220  22.748 -40.894  1.00  0.00    -0.303 N 
ATOM     14  H3  UNL     1      24.610  22.558 -39.970  1.00  0.00     0.173 HD
BRANCH  13  15
HETATM   15  C6  UNL     1      24.615  22.158 -42.168  1.00  0.00     0.134 C 
BRANCH  15  16
HETATM   16  C7  UNL     1      24.248  20.725 -42.289  1.00  0.00     0.026 C 
BRANCH  16  17
HETATM   17  C8  UNL     1      24.148  20.118 -40.916  1.00  0.00     0.060 C 
BRANCH  17  18
HETATM   18  C9  UNL     1      22.810  19.570 -40.625  1.00  0.00     0.025 A 
HETATM   19  C10 UNL     1      22.001  19.821 -39.524  1.00  0.00     0.113 A 
HETATM   20  N4  UNL     1      20.858  19.125 -39.639  1.00  0.00    -0.360 N 
HETATM   21  C11 UNL     1      20.911  18.426 -40.794  1.00  0.00     0.180 A 
ATOM     22  H4  UNL     1      20.086  19.123 -38.972  1.00  0.00     0.166 HD
HETATM   23  N5  UNL     1      22.092  18.708 -41.372  1.00  0.00    -0.355 N 
ATOM     24  H5  UNL     1      22.404  18.319 -42.261  1.00  0.00     0.166 HD
ENDBRANCH  17  18
ENDBRANCH  16  17
ENDBRANCH  15  16
ENDBRANCH  13  15
ENDBRANCH   2  13
TORSDOF 6
ENDMDL
MODEL 2
REMARK VINA RESULT: -6.556919863      2.559      4.075
REMARK  6 active torsions:
REMARK  status: ('A' for Active; 'I' for Inactive)
REMARK    1  A    between atoms: S1_2  and  N1_4 
REMARK    2  A    between atoms: S1_2  and  N3_13 
REMARK    3  A    between atoms: N3_13  and  C6_15 
REMARK    4  A    between atoms: C6_15  and  C7_16 
REMARK    5  A    between atoms: C7_16  and  C8_17 
REMARK    6  A    between atoms: C8_17  and  C9_18 
ROOT
HETATM    1  O1  UNL     1      25.292  21.916 -40.799  1.00  0.00    -0.182 OA
HETATM    2  S1  UNL     1      24.182  20.990 -41.191  1.00  0.00     0.320 S 
HETATM    3  O2  UNL     1      24.299  19.665 -40.469  1.00  0.00    -0.182 OA
ENDROOT
BRANCH   2   4
HETATM    4  N1  UNL     1      22.650  21.650 -40.861  1.00  0.00    -0.253 N 
HETATM    5  C1  UNL     1      21.619  21.169 -41.458  1.00  0.00     0.115 A 
HETATM    6  C2  UNL     1      21.624  20.152 -42.358  1.00  0.00     0.049 A 
HETATM    7  N2  UNL     1      20.413  21.725 -41.167  1.00  0.00    -0.352 N 
HETATM    8  C3  UNL     1      20.485  19.669 -42.975  1.00  0.00     0.005 A 
HETATM    9  C4  UNL     1      19.283  20.256 -42.654  1.00  0.00     0.017 A 
HETATM   10  C5  UNL     1      19.280  21.289 -41.742  1.00  0.00     0.089 A 
ATOM     11  H2  UNL     1      20.367  22.492 -40.496  1.00  0.00     0.166 HD
ATOM     12  H1  UNL     1      22.551  22.420 -40.198  1.00  0.00     0.182 HD
ENDBRANCH   2   4
BRANCH   2  13
HETATM   13  N3  UNL     1      24.366  20.603 -42.887  1.00  0.00    -0.303 N 
ATOM     14  H3  UNL     1      23.980  19.804 -43.389  1.00  0.00     0.173 HD
BRANCH  13  15
HETATM   15  C6  UNL     1      25.195  21.678 -43.421  1.00  0.00     0.134 C 
BRANCH  15  16
HETATM   16  C7  UNL     1      24.495  22.513 -44.428  1.00  0.00     0.026 C 
BRANCH  16  17
HETATM   17  C8  UNL     1      24.751  23.967 -44.134  1.00  0.00     0.060 C 
BRANCH  17  18
HETATM   18  C9  UNL     1      24.086  24.430 -42.901  1.00  0.00     0.025 A 
HETATM   19  C10 UNL     1      22.727  24.605 -42.673  1.00  0.00     0.113 A 
HETATM   20  N4  UNL     1      22.535  25.041 -41.417  1.00  0.00    -0.360 N 
HETATM   21  C11 UNL     1      23.744  25.152 -40.826  1.00  0.00     0.180 A 
ATOM     22  H4  UNL     1      21.634  25.251 -40.985  1.00  0.00     0.166 HD
HETATM   23  N5  UNL     1      24.663  24.780 -41.734  1.00  0.00    -0.355 N 
ATOM     24  H5  UNL     1      25.668  24.764 -41.562  1.00  0.00     0.166 HD
ENDBRANCH  17  18
ENDBRANCH  16  17
ENDBRANCH  15  16
ENDBRANCH  13  15
ENDBRANCH   2  13
TORSDOF 6
ENDMDL
MODEL 3
REMARK VINA RESULT: -6.498304202      3.005      5.733
REMARK  6 active torsions:
REMARK  status: ('A' for Active; 'I' for Inactive)
REMARK    1  A    between atoms: S1_2  and  N1_4 
REMARK    2  A    between atoms: S1_2  and  N3_13 
REMARK    3  A    between atoms: N3_13  and  C6_15 
REMARK    4  A    between atoms: C6_15  and  C7_16 
REMARK    5  A    between atoms: C7_16  and  C8_17 
REMARK    6  A    between atoms: C8_17  and  C9_18 
ROOT
HETATM    1  O1  UNL     1      20.765  19.409 -42.147  1.00  0.00    -0.182 OA
HETATM    2  S1  UNL     1      21.232  19.410 -40.724  1.00  0.00     0.320 S 
HETATM    3  O2  UNL     1      20.320  18.576 -39.852  1.00  0.00    -0.182 OA
ENDROOT
BRANCH   2   4
HETATM    4  N1  UNL     1      22.818  18.816 -40.569  1.00  0.00    -0.253 N 
HETATM    5  C1  UNL     1      23.805  19.575 -40.886  1.00  0.00     0.115 A 
HETATM    6  C2  UNL     1      23.712  20.848 -41.349  1.00  0.00     0.049 A 
HETATM    7  N2  UNL     1      25.056  19.062 -40.748  1.00  0.00    -0.352 N 
HETATM    8  C3  UNL     1      24.806  21.626 -41.677  1.00  0.00     0.005 A 
HETATM    9  C4  UNL     1      26.056  21.073 -41.524  1.00  0.00     0.017 A 
HETATM   10  C5  UNL     1      26.149  19.781 -41.054  1.00  0.00     0.089 A 
ATOM     11  H2  UNL     1      25.168  18.109 -40.403  1.00  0.00     0.166 HD
ATOM     12  H1  UNL     1      22.983  17.868 -40.229  1.00  0.00     0.182 HD
ENDBRANCH   2   4
BRANCH   2  13
HETATM   13  N3  UNL     1      21.091  21.040 -40.104  1.00  0.00    -0.303 N 
ATOM     14  H3  UNL     1      21.542  21.434 -39.278  1.00  0.00     0.173 HD
BRANCH  13  15
HETATM   15  C6  UNL     1      20.186  21.709 -41.031  1.00  0.00     0.134 C 
BRANCH  15  16
HETATM   16  C7  UNL     1      20.823  22.831 -41.766  1.00  0.00     0.026 C 
BRANCH  16  17
HETATM   17  C8  UNL     1      21.362  23.830 -40.777  1.00  0.00     0.060 C 
BRANCH  17  18
HETATM   18  C9  UNL     1      22.545  24.554 -41.280  1.00  0.00     0.025 A 
HETATM   19  C10 UNL     1      22.850  24.894 -42.591  1.00  0.00     0.113 A 
HETATM   20  N4  UNL     1      24.021  25.551 -42.625  1.00  0.00    -0.360 N 
HETATM   21  C11 UNL     1      24.482  25.644 -41.359  1.00  0.00     0.180 A 
ATOM     22  H4  UNL     1      24.482  25.916 -43.459  1.00  0.00     0.166 HD
HETATM   23  N5  UNL     1      23.580  25.039 -40.565  1.00  0.00    -0.355 N 
ATOM     24  H5  UNL     1      23.668  24.957 -39.553  1.00  0.00     0.166 HD
ENDBRANCH  17  18
ENDBRANCH  16  17
ENDBRANCH  15  16
ENDBRANCH  13  15
ENDBRANCH   2  13
TORSDOF 6
ENDMDL
MODEL 4
REMARK VINA RESULT: -6.361493484      2.322      4.198
REMARK  6 active torsions:
REMARK  status: ('A' for Active; 'I' for Inactive)
REMARK    1  A    between atoms: S1_2  and  N1_4 
REMARK    2  A    between atoms: S1_2  and  N3_13 
REMARK    3  A    between atoms: N3_13  and  C6_15 
REMARK    4  A    between atoms: C6_15  and  C7_16 
REMARK    5  A    between atoms: C7_16  and  C8_17 
REMARK    6  A    between atoms: C8_17  and  C9_18 
ROOT
HETATM    1  O1  UNL     1      21.451  23.398 -44.954  1.00  0.00    -0.182 OA
HETATM    2  S1  UNL     1      21.471  22.344 -43.890  1.00  0.00     0.320 S 
HETATM    3  O2  UNL     1      22.573  21.338 -44.143  1.00  0.00    -0.182 OA
ENDROOT
BRANCH   2   4
HETATM    4  N1  UNL     1      21.689  23.003 -42.338  1.00  0.00    -0.253 N 
HETATM    5  C1  UNL     1      22.635  23.851 -42.145  1.00  0.00     0.115 A 
HETATM    6  C2  UNL     1      23.512  24.292 -43.084  1.00  0.00     0.049 A 
HETATM    7  N2  UNL     1      22.775  24.354 -40.889  1.00  0.00    -0.352 N 
HETATM    8  C3  UNL     1      24.515  25.207 -42.826  1.00  0.00     0.005 A 
HETATM    9  C4  UNL     1      24.626  25.694 -41.544  1.00  0.00     0.017 A 
HETATM   10  C5  UNL     1      23.736  25.246 -40.592  1.00  0.00     0.089 A 
ATOM     11  H2  UNL     1      22.136  24.049 -40.156  1.00  0.00     0.166 HD
ATOM     12  H1  UNL     1      21.077  22.729 -41.569  1.00  0.00     0.182 HD
ENDBRANCH   2   4
BRANCH   2  13
HETATM   13  N3  UNL     1      19.984  21.430 -43.999  1.00  0.00    -0.303 N 
ATOM     14  H3  UNL     1      19.549  21.044 -44.838  1.00  0.00     0.173 HD
BRANCH  13  15
HETATM   15  C6  UNL     1      19.504  21.343 -42.625  1.00  0.00     0.134 C 
BRANCH  15  16
HETATM   16  C7  UNL     1      19.172  19.958 -42.206  1.00  0.00     0.026 C 
BRANCH  16  17
HETATM   17  C8  UNL     1      20.433  19.137 -42.159  1.00  0.00     0.060 C 
BRANCH  17  18
HETATM   18  C9  UNL     1      21.273  19.440 -40.985  1.00  0.00     0.025 A 
HETATM   19  C10 UNL     1      22.657  19.530 -40.922  1.00  0.00     0.113 A 
HETATM   20  N4  UNL     1      23.031  19.826 -39.666  1.00  0.00    -0.360 N 
HETATM   21  C11 UNL     1      21.914  19.928 -38.913  1.00  0.00     0.180 A 
ATOM     22  H4  UNL     1      23.989  19.951 -39.338  1.00  0.00     0.166 HD
HETATM   23  N5  UNL     1      20.868  19.693 -39.725  1.00  0.00    -0.355 N 
ATOM     24  H5  UNL     1      19.894  19.705 -39.425  1.00  0.00     0.166 HD
ENDBRANCH  17  18
ENDBRANCH  16  17
ENDBRANCH  15  16
ENDBRANCH  13  15
ENDBRANCH   2  13
TORSDOF 6
ENDMDL
MODEL 5
REMARK VINA RESULT: -6.316546240      2.047      3.805
REMARK  6 active torsions:
REMARK  status: ('A' for Active; 'I' for Inactive)
REMARK    1  A    between atoms: S1_2  and  N1_4 
REMARK    2  A    between atoms: S1_2  and  N3_13 
REMARK    3  A    between atoms: N3_13  and  C6_15 
REMARK    4  A    between atoms: C6_15  and  C7_16 
REMARK    5  A    between atoms: C7_16  and  C8_17 
REMARK    6  A    between atoms: C8_17  and  C9_18 
ROOT
HETATM    1  O1  UNL     1      25.961  20.321 -40.528  1.00  0.00    -0.182 OA
HETATM    2  S1  UNL     1      25.059  21.044 -41.481  1.00  0.00     0.320 S 
HETATM    3  O2  UNL     1      25.843  21.625 -42.637  1.00  0.00    -0.182 OA
ENDROOT
BRANCH   2   4
HETATM    4  N1  UNL     1      23.845  20.031 -42.108  1.00  0.00    -0.253 N 
HETATM    5  C1  UNL     1      22.856  19.699 -41.357  1.00  0.00     0.115 A 
HETATM    6  C2  UNL     1      22.672  20.086 -40.069  1.00  0.00     0.049 A 
HETATM    7  N2  UNL     1      21.908  18.888 -41.897  1.00  0.00    -0.352 N 
HETATM    8  C3  UNL     1      21.589  19.701 -39.301  1.00  0.00     0.005 A 
HETATM    9  C4  UNL     1      20.649  18.881 -39.882  1.00  0.00     0.017 A 
HETATM   10  C5  UNL     1      20.838  18.489 -41.189  1.00  0.00     0.089 A 
ATOM     11  H2  UNL     1      22.010  18.576 -42.863  1.00  0.00     0.166 HD
ATOM     12  H1  UNL     1      23.902  19.690 -43.068  1.00  0.00     0.182 HD
ENDBRANCH   2   4
BRANCH   2  13
HETATM   13  N3  UNL     1      24.380  22.424 -40.649  1.00  0.00    -0.303 N 
ATOM     14  H3  UNL     1      24.230  22.537 -39.647  1.00  0.00     0.173 HD
BRANCH  13  15
HETATM   15  C6  UNL     1      24.074  23.378 -41.709  1.00  0.00     0.134 C 
BRANCH  15  16
HETATM   16  C7  UNL     1      22.647  23.784 -41.740  1.00  0.00     0.026 C 
BRANCH  16  17
HETATM   17  C8  UNL     1      21.936  23.019 -42.825  1.00  0.00     0.060 C 
BRANCH  17  18
HETATM   18  C9  UNL     1      20.699  22.368 -42.353  1.00  0.00     0.025 A 
HETATM   19  C10 UNL     1      20.128  22.427 -41.089  1.00  0.00     0.113 A 
HETATM   20  N4  UNL     1      19.001  21.694 -41.070  1.00  0.00    -0.360 N 
HETATM   21  C11 UNL     1      18.833  21.161 -42.300  1.00  0.00     0.180 A 
ATOM     22  H4  UNL     1      18.383  21.564 -40.269  1.00  0.00     0.166 HD
HETATM   23  N5  UNL     1      19.863  21.578 -43.056  1.00  0.00    -0.355 N 
ATOM     24  H5  UNL     1      19.995  21.329 -44.036  1.00  0.00     0.166 HD
ENDBRANCH  17  18
ENDBRANCH  16  17
ENDBRANCH  15  16
ENDBRANCH  13  15
ENDBRANCH   2  13
TORSDOF 6
ENDMDL
