MODEL 1
REMARK VINA RESULT: -6.331324339      0.000      0.000
REMARK  6 active torsions:
REMARK  status: ('A' for Active; 'I' for Inactive)
REMARK    1  A    between atoms: N1_4  and  C4_5 
REMARK    2  A    between atoms: C4_5  and  C5_6 
REMARK    3  A    between atoms: C5_6  and  C6_7 
REMARK    4  A    between atoms: C6_7  and  C7_8 
REMARK    5  A    between atoms: C7_8  and  N2_9 
REMARK    6  A    between atoms: C10_12  and  C11_13 
ROOT
HETATM    1  N2  UNL     1      24.048  20.682 -41.241  1.00  0.00    -0.304 N 
HETATM    2  C8  UNL     1      24.176  20.536 -42.573  1.00  0.00     0.111 A 
HETATM    3  C9  UNL     1      24.781  21.498 -43.365  1.00  0.00     0.035 A 
HETATM    4  C10 UNL     1      25.275  22.650 -42.793  1.00  0.00     0.023 A 
HETATM    5  C12 UNL     1      25.126  22.766 -41.423  1.00  0.00     0.122 A 
HETATM    6  N5  UNL     1      24.525  21.787 -40.713  1.00  0.00    -0.309 N 
ATOM      7  H5  UNL     1      24.436  21.912 -39.704  1.00  0.00     0.186 HD
ENDROOT
BRANCH   1   8
HETATM    8  C7  UNL     1      23.410  19.659 -40.436  1.00  0.00     0.148 C 
BRANCH   8   9
HETATM    9  C6  UNL     1      22.172  19.229 -41.154  1.00  0.00     0.023 C 
BRANCH   9  10
HETATM   10  C5  UNL     1      20.892  19.686 -40.488  1.00  0.00     0.022 C 
BRANCH  10  11
HETATM   11  C4  UNL     1      20.089  20.545 -41.414  1.00  0.00     0.128 C 
BRANCH  11  12
HETATM   12  N1  UNL     1      20.732  21.739 -41.844  1.00  0.00    -0.366 N 
HETATM   13  C3  UNL     1      20.961  21.890 -43.169  1.00  0.00     0.099 A 
HETATM   14  C2  UNL     1      21.579  23.016 -43.676  1.00  0.00    -0.022 A 
HETATM   15  C1  UNL     1      21.835  23.189 -45.131  1.00  0.00     0.052 C 
HETATM   16  C15 UNL     1      21.987  24.034 -42.837  1.00  0.00     0.054 A 
HETATM   17  C14 UNL     1      21.750  23.868 -41.494  1.00  0.00     0.044 A 
HETATM   18  N6  UNL     1      22.629  25.210 -43.324  1.00  0.00    -0.102 NA
HETATM   19  C13 UNL     1      21.132  22.730 -41.040  1.00  0.00     0.092 A 
ENDBRANCH  11  12
ENDBRANCH  10  11
ENDBRANCH   9  10
ENDBRANCH   8   9
ENDBRANCH   1   8
BRANCH   4  20
HETATM   20  C11 UNL     1      25.913  23.670 -43.609  1.00  0.00     0.121 C 
HETATM   21  N3  UNL     1      25.373  24.184 -44.647  1.00  0.00    -0.387 N 
ATOM     22  H32 UNL     1      24.444  23.857 -44.911  1.00  0.00     0.157 HD
ATOM     23  H31 UNL     1      25.821  24.899 -45.220  1.00  0.00     0.157 HD
HETATM   24  N4  UNL     1      27.200  24.123 -43.244  1.00  0.00    -0.082 NA
ENDBRANCH   4  20
TORSDOF 6
ENDMDL
MODEL 2
REMARK VINA RESULT: -6.326488150      0.379      1.429
REMARK  6 active torsions:
REMARK  status: ('A' for Active; 'I' for Inactive)
REMARK    1  A    between atoms: N1_4  and  C4_5 
REMARK    2  A    between atoms: C4_5  and  C5_6 
REMARK    3  A    between atoms: C5_6  and  C6_7 
REMARK    4  A    between atoms: C6_7  and  C7_8 
REMARK    5  A    between atoms: C7_8  and  N2_9 
REMARK    6  A    between atoms: C10_12  and  C11_13 
ROOT
HETATM    1  N2  UNL     1      24.085  20.601 -41.233  1.00  0.00    -0.304 N 
HETATM    2  C8  UNL     1      24.165  20.474 -42.570  1.00  0.00     0.111 A 
HETATM    3  C9  UNL     1      24.742  21.447 -43.370  1.00  0.00     0.035 A 
HETATM    4  C10 UNL     1      25.257  22.590 -42.799  1.00  0.00     0.023 A 
HETATM    5  C12 UNL     1      25.158  22.687 -41.423  1.00  0.00     0.122 A 
HETATM    6  N5  UNL     1      24.582  21.698 -40.706  1.00  0.00    -0.309 N 
ATOM      7  H5  UNL     1      24.529  21.808 -39.693  1.00  0.00     0.186 HD
ENDROOT
BRANCH   1   8
HETATM    8  C7  UNL     1      23.475  19.566 -40.421  1.00  0.00     0.148 C 
BRANCH   8   9
HETATM    9  C6  UNL     1      22.217  19.141 -41.105  1.00  0.00     0.023 C 
BRANCH   9  10
HETATM   10  C5  UNL     1      20.959  19.666 -40.448  1.00  0.00     0.022 C 
BRANCH  10  11
HETATM   11  C4  UNL     1      20.092  20.369 -41.446  1.00  0.00     0.128 C 
BRANCH  11  12
HETATM   12  N1  UNL     1      20.687  21.498 -42.075  1.00  0.00    -0.366 N 
HETATM   13  C3  UNL     1      21.148  22.493 -41.283  1.00  0.00     0.099 A 
HETATM   14  C2  UNL     1      21.739  23.625 -41.807  1.00  0.00    -0.022 A 
HETATM   15  C1  UNL     1      22.248  24.722 -40.942  1.00  0.00     0.052 C 
HETATM   16  C15 UNL     1      21.880  23.778 -43.171  1.00  0.00     0.054 A 
HETATM   17  C14 UNL     1      21.408  22.762 -43.965  1.00  0.00     0.044 A 
HETATM   18  N6  UNL     1      22.485  24.933 -43.748  1.00  0.00    -0.102 NA
HETATM   19  C13 UNL     1      20.827  21.657 -43.396  1.00  0.00     0.092 A 
ENDBRANCH  11  12
ENDBRANCH  10  11
ENDBRANCH   9  10
ENDBRANCH   8   9
ENDBRANCH   1   8
BRANCH   4  20
HETATM   20  C11 UNL     1      25.867  23.622 -43.622  1.00  0.00     0.121 C 
HETATM   21  N3  UNL     1      25.354  24.052 -44.711  1.00  0.00    -0.387 N 
ATOM     22  H32 UNL     1      24.468  23.645 -45.013  1.00  0.00     0.157 HD
ATOM     23  H31 UNL     1      25.782  24.775 -45.289  1.00  0.00     0.157 HD
HETATM   24  N4  UNL     1      27.093  24.185 -43.205  1.00  0.00    -0.082 NA
ENDBRANCH   4  20
TORSDOF 6
ENDMDL
MODEL 3
REMARK VINA RESULT: -6.271243380      2.041      2.560
REMARK  6 active torsions:
REMARK  status: ('A' for Active; 'I' for Inactive)
REMARK    1  A    between atoms: N1_4  and  C4_5 
REMARK    2  A    between atoms: C4_5  and  C5_6 
REMARK    3  A    between atoms: C5_6  and  C6_7 
REMARK    4  A    between atoms: C6_7  and  C7_8 
REMARK    5  A    between atoms: C7_8  and  N2_9 
REMARK    6  A    between atoms: C10_12  and  C11_13 
ROOT
HETATM    1  N2  UNL     1      22.697  19.287 -41.200  1.00  0.00    -0.304 N 
HETATM    2  C8  UNL     1      23.120  20.239 -42.052  1.00  0.00     0.111 A 
HETATM    3  C9  UNL     1      24.436  20.670 -42.081  1.00  0.00     0.035 A 
HETATM    4  C10 UNL     1      25.360  20.121 -41.219  1.00  0.00     0.023 A 
HETATM    5  C12 UNL     1      24.891  19.145 -40.358  1.00  0.00     0.122 A 
HETATM    6  N5  UNL     1      23.593  18.774 -40.386  1.00  0.00    -0.309 N 
ATOM      7  H5  UNL     1      23.288  18.050 -39.734  1.00  0.00     0.186 HD
ENDROOT
BRANCH   1   8
HETATM    8  C7  UNL     1      21.313  18.854 -41.191  1.00  0.00     0.148 C 
BRANCH   8   9
HETATM    9  C6  UNL     1      20.731  19.184 -42.526  1.00  0.00     0.023 C 
BRANCH   9  10
HETATM   10  C5  UNL     1      19.391  19.882 -42.451  1.00  0.00     0.022 C 
BRANCH  10  11
HETATM   11  C4  UNL     1      19.450  21.219 -43.122  1.00  0.00     0.128 C 
BRANCH  11  12
HETATM   12  N1  UNL     1      20.340  22.157 -42.527  1.00  0.00    -0.366 N 
HETATM   13  C3  UNL     1      21.264  22.742 -43.323  1.00  0.00     0.099 A 
HETATM   14  C2  UNL     1      22.168  23.663 -42.832  1.00  0.00    -0.022 A 
HETATM   15  C1  UNL     1      23.186  24.310 -43.701  1.00  0.00     0.052 C 
HETATM   16  C15 UNL     1      22.156  24.019 -41.499  1.00  0.00     0.054 A 
HETATM   17  C14 UNL     1      21.213  23.417 -40.700  1.00  0.00     0.044 A 
HETATM   18  N6  UNL     1      23.074  24.966 -40.956  1.00  0.00    -0.102 NA
HETATM   19  C13 UNL     1      20.337  22.508 -41.236  1.00  0.00     0.092 A 
ENDBRANCH  11  12
ENDBRANCH  10  11
ENDBRANCH   9  10
ENDBRANCH   8   9
ENDBRANCH   1   8
BRANCH   4  20
HETATM   20  C11 UNL     1      26.745  20.561 -41.237  1.00  0.00     0.121 C 
HETATM   21  N3  UNL     1      27.567  20.273 -42.173  1.00  0.00    -0.387 N 
ATOM     22  H32 UNL     1      27.225  19.703 -42.947  1.00  0.00     0.157 HD
ATOM     23  H31 UNL     1      28.539  20.581 -42.185  1.00  0.00     0.157 HD
HETATM   24  N4  UNL     1      27.219  21.350 -40.166  1.00  0.00    -0.082 NA
ENDBRANCH   4  20
TORSDOF 6
ENDMDL
MODEL 4
REMARK VINA RESULT: -6.163794646      1.759      4.655
REMARK  6 active torsions:
REMARK  status: ('A' for Active; 'I' for Inactive)
REMARK    1  A    between atoms: N1_4  and  C4_5 
REMARK    2  A    between atoms: C4_5  and  C5_6 
REMARK    3  A    between atoms: C5_6  and  C6_7 
REMARK    4  A    between atoms: C6_7  and  C7_8 
REMARK    5  A    between atoms: C7_8  and  N2_9 
REMARK    6  A    between atoms: C10_12  and  C11_13 
ROOT
HETATM    1  N2  UNL     1      24.197  21.014 -41.256  1.00  0.00    -0.304 N 
HETATM    2  C8  UNL     1      23.584  20.418 -42.296  1.00  0.00     0.111 A 
HETATM    3  C9  UNL     1      22.499  19.575 -42.128  1.00  0.00     0.035 A 
HETATM    4  C10 UNL     1      22.012  19.323 -40.864  1.00  0.00     0.023 A 
HETATM    5  C12 UNL     1      22.664  19.952 -39.819  1.00  0.00     0.122 A 
HETATM    6  N5  UNL     1      23.719  20.762 -40.058  1.00  0.00    -0.309 N 
ATOM      7  H5  UNL     1      24.172  21.207 -39.259  1.00  0.00     0.186 HD
ENDROOT
BRANCH   1   8
HETATM    8  C7  UNL     1      25.332  21.892 -41.462  1.00  0.00     0.148 C 
BRANCH   8   9
HETATM    9  C6  UNL     1      25.024  22.755 -42.642  1.00  0.00     0.023 C 
BRANCH   9  10
HETATM   10  C5  UNL     1      24.639  24.172 -42.276  1.00  0.00     0.022 C 
BRANCH  10  11
HETATM   11  C4  UNL     1      23.303  24.525 -42.853  1.00  0.00     0.128 C 
BRANCH  11  12
HETATM   12  N1  UNL     1      22.206  23.780 -42.338  1.00  0.00    -0.366 N 
HETATM   13  C3  UNL     1      21.538  22.970 -43.191  1.00  0.00     0.099 A 
HETATM   14  C2  UNL     1      20.461  22.211 -42.780  1.00  0.00    -0.022 A 
HETATM   15  C1  UNL     1      19.723  21.318 -43.712  1.00  0.00     0.052 C 
HETATM   16  C15 UNL     1      20.027  22.255 -41.470  1.00  0.00     0.054 A 
HETATM   17  C14 UNL     1      20.713  23.082 -40.614  1.00  0.00     0.044 A 
HETATM   18  N6  UNL     1      18.919  21.486 -41.009  1.00  0.00    -0.102 NA
HETATM   19  C13 UNL     1      21.777  23.817 -41.072  1.00  0.00     0.092 A 
ENDBRANCH  11  12
ENDBRANCH  10  11
ENDBRANCH   9  10
ENDBRANCH   8   9
ENDBRANCH   1   8
BRANCH   4  20
HETATM   20  C11 UNL     1      20.873  18.442 -40.669  1.00  0.00     0.121 C 
HETATM   21  N3  UNL     1      19.839  18.762 -39.988  1.00  0.00    -0.387 N 
ATOM     22  H32 UNL     1      19.819  19.688 -39.562  1.00  0.00     0.157 HD
ATOM     23  H31 UNL     1      19.040  18.143 -39.851  1.00  0.00     0.157 HD
HETATM   24  N4  UNL     1      20.900  17.159 -41.259  1.00  0.00    -0.082 NA
ENDBRANCH   4  20
TORSDOF 6
ENDMDL
MODEL 5
REMARK VINA RESULT: -6.151713914      1.697      2.666
REMARK  6 active torsions:
REMARK  status: ('A' for Active; 'I' for Inactive)
REMARK    1  A    between atoms: N1_4  and  C4_5 
REMARK    2  A    between atoms: C4_5  and  C5_6 
REMARK    3  A    between atoms: C5_6  and  C6_7 
REMARK    4  A    between atoms: C6_7  and  C7_8 
REMARK    5  A    between atoms: C7_8  and  N2_9 
REMARK    6  A    between atoms: C10_12  and  C11_13 
ROOT
HETATM    1  N2  UNL     1      22.840  19.173 -41.171  1.00  0.00    -0.304 N 
HETATM    2  C8  UNL     1      23.132  20.195 -41.997  1.00  0.00     0.111 A 
HETATM    3  C9  UNL     1      24.394  20.764 -42.049  1.00  0.00     0.035 A 
HETATM    4  C10 UNL     1      25.400  20.282 -41.240  1.00  0.00     0.023 A 
HETATM    5  C12 UNL     1      25.066  19.232 -40.405  1.00  0.00     0.122 A 
HETATM    6  N5  UNL     1      23.812  18.727 -40.407  1.00  0.00    -0.309 N 
ATOM      7  H5  UNL     1      23.607  17.952 -39.776  1.00  0.00     0.186 HD
ENDROOT
BRANCH   1   8
HETATM    8  C7  UNL     1      21.510  18.598 -41.136  1.00  0.00     0.148 C 
BRANCH   8   9
HETATM    9  C6  UNL     1      20.590  19.629 -40.569  1.00  0.00     0.023 C 
BRANCH   9  10
HETATM   10  C5  UNL     1      19.514  20.082 -41.532  1.00  0.00     0.022 C 
BRANCH  10  11
HETATM   11  C4  UNL     1      19.362  21.571 -41.496  1.00  0.00     0.128 C 
BRANCH  11  12
HETATM   12  N1  UNL     1      20.409  22.302 -42.123  1.00  0.00    -0.366 N 
HETATM   13  C3  UNL     1      21.171  23.105 -41.346  1.00  0.00     0.099 A 
HETATM   14  C2  UNL     1      22.208  23.851 -41.868  1.00  0.00    -0.022 A 
HETATM   15  C1  UNL     1      23.050  24.737 -41.020  1.00  0.00     0.052 C 
HETATM   16  C15 UNL     1      22.504  23.799 -43.216  1.00  0.00     0.054 A 
HETATM   17  C14 UNL     1      21.723  22.980 -43.995  1.00  0.00     0.044 A 
HETATM   18  N6  UNL     1      23.567  24.555 -43.791  1.00  0.00    -0.102 NA
HETATM   19  C13 UNL     1      20.703  22.259 -43.427  1.00  0.00     0.092 A 
ENDBRANCH  11  12
ENDBRANCH  10  11
ENDBRANCH   9  10
ENDBRANCH   8   9
ENDBRANCH   1   8
BRANCH   4  20
HETATM   20  C11 UNL     1      26.731  20.866 -41.283  1.00  0.00     0.121 C 
HETATM   21  N3  UNL     1      27.424  20.968 -42.353  1.00  0.00    -0.387 N 
ATOM     22  H32 UNL     1      27.014  20.620 -43.220  1.00  0.00     0.157 HD
ATOM     23  H31 UNL     1      28.357  21.377 -42.383  1.00  0.00     0.157 HD
HETATM   24  N4  UNL     1      27.298  21.348 -40.083  1.00  0.00    -0.082 NA
ENDBRANCH   4  20
TORSDOF 6
ENDMDL
