MODEL 1
REMARK VINA RESULT: -7.518751401      0.000      0.000
REMARK  6 active torsions:
REMARK  status: ('A' for Active; 'I' for Inactive)
REMARK    1  A    between atoms: C6_6  and  C7_7 
REMARK    2  A    between atoms: C7_7  and  C8_8 
REMARK    3  A    between atoms: C8_8  and  C9_9 
REMARK    4  A    between atoms: C9_9  and  C10_10 
REMARK    5  A    between atoms: C10_10  and  C11_11 
REMARK    6  A    between atoms: C11_11  and  C12_12 
ROOT
HETATM    1  C9  UNL     1      22.492  23.604 -41.067  1.00  0.00     0.004 C 
ENDROOT
BRANCH   1   2
HETATM    2  C8  UNL     1      21.094  24.077 -40.895  1.00  0.00     0.005 C 
BRANCH   2   3
HETATM    3  C7  UNL     1      20.243  22.969 -40.260  1.00  0.00     0.041 C 
BRANCH   3   4
HETATM    4  C6  UNL     1      20.184  21.728 -41.045  1.00  0.00    -0.031 A 
HETATM    5  C5  UNL     1      19.586  21.768 -42.259  1.00  0.00     0.009 A 
HETATM    6  C4  UNL     1      19.466  20.616 -43.128  1.00  0.00     0.002 A 
HETATM    7  C3  UNL     1      19.950  19.437 -42.768  1.00  0.00     0.013 A 
HETATM    8  C2  UNL     1      20.616  19.283 -41.486  1.00  0.00    -0.019 A 
HETATM    9  C1  UNL     1      21.119  18.134 -41.076  1.00  0.00     0.026 C 
HETATM   10  C15 UNL     1      20.742  20.462 -40.593  1.00  0.00     0.041 A 
HETATM   11  N3  UNL     1      21.375  20.266 -39.511  1.00  0.00    -0.398 N 
ATOM     12  H32 UNL     1      21.766  19.379 -39.194  1.00  0.00     0.156 HD
ATOM     13  H31 UNL     1      21.462  21.075 -38.897  1.00  0.00     0.156 HD
ENDBRANCH   3   4
ENDBRANCH   2   3
ENDBRANCH   1   2
BRANCH   1  14
HETATM   14  C10 UNL     1      23.077  23.474 -42.395  1.00  0.00     0.049 C 
BRANCH  14  15
HETATM   15  C11 UNL     1      24.316  24.155 -42.804  1.00  0.00     0.169 C 
HETATM   16  N1  UNL     1      24.406  24.006 -44.287  1.00  0.00    -0.319 N 
HETATM   17  C13 UNL     1      25.790  24.077 -44.597  1.00  0.00     0.324 C 
ATOM     18  H1  UNL     1      23.634  23.879 -44.942  1.00  0.00     0.166 HD
HETATM   19  O2  UNL     1      26.254  24.435 -45.710  1.00  0.00    -0.247 OA
HETATM   20  N2  UNL     1      26.492  23.670 -43.415  1.00  0.00    -0.277 N 
HETATM   21  C14 UNL     1      25.542  23.356 -42.403  1.00  0.00     0.261 C 
ATOM     22  H2  UNL     1      27.505  23.614 -43.315  1.00  0.00     0.173 HD
HETATM   23  O3  UNL     1      25.699  22.599 -41.421  1.00  0.00    -0.270 OA
BRANCH  15  24
HETATM   24  C12 UNL     1      24.497  25.570 -42.504  1.00  0.00     0.272 C 
HETATM   25  O1  UNL     1      25.136  25.899 -41.477  1.00  0.00    -0.304 OA
ENDBRANCH  15  24
ENDBRANCH  14  15
ENDBRANCH   1  14
TORSDOF 6
ENDMDL
MODEL 2
REMARK VINA RESULT: -7.401142521      1.378      1.449
REMARK  6 active torsions:
REMARK  status: ('A' for Active; 'I' for Inactive)
REMARK    1  A    between atoms: C6_6  and  C7_7 
REMARK    2  A    between atoms: C7_7  and  C8_8 
REMARK    3  A    between atoms: C8_8  and  C9_9 
REMARK    4  A    between atoms: C9_9  and  C10_10 
REMARK    5  A    between atoms: C10_10  and  C11_11 
REMARK    6  A    between atoms: C11_11  and  C12_12 
ROOT
HETATM    1  C9  UNL     1      22.693  23.265 -41.306  1.00  0.00     0.004 C 
ENDROOT
BRANCH   1   2
HETATM    2  C8  UNL     1      21.452  23.997 -40.942  1.00  0.00     0.005 C 
BRANCH   2   3
HETATM    3  C7  UNL     1      20.425  23.022 -40.351  1.00  0.00     0.041 C 
BRANCH   3   4
HETATM    4  C6  UNL     1      20.285  21.766 -41.100  1.00  0.00    -0.031 A 
HETATM    5  C5  UNL     1      19.684  21.810 -42.314  1.00  0.00     0.009 A 
HETATM    6  C4  UNL     1      19.488  20.644 -43.150  1.00  0.00     0.002 A 
HETATM    7  C3  UNL     1      19.898  19.447 -42.759  1.00  0.00     0.013 A 
HETATM    8  C2  UNL     1      20.560  19.287 -41.475  1.00  0.00    -0.019 A 
HETATM    9  C1  UNL     1      20.991  18.120 -41.034  1.00  0.00     0.026 C 
HETATM   10  C15 UNL     1      20.764  20.480 -40.615  1.00  0.00     0.041 A 
HETATM   11  N3  UNL     1      21.389  20.274 -39.530  1.00  0.00    -0.398 N 
ATOM     12  H32 UNL     1      21.725  19.374 -39.190  1.00  0.00     0.156 HD
ATOM     13  H31 UNL     1      21.529  21.094 -38.939  1.00  0.00     0.156 HD
ENDBRANCH   3   4
ENDBRANCH   2   3
ENDBRANCH   1   2
BRANCH   1  14
HETATM   14  C10 UNL     1      23.887  23.986 -41.726  1.00  0.00     0.049 C 
BRANCH  14  15
HETATM   15  C11 UNL     1      24.885  23.428 -42.653  1.00  0.00     0.169 C 
HETATM   16  N1  UNL     1      24.119  22.670 -43.687  1.00  0.00    -0.319 N 
HETATM   17  C13 UNL     1      25.008  21.673 -44.169  1.00  0.00     0.324 C 
ATOM     18  H1  UNL     1      23.158  22.834 -43.985  1.00  0.00     0.166 HD
HETATM   19  O2  UNL     1      24.931  21.138 -45.305  1.00  0.00    -0.247 OA
HETATM   20  N2  UNL     1      25.957  21.434 -43.121  1.00  0.00    -0.277 N 
HETATM   21  C14 UNL     1      25.644  22.277 -42.019  1.00  0.00     0.261 C 
ATOM     22  H2  UNL     1      26.729  20.770 -43.159  1.00  0.00     0.173 HD
HETATM   23  O3  UNL     1      25.936  22.098 -40.817  1.00  0.00    -0.270 OA
BRANCH  15  24
HETATM   24  C12 UNL     1      25.793  24.321 -43.362  1.00  0.00     0.272 C 
HETATM   25  O1  UNL     1      27.008  24.329 -43.052  1.00  0.00    -0.304 OA
ENDBRANCH  15  24
ENDBRANCH  14  15
ENDBRANCH   1  14
TORSDOF 6
ENDMDL
MODEL 3
REMARK VINA RESULT: -7.330113417      2.571      3.258
REMARK  6 active torsions:
REMARK  status: ('A' for Active; 'I' for Inactive)
REMARK    1  A    between atoms: C6_6  and  C7_7 
REMARK    2  A    between atoms: C7_7  and  C8_8 
REMARK    3  A    between atoms: C8_8  and  C9_9 
REMARK    4  A    between atoms: C9_9  and  C10_10 
REMARK    5  A    between atoms: C10_10  and  C11_11 
REMARK    6  A    between atoms: C11_11  and  C12_12 
ROOT
HETATM    1  C9  UNL     1      23.909  22.859 -41.393  1.00  0.00     0.004 C 
ENDROOT
BRANCH   1   2
HETATM    2  C8  UNL     1      22.768  23.686 -41.867  1.00  0.00     0.005 C 
BRANCH   2   3
HETATM    3  C7  UNL     1      21.485  23.274 -41.133  1.00  0.00     0.041 C 
BRANCH   3   4
HETATM    4  C6  UNL     1      20.955  21.963 -41.534  1.00  0.00    -0.031 A 
HETATM    5  C5  UNL     1      20.396  21.849 -42.763  1.00  0.00     0.009 A 
HETATM    6  C4  UNL     1      19.841  20.613 -43.275  1.00  0.00     0.002 A 
HETATM    7  C3  UNL     1      19.854  19.506 -42.549  1.00  0.00     0.013 A 
HETATM    8  C2  UNL     1      20.434  19.516 -41.217  1.00  0.00    -0.019 A 
HETATM    9  C1  UNL     1      20.476  18.443 -40.449  1.00  0.00     0.026 C 
HETATM   10  C15 UNL     1      21.005  20.780 -40.687  1.00  0.00     0.041 A 
HETATM   11  N3  UNL     1      21.536  20.704 -39.537  1.00  0.00    -0.398 N 
ATOM     12  H32 UNL     1      21.571  19.875 -38.944  1.00  0.00     0.156 HD
ATOM     13  H31 UNL     1      21.928  21.572 -39.173  1.00  0.00     0.156 HD
ENDBRANCH   3   4
ENDBRANCH   2   3
ENDBRANCH   1   2
BRANCH   1  14
HETATM   14  C10 UNL     1      24.391  21.733 -42.181  1.00  0.00     0.049 C 
BRANCH  14  15
HETATM   15  C11 UNL     1      25.588  20.952 -41.829  1.00  0.00     0.169 C 
HETATM   16  N1  UNL     1      26.059  20.314 -43.095  1.00  0.00    -0.319 N 
HETATM   17  C13 UNL     1      26.757  19.143 -42.698  1.00  0.00     0.324 C 
ATOM     18  H1  UNL     1      25.911  20.650 -44.046  1.00  0.00     0.166 HD
HETATM   19  O2  UNL     1      27.657  18.585 -43.376  1.00  0.00    -0.247 OA
HETATM   20  N2  UNL     1      26.227  18.769 -41.419  1.00  0.00    -0.277 N 
HETATM   21  C14 UNL     1      25.220  19.704 -41.048  1.00  0.00     0.261 C 
ATOM     22  H2  UNL     1      26.522  17.965 -40.865  1.00  0.00     0.173 HD
HETATM   23  O3  UNL     1      24.267  19.523 -40.262  1.00  0.00    -0.270 OA
BRANCH  15  24
HETATM   24  C12 UNL     1      26.737  21.619 -41.232  1.00  0.00     0.272 C 
HETATM   25  O1  UNL     1      27.031  21.377 -40.037  1.00  0.00    -0.304 OA
ENDBRANCH  15  24
ENDBRANCH  14  15
ENDBRANCH   1  14
TORSDOF 6
ENDMDL
MODEL 4
REMARK VINA RESULT: -7.307134818      1.605      2.641
REMARK  6 active torsions:
REMARK  status: ('A' for Active; 'I' for Inactive)
REMARK    1  A    between atoms: C6_6  and  C7_7 
REMARK    2  A    between atoms: C7_7  and  C8_8 
REMARK    3  A    between atoms: C8_8  and  C9_9 
REMARK    4  A    between atoms: C9_9  and  C10_10 
REMARK    5  A    between atoms: C10_10  and  C11_11 
REMARK    6  A    between atoms: C11_11  and  C12_12 
ROOT
HETATM    1  C9  UNL     1      22.483  23.855 -41.047  1.00  0.00     0.004 C 
ENDROOT
BRANCH   1   2
HETATM    2  C8  UNL     1      21.027  24.133 -40.940  1.00  0.00     0.005 C 
BRANCH   2   3
HETATM    3  C7  UNL     1      20.327  22.975 -40.216  1.00  0.00     0.041 C 
BRANCH   3   4
HETATM    4  C6  UNL     1      20.226  21.742 -41.008  1.00  0.00    -0.031 A 
HETATM    5  C5  UNL     1      19.594  21.800 -42.204  1.00  0.00     0.009 A 
HETATM    6  C4  UNL     1      19.430  20.656 -43.077  1.00  0.00     0.002 A 
HETATM    7  C3  UNL     1      19.906  19.467 -42.740  1.00  0.00     0.013 A 
HETATM    8  C2  UNL     1      20.606  19.293 -41.479  1.00  0.00    -0.019 A 
HETATM    9  C1  UNL     1      21.102  18.133 -41.093  1.00  0.00     0.026 C 
HETATM   10  C15 UNL     1      20.777  20.463 -40.581  1.00  0.00     0.041 A 
HETATM   11  N3  UNL     1      21.438  20.249 -39.520  1.00  0.00    -0.398 N 
ATOM     12  H32 UNL     1      21.824  19.354 -39.221  1.00  0.00     0.156 HD
ATOM     13  H31 UNL     1      21.555  21.052 -38.903  1.00  0.00     0.156 HD
ENDBRANCH   3   4
ENDBRANCH   2   3
ENDBRANCH   1   2
BRANCH   1  14
HETATM   14  C10 UNL     1      23.057  23.356 -42.290  1.00  0.00     0.049 C 
BRANCH  14  15
HETATM   15  C11 UNL     1      24.085  22.303 -42.342  1.00  0.00     0.169 C 
HETATM   16  N1  UNL     1      24.684  22.234 -40.976  1.00  0.00    -0.319 N 
HETATM   17  C13 UNL     1      26.000  21.733 -41.159  1.00  0.00     0.324 C 
ATOM     18  H1  UNL     1      24.241  22.494 -40.096  1.00  0.00     0.166 HD
HETATM   19  O2  UNL     1      26.658  21.120 -40.279  1.00  0.00    -0.247 OA
HETATM   20  N2  UNL     1      26.378  22.067 -42.502  1.00  0.00    -0.277 N 
HETATM   21  C14 UNL     1      25.304  22.762 -43.122  1.00  0.00     0.261 C 
ATOM     22  H2  UNL     1      27.271  21.842 -42.940  1.00  0.00     0.173 HD
HETATM   23  O3  UNL     1      25.366  23.559 -44.082  1.00  0.00    -0.270 OA
BRANCH  15  24
HETATM   24  C12 UNL     1      23.711  20.945 -42.715  1.00  0.00     0.272 C 
HETATM   25  O1  UNL     1      22.981  20.767 -43.719  1.00  0.00    -0.304 OA
ENDBRANCH  15  24
ENDBRANCH  14  15
ENDBRANCH   1  14
TORSDOF 6
ENDMDL
MODEL 5
REMARK VINA RESULT: -7.247820543      2.159      2.861
REMARK  6 active torsions:
REMARK  status: ('A' for Active; 'I' for Inactive)
REMARK    1  A    between atoms: C6_6  and  C7_7 
REMARK    2  A    between atoms: C7_7  and  C8_8 
REMARK    3  A    between atoms: C8_8  and  C9_9 
REMARK    4  A    between atoms: C9_9  and  C10_10 
REMARK    5  A    between atoms: C10_10  and  C11_11 
REMARK    6  A    between atoms: C11_11  and  C12_12 
ROOT
HETATM    1  C9  UNL     1      22.688  24.346 -44.510  1.00  0.00     0.004 C 
ENDROOT
BRANCH   1   2
HETATM    2  C8  UNL     1      21.359  23.765 -44.834  1.00  0.00     0.005 C 
BRANCH   2   3
HETATM    3  C7  UNL     1      21.462  22.236 -44.905  1.00  0.00     0.041 C 
BRANCH   3   4
HETATM    4  C6  UNL     1      21.037  21.545 -43.680  1.00  0.00    -0.031 A 
HETATM    5  C5  UNL     1      19.765  21.727 -43.252  1.00  0.00     0.009 A 
HETATM    6  C4  UNL     1      19.225  21.101 -42.063  1.00  0.00     0.002 A 
HETATM    7  C3  UNL     1      19.969  20.297 -41.318  1.00  0.00     0.013 A 
HETATM    8  C2  UNL     1      21.347  20.028 -41.689  1.00  0.00    -0.019 A 
HETATM    9  C1  UNL     1      22.134  19.235 -40.986  1.00  0.00     0.026 C 
HETATM   10  C15 UNL     1      21.905  20.667 -42.908  1.00  0.00     0.041 A 
HETATM   11  N3  UNL     1      23.099  20.351 -43.197  1.00  0.00    -0.398 N 
ATOM     12  H32 UNL     1      23.706  19.736 -42.656  1.00  0.00     0.156 HD
ATOM     13  H31 UNL     1      23.482  20.790 -44.033  1.00  0.00     0.156 HD
ENDBRANCH   3   4
ENDBRANCH   2   3
ENDBRANCH   1   2
BRANCH   1  14
HETATM   14  C10 UNL     1      22.890  25.107 -43.284  1.00  0.00     0.049 C 
BRANCH  14  15
HETATM   15  C11 UNL     1      23.743  24.647 -42.177  1.00  0.00     0.169 C 
HETATM   16  N1  UNL     1      24.733  23.702 -42.775  1.00  0.00    -0.319 N 
HETATM   17  C13 UNL     1      25.111  22.825 -41.724  1.00  0.00     0.324 C 
ATOM     18  H1  UNL     1      25.068  23.689 -43.738  1.00  0.00     0.166 HD
HETATM   19  O2  UNL     1      26.203  22.202 -41.673  1.00  0.00    -0.247 OA
HETATM   20  N2  UNL     1      24.023  22.819 -40.790  1.00  0.00    -0.277 N 
HETATM   21  C14 UNL     1      23.000  23.681 -41.272  1.00  0.00     0.261 C 
ATOM     22  H2  UNL     1      23.988  22.284 -39.923  1.00  0.00     0.173 HD
HETATM   23  O3  UNL     1      21.780  23.640 -41.003  1.00  0.00    -0.270 OA
BRANCH  15  24
HETATM   24  C12 UNL     1      24.497  25.617 -41.393  1.00  0.00     0.272 C 
HETATM   25  O1  UNL     1      24.263  25.724 -40.166  1.00  0.00    -0.304 OA
ENDBRANCH  15  24
ENDBRANCH  14  15
ENDBRANCH   1  14
TORSDOF 6
ENDMDL
