MODEL 1
REMARK VINA RESULT: -6.904403841      0.000      0.000
REMARK  8 active torsions:
REMARK  status: ('A' for Active; 'I' for Inactive)
REMARK    1  A    between atoms: C12_17  and  C13_18 
REMARK    2  A    between atoms: C13_18  and  C14_19 
REMARK    3  A    between atoms: C14_19  and  C15_20 
REMARK    4  A    between atoms: C15_20  and  C16_21 
REMARK    5  A    between atoms: C16_21  and  C17_22 
REMARK    6  A    between atoms: C17_22  and  O1_23 
REMARK    7  A    between atoms: C18_26  and  C19_27 
REMARK    8  A    between atoms: C19_27  and  O3_28 
ROOT
HETATM    1  N1  UNL     1      -5.368  30.741  10.836  1.00  0.00    -0.191 NA
HETATM    2  C1  UNL     1      -5.010  31.675  10.252  1.00  0.00     0.099 C 
HETATM    3  C2  UNL     1      -4.559  32.836   9.518  1.00  0.00     0.045 A 
HETATM    4  C3  UNL     1      -3.517  33.572  10.057  1.00  0.00     0.025 A 
HETATM    5  C4  UNL     1      -3.039  34.695   9.402  1.00  0.00     0.032 A 
HETATM    6  C5  UNL     1      -3.614  35.084   8.192  1.00  0.00     0.044 A 
HETATM    7  N2  UNL     1      -3.348  36.116   7.361  1.00  0.00    -0.352 N 
ATOM      8  H2  UNL     1      -2.625  36.818   7.513  1.00  0.00     0.166 HD
HETATM    9  C6  UNL     1      -4.178  36.078   6.302  1.00  0.00     0.092 A 
HETATM   10  C7  UNL     1      -4.983  34.995   6.478  1.00  0.00     0.022 A 
HETATM   11  C8  UNL     1      -4.650  34.339   7.672  1.00  0.00     0.006 A 
HETATM   12  C9  UNL     1      -5.127  33.221   8.323  1.00  0.00     0.037 A 
HETATM   13  C10 UNL     1      -6.070  34.499   5.600  1.00  0.00     0.098 C 
HETATM   14  N3  UNL     1      -6.307  35.388   4.585  1.00  0.00    -0.390 N 
ATOM     15  H3  UNL     1      -7.175  35.924   4.598  1.00  0.00     0.159 HD
HETATM   16  C11 UNL     1      -5.384  35.597   3.499  1.00  0.00     0.124 C 
HETATM   17  C12 UNL     1      -6.273  35.544   2.290  1.00  0.00     0.145 C 
HETATM   18  O2  UNL     1      -5.802  35.575   1.050  1.00  0.00    -0.374 OA
HETATM   19  C18 UNL     1      -5.588  36.715   0.320  1.00  0.00     0.174 C 
HETATM   20  C20 UNL     1      -5.005  37.614   1.296  1.00  0.00     0.153 C 
HETATM   21  C21 UNL     1      -4.321  38.874   1.086  1.00  0.00     0.037 C 
HETATM   22  C22 UNL     1      -3.827  38.961   2.568  1.00  0.00     0.035 C 
HETATM   23  C23 UNL     1      -3.748  37.482   2.968  1.00  0.00     0.136 C 
HETATM   24  O4  UNL     1      -3.877  36.867   1.767  1.00  0.00    -0.377 OA
HETATM   25  C24 UNL     1      -4.830  36.982   3.838  1.00  0.00     0.116 C 
HETATM   26  C25 UNL     1      -4.209  36.998   5.210  1.00  0.00     0.185 C 
HETATM   27  O5  UNL     1      -3.581  38.075   5.413  1.00  0.00    -0.290 OA
ENDROOT
BRANCH  17  28
HETATM   28  C13 UNL     1      -6.970  34.176   2.321  1.00  0.00     0.034 C 
BRANCH  28  29
HETATM   29  C14 UNL     1      -8.122  34.004   1.412  1.00  0.00     0.003 C 
BRANCH  29  30
HETATM   30  C15 UNL     1      -7.899  33.086   0.235  1.00  0.00     0.002 C 
BRANCH  30  31
HETATM   31  C16 UNL     1      -8.007  33.775  -1.096  1.00  0.00     0.026 C 
BRANCH  31  32
HETATM   32  C17 UNL     1      -6.660  33.730  -1.802  1.00  0.00     0.164 C 
BRANCH  32  33
HETATM   33  O1  UNL     1      -5.694  33.328  -0.881  1.00  0.00    -0.401 OA
ATOM     34  H1  UNL     1      -5.521  34.053  -0.293  1.00  0.00     0.209 HD
ENDBRANCH  32  33
ENDBRANCH  31  32
ENDBRANCH  30  31
ENDBRANCH  29  30
ENDBRANCH  28  29
ENDBRANCH  17  28
BRANCH  19  35
HETATM   35  C19 UNL     1      -6.837  37.230  -0.320  1.00  0.00     0.198 C 
BRANCH  35  36
HETATM   36  O3  UNL     1      -6.698  37.370  -1.675  1.00  0.00    -0.398 OA
ATOM     37  H3  UNL     1      -7.508  37.643  -2.089  1.00  0.00     0.209 HD
ENDBRANCH  35  36
ENDBRANCH  19  35
TORSDOF 8
ENDMDL
MODEL 2
REMARK VINA RESULT: -6.875342256      3.295      8.279
REMARK  8 active torsions:
REMARK  status: ('A' for Active; 'I' for Inactive)
REMARK    1  A    between atoms: C12_17  and  C13_18 
REMARK    2  A    between atoms: C13_18  and  C14_19 
REMARK    3  A    between atoms: C14_19  and  C15_20 
REMARK    4  A    between atoms: C15_20  and  C16_21 
REMARK    5  A    between atoms: C16_21  and  C17_22 
REMARK    6  A    between atoms: C17_22  and  O1_23 
REMARK    7  A    between atoms: C18_26  and  C19_27 
REMARK    8  A    between atoms: C19_27  and  O3_28 
ROOT
HETATM    1  N1  UNL     1      -6.641  33.636  -1.106  1.00  0.00    -0.191 NA
HETATM    2  C1  UNL     1      -6.618  34.445  -0.278  1.00  0.00     0.099 C 
HETATM    3  C2  UNL     1      -6.594  35.452   0.760  1.00  0.00     0.045 A 
HETATM    4  C3  UNL     1      -7.213  36.662   0.496  1.00  0.00     0.025 A 
HETATM    5  C4  UNL     1      -7.225  37.666   1.450  1.00  0.00     0.032 A 
HETATM    6  C5  UNL     1      -6.608  37.454   2.682  1.00  0.00     0.044 A 
HETATM    7  N2  UNL     1      -6.474  38.246   3.769  1.00  0.00    -0.352 N 
ATOM      8  H2  UNL     1      -6.838  39.196   3.850  1.00  0.00     0.166 HD
HETATM    9  C6  UNL     1      -5.790  37.597   4.729  1.00  0.00     0.092 A 
HETATM   10  C7  UNL     1      -5.490  36.368   4.228  1.00  0.00     0.022 A 
HETATM   11  C8  UNL     1      -5.996  36.244   2.927  1.00  0.00     0.006 A 
HETATM   12  C9  UNL     1      -5.984  35.242   1.978  1.00  0.00     0.037 A 
HETATM   13  C10 UNL     1      -4.749  35.260   4.879  1.00  0.00     0.098 C 
HETATM   14  N3  UNL     1      -4.226  35.674   6.075  1.00  0.00    -0.390 N 
ATOM     15  H3  UNL     1      -3.215  35.792   6.150  1.00  0.00     0.159 HD
HETATM   16  C11 UNL     1      -5.040  35.948   7.231  1.00  0.00     0.124 C 
HETATM   17  C12 UNL     1      -4.317  35.221   8.329  1.00  0.00     0.145 C 
HETATM   18  O2  UNL     1      -4.801  35.115   9.560  1.00  0.00    -0.374 OA
HETATM   19  C18 UNL     1      -4.570  36.007  10.574  1.00  0.00     0.174 C 
HETATM   20  C20 UNL     1      -4.681  37.287   9.904  1.00  0.00     0.153 C 
HETATM   21  C21 UNL     1      -4.801  38.612  10.476  1.00  0.00     0.037 C 
HETATM   22  C22 UNL     1      -5.134  39.280   9.101  1.00  0.00     0.035 C 
HETATM   23  C23 UNL     1      -5.789  38.124   8.334  1.00  0.00     0.136 C 
HETATM   24  O4  UNL     1      -5.988  37.218   9.322  1.00  0.00    -0.377 OA
HETATM   25  C24 UNL     1      -4.960  37.474   7.300  1.00  0.00     0.116 C 
HETATM   26  C25 UNL     1      -5.446  38.101   6.020  1.00  0.00     0.185 C 
HETATM   27  O5  UNL     1      -5.566  39.353   6.143  1.00  0.00    -0.290 OA
ENDROOT
BRANCH  17  28
HETATM   28  C13 UNL     1      -4.239  33.749   7.899  1.00  0.00     0.034 C 
BRANCH  28  29
HETATM   29  C14 UNL     1      -5.527  33.049   7.712  1.00  0.00     0.003 C 
BRANCH  29  30
HETATM   30  C15 UNL     1      -5.680  31.744   8.454  1.00  0.00     0.002 C 
BRANCH  30  31
HETATM   31  C16 UNL     1      -4.636  31.526   9.512  1.00  0.00     0.026 C 
BRANCH  31  32
HETATM   32  C17 UNL     1      -5.290  31.552  10.886  1.00  0.00     0.164 C 
BRANCH  32  33
HETATM   33  O1  UNL     1      -4.353  31.131  11.827  1.00  0.00    -0.401 OA
ATOM     34  H1  UNL     1      -4.771  31.116  12.680  1.00  0.00     0.209 HD
ENDBRANCH  32  33
ENDBRANCH  31  32
ENDBRANCH  30  31
ENDBRANCH  29  30
ENDBRANCH  28  29
ENDBRANCH  17  28
BRANCH  19  35
HETATM   35  C19 UNL     1      -3.256  35.779  11.250  1.00  0.00     0.198 C 
BRANCH  35  36
HETATM   36  O3  UNL     1      -3.000  34.447  11.439  1.00  0.00    -0.398 OA
ATOM     37  H3  UNL     1      -2.112  34.218  11.195  1.00  0.00     0.209 HD
ENDBRANCH  35  36
ENDBRANCH  19  35
TORSDOF 8
ENDMDL
MODEL 3
REMARK VINA RESULT: -6.740672599      1.360      1.597
REMARK  8 active torsions:
REMARK  status: ('A' for Active; 'I' for Inactive)
REMARK    1  A    between atoms: C12_17  and  C13_18 
REMARK    2  A    between atoms: C13_18  and  C14_19 
REMARK    3  A    between atoms: C14_19  and  C15_20 
REMARK    4  A    between atoms: C15_20  and  C16_21 
REMARK    5  A    between atoms: C16_21  and  C17_22 
REMARK    6  A    between atoms: C17_22  and  O1_23 
REMARK    7  A    between atoms: C18_26  and  C19_27 
REMARK    8  A    between atoms: C19_27  and  O3_28 
ROOT
HETATM    1  N1  UNL     1      -5.220  30.432   9.628  1.00  0.00    -0.191 NA
HETATM    2  C1  UNL     1      -4.993  31.518   9.297  1.00  0.00     0.099 C 
HETATM    3  C2  UNL     1      -4.704  32.872   8.879  1.00  0.00     0.045 A 
HETATM    4  C3  UNL     1      -3.927  33.652   9.719  1.00  0.00     0.025 A 
HETATM    5  C4  UNL     1      -3.615  34.957   9.374  1.00  0.00     0.032 A 
HETATM    6  C5  UNL     1      -4.090  35.485   8.174  1.00  0.00     0.044 A 
HETATM    7  N2  UNL     1      -3.939  36.702   7.605  1.00  0.00    -0.352 N 
ATOM      8  H2  UNL     1      -3.410  37.475   8.009  1.00  0.00     0.166 HD
HETATM    9  C6  UNL     1      -4.590  36.743   6.428  1.00  0.00     0.092 A 
HETATM   10  C7  UNL     1      -5.161  35.519   6.258  1.00  0.00     0.022 A 
HETATM   11  C8  UNL     1      -4.862  34.694   7.352  1.00  0.00     0.006 A 
HETATM   12  C9  UNL     1      -5.173  33.394   7.693  1.00  0.00     0.037 A 
HETATM   13  C10 UNL     1      -5.988  35.034   5.126  1.00  0.00     0.098 C 
HETATM   14  N3  UNL     1      -6.268  36.061   4.265  1.00  0.00    -0.390 N 
ATOM     15  H3  UNL     1      -7.224  36.415   4.223  1.00  0.00     0.159 HD
HETATM   16  C11 UNL     1      -5.272  36.663   3.416  1.00  0.00     0.124 C 
HETATM   17  C12 UNL     1      -5.956  36.710   2.080  1.00  0.00     0.145 C 
HETATM   18  O2  UNL     1      -5.337  37.091   0.970  1.00  0.00    -0.374 OA
HETATM   19  C18 UNL     1      -5.274  38.380   0.509  1.00  0.00     0.174 C 
HETATM   20  C20 UNL     1      -5.035  39.140   1.721  1.00  0.00     0.153 C 
HETATM   21  C21 UNL     1      -4.614  40.518   1.869  1.00  0.00     0.037 C 
HETATM   22  C22 UNL     1      -4.357  40.374   3.406  1.00  0.00     0.035 C 
HETATM   23  C23 UNL     1      -4.019  38.883   3.536  1.00  0.00     0.136 C 
HETATM   24  O4  UNL     1      -3.849  38.526   2.239  1.00  0.00    -0.377 OA
HETATM   25  C24 UNL     1      -5.078  38.020   4.094  1.00  0.00     0.116 C 
HETATM   26  C25 UNL     1      -4.667  37.854   5.534  1.00  0.00     0.185 C 
HETATM   27  O5  UNL     1      -4.318  38.958   6.039  1.00  0.00    -0.290 OA
ENDROOT
BRANCH  17  28
HETATM   28  C13 UNL     1      -6.342  35.264   1.737  1.00  0.00     0.034 C 
BRANCH  28  29
HETATM   29  C14 UNL     1      -7.630  35.075   1.040  1.00  0.00     0.003 C 
BRANCH  29  30
HETATM   30  C15 UNL     1      -7.598  34.173  -0.170  1.00  0.00     0.002 C 
BRANCH  30  31
HETATM   31  C16 UNL     1      -7.961  32.746   0.132  1.00  0.00     0.026 C 
BRANCH  31  32
HETATM   32  C17 UNL     1      -8.813  32.694   1.392  1.00  0.00     0.164 C 
BRANCH  32  33
HETATM   33  O1  UNL     1      -9.851  31.788   1.183  1.00  0.00    -0.401 OA
ATOM     34  H1  UNL     1      -9.550  31.121   0.578  1.00  0.00     0.209 HD
ENDBRANCH  32  33
ENDBRANCH  31  32
ENDBRANCH  30  31
ENDBRANCH  29  30
ENDBRANCH  28  29
ENDBRANCH  17  28
BRANCH  19  35
HETATM   35  C19 UNL     1      -6.505  38.785  -0.236  1.00  0.00     0.198 C 
BRANCH  35  36
HETATM   36  O3  UNL     1      -6.927  37.807  -1.097  1.00  0.00    -0.398 OA
ATOM     37  H3  UNL     1      -7.591  37.252  -0.706  1.00  0.00     0.209 HD
ENDBRANCH  35  36
ENDBRANCH  19  35
TORSDOF 8
ENDMDL
MODEL 4
REMARK VINA RESULT: -6.662097315      1.928      2.618
REMARK  8 active torsions:
REMARK  status: ('A' for Active; 'I' for Inactive)
REMARK    1  A    between atoms: C12_17  and  C13_18 
REMARK    2  A    between atoms: C13_18  and  C14_19 
REMARK    3  A    between atoms: C14_19  and  C15_20 
REMARK    4  A    between atoms: C15_20  and  C16_21 
REMARK    5  A    between atoms: C16_21  and  C17_22 
REMARK    6  A    between atoms: C17_22  and  O1_23 
REMARK    7  A    between atoms: C18_26  and  C19_27 
REMARK    8  A    between atoms: C19_27  and  O3_28 
ROOT
HETATM    1  N1  UNL     1      -4.749  31.663   8.882  1.00  0.00    -0.191 NA
HETATM    2  C1  UNL     1      -4.881  32.708   8.399  1.00  0.00     0.099 C 
HETATM    3  C2  UNL     1      -5.038  34.011   7.793  1.00  0.00     0.045 A 
HETATM    4  C3  UNL     1      -4.801  35.121   8.586  1.00  0.00     0.025 A 
HETATM    5  C4  UNL     1      -4.935  36.397   8.064  1.00  0.00     0.032 A 
HETATM    6  C5  UNL     1      -5.311  36.561   6.731  1.00  0.00     0.044 A 
HETATM    7  N2  UNL     1      -5.511  37.668   5.983  1.00  0.00    -0.352 N 
ATOM      8  H2  UNL     1      -5.405  38.626   6.315  1.00  0.00     0.166 HD
HETATM    9  C6  UNL     1      -5.869  37.319   4.733  1.00  0.00     0.092 A 
HETATM   10  C7  UNL     1      -5.894  35.959   4.701  1.00  0.00     0.022 A 
HETATM   11  C8  UNL     1      -5.543  35.444   5.958  1.00  0.00     0.006 A 
HETATM   12  C9  UNL     1      -5.410  34.172   6.476  1.00  0.00     0.037 A 
HETATM   13  C10 UNL     1      -6.224  35.067   3.564  1.00  0.00     0.098 C 
HETATM   14  N3  UNL     1      -6.682  35.798   2.501  1.00  0.00    -0.390 N 
ATOM     15  H3  UNL     1      -7.669  35.733   2.253  1.00  0.00     0.159 HD
HETATM   16  C11 UNL     1      -5.829  36.654   1.716  1.00  0.00     0.124 C 
HETATM   17  C12 UNL     1      -6.187  36.281   0.306  1.00  0.00     0.145 C 
HETATM   18  O2  UNL     1      -5.539  36.758  -0.749  1.00  0.00    -0.374 OA
HETATM   19  C18 UNL     1      -5.867  37.908  -1.418  1.00  0.00     0.174 C 
HETATM   20  C20 UNL     1      -6.187  38.824  -0.340  1.00  0.00     0.153 C 
HETATM   21  C21 UNL     1      -6.351  40.262  -0.380  1.00  0.00     0.037 C 
HETATM   22  C22 UNL     1      -6.385  40.397   1.178  1.00  0.00     0.035 C 
HETATM   23  C23 UNL     1      -5.550  39.189   1.623  1.00  0.00     0.136 C 
HETATM   24  O4  UNL     1      -4.993  38.795   0.452  1.00  0.00    -0.377 OA
HETATM   25  C24 UNL     1      -6.301  38.039   2.162  1.00  0.00     0.116 C 
HETATM   26  C25 UNL     1      -6.168  38.205   3.653  1.00  0.00     0.185 C 
HETATM   27  O5  UNL     1      -6.369  39.404   3.998  1.00  0.00    -0.290 OA
ENDROOT
BRANCH  17  28
HETATM   28  C13 UNL     1      -5.925  34.774   0.174  1.00  0.00     0.034 C 
BRANCH  28  29
HETATM   29  C14 UNL     1      -6.530  34.101  -0.993  1.00  0.00     0.003 C 
BRANCH  29  30
HETATM   30  C15 UNL     1      -7.821  33.364  -0.732  1.00  0.00     0.002 C 
BRANCH  30  31
HETATM   31  C16 UNL     1      -7.813  32.567   0.542  1.00  0.00     0.026 C 
BRANCH  31  32
HETATM   32  C17 UNL     1      -9.077  32.865   1.336  1.00  0.00     0.164 C 
BRANCH  32  33
HETATM   33  O1  UNL     1      -9.907  31.748   1.277  1.00  0.00    -0.401 OA
ATOM     34  H1  UNL     1     -10.798  32.027   1.451  1.00  0.00     0.209 HD
ENDBRANCH  32  33
ENDBRANCH  31  32
ENDBRANCH  30  31
ENDBRANCH  29  30
ENDBRANCH  28  29
ENDBRANCH  17  28
BRANCH  19  35
HETATM   35  C19 UNL     1      -6.976  37.704  -2.400  1.00  0.00     0.198 C 
BRANCH  35  36
HETATM   36  O3  UNL     1      -6.686  36.716  -3.303  1.00  0.00    -0.398 OA
ATOM     37  H3  UNL     1      -6.187  36.011  -2.910  1.00  0.00     0.209 HD
ENDBRANCH  35  36
ENDBRANCH  19  35
TORSDOF 8
ENDMDL
MODEL 5
REMARK VINA RESULT: -6.375354794      3.157      8.046
REMARK  8 active torsions:
REMARK  status: ('A' for Active; 'I' for Inactive)
REMARK    1  A    between atoms: C12_17  and  C13_18 
REMARK    2  A    between atoms: C13_18  and  C14_19 
REMARK    3  A    between atoms: C14_19  and  C15_20 
REMARK    4  A    between atoms: C15_20  and  C16_21 
REMARK    5  A    between atoms: C16_21  and  C17_22 
REMARK    6  A    between atoms: C17_22  and  O1_23 
REMARK    7  A    between atoms: C18_26  and  C19_27 
REMARK    8  A    between atoms: C19_27  and  O3_28 
ROOT
HETATM    1  N1  UNL     1      -7.629  33.746  -2.893  1.00  0.00    -0.191 NA
HETATM    2  C1  UNL     1      -7.329  34.638  -2.217  1.00  0.00     0.099 C 
HETATM    3  C2  UNL     1      -6.963  35.751  -1.371  1.00  0.00     0.045 A 
HETATM    4  C3  UNL     1      -6.914  37.009  -1.949  1.00  0.00     0.025 A 
HETATM    5  C4  UNL     1      -6.569  38.116  -1.191  1.00  0.00     0.032 A 
HETATM    6  C5  UNL     1      -6.271  37.959   0.162  1.00  0.00     0.044 A 
HETATM    7  N2  UNL     1      -5.913  38.850   1.113  1.00  0.00    -0.352 N 
ATOM      8  H2  UNL     1      -5.801  39.852   0.964  1.00  0.00     0.166 HD
HETATM    9  C6  UNL     1      -5.727  38.219   2.288  1.00  0.00     0.092 A 
HETATM   10  C7  UNL     1      -5.976  36.900   2.063  1.00  0.00     0.022 A 
HETATM   11  C8  UNL     1      -6.325  36.700   0.720  1.00  0.00     0.006 A 
HETATM   12  C9  UNL     1      -6.668  35.596  -0.034  1.00  0.00     0.037 A 
HETATM   13  C10 UNL     1      -5.917  35.771   3.023  1.00  0.00     0.098 C 
HETATM   14  N3  UNL     1      -5.406  36.191   4.222  1.00  0.00    -0.390 N 
ATOM     15  H3  UNL     1      -4.473  35.879   4.491  1.00  0.00     0.159 HD
HETATM   16  C11 UNL     1      -6.129  37.054   5.121  1.00  0.00     0.124 C 
HETATM   17  C12 UNL     1      -5.962  36.372   6.448  1.00  0.00     0.145 C 
HETATM   18  O2  UNL     1      -6.580  36.780   7.548  1.00  0.00    -0.374 OA
HETATM   19  C18 UNL     1      -6.082  37.699   8.435  1.00  0.00     0.174 C 
HETATM   20  C20 UNL     1      -5.506  38.703   7.562  1.00  0.00     0.153 C 
HETATM   21  C21 UNL     1      -5.063  40.045   7.879  1.00  0.00     0.037 C 
HETATM   22  C22 UNL     1      -4.884  40.443   6.376  1.00  0.00     0.035 C 
HETATM   23  C23 UNL     1      -5.906  39.534   5.680  1.00  0.00     0.136 C 
HETATM   24  O4  UNL     1      -6.617  39.065   6.734  1.00  0.00    -0.377 OA
HETATM   25  C24 UNL     1      -5.359  38.366   4.963  1.00  0.00     0.116 C 
HETATM   26  C25 UNL     1      -5.343  38.817   3.526  1.00  0.00     0.185 C 
HETATM   27  O5  UNL     1      -4.881  39.989   3.421  1.00  0.00    -0.290 OA
ENDROOT
BRANCH  17  28
HETATM   28  C13 UNL     1      -6.527  34.954   6.283  1.00  0.00     0.034 C 
BRANCH  28  29
HETATM   29  C14 UNL     1      -5.786  33.868   6.957  1.00  0.00     0.003 C 
BRANCH  29  30
HETATM   30  C15 UNL     1      -6.548  32.582   7.164  1.00  0.00     0.002 C 
BRANCH  30  31
HETATM   31  C16 UNL     1      -5.878  31.631   8.115  1.00  0.00     0.026 C 
BRANCH  31  32
HETATM   32  C17 UNL     1      -4.865  32.388   8.962  1.00  0.00     0.164 C 
BRANCH  32  33
HETATM   33  O1  UNL     1      -4.242  31.482   9.817  1.00  0.00    -0.401 OA
ATOM     34  H1  UNL     1      -3.644  30.949   9.307  1.00  0.00     0.209 HD
ENDBRANCH  32  33
ENDBRANCH  31  32
ENDBRANCH  30  31
ENDBRANCH  29  30
ENDBRANCH  28  29
ENDBRANCH  17  28
BRANCH  19  35
HETATM   35  C19 UNL     1      -5.114  37.097   9.402  1.00  0.00     0.198 C 
BRANCH  35  36
HETATM   36  O3  UNL     1      -5.677  36.901  10.635  1.00  0.00    -0.398 OA
ATOM     37  H3  UNL     1      -5.076  37.116  11.338  1.00  0.00     0.209 HD
ENDBRANCH  35  36
ENDBRANCH  19  35
TORSDOF 8
ENDMDL
