MODEL 1
REMARK VINA RESULT: -8.428137428      0.000      0.000
REMARK  6 active torsions:
REMARK  status: ('A' for Active; 'I' for Inactive)
REMARK    1  A    between atoms: N1_2  and  C2_5 
REMARK    2  A    between atoms: C9_12  and  C10_13 
REMARK    3  A    between atoms: C10_13  and  O1_14 
REMARK    4  A    between atoms: O1_14  and  C11_15 
REMARK    5  A    between atoms: C15_19  and  N2_20 
REMARK    6  A    between atoms: N5_33  and  O2_34 
ROOT
HETATM    1  C11 UNL     1      -7.207  34.190  -1.412  1.00  0.00     0.071 A 
HETATM    2  C12 UNL     1      -6.266  34.931  -0.648  1.00  0.00     0.038 A 
HETATM    3  C13 UNL     1      -6.235  34.906   0.717  1.00  0.00     0.020 A 
HETATM    4  C14 UNL     1      -7.122  34.157   1.435  1.00  0.00     0.040 A 
HETATM    5  C15 UNL     1      -7.369  33.909   2.770  1.00  0.00     0.132 A 
HETATM    6  N4  UNL     1      -8.406  33.062   2.805  1.00  0.00    -0.258 N 
ATOM      7  H4  UNL     1      -8.814  32.700   3.667  1.00  0.00     0.191 HD
HETATM    8  N5  UNL     1      -8.840  32.750   1.600  1.00  0.00    -0.161 N 
HETATM    9  C23 UNL     1      -8.053  33.422   0.726  1.00  0.00     0.098 A 
HETATM   10  C24 UNL     1      -8.082  33.449  -0.649  1.00  0.00     0.071 A 
ENDROOT
BRANCH   1  11
HETATM   11  O1  UNL     1      -7.157  34.282  -2.728  1.00  0.00    -0.350 OA
BRANCH  11  12
HETATM   12  C10 UNL     1      -7.792  34.371  -3.859  1.00  0.00     0.185 C 
BRANCH  12  13
HETATM   13  C9  UNL     1      -8.064  35.658  -4.576  1.00  0.00    -0.017 C 
HETATM   14  C8  UNL     1      -9.498  35.495  -5.136  1.00  0.00     0.018 C 
HETATM   15  C7  UNL     1     -10.009  36.778  -5.698  1.00  0.00     0.018 C 
HETATM   16  C2  UNL     1      -9.129  37.192  -6.868  1.00  0.00     0.193 C 
HETATM   17  C6  UNL     1     -10.001  37.924  -4.708  1.00  0.00     0.011 C 
HETATM   18  C3  UNL     1      -7.723  37.278  -6.389  1.00  0.00     0.018 C 
HETATM   19  C4  UNL     1      -7.646  38.398  -5.348  1.00  0.00     0.011 C 
HETATM   20  C26 UNL     1      -7.211  36.019  -5.715  1.00  0.00     0.018 C 
HETATM   21  C5  UNL     1      -8.575  38.068  -4.221  1.00  0.00    -0.013 C 
HETATM   22  C25 UNL     1      -8.178  36.786  -3.565  1.00  0.00     0.016 C 
BRANCH  16  23
HETATM   23  N1  UNL     1      -9.322  36.359  -8.015  1.00  0.00    -0.074 N 
HETATM   24  C1  UNL     1      -8.323  36.737  -9.012  1.00  0.00     0.267 C 
ATOM     25  H12 UNL     1     -10.275  36.395  -8.376  1.00  0.00     0.277 HD
ATOM     26  H11 UNL     1      -9.300  35.364  -7.790  1.00  0.00     0.277 HD
ENDBRANCH  16  23
ENDBRANCH  12  13
ENDBRANCH  11  12
ENDBRANCH   1  11
BRANCH   8  27
HETATM   27  O2  UNL     1      -9.895  31.902   1.275  1.00  0.00    -0.267 OA
ATOM     28  H2  UNL     1     -10.135  31.090   1.705  1.00  0.00     0.247 HD
ENDBRANCH   8  27
BRANCH   5  29
HETATM   29  N2  UNL     1      -6.634  34.462   3.875  1.00  0.00    -0.365 N 
HETATM   30  C16 UNL     1      -5.690  35.569   3.646  1.00  0.00     0.125 C 
HETATM   31  C17 UNL     1      -4.779  35.538   4.858  1.00  0.00     0.032 C 
HETATM   32  C18 UNL     1      -5.717  35.074   5.919  1.00  0.00     0.003 C 
HETATM   33  C19 UNL     1      -5.008  34.485   7.118  1.00  0.00     0.040 C 
HETATM   34  C21 UNL     1      -6.434  36.253   6.537  1.00  0.00     0.243 C 
HETATM   35  C22 UNL     1      -6.644  34.120   5.258  1.00  0.00     0.135 C 
HETATM   36  C20 UNL     1      -4.645  35.725   7.923  1.00  0.00     0.233 C 
HETATM   37  N3  UNL     1      -5.425  36.809   7.409  1.00  0.00    -0.074 N 
ATOM     38  H32 UNL     1      -5.817  37.398   8.143  1.00  0.00     0.277 HD
ATOM     39  H31 UNL     1      -4.857  37.522   6.951  1.00  0.00     0.277 HD
ENDBRANCH   5  29
TORSDOF 6
ENDMDL
MODEL 2
REMARK VINA RESULT: -8.305836027      0.899      1.573
REMARK  6 active torsions:
REMARK  status: ('A' for Active; 'I' for Inactive)
REMARK    1  A    between atoms: N1_2  and  C2_5 
REMARK    2  A    between atoms: C9_12  and  C10_13 
REMARK    3  A    between atoms: C10_13  and  O1_14 
REMARK    4  A    between atoms: O1_14  and  C11_15 
REMARK    5  A    between atoms: C15_19  and  N2_20 
REMARK    6  A    between atoms: N5_33  and  O2_34 
ROOT
HETATM    1  C11 UNL     1      -7.155  34.144  -1.458  1.00  0.00     0.071 A 
HETATM    2  C12 UNL     1      -6.209  34.882  -0.697  1.00  0.00     0.038 A 
HETATM    3  C13 UNL     1      -6.192  34.878   0.668  1.00  0.00     0.020 A 
HETATM    4  C14 UNL     1      -7.097  34.154   1.389  1.00  0.00     0.040 A 
HETATM    5  C15 UNL     1      -7.359  33.931   2.726  1.00  0.00     0.132 A 
HETATM    6  N4  UNL     1      -8.410  33.101   2.765  1.00  0.00    -0.258 N 
ATOM      7  H4  UNL     1      -8.831  32.759   3.628  1.00  0.00     0.191 HD
HETATM    8  N5  UNL     1      -8.838  32.777   1.561  1.00  0.00    -0.161 N 
HETATM    9  C23 UNL     1      -8.032  33.423   0.683  1.00  0.00     0.098 A 
HETATM   10  C24 UNL     1      -8.049  33.428  -0.692  1.00  0.00     0.071 A 
ENDROOT
BRANCH   1  11
HETATM   11  O1  UNL     1      -7.092  34.214  -2.775  1.00  0.00    -0.350 OA
BRANCH  11  12
HETATM   12  C10 UNL     1      -7.710  34.362  -3.909  1.00  0.00     0.185 C 
BRANCH  12  13
HETATM   13  C9  UNL     1      -8.223  35.671  -4.427  1.00  0.00    -0.017 C 
HETATM   14  C8  UNL     1      -7.482  35.874  -5.771  1.00  0.00     0.018 C 
HETATM   15  C7  UNL     1      -8.038  37.033  -6.526  1.00  0.00     0.018 C 
HETATM   16  C2  UNL     1      -7.826  38.302  -5.715  1.00  0.00     0.193 C 
HETATM   17  C6  UNL     1      -9.523  36.924  -6.802  1.00  0.00     0.011 C 
HETATM   18  C3  UNL     1      -8.455  38.115  -4.379  1.00  0.00     0.018 C 
HETATM   19  C4  UNL     1      -9.963  37.958  -4.584  1.00  0.00     0.011 C 
HETATM   20  C26 UNL     1      -7.983  36.882  -3.631  1.00  0.00     0.018 C 
HETATM   21  C5  UNL     1     -10.205  36.767  -5.459  1.00  0.00    -0.013 C 
HETATM   22  C25 UNL     1      -9.683  35.522  -4.819  1.00  0.00     0.016 C 
BRANCH  16  23
HETATM   23  N1  UNL     1      -6.453  38.703  -5.682  1.00  0.00    -0.074 N 
HETATM   24  C1  UNL     1      -6.090  39.158  -7.021  1.00  0.00     0.267 C 
ATOM     25  H12 UNL     1      -5.835  37.971  -5.331  1.00  0.00     0.277 HD
ATOM     26  H11 UNL     1      -6.261  39.398  -4.961  1.00  0.00     0.277 HD
ENDBRANCH  16  23
ENDBRANCH  12  13
ENDBRANCH  11  12
ENDBRANCH   1  11
BRANCH   8  27
HETATM   27  O2  UNL     1      -9.903  31.940   1.239  1.00  0.00    -0.267 OA
ATOM     28  H2  UNL     1     -10.127  31.111   1.644  1.00  0.00     0.247 HD
ENDBRANCH   8  27
BRANCH   5  29
HETATM   29  N2  UNL     1      -6.626  34.490   3.829  1.00  0.00    -0.365 N 
HETATM   30  C16 UNL     1      -5.678  35.592   3.595  1.00  0.00     0.125 C 
HETATM   31  C17 UNL     1      -4.771  35.567   4.810  1.00  0.00     0.032 C 
HETATM   32  C18 UNL     1      -5.713  35.114   5.871  1.00  0.00     0.003 C 
HETATM   33  C19 UNL     1      -5.009  34.533   7.077  1.00  0.00     0.040 C 
HETATM   34  C21 UNL     1      -6.429  36.300   6.478  1.00  0.00     0.243 C 
HETATM   35  C22 UNL     1      -6.642  34.158   5.214  1.00  0.00     0.135 C 
HETATM   36  C20 UNL     1      -4.645  35.777   7.874  1.00  0.00     0.233 C 
HETATM   37  N3  UNL     1      -5.420  36.859   7.349  1.00  0.00    -0.074 N 
ATOM     38  H32 UNL     1      -5.813  37.455   8.078  1.00  0.00     0.277 HD
ATOM     39  H31 UNL     1      -4.849  37.567   6.888  1.00  0.00     0.277 HD
ENDBRANCH   5  29
TORSDOF 6
ENDMDL
MODEL 3
REMARK VINA RESULT: -8.271696008      0.667      1.148
REMARK  6 active torsions:
REMARK  status: ('A' for Active; 'I' for Inactive)
REMARK    1  A    between atoms: N1_2  and  C2_5 
REMARK    2  A    between atoms: C9_12  and  C10_13 
REMARK    3  A    between atoms: C10_13  and  O1_14 
REMARK    4  A    between atoms: O1_14  and  C11_15 
REMARK    5  A    between atoms: C15_19  and  N2_20 
REMARK    6  A    between atoms: N5_33  and  O2_34 
ROOT
HETATM    1  C11 UNL     1      -7.162  34.208  -1.426  1.00  0.00     0.071 A 
HETATM    2  C12 UNL     1      -6.261  35.012  -0.678  1.00  0.00     0.038 A 
HETATM    3  C13 UNL     1      -6.233  35.021   0.687  1.00  0.00     0.020 A 
HETATM    4  C14 UNL     1      -7.085  34.246   1.421  1.00  0.00     0.040 A 
HETATM    5  C15 UNL     1      -7.323  34.018   2.761  1.00  0.00     0.132 A 
HETATM    6  N4  UNL     1      -8.317  33.122   2.814  1.00  0.00    -0.258 N 
ATOM      7  H4  UNL     1      -8.710  32.761   3.684  1.00  0.00     0.191 HD
HETATM    8  N5  UNL     1      -8.732  32.761   1.616  1.00  0.00    -0.161 N 
HETATM    9  C23 UNL     1      -7.976  33.450   0.728  1.00  0.00     0.098 A 
HETATM   10  C24 UNL     1      -8.003  33.443  -0.647  1.00  0.00     0.071 A 
ENDROOT
BRANCH   1  11
HETATM   11  O1  UNL     1      -7.113  34.271  -2.744  1.00  0.00    -0.350 OA
BRANCH  11  12
HETATM   12  C10 UNL     1      -7.748  34.359  -3.875  1.00  0.00     0.185 C 
BRANCH  12  13
HETATM   13  C9  UNL     1      -8.035  35.647  -4.585  1.00  0.00    -0.017 C 
HETATM   14  C8  UNL     1      -9.467  35.471  -5.144  1.00  0.00     0.018 C 
HETATM   15  C7  UNL     1      -9.993  36.751  -5.700  1.00  0.00     0.018 C 
HETATM   16  C2  UNL     1      -9.119  37.180  -6.868  1.00  0.00     0.193 C 
HETATM   17  C6  UNL     1      -9.996  37.892  -4.704  1.00  0.00     0.011 C 
HETATM   18  C3  UNL     1      -7.713  37.280  -6.390  1.00  0.00     0.018 C 
HETATM   19  C4  UNL     1      -7.647  38.395  -5.344  1.00  0.00     0.011 C 
HETATM   20  C26 UNL     1      -7.187  36.023  -5.724  1.00  0.00     0.018 C 
HETATM   21  C5  UNL     1      -8.571  38.049  -4.218  1.00  0.00    -0.013 C 
HETATM   22  C25 UNL     1      -8.160  36.767  -3.568  1.00  0.00     0.016 C 
BRANCH  16  23
HETATM   23  N1  UNL     1      -9.304  36.351  -8.019  1.00  0.00    -0.074 N 
HETATM   24  C1  UNL     1      -8.329  36.763  -9.025  1.00  0.00     0.267 C 
ATOM     25  H12 UNL     1     -10.262  36.364  -8.368  1.00  0.00     0.277 HD
ATOM     26  H11 UNL     1      -9.253  35.356  -7.803  1.00  0.00     0.277 HD
ENDBRANCH  16  23
ENDBRANCH  12  13
ENDBRANCH  11  12
ENDBRANCH   1  11
BRANCH   8  27
HETATM   27  O2  UNL     1      -9.743  31.854   1.309  1.00  0.00    -0.267 OA
ATOM     28  H2  UNL     1     -10.651  32.049   1.110  1.00  0.00     0.247 HD
ENDBRANCH   8  27
BRANCH   5  29
HETATM   29  N2  UNL     1      -6.620  34.632   3.854  1.00  0.00    -0.365 N 
HETATM   30  C16 UNL     1      -6.730  34.065   5.208  1.00  0.00     0.125 C 
HETATM   31  C17 UNL     1      -6.312  35.201   6.123  1.00  0.00     0.032 C 
HETATM   32  C18 UNL     1      -5.294  35.894   5.284  1.00  0.00     0.003 C 
HETATM   33  C19 UNL     1      -5.049  37.323   5.713  1.00  0.00     0.040 C 
HETATM   34  C21 UNL     1      -3.931  35.275   5.494  1.00  0.00     0.243 C 
HETATM   35  C22 UNL     1      -5.769  35.775   3.881  1.00  0.00     0.135 C 
HETATM   36  C20 UNL     1      -4.055  37.155   6.854  1.00  0.00     0.233 C 
HETATM   37  N3  UNL     1      -3.532  35.827   6.768  1.00  0.00    -0.074 N 
ATOM     38  H32 UNL     1      -2.523  35.788   6.918  1.00  0.00     0.277 HD
ATOM     39  H31 UNL     1      -3.808  35.242   7.556  1.00  0.00     0.277 HD
ENDBRANCH   5  29
TORSDOF 6
ENDMDL
MODEL 4
REMARK VINA RESULT: -8.174334499      1.116      1.956
REMARK  6 active torsions:
REMARK  status: ('A' for Active; 'I' for Inactive)
REMARK    1  A    between atoms: N1_2  and  C2_5 
REMARK    2  A    between atoms: C9_12  and  C10_13 
REMARK    3  A    between atoms: C10_13  and  O1_14 
REMARK    4  A    between atoms: O1_14  and  C11_15 
REMARK    5  A    between atoms: C15_19  and  N2_20 
REMARK    6  A    between atoms: N5_33  and  O2_34 
ROOT
HETATM    1  C11 UNL     1      -7.168  34.200  -1.431  1.00  0.00     0.071 A 
HETATM    2  C12 UNL     1      -6.274  35.008  -0.680  1.00  0.00     0.038 A 
HETATM    3  C13 UNL     1      -6.251  35.015   0.686  1.00  0.00     0.020 A 
HETATM    4  C14 UNL     1      -7.101  34.235   1.416  1.00  0.00     0.040 A 
HETATM    5  C15 UNL     1      -7.342  34.003   2.755  1.00  0.00     0.132 A 
HETATM    6  N4  UNL     1      -8.332  33.102   2.803  1.00  0.00    -0.258 N 
ATOM      7  H4  UNL     1      -8.725  32.737   3.671  1.00  0.00     0.191 HD
HETATM    8  N5  UNL     1      -8.741  32.740   1.603  1.00  0.00    -0.161 N 
HETATM    9  C23 UNL     1      -7.985  33.435   0.718  1.00  0.00     0.098 A 
HETATM   10  C24 UNL     1      -8.007  33.429  -0.657  1.00  0.00     0.071 A 
ENDROOT
BRANCH   1  11
HETATM   11  O1  UNL     1      -7.115  34.265  -2.749  1.00  0.00    -0.350 OA
BRANCH  11  12
HETATM   12  C10 UNL     1      -7.742  34.402  -3.880  1.00  0.00     0.185 C 
BRANCH  12  13
HETATM   13  C9  UNL     1      -8.267  35.705  -4.403  1.00  0.00    -0.017 C 
HETATM   14  C8  UNL     1      -7.502  35.925  -5.731  1.00  0.00     0.018 C 
HETATM   15  C7  UNL     1      -8.062  37.077  -6.493  1.00  0.00     0.018 C 
HETATM   16  C2  UNL     1      -7.886  38.347  -5.674  1.00  0.00     0.193 C 
HETATM   17  C6  UNL     1      -9.540  36.947  -6.798  1.00  0.00     0.011 C 
HETATM   18  C3  UNL     1      -8.538  38.144  -4.351  1.00  0.00     0.018 C 
HETATM   19  C4  UNL     1     -10.039  37.964  -4.585  1.00  0.00     0.011 C 
HETATM   20  C26 UNL     1      -8.061  36.916  -3.598  1.00  0.00     0.018 C 
HETATM   21  C5  UNL     1     -10.245  36.773  -5.470  1.00  0.00    -0.013 C 
HETATM   22  C25 UNL     1      -9.715  35.534  -4.824  1.00  0.00     0.016 C 
BRANCH  16  23
HETATM   23  N1  UNL     1      -6.521  38.769  -5.611  1.00  0.00    -0.074 N 
HETATM   24  C1  UNL     1      -6.129  39.205  -6.949  1.00  0.00     0.267 C 
ATOM     25  H12 UNL     1      -5.901  38.053  -5.231  1.00  0.00     0.277 HD
ATOM     26  H11 UNL     1      -6.358  39.481  -4.900  1.00  0.00     0.277 HD
ENDBRANCH  16  23
ENDBRANCH  12  13
ENDBRANCH  11  12
ENDBRANCH   1  11
BRANCH   8  27
HETATM   27  O2  UNL     1      -9.745  31.828   1.291  1.00  0.00    -0.267 OA
ATOM     28  H2  UNL     1     -10.422  31.919   0.631  1.00  0.00     0.247 HD
ENDBRANCH   8  27
BRANCH   5  29
HETATM   29  N2  UNL     1      -6.646  34.620   3.851  1.00  0.00    -0.365 N 
HETATM   30  C16 UNL     1      -6.751  34.045   5.202  1.00  0.00     0.125 C 
HETATM   31  C17 UNL     1      -6.345  35.181   6.122  1.00  0.00     0.032 C 
HETATM   32  C18 UNL     1      -5.334  35.889   5.287  1.00  0.00     0.003 C 
HETATM   33  C19 UNL     1      -5.105  37.318   5.723  1.00  0.00     0.040 C 
HETATM   34  C21 UNL     1      -3.965  35.282   5.496  1.00  0.00     0.243 C 
HETATM   35  C22 UNL     1      -5.807  35.771   3.883  1.00  0.00     0.135 C 
HETATM   36  C20 UNL     1      -4.110  37.156   6.864  1.00  0.00     0.233 C 
HETATM   37  N3  UNL     1      -3.573  35.833   6.773  1.00  0.00    -0.074 N 
ATOM     38  H32 UNL     1      -2.564  35.804   6.923  1.00  0.00     0.277 HD
ATOM     39  H31 UNL     1      -3.844  35.241   7.558  1.00  0.00     0.277 HD
ENDBRANCH   5  29
TORSDOF 6
ENDMDL
MODEL 5
REMARK VINA RESULT: -8.120984689      0.968      1.927
REMARK  6 active torsions:
REMARK  status: ('A' for Active; 'I' for Inactive)
REMARK    1  A    between atoms: N1_2  and  C2_5 
REMARK    2  A    between atoms: C9_12  and  C10_13 
REMARK    3  A    between atoms: C10_13  and  O1_14 
REMARK    4  A    between atoms: O1_14  and  C11_15 
REMARK    5  A    between atoms: C15_19  and  N2_20 
REMARK    6  A    between atoms: N5_33  and  O2_34 
ROOT
HETATM    1  C11 UNL     1      -7.346  34.501  -1.402  1.00  0.00     0.071 A 
HETATM    2  C12 UNL     1      -6.420  35.246  -0.624  1.00  0.00     0.038 A 
HETATM    3  C13 UNL     1      -6.340  35.141   0.735  1.00  0.00     0.020 A 
HETATM    4  C14 UNL     1      -7.160  34.301   1.433  1.00  0.00     0.040 A 
HETATM    5  C15 UNL     1      -7.345  33.959   2.757  1.00  0.00     0.132 A 
HETATM    6  N4  UNL     1      -8.333  33.055   2.772  1.00  0.00    -0.258 N 
ATOM      7  H4  UNL     1      -8.691  32.619   3.622  1.00  0.00     0.191 HD
HETATM    8  N5  UNL     1      -8.793  32.793   1.565  1.00  0.00    -0.161 N 
HETATM    9  C23 UNL     1      -8.073  33.560   0.709  1.00  0.00     0.098 A 
HETATM   10  C24 UNL     1      -8.153  33.667  -0.659  1.00  0.00     0.071 A 
ENDROOT
BRANCH   1  11
HETATM   11  O1  UNL     1      -7.347  34.675  -2.711  1.00  0.00    -0.350 OA
BRANCH  11  12
HETATM   12  C10 UNL     1      -7.944  34.499  -3.853  1.00  0.00     0.185 C 
BRANCH  12  13
HETATM   13  C9  UNL     1      -8.261  35.600  -4.819  1.00  0.00    -0.017 C 
HETATM   14  C8  UNL     1      -7.654  36.869  -4.174  1.00  0.00     0.018 C 
HETATM   15  C7  UNL     1      -7.693  38.026  -5.113  1.00  0.00     0.018 C 
HETATM   16  C2  UNL     1      -9.143  38.353  -5.437  1.00  0.00     0.193 C 
HETATM   17  C6  UNL     1      -6.992  37.766  -6.430  1.00  0.00     0.011 C 
HETATM   18  C3  UNL     1      -9.789  37.128  -5.984  1.00  0.00     0.018 C 
HETATM   19  C4  UNL     1      -9.100  36.780  -7.306  1.00  0.00     0.011 C 
HETATM   20  C26 UNL     1      -9.671  35.906  -5.093  1.00  0.00     0.018 C 
HETATM   21  C5  UNL     1      -7.645  36.543  -7.038  1.00  0.00    -0.013 C 
HETATM   22  C25 UNL     1      -7.459  35.401  -6.093  1.00  0.00     0.016 C 
BRANCH  16  23
HETATM   23  N1  UNL     1      -9.827  38.948  -4.330  1.00  0.00    -0.074 N 
HETATM   24  C1  UNL     1     -10.997  39.647  -4.854  1.00  0.00     0.267 C 
ATOM     25  H12 UNL     1      -9.224  39.549  -3.768  1.00  0.00     0.277 HD
ATOM     26  H11 UNL     1     -10.062  38.274  -3.601  1.00  0.00     0.277 HD
ENDBRANCH  16  23
ENDBRANCH  12  13
ENDBRANCH  11  12
ENDBRANCH   1  11
BRANCH   8  27
HETATM   27  O2  UNL     1      -9.811  31.908   1.221  1.00  0.00    -0.267 OA
ATOM     28  H2  UNL     1     -10.454  32.009   0.530  1.00  0.00     0.247 HD
ENDBRANCH   8  27
BRANCH   5  29
HETATM   29  N2  UNL     1      -6.603  34.485   3.870  1.00  0.00    -0.365 N 
HETATM   30  C16 UNL     1      -5.613  35.552   3.652  1.00  0.00     0.125 C 
HETATM   31  C17 UNL     1      -4.719  35.487   4.876  1.00  0.00     0.032 C 
HETATM   32  C18 UNL     1      -5.688  35.063   5.925  1.00  0.00     0.003 C 
HETATM   33  C19 UNL     1      -5.019  34.450   7.134  1.00  0.00     0.040 C 
HETATM   34  C21 UNL     1      -6.366  36.271   6.532  1.00  0.00     0.243 C 
HETATM   35  C22 UNL     1      -6.645  34.146   5.253  1.00  0.00     0.135 C 
HETATM   36  C20 UNL     1      -4.617  35.676   7.942  1.00  0.00     0.233 C 
HETATM   37  N3  UNL     1      -5.345  36.788   7.415  1.00  0.00    -0.074 N 
ATOM     38  H32 UNL     1      -5.723  37.394   8.144  1.00  0.00     0.277 HD
ATOM     39  H31 UNL     1      -4.744  37.477   6.964  1.00  0.00     0.277 HD
ENDBRANCH   5  29
TORSDOF 6
ENDMDL
