MODEL 1
REMARK VINA RESULT: -7.702868149      0.000      0.000
REMARK  7 active torsions:
REMARK  status: ('A' for Active; 'I' for Inactive)
REMARK    1  A    between atoms: C3_3  and  O1_4 
REMARK    2  A    between atoms: C11_14  and  C13_16 
REMARK    3  A    between atoms: C14_17  and  C15_18 
REMARK    4  A    between atoms: C19_22  and  O3_23 
REMARK    5  A    between atoms: O3_23  and  S1_24 
REMARK    6  A    between atoms: S1_24  and  N1_25 
REMARK    7  A    between atoms: C20_30  and  C22_32 
ROOT
HETATM    1  C15 UNL     1      -7.020  36.063  -1.770  1.00  0.00     0.029 C 
HETATM    2  C16 UNL     1      -6.049  37.080  -1.235  1.00  0.00     0.010 C 
HETATM    3  C17 UNL     1      -6.197  37.027   0.294  1.00  0.00     0.003 C 
HETATM    4  C18 UNL     1      -5.884  35.659   0.795  1.00  0.00     0.035 C 
HETATM    5  C19 UNL     1      -6.693  34.567   0.145  1.00  0.00     0.163 C 
HETATM    6  C20 UNL     1      -6.670  34.681  -1.374  1.00  0.00     0.079 C 
HETATM    7  C21 UNL     1      -7.760  33.753  -1.885  1.00  0.00     0.030 C 
ENDROOT
BRANCH   1   8
HETATM    8  C14 UNL     1      -7.372  36.261  -3.184  1.00  0.00    -0.024 C 
HETATM    9  C13 UNL     1      -8.533  36.610  -3.664  1.00  0.00    -0.018 C 
BRANCH   9  10
HETATM   10  C11 UNL     1      -8.836  36.796  -5.102  1.00  0.00     0.004 C 
HETATM   11  C4  UNL     1      -8.062  37.888  -5.767  1.00  0.00     0.149 C 
HETATM   12  O2  UNL     1      -7.964  37.598  -7.121  1.00  0.00    -0.350 OA
HETATM   13  C5  UNL     1      -8.528  39.263  -5.595  1.00  0.00     0.011 C 
HETATM   14  C3  UNL     1      -7.909  38.768  -7.818  1.00  0.00     0.288 C 
HETATM   15  C2  UNL     1      -8.192  39.890  -6.917  1.00  0.00    -0.024 C 
HETATM   16  C1  UNL     1      -8.157  41.162  -7.213  1.00  0.00     0.020 C 
HETATM   17  C6  UNL     1      -7.687  40.043  -4.575  1.00  0.00     0.023 C 
HETATM   18  C7  UNL     1      -9.968  39.487  -5.349  1.00  0.00     0.017 C 
HETATM   19  C8  UNL     1     -10.712  38.353  -4.738  1.00  0.00     0.006 C 
HETATM   20  C9  UNL     1     -10.319  37.008  -5.307  1.00  0.00    -0.004 C 
HETATM   21  C10 UNL     1     -11.134  35.968  -4.587  1.00  0.00     0.011 C 
HETATM   22  C12 UNL     1      -8.497  35.521  -5.895  1.00  0.00     0.022 C 
BRANCH  14  23
HETATM   23  O1  UNL     1      -8.800  38.837  -8.886  1.00  0.00    -0.367 OA
ATOM     24  H1  UNL     1      -8.428  38.349  -9.612  1.00  0.00     0.213 HD
ENDBRANCH  14  23
ENDBRANCH   9  10
ENDBRANCH   1   8
BRANCH   6  25
HETATM   25  C22 UNL     1      -5.383  34.174  -1.833  1.00  0.00     0.184 C 
HETATM   26  O6  UNL     1      -4.737  34.511  -2.831  1.00  0.00    -0.647 OA
HETATM   27  O7  UNL     1      -4.797  33.165  -1.038  1.00  0.00    -0.647 OA
ENDBRANCH   6  25
BRANCH   5  28
HETATM   28  O3  UNL     1      -7.986  34.503   0.597  1.00  0.00    -0.253 OA
BRANCH  28  29
HETATM   29  S1  UNL     1      -8.335  33.175   1.524  1.00  0.00     0.356 S 
HETATM   30  O4  UNL     1      -7.397  32.063   1.146  1.00  0.00    -0.176 OA
HETATM   31  O5  UNL     1      -9.729  32.663   1.309  1.00  0.00    -0.176 OA
BRANCH  29  32
HETATM   32  N1  UNL     1      -8.157  33.466   3.216  1.00  0.00    -0.306 N 
ATOM     33  H12 UNL     1      -7.307  33.860   3.620  1.00  0.00     0.171 HD
ATOM     34  H11 UNL     1      -8.982  33.204   3.755  1.00  0.00     0.171 HD
ENDBRANCH  29  32
ENDBRANCH  28  29
ENDBRANCH   5  28
TORSDOF 7
ENDMDL
MODEL 2
REMARK VINA RESULT: -7.125484725      1.277      2.061
REMARK  7 active torsions:
REMARK  status: ('A' for Active; 'I' for Inactive)
REMARK    1  A    between atoms: C3_3  and  O1_4 
REMARK    2  A    between atoms: C11_14  and  C13_16 
REMARK    3  A    between atoms: C14_17  and  C15_18 
REMARK    4  A    between atoms: C19_22  and  O3_23 
REMARK    5  A    between atoms: O3_23  and  S1_24 
REMARK    6  A    between atoms: S1_24  and  N1_25 
REMARK    7  A    between atoms: C20_30  and  C22_32 
ROOT
HETATM    1  C15 UNL     1      -7.442  35.952  -1.955  1.00  0.00     0.029 C 
HETATM    2  C16 UNL     1      -6.457  37.049  -1.651  1.00  0.00     0.010 C 
HETATM    3  C17 UNL     1      -6.414  37.150  -0.118  1.00  0.00     0.003 C 
HETATM    4  C18 UNL     1      -5.983  35.852   0.473  1.00  0.00     0.035 C 
HETATM    5  C19 UNL     1      -6.817  34.674   0.042  1.00  0.00     0.163 C 
HETATM    6  C20 UNL     1      -6.985  34.630  -1.471  1.00  0.00     0.079 C 
HETATM    7  C21 UNL     1      -8.087  33.621  -1.746  1.00  0.00     0.030 C 
ENDROOT
BRANCH   1   8
HETATM    8  C14 UNL     1      -7.972  35.991  -3.326  1.00  0.00    -0.024 C 
HETATM    9  C13 UNL     1      -8.682  36.941  -3.867  1.00  0.00    -0.018 C 
BRANCH   9  10
HETATM   10  C11 UNL     1      -9.193  36.931  -5.257  1.00  0.00     0.004 C 
HETATM   11  C4  UNL     1      -8.305  36.246  -6.245  1.00  0.00     0.149 C 
HETATM   12  O2  UNL     1      -9.087  35.783  -7.294  1.00  0.00    -0.350 OA
HETATM   13  C5  UNL     1      -7.166  36.992  -6.777  1.00  0.00     0.011 C 
HETATM   14  C3  UNL     1      -8.340  35.790  -8.434  1.00  0.00     0.288 C 
HETATM   15  C2  UNL     1      -7.072  36.483  -8.186  1.00  0.00    -0.024 C 
HETATM   16  C1  UNL     1      -6.078  36.623  -9.022  1.00  0.00     0.020 C 
HETATM   17  C6  UNL     1      -5.839  36.575  -6.128  1.00  0.00     0.023 C 
HETATM   18  C7  UNL     1      -7.264  38.465  -6.841  1.00  0.00     0.017 C 
HETATM   19  C8  UNL     1      -8.202  39.101  -5.878  1.00  0.00     0.006 C 
HETATM   20  C9  UNL     1      -9.499  38.338  -5.719  1.00  0.00    -0.004 C 
HETATM   21  C10 UNL     1     -10.331  39.085  -4.712  1.00  0.00     0.011 C 
HETATM   22  C12 UNL     1     -10.535  36.181  -5.334  1.00  0.00     0.022 C 
BRANCH  14  23
HETATM   23  O1  UNL     1      -8.962  36.405  -9.519  1.00  0.00    -0.367 OA
ATOM     24  H1  UNL     1      -9.766  36.805  -9.208  1.00  0.00     0.213 HD
ENDBRANCH  14  23
ENDBRANCH   9  10
ENDBRANCH   1   8
BRANCH   6  25
HETATM   25  C22 UNL     1      -5.743  34.118  -2.037  1.00  0.00     0.184 C 
HETATM   26  O6  UNL     1      -5.252  34.351  -3.146  1.00  0.00    -0.647 OA
HETATM   27  O7  UNL     1      -5.004  33.242  -1.212  1.00  0.00    -0.647 OA
ENDBRANCH   6  25
BRANCH   5  28
HETATM   28  O3  UNL     1      -8.041  34.617   0.658  1.00  0.00    -0.253 OA
BRANCH  28  29
HETATM   29  S1  UNL     1      -8.301  33.255   1.566  1.00  0.00     0.356 S 
HETATM   30  O4  UNL     1      -7.359  32.180   1.104  1.00  0.00    -0.176 OA
HETATM   31  O5  UNL     1      -9.691  32.713   1.417  1.00  0.00    -0.176 OA
BRANCH  29  32
HETATM   32  N1  UNL     1      -8.032  33.506   3.253  1.00  0.00    -0.306 N 
ATOM     33  H12 UNL     1      -7.415  32.911   3.805  1.00  0.00     0.171 HD
ATOM     34  H11 UNL     1      -8.550  34.301   3.626  1.00  0.00     0.171 HD
ENDBRANCH  29  32
ENDBRANCH  28  29
ENDBRANCH   5  28
TORSDOF 7
ENDMDL
MODEL 3
REMARK VINA RESULT: -6.983227691      1.304      2.767
REMARK  7 active torsions:
REMARK  status: ('A' for Active; 'I' for Inactive)
REMARK    1  A    between atoms: C3_3  and  O1_4 
REMARK    2  A    between atoms: C11_14  and  C13_16 
REMARK    3  A    between atoms: C14_17  and  C15_18 
REMARK    4  A    between atoms: C19_22  and  O3_23 
REMARK    5  A    between atoms: O3_23  and  S1_24 
REMARK    6  A    between atoms: S1_24  and  N1_25 
REMARK    7  A    between atoms: C20_30  and  C22_32 
ROOT
HETATM    1  C15 UNL     1      -7.464  36.124  -1.722  1.00  0.00     0.029 C 
HETATM    2  C16 UNL     1      -6.622  37.163  -1.031  1.00  0.00     0.010 C 
HETATM    3  C17 UNL     1      -6.797  36.900   0.473  1.00  0.00     0.003 C 
HETATM    4  C18 UNL     1      -6.346  35.520   0.812  1.00  0.00     0.035 C 
HETATM    5  C19 UNL     1      -7.017  34.440   0.003  1.00  0.00     0.163 C 
HETATM    6  C20 UNL     1      -6.973  34.748  -1.488  1.00  0.00     0.079 C 
HETATM    7  C21 UNL     1      -7.943  33.783  -2.149  1.00  0.00     0.030 C 
ENDROOT
BRANCH   1   8
HETATM    8  C14 UNL     1      -7.805  36.462  -3.112  1.00  0.00    -0.024 C 
HETATM    9  C13 UNL     1      -7.786  37.644  -3.661  1.00  0.00    -0.018 C 
BRANCH   9  10
HETATM   10  C11 UNL     1      -8.139  37.932  -5.070  1.00  0.00     0.004 C 
HETATM   11  C4  UNL     1      -8.313  36.722  -5.930  1.00  0.00     0.149 C 
HETATM   12  O2  UNL     1      -9.174  37.040  -6.971  1.00  0.00    -0.350 OA
HETATM   13  C5  UNL     1      -7.113  36.082  -6.467  1.00  0.00     0.011 C 
HETATM   14  C3  UNL     1      -8.841  36.292  -8.060  1.00  0.00     0.288 C 
HETATM   15  C2  UNL     1      -7.575  35.595  -7.809  1.00  0.00    -0.024 C 
HETATM   16  C1  UNL     1      -6.983  34.736  -8.595  1.00  0.00     0.020 C 
HETATM   17  C6  UNL     1      -6.738  34.805  -5.703  1.00  0.00     0.023 C 
HETATM   18  C7  UNL     1      -5.914  36.919  -6.685  1.00  0.00     0.017 C 
HETATM   19  C8  UNL     1      -5.809  38.144  -5.848  1.00  0.00     0.006 C 
HETATM   20  C9  UNL     1      -7.127  38.870  -5.689  1.00  0.00    -0.004 C 
HETATM   21  C10 UNL     1      -6.870  40.066  -4.813  1.00  0.00     0.011 C 
HETATM   22  C12 UNL     1      -9.482  38.679  -5.149  1.00  0.00     0.022 C 
BRANCH  14  23
HETATM   23  O1  UNL     1      -8.703  37.027  -9.236  1.00  0.00    -0.367 OA
ATOM     24  H1  UNL     1      -7.871  37.484  -9.200  1.00  0.00     0.213 HD
ENDBRANCH  14  23
ENDBRANCH   9  10
ENDBRANCH   1   8
BRANCH   6  25
HETATM   25  C22 UNL     1      -5.628  34.443  -1.961  1.00  0.00     0.184 C 
HETATM   26  O6  UNL     1      -4.978  35.012  -2.845  1.00  0.00    -0.647 OA
HETATM   27  O7  UNL     1      -4.983  33.358  -1.330  1.00  0.00    -0.647 OA
ENDBRANCH   6  25
BRANCH   5  28
HETATM   28  O3  UNL     1      -8.304  34.182   0.397  1.00  0.00    -0.253 OA
BRANCH  28  29
HETATM   29  S1  UNL     1      -8.465  32.933   1.474  1.00  0.00     0.356 S 
HETATM   30  O4  UNL     1      -7.385  31.923   1.206  1.00  0.00    -0.176 OA
HETATM   31  O5  UNL     1      -9.776  32.216   1.343  1.00  0.00    -0.176 OA
BRANCH  29  32
HETATM   32  N1  UNL     1      -8.324  33.436   3.119  1.00  0.00    -0.306 N 
ATOM     33  H12 UNL     1      -7.467  33.836   3.500  1.00  0.00     0.171 HD
ATOM     34  H11 UNL     1      -9.179  33.290   3.656  1.00  0.00     0.171 HD
ENDBRANCH  29  32
ENDBRANCH  28  29
ENDBRANCH   5  28
TORSDOF 7
ENDMDL
MODEL 4
REMARK VINA RESULT: -6.397210844      3.494      8.068
REMARK  7 active torsions:
REMARK  status: ('A' for Active; 'I' for Inactive)
REMARK    1  A    between atoms: C3_3  and  O1_4 
REMARK    2  A    between atoms: C11_14  and  C13_16 
REMARK    3  A    between atoms: C14_17  and  C15_18 
REMARK    4  A    between atoms: C19_22  and  O3_23 
REMARK    5  A    between atoms: O3_23  and  S1_24 
REMARK    6  A    between atoms: S1_24  and  N1_25 
REMARK    7  A    between atoms: C20_30  and  C22_32 
ROOT
HETATM    1  C15 UNL     1      -7.907  37.377  -4.297  1.00  0.00     0.029 C 
HETATM    2  C16 UNL     1      -7.775  38.819  -3.885  1.00  0.00     0.010 C 
HETATM    3  C17 UNL     1      -7.359  39.574  -5.157  1.00  0.00     0.003 C 
HETATM    4  C18 UNL     1      -8.390  39.404  -6.219  1.00  0.00     0.035 C 
HETATM    5  C19 UNL     1      -8.712  37.967  -6.537  1.00  0.00     0.163 C 
HETATM    6  C20 UNL     1      -8.998  37.165  -5.274  1.00  0.00     0.079 C 
HETATM    7  C21 UNL     1      -8.981  35.703  -5.689  1.00  0.00     0.030 C 
ENDROOT
BRANCH   1   8
HETATM    8  C14 UNL     1      -7.851  36.429  -3.175  1.00  0.00    -0.024 C 
HETATM    9  C13 UNL     1      -6.788  35.856  -2.683  1.00  0.00    -0.018 C 
BRANCH   9  10
HETATM   10  C11 UNL     1      -6.785  34.905  -1.548  1.00  0.00     0.004 C 
HETATM   11  C4  UNL     1      -7.175  35.500  -0.233  1.00  0.00     0.149 C 
HETATM   12  O2  UNL     1      -7.701  34.495   0.568  1.00  0.00    -0.350 OA
HETATM   13  C5  UNL     1      -6.158  36.238   0.515  1.00  0.00     0.011 C 
HETATM   14  C3  UNL     1      -7.433  34.788   1.872  1.00  0.00     0.288 C 
HETATM   15  C2  UNL     1      -6.509  35.924   1.940  1.00  0.00    -0.024 C 
HETATM   16  C1  UNL     1      -6.086  36.528   3.019  1.00  0.00     0.020 C 
HETATM   17  C6  UNL     1      -6.335  37.758   0.401  1.00  0.00     0.023 C 
HETATM   18  C7  UNL     1      -4.740  35.872   0.314  1.00  0.00     0.017 C 
HETATM   19  C8  UNL     1      -4.407  35.230  -0.985  1.00  0.00     0.006 C 
HETATM   20  C9  UNL     1      -5.441  34.221  -1.433  1.00  0.00    -0.004 C 
HETATM   21  C10 UNL     1      -4.981  33.674  -2.757  1.00  0.00     0.011 C 
HETATM   22  C12 UNL     1      -7.795  33.770  -1.791  1.00  0.00     0.022 C 
BRANCH  14  23
HETATM   23  O1  UNL     1      -6.873  33.733   2.589  1.00  0.00    -0.367 OA
ATOM     24  H1  UNL     1      -6.387  33.189   1.980  1.00  0.00     0.213 HD
ENDBRANCH  14  23
ENDBRANCH   9  10
ENDBRANCH   1   8
BRANCH   6  25
HETATM   25  C22 UNL     1     -10.346  37.502  -4.835  1.00  0.00     0.184 C 
HETATM   26  O6  UNL     1     -10.881  38.614  -4.782  1.00  0.00    -0.647 OA
HETATM   27  O7  UNL     1     -11.148  36.418  -4.415  1.00  0.00    -0.647 OA
ENDBRANCH   6  25
BRANCH   5  28
HETATM   28  O3  UNL     1      -7.748  37.345  -7.287  1.00  0.00    -0.253 OA
BRANCH  28  29
HETATM   29  S1  UNL     1      -8.120  37.169  -8.892  1.00  0.00     0.356 S 
HETATM   30  O4  UNL     1      -8.429  38.522  -9.467  1.00  0.00    -0.176 OA
HETATM   31  O5  UNL     1      -9.330  36.311  -9.119  1.00  0.00    -0.176 OA
BRANCH  29  32
HETATM   32  N1  UNL     1      -6.832  36.483  -9.814  1.00  0.00    -0.306 N 
ATOM     33  H12 UNL     1      -6.886  35.550 -10.224  1.00  0.00     0.171 HD
ATOM     34  H11 UNL     1      -6.028  37.104  -9.901  1.00  0.00     0.171 HD
ENDBRANCH  29  32
ENDBRANCH  28  29
ENDBRANCH   5  28
TORSDOF 7
ENDMDL
MODEL 5
REMARK VINA RESULT: -6.372308977      1.290      1.812
REMARK  7 active torsions:
REMARK  status: ('A' for Active; 'I' for Inactive)
REMARK    1  A    between atoms: C3_3  and  O1_4 
REMARK    2  A    between atoms: C11_14  and  C13_16 
REMARK    3  A    between atoms: C14_17  and  C15_18 
REMARK    4  A    between atoms: C19_22  and  O3_23 
REMARK    5  A    between atoms: O3_23  and  S1_24 
REMARK    6  A    between atoms: S1_24  and  N1_25 
REMARK    7  A    between atoms: C20_30  and  C22_32 
ROOT
HETATM    1  C15 UNL     1      -6.850  36.562  -1.068  1.00  0.00     0.029 C 
HETATM    2  C16 UNL     1      -6.636  37.721  -0.132  1.00  0.00     0.010 C 
HETATM    3  C17 UNL     1      -7.395  37.357   1.154  1.00  0.00     0.003 C 
HETATM    4  C18 UNL     1      -6.862  36.089   1.727  1.00  0.00     0.035 C 
HETATM    5  C19 UNL     1      -6.865  34.931   0.763  1.00  0.00     0.163 C 
HETATM    6  C20 UNL     1      -6.235  35.310  -0.571  1.00  0.00     0.079 C 
HETATM    7  C21 UNL     1      -6.590  34.194  -1.539  1.00  0.00     0.030 C 
ENDROOT
BRANCH   1   8
HETATM    8  C14 UNL     1      -6.606  36.885  -2.481  1.00  0.00    -0.024 C 
HETATM    9  C13 UNL     1      -7.500  37.038  -3.418  1.00  0.00    -0.018 C 
BRANCH   9  10
HETATM   10  C11 UNL     1      -7.201  37.363  -4.832  1.00  0.00     0.004 C 
HETATM   11  C4  UNL     1      -7.745  38.675  -5.299  1.00  0.00     0.149 C 
HETATM   12  O2  UNL     1      -6.955  39.133  -6.344  1.00  0.00    -0.350 OA
HETATM   13  C5  UNL     1      -9.153  38.735  -5.689  1.00  0.00     0.011 C 
HETATM   14  C3  UNL     1      -7.729  39.871  -7.188  1.00  0.00     0.288 C 
HETATM   15  C2  UNL     1      -9.139  39.731  -6.811  1.00  0.00    -0.024 C 
HETATM   16  C1  UNL     1     -10.159  40.347  -7.346  1.00  0.00     0.020 C 
HETATM   17  C6  UNL     1     -10.032  39.382  -4.610  1.00  0.00     0.023 C 
HETATM   18  C7  UNL     1      -9.790  37.501  -6.195  1.00  0.00     0.017 C 
HETATM   19  C8  UNL     1      -9.181  36.219  -5.751  1.00  0.00     0.006 C 
HETATM   20  C9  UNL     1      -7.669  36.250  -5.742  1.00  0.00    -0.004 C 
HETATM   21  C10 UNL     1      -7.202  34.904  -5.259  1.00  0.00     0.011 C 
HETATM   22  C12 UNL     1      -5.681  37.455  -5.056  1.00  0.00     0.022 C 
BRANCH  14  23
HETATM   23  O1  UNL     1      -7.605  39.518  -8.531  1.00  0.00    -0.367 OA
ATOM     24  H1  UNL     1      -7.427  40.309  -9.027  1.00  0.00     0.213 HD
ENDBRANCH  14  23
ENDBRANCH   9  10
ENDBRANCH   1   8
BRANCH   6  25
HETATM   25  C22 UNL     1      -4.790  35.318  -0.388  1.00  0.00     0.184 C 
HETATM   26  O6  UNL     1      -3.934  35.903  -1.060  1.00  0.00    -0.647 OA
HETATM   27  O7  UNL     1      -4.300  34.558   0.696  1.00  0.00    -0.647 OA
ENDBRANCH   6  25
BRANCH   5  28
HETATM   28  O3  UNL     1      -8.109  34.390   0.565  1.00  0.00    -0.253 OA
BRANCH  28  29
HETATM   29  S1  UNL     1      -8.452  33.069   1.505  1.00  0.00     0.356 S 
HETATM   30  O4  UNL     1      -7.470  31.979   1.181  1.00  0.00    -0.176 OA
HETATM   31  O5  UNL     1      -9.822  32.513   1.251  1.00  0.00    -0.176 OA
BRANCH  29  32
HETATM   32  N1  UNL     1      -8.342  33.396   3.196  1.00  0.00    -0.306 N 
ATOM     33  H12 UNL     1      -8.587  34.300   3.598  1.00  0.00     0.171 HD
ATOM     34  H11 UNL     1      -8.011  32.596   3.737  1.00  0.00     0.171 HD
ENDBRANCH  29  32
ENDBRANCH  28  29
ENDBRANCH   5  28
TORSDOF 7
ENDMDL
