MODEL 1
REMARK VINA RESULT: -7.906838512      0.000      0.000
REMARK  11 active torsions:
REMARK  status: ('A' for Active; 'I' for Inactive)
REMARK    1  A    between atoms: N1_2  and  C4_5 
REMARK    2  A    between atoms: C4_5  and  C5_6 
REMARK    3  A    between atoms: C5_6  and  C6_7 
REMARK    4  A    between atoms: C6_7  and  C7_8 
REMARK       I    between atoms: C7_8  and  N2_10 
REMARK    5  A    between atoms: C12_21  and  O3_22 
REMARK    6  A    between atoms: N6_27  and  N7_29 
REMARK    7  A    between atoms: N9_34  and  C14_35 
REMARK    8  A    between atoms: C14_35  and  C15_36 
REMARK    9  A    between atoms: C15_36  and  C16_37 
REMARK   10  A    between atoms: C16_37  and  C17_38 
REMARK   11  A    between atoms: C17_38  and  C18_39 
ROOT
HETATM    1  C18 UNL     1      15.557 -11.155  16.120  1.00  0.00     0.124 C 
HETATM    2  C19 UNL     1      16.547 -10.173  15.647  1.00  0.00     0.059 C 
HETATM    3  N10 UNL     1      17.334  -9.416  15.263  1.00  0.00    -0.197 NA
ENDROOT
BRANCH   1   4
HETATM    4  C17 UNL     1      16.139 -11.724  17.411  1.00  0.00     0.014 C 
BRANCH   4   5
HETATM    5  C16 UNL     1      15.098 -12.478  18.189  1.00  0.00     0.002 C 
BRANCH   5   6
HETATM    6  C15 UNL     1      14.475 -11.606  19.215  1.00  0.00     0.022 C 
BRANCH   6   7
HETATM    7  C14 UNL     1      15.186 -11.628  20.543  1.00  0.00     0.167 C 
BRANCH   7   8
HETATM    8  N9  UNL     1      14.881 -12.875  21.292  1.00  0.00    -0.012 N 
HETATM    9  C8  UNL     1      16.039 -13.675  21.631  1.00  0.00     0.704 C 
HETATM   10  N2  UNL     1      17.206 -13.176  21.392  1.00  0.00    -0.159 N 
HETATM   11  N3  UNL     1      16.012 -14.940  22.260  1.00  0.00    -0.159 N 
HETATM   12  C7  UNL     1      18.400 -13.813  21.719  1.00  0.00     0.235 C 
ATOM     13  H2  UNL     1      17.255 -12.264  20.939  1.00  0.00     0.187 HD
HETATM   14  O1  UNL     1      18.555 -15.068  21.766  1.00  0.00    -0.273 OA
HETATM   15  C9  UNL     1      15.346 -16.119  21.849  1.00  0.00     0.237 C 
ATOM     16  H3  UNL     1      16.544 -15.014  23.126  1.00  0.00     0.187 HD
HETATM   17  O2  UNL     1      14.563 -16.707  22.638  1.00  0.00    -0.273 OA
HETATM   18  C10 UNL     1      15.506 -16.750  20.489  1.00  0.00     0.123 C 
HETATM   19  C11 UNL     1      14.095 -17.011  20.021  1.00  0.00     0.132 C 
HETATM   20  N4  UNL     1      13.612 -15.783  19.443  1.00  0.00    -0.355 N 
HETATM   21  C12 UNL     1      12.635 -14.898  19.950  1.00  0.00     0.231 C 
ATOM     22  H4  UNL     1      14.030 -15.519  18.550  1.00  0.00     0.163 HD
HETATM   23  N5  UNL     1      12.668 -14.166  21.158  1.00  0.00    -0.153 N 
HETATM   24  C13 UNL     1      13.526 -13.128  21.597  1.00  0.00     0.717 C 
ATOM     25  H5  UNL     1      11.949 -14.431  21.831  1.00  0.00     0.188 HD
HETATM   26  N6  UNL     1      12.969 -12.220  22.438  1.00  0.00    -0.117 N 
ATOM     27  H6  UNL     1      13.548 -11.454  22.782  1.00  0.00     0.207 HD
BRANCH  12  28
HETATM   28  C6  UNL     1      19.581 -12.978  22.035  1.00  0.00     0.105 C 
BRANCH  28  29
HETATM   29  C5  UNL     1      20.491 -13.531  23.066  1.00  0.00     0.037 C 
BRANCH  29  30
HETATM   30  C4  UNL     1      20.095 -13.223  24.481  1.00  0.00     0.236 C 
BRANCH  30  31
HETATM   31  N1  UNL     1      19.949 -14.439  25.266  1.00  0.00    -0.079 N 
HETATM   32  C1  UNL     1      20.798 -15.471  24.688  1.00  0.00     0.271 C 
HETATM   33  C2  UNL     1      20.412 -14.178  26.606  1.00  0.00     0.271 C 
HETATM   34  C3  UNL     1      18.598 -14.911  25.329  1.00  0.00     0.271 C 
ENDBRANCH  30  31
ENDBRANCH  29  30
ENDBRANCH  28  29
ENDBRANCH  12  28
BRANCH  21  35
HETATM   35  O3  UNL     1      11.598 -14.792  19.152  1.00  0.00    -0.332 OA
ATOM     36  H3  UNL     1      10.951 -14.180  19.482  1.00  0.00     0.220 HD
ENDBRANCH  21  35
BRANCH  26  37
HETATM   37  N7  UNL     1      11.671 -12.287  22.842  1.00  0.00    -0.235 N 
HETATM   38  N8  UNL     1      11.169 -11.396  23.583  1.00  0.00    -0.330 N 
ATOM     39  H82 UNL     1      11.761 -10.619  23.874  1.00  0.00     0.178 HD
ATOM     40  H81 UNL     1      10.196 -11.446  23.885  1.00  0.00     0.178 HD
ATOM     41  H7  UNL     1      11.092 -13.072  22.541  1.00  0.00     0.208 HD
ENDBRANCH  26  37
ENDBRANCH   7   8
ENDBRANCH   6   7
ENDBRANCH   5   6
ENDBRANCH   4   5
ENDBRANCH   1   4
TORSDOF 11
ENDMDL
MODEL 2
REMARK VINA RESULT: -7.120652129      2.692      7.469
REMARK  11 active torsions:
REMARK  status: ('A' for Active; 'I' for Inactive)
REMARK    1  A    between atoms: N1_2  and  C4_5 
REMARK    2  A    between atoms: C4_5  and  C5_6 
REMARK    3  A    between atoms: C5_6  and  C6_7 
REMARK    4  A    between atoms: C6_7  and  C7_8 
REMARK       I    between atoms: C7_8  and  N2_10 
REMARK    5  A    between atoms: C12_21  and  O3_22 
REMARK    6  A    between atoms: N6_27  and  N7_29 
REMARK    7  A    between atoms: N9_34  and  C14_35 
REMARK    8  A    between atoms: C14_35  and  C15_36 
REMARK    9  A    between atoms: C15_36  and  C16_37 
REMARK   10  A    between atoms: C16_37  and  C17_38 
REMARK   11  A    between atoms: C17_38  and  C18_39 
ROOT
HETATM    1  C18 UNL     1      21.645 -13.315  25.031  1.00  0.00     0.124 C 
HETATM    2  C19 UNL     1      22.063 -14.545  24.338  1.00  0.00     0.059 C 
HETATM    3  N10 UNL     1      22.399 -15.501  23.778  1.00  0.00    -0.197 NA
ENDROOT
BRANCH   1   4
HETATM    4  C17 UNL     1      20.187 -13.104  24.633  1.00  0.00     0.014 C 
BRANCH   4   5
HETATM    5  C16 UNL     1      20.048 -12.947  23.145  1.00  0.00     0.002 C 
BRANCH   5   6
HETATM    6  C15 UNL     1      18.704 -13.384  22.693  1.00  0.00     0.022 C 
BRANCH   6   7
HETATM    7  C14 UNL     1      18.701 -14.024  21.330  1.00  0.00     0.167 C 
BRANCH   7   8
HETATM    8  N9  UNL     1      18.431 -15.482  21.426  1.00  0.00    -0.012 N 
HETATM    9  C8  UNL     1      17.102 -15.880  21.012  1.00  0.00     0.704 C 
HETATM   10  N2  UNL     1      16.346 -14.983  20.475  1.00  0.00    -0.159 N 
HETATM   11  N3  UNL     1      16.570 -17.187  21.091  1.00  0.00    -0.159 N 
HETATM   12  C7  UNL     1      15.069 -15.242  19.983  1.00  0.00     0.235 C 
ATOM     13  H2  UNL     1      16.704 -14.031  20.406  1.00  0.00     0.187 HD
HETATM   14  O1  UNL     1      14.293 -16.133  20.434  1.00  0.00    -0.273 OA
HETATM   15  C9  UNL     1      16.445 -18.025  22.224  1.00  0.00     0.237 C 
ATOM     16  H3  UNL     1      16.231 -17.579  20.213  1.00  0.00     0.187 HD
HETATM   17  O2  UNL     1      16.925 -19.187  22.203  1.00  0.00    -0.273 OA
HETATM   18  C10 UNL     1      15.754 -17.622  23.502  1.00  0.00     0.123 C 
HETATM   19  C11 UNL     1      16.720 -18.006  24.595  1.00  0.00     0.132 C 
HETATM   20  N4  UNL     1      17.668 -16.928  24.715  1.00  0.00    -0.355 N 
HETATM   21  C12 UNL     1      19.032 -16.912  24.348  1.00  0.00     0.231 C 
ATOM     22  H4  UNL     1      17.307 -16.063  25.118  1.00  0.00     0.163 HD
HETATM   23  N5  UNL     1      19.588 -17.087  23.061  1.00  0.00    -0.153 N 
HETATM   24  C13 UNL     1      19.484 -16.303  21.885  1.00  0.00     0.717 C 
ATOM     25  H5  UNL     1      20.163 -17.922  22.961  1.00  0.00     0.188 HD
HETATM   26  N6  UNL     1      20.565 -16.329  21.064  1.00  0.00    -0.117 N 
ATOM     27  H6  UNL     1      20.537 -15.781  20.204  1.00  0.00     0.207 HD
BRANCH  12  28
HETATM   28  C6  UNL     1      14.569 -14.425  18.854  1.00  0.00     0.105 C 
BRANCH  28  29
HETATM   29  C5  UNL     1      14.997 -13.005  18.862  1.00  0.00     0.037 C 
BRANCH  29  30
HETATM   30  C4  UNL     1      14.013 -12.058  19.484  1.00  0.00     0.236 C 
BRANCH  30  31
HETATM   31  N1  UNL     1      14.479 -11.584  20.777  1.00  0.00    -0.079 N 
HETATM   32  C1  UNL     1      13.946 -10.248  21.004  1.00  0.00     0.271 C 
HETATM   33  C2  UNL     1      13.956 -12.455  21.801  1.00  0.00     0.271 C 
HETATM   34  C3  UNL     1      15.907 -11.553  20.886  1.00  0.00     0.271 C 
ENDBRANCH  30  31
ENDBRANCH  29  30
ENDBRANCH  28  29
ENDBRANCH  12  28
BRANCH  21  35
HETATM   35  O3  UNL     1      19.822 -16.706  25.376  1.00  0.00    -0.332 OA
ATOM     36  H3  UNL     1      20.557 -16.146  25.159  1.00  0.00     0.220 HD
ENDBRANCH  21  35
BRANCH  26  37
HETATM   37  N7  UNL     1      21.684 -17.054  21.338  1.00  0.00    -0.235 N 
HETATM   38  N8  UNL     1      22.466 -17.423  20.418  1.00  0.00    -0.330 N 
ATOM     39  H82 UNL     1      22.241 -17.164  19.458  1.00  0.00     0.178 HD
ATOM     40  H81 UNL     1      23.305 -17.966  20.623  1.00  0.00     0.178 HD
ATOM     41  H7  UNL     1      21.894 -17.305  22.305  1.00  0.00     0.208 HD
ENDBRANCH  26  37
ENDBRANCH   7   8
ENDBRANCH   6   7
ENDBRANCH   5   6
ENDBRANCH   4   5
ENDBRANCH   1   4
TORSDOF 11
ENDMDL
MODEL 3
REMARK VINA RESULT: -7.026080051      3.136      8.742
REMARK  11 active torsions:
REMARK  status: ('A' for Active; 'I' for Inactive)
REMARK    1  A    between atoms: N1_2  and  C4_5 
REMARK    2  A    between atoms: C4_5  and  C5_6 
REMARK    3  A    between atoms: C5_6  and  C6_7 
REMARK    4  A    between atoms: C6_7  and  C7_8 
REMARK       I    between atoms: C7_8  and  N2_10 
REMARK    5  A    between atoms: C12_21  and  O3_22 
REMARK    6  A    between atoms: N6_27  and  N7_29 
REMARK    7  A    between atoms: N9_34  and  C14_35 
REMARK    8  A    between atoms: C14_35  and  C15_36 
REMARK    9  A    between atoms: C15_36  and  C16_37 
REMARK   10  A    between atoms: C16_37  and  C17_38 
REMARK   11  A    between atoms: C17_38  and  C18_39 
ROOT
HETATM    1  C18 UNL     1      17.924 -16.171  25.043  1.00  0.00     0.124 C 
HETATM    2  C19 UNL     1      17.421 -17.550  24.932  1.00  0.00     0.059 C 
HETATM    3  N10 UNL     1      17.010 -18.630  24.859  1.00  0.00    -0.197 NA
ENDROOT
BRANCH   1   4
HETATM    4  C17 UNL     1      19.009 -16.223  26.115  1.00  0.00     0.014 C 
BRANCH   4   5
HETATM    5  C16 UNL     1      19.389 -14.841  26.569  1.00  0.00     0.002 C 
BRANCH   5   6
HETATM    6  C15 UNL     1      20.756 -14.495  26.106  1.00  0.00     0.022 C 
BRANCH   6   7
HETATM    7  C14 UNL     1      20.778 -13.632  24.872  1.00  0.00     0.167 C 
BRANCH   7   8
HETATM    8  N9  UNL     1      21.171 -14.421  23.676  1.00  0.00    -0.012 N 
HETATM    9  C8  UNL     1      20.210 -14.399  22.593  1.00  0.00     0.704 C 
HETATM   10  N2  UNL     1      19.201 -13.602  22.702  1.00  0.00    -0.159 N 
HETATM   11  N3  UNL     1      20.305 -15.134  21.390  1.00  0.00    -0.159 N 
HETATM   12  C7  UNL     1      18.233 -13.441  21.713  1.00  0.00     0.235 C 
ATOM     13  H2  UNL     1      19.106 -13.059  23.560  1.00  0.00     0.187 HD
HETATM   14  O1  UNL     1      17.886 -14.341  20.895  1.00  0.00    -0.273 OA
HETATM   15  C9  UNL     1      20.437 -16.531  21.215  1.00  0.00     0.237 C 
ATOM     16  H3  UNL     1      20.275 -14.583  20.533  1.00  0.00     0.187 HD
HETATM   17  O2  UNL     1      21.381 -16.993  20.523  1.00  0.00    -0.273 OA
HETATM   18  C10 UNL     1      19.502 -17.551  21.814  1.00  0.00     0.123 C 
HETATM   19  C11 UNL     1      20.409 -18.575  22.449  1.00  0.00     0.132 C 
HETATM   20  N4  UNL     1      20.763 -18.071  23.751  1.00  0.00    -0.355 N 
HETATM   21  C12 UNL     1      22.012 -17.578  24.193  1.00  0.00     0.231 C 
ATOM     22  H4  UNL     1      20.014 -18.068  24.444  1.00  0.00     0.163 HD
HETATM   23  N5  UNL     1      22.727 -16.462  23.707  1.00  0.00    -0.153 N 
HETATM   24  C13 UNL     1      22.420 -15.078  23.720  1.00  0.00     0.717 C 
ATOM     25  H5  UNL     1      23.620 -16.691  23.271  1.00  0.00     0.188 HD
HETATM   26  N6  UNL     1      23.485 -14.240  23.795  1.00  0.00    -0.117 N 
ATOM     27  H6  UNL     1      23.314 -13.235  23.806  1.00  0.00     0.207 HD
BRANCH  12  28
HETATM   28  C6  UNL     1      17.553 -12.130  21.600  1.00  0.00     0.105 C 
BRANCH  28  29
HETATM   29  C5  UNL     1      16.319 -12.126  20.779  1.00  0.00     0.037 C 
BRANCH  29  30
HETATM   30  C4  UNL     1      15.054 -12.373  21.549  1.00  0.00     0.236 C 
BRANCH  30  31
HETATM   31  N1  UNL     1      13.916 -11.720  20.922  1.00  0.00    -0.079 N 
HETATM   32  C1  UNL     1      14.234 -11.475  19.522  1.00  0.00     0.271 C 
HETATM   33  C2  UNL     1      12.786 -12.613  20.976  1.00  0.00     0.271 C 
HETATM   34  C3  UNL     1      13.557 -10.485  21.553  1.00  0.00     0.271 C 
ENDBRANCH  30  31
ENDBRANCH  29  30
ENDBRANCH  28  29
ENDBRANCH  12  28
BRANCH  21  35
HETATM   35  O3  UNL     1      22.509 -18.294  25.175  1.00  0.00    -0.332 OA
ATOM     36  H3  UNL     1      23.291 -17.902  25.545  1.00  0.00     0.220 HD
ENDBRANCH  21  35
BRANCH  26  37
HETATM   37  N7  UNL     1      24.771 -14.683  23.856  1.00  0.00    -0.235 N 
HETATM   38  N8  UNL     1      25.383 -15.059  22.818  1.00  0.00    -0.330 N 
ATOM     39  H82 UNL     1      24.891 -15.025  21.925  1.00  0.00     0.178 HD
ATOM     40  H81 UNL     1      26.346 -15.391  22.863  1.00  0.00     0.178 HD
ATOM     41  H7  UNL     1      25.249 -14.712  24.757  1.00  0.00     0.208 HD
ENDBRANCH  26  37
ENDBRANCH   7   8
ENDBRANCH   6   7
ENDBRANCH   5   6
ENDBRANCH   4   5
ENDBRANCH   1   4
TORSDOF 11
ENDMDL
MODEL 4
REMARK VINA RESULT: -7.025602560      2.870      7.903
REMARK  11 active torsions:
REMARK  status: ('A' for Active; 'I' for Inactive)
REMARK    1  A    between atoms: N1_2  and  C4_5 
REMARK    2  A    between atoms: C4_5  and  C5_6 
REMARK    3  A    between atoms: C5_6  and  C6_7 
REMARK    4  A    between atoms: C6_7  and  C7_8 
REMARK       I    between atoms: C7_8  and  N2_10 
REMARK    5  A    between atoms: C12_21  and  O3_22 
REMARK    6  A    between atoms: N6_27  and  N7_29 
REMARK    7  A    between atoms: N9_34  and  C14_35 
REMARK    8  A    between atoms: C14_35  and  C15_36 
REMARK    9  A    between atoms: C15_36  and  C16_37 
REMARK   10  A    between atoms: C16_37  and  C17_38 
REMARK   11  A    between atoms: C17_38  and  C18_39 
ROOT
HETATM    1  C18 UNL     1      21.982 -12.910  24.958  1.00  0.00     0.124 C 
HETATM    2  C19 UNL     1      22.284 -14.205  24.326  1.00  0.00     0.059 C 
HETATM    3  N10 UNL     1      22.523 -15.213  23.810  1.00  0.00    -0.197 NA
ENDROOT
BRANCH   1   4
HETATM    4  C17 UNL     1      20.461 -12.866  25.078  1.00  0.00     0.014 C 
BRANCH   4   5
HETATM    5  C16 UNL     1      19.806 -13.036  23.736  1.00  0.00     0.002 C 
BRANCH   5   6
HETATM    6  C15 UNL     1      18.600 -13.893  23.845  1.00  0.00     0.022 C 
BRANCH   6   7
HETATM    7  C14 UNL     1      18.170 -14.504  22.538  1.00  0.00     0.167 C 
BRANCH   7   8
HETATM    8  N9  UNL     1      18.228 -15.988  22.596  1.00  0.00    -0.012 N 
HETATM    9  C8  UNL     1      16.942 -16.647  22.523  1.00  0.00     0.704 C 
HETATM   10  N2  UNL     1      15.906 -15.919  22.271  1.00  0.00    -0.159 N 
HETATM   11  N3  UNL     1      16.719 -18.037  22.646  1.00  0.00    -0.159 N 
HETATM   12  C7  UNL     1      14.620 -16.431  22.118  1.00  0.00     0.235 C 
ATOM     13  H2  UNL     1      16.037 -14.912  22.178  1.00  0.00     0.187 HD
HETATM   14  O1  UNL     1      14.189 -17.471  22.694  1.00  0.00    -0.273 OA
HETATM   15  C9  UNL     1      17.076 -18.900  23.708  1.00  0.00     0.237 C 
ATOM     16  H3  UNL     1      16.236 -18.478  21.864  1.00  0.00     0.187 HD
HETATM   17  O2  UNL     1      17.751 -19.937  23.478  1.00  0.00    -0.273 OA
HETATM   18  C10 UNL     1      16.698 -18.669  25.149  1.00  0.00     0.123 C 
HETATM   19  C11 UNL     1      17.983 -18.861  25.917  1.00  0.00     0.132 C 
HETATM   20  N4  UNL     1      18.696 -17.611  25.858  1.00  0.00    -0.355 N 
HETATM   21  C12 UNL     1      19.876 -17.305  25.144  1.00  0.00     0.231 C 
ATOM     22  H4  UNL     1      18.296 -16.846  26.403  1.00  0.00     0.163 HD
HETATM   23  N5  UNL     1      20.080 -17.341  23.747  1.00  0.00    -0.153 N 
HETATM   24  C13 UNL     1      19.507 -16.578  22.699  1.00  0.00     0.717 C 
ATOM     25  H5  UNL     1      20.759 -18.036  23.438  1.00  0.00     0.188 HD
HETATM   26  N6  UNL     1      20.304 -16.365  21.622  1.00  0.00    -0.117 N 
ATOM     27  H6  UNL     1      19.934 -15.822  20.842  1.00  0.00     0.207 HD
BRANCH  12  28
HETATM   28  C6  UNL     1      13.680 -15.719  21.224  1.00  0.00     0.105 C 
BRANCH  28  29
HETATM   29  C5  UNL     1      13.328 -14.341  21.643  1.00  0.00     0.037 C 
BRANCH  29  30
HETATM   30  C4  UNL     1      13.135 -13.373  20.512  1.00  0.00     0.236 C 
BRANCH  30  31
HETATM   31  N1  UNL     1      13.775 -12.097  20.793  1.00  0.00    -0.079 N 
HETATM   32  C1  UNL     1      12.905 -11.322  21.666  1.00  0.00     0.271 C 
HETATM   33  C2  UNL     1      15.008 -12.347  21.498  1.00  0.00     0.271 C 
HETATM   34  C3  UNL     1      14.065 -11.339  19.613  1.00  0.00     0.271 C 
ENDBRANCH  30  31
ENDBRANCH  29  30
ENDBRANCH  28  29
ENDBRANCH  12  28
BRANCH  21  35
HETATM   35  O3  UNL     1      20.861 -16.955  25.939  1.00  0.00    -0.332 OA
ATOM     36  H3  UNL     1      21.229 -16.111  25.704  1.00  0.00     0.220 HD
ENDBRANCH  21  35
BRANCH  26  37
HETATM   37  N7  UNL     1      21.575 -16.846  21.537  1.00  0.00    -0.235 N 
HETATM   38  N8  UNL     1      22.042 -17.269  20.443  1.00  0.00    -0.330 N 
ATOM     39  H82 UNL     1      21.444 -17.244  19.618  1.00  0.00     0.178 HD
ATOM     40  H81 UNL     1      22.995 -17.629  20.379  1.00  0.00     0.178 HD
ATOM     41  H7  UNL     1      22.160 -16.864  22.372  1.00  0.00     0.208 HD
ENDBRANCH  26  37
ENDBRANCH   7   8
ENDBRANCH   6   7
ENDBRANCH   5   6
ENDBRANCH   4   5
ENDBRANCH   1   4
TORSDOF 11
ENDMDL
MODEL 5
REMARK VINA RESULT: -6.890802409      1.921      3.132
REMARK  11 active torsions:
REMARK  status: ('A' for Active; 'I' for Inactive)
REMARK    1  A    between atoms: N1_2  and  C4_5 
REMARK    2  A    between atoms: C4_5  and  C5_6 
REMARK    3  A    between atoms: C5_6  and  C6_7 
REMARK    4  A    between atoms: C6_7  and  C7_8 
REMARK       I    between atoms: C7_8  and  N2_10 
REMARK    5  A    between atoms: C12_21  and  O3_22 
REMARK    6  A    between atoms: N6_27  and  N7_29 
REMARK    7  A    between atoms: N9_34  and  C14_35 
REMARK    8  A    between atoms: C14_35  and  C15_36 
REMARK    9  A    between atoms: C15_36  and  C16_37 
REMARK   10  A    between atoms: C16_37  and  C17_38 
REMARK   11  A    between atoms: C17_38  and  C18_39 
ROOT
HETATM    1  C18 UNL     1      13.184  -8.786  22.360  1.00  0.00     0.124 C 
HETATM    2  C19 UNL     1      12.177  -8.787  23.434  1.00  0.00     0.059 C 
HETATM    3  N10 UNL     1      11.393  -8.806  24.286  1.00  0.00    -0.197 NA
ENDROOT
BRANCH   1   4
HETATM    4  C17 UNL     1      12.520  -9.498  21.185  1.00  0.00     0.014 C 
BRANCH   4   5
HETATM    5  C16 UNL     1      13.499  -9.732  20.069  1.00  0.00     0.002 C 
BRANCH   5   6
HETATM    6  C15 UNL     1      13.799 -11.178  19.928  1.00  0.00     0.022 C 
BRANCH   6   7
HETATM    7  C14 UNL     1      15.000 -11.628  20.717  1.00  0.00     0.167 C 
BRANCH   7   8
HETATM    8  N9  UNL     1      14.739 -12.926  21.393  1.00  0.00    -0.012 N 
HETATM    9  C8  UNL     1      15.926 -13.692  21.709  1.00  0.00     0.704 C 
HETATM   10  N2  UNL     1      17.073 -13.131  21.519  1.00  0.00    -0.159 N 
HETATM   11  N3  UNL     1      15.946 -14.990  22.268  1.00  0.00    -0.159 N 
HETATM   12  C7  UNL     1      18.290 -13.732  21.832  1.00  0.00     0.235 C 
ATOM     13  H2  UNL     1      17.089 -12.194  21.116  1.00  0.00     0.187 HD
HETATM   14  O1  UNL     1      18.500 -14.979  21.814  1.00  0.00    -0.273 OA
HETATM   15  C9  UNL     1      15.340 -16.172  21.782  1.00  0.00     0.237 C 
ATOM     16  H3  UNL     1      16.467 -15.088  23.139  1.00  0.00     0.187 HD
HETATM   17  O2  UNL     1      14.571 -16.836  22.525  1.00  0.00    -0.273 OA
HETATM   18  C10 UNL     1      15.549 -16.721  20.394  1.00  0.00     0.123 C 
HETATM   19  C11 UNL     1      14.159 -17.017  19.887  1.00  0.00     0.132 C 
HETATM   20  N4  UNL     1      13.630 -15.782  19.367  1.00  0.00    -0.355 N 
HETATM   21  C12 UNL     1      12.607 -14.969  19.904  1.00  0.00     0.231 C 
ATOM     22  H4  UNL     1      14.050 -15.451  18.498  1.00  0.00     0.163 HD
HETATM   23  N5  UNL     1      12.588 -14.304  21.149  1.00  0.00    -0.153 N 
HETATM   24  C13 UNL     1      13.393 -13.254  21.660  1.00  0.00     0.717 C 
ATOM     25  H5  UNL     1      11.872 -14.637  21.794  1.00  0.00     0.188 HD
HETATM   26  N6  UNL     1      12.782 -12.419  22.538  1.00  0.00    -0.117 N 
ATOM     27  H6  UNL     1      13.321 -11.648  22.933  1.00  0.00     0.207 HD
BRANCH  12  28
HETATM   28  C6  UNL     1      19.427 -12.864  22.213  1.00  0.00     0.105 C 
BRANCH  28  29
HETATM   29  C5  UNL     1      20.400 -13.472  23.151  1.00  0.00     0.037 C 
BRANCH  29  30
HETATM   30  C4  UNL     1      20.120 -13.209  24.602  1.00  0.00     0.236 C 
BRANCH  30  31
HETATM   31  N1  UNL     1      20.057 -14.447  25.362  1.00  0.00    -0.079 N 
HETATM   32  C1  UNL     1      18.670 -14.887  25.421  1.00  0.00     0.271 C 
HETATM   33  C2  UNL     1      20.816 -15.454  24.664  1.00  0.00     0.271 C 
HETATM   34  C3  UNL     1      20.574 -14.321  26.692  1.00  0.00     0.271 C 
ENDBRANCH  30  31
ENDBRANCH  29  30
ENDBRANCH  28  29
ENDBRANCH  12  28
BRANCH  21  35
HETATM   35  O3  UNL     1      11.578 -14.865  19.094  1.00  0.00    -0.332 OA
ATOM     36  H3  UNL     1      10.760 -14.754  19.564  1.00  0.00     0.220 HD
ENDBRANCH  21  35
BRANCH  26  37
HETATM   37  N7  UNL     1      11.482 -12.565  22.914  1.00  0.00    -0.235 N 
HETATM   38  N8  UNL     1      10.949 -11.778  23.746  1.00  0.00    -0.330 N 
ATOM     39  H82 UNL     1      11.518 -11.025  24.133  1.00  0.00     0.178 HD
ATOM     40  H81 UNL     1       9.975 -11.887  24.028  1.00  0.00     0.178 HD
ATOM     41  H7  UNL     1      10.928 -13.324  22.517  1.00  0.00     0.208 HD
ENDBRANCH  26  37
ENDBRANCH   7   8
ENDBRANCH   6   7
ENDBRANCH   5   6
ENDBRANCH   4   5
ENDBRANCH   1   4
TORSDOF 11
ENDMDL
