MODEL 1
REMARK VINA RESULT: -8.348834118      0.000      0.000
REMARK  11 active torsions:
REMARK  status: ('A' for Active; 'I' for Inactive)
REMARK    1  A    between atoms: N1_2  and  C2_3 
REMARK    2  A    between atoms: C2_3  and  C3_4 
REMARK    3  A    between atoms: N3_9  and  C6_10 
REMARK    4  A    between atoms: C6_10  and  C7_11 
REMARK    5  A    between atoms: C7_11  and  C8_12 
REMARK    6  A    between atoms: C8_12  and  C9_13 
REMARK    7  A    between atoms: C9_13  and  C10_14 
REMARK    8  A    between atoms: C10_14  and  N4_15 
REMARK    9  A    between atoms: C14_24  and  C15_25 
REMARK   10  A    between atoms: N7_26  and  N8_28 
REMARK   11  A    between atoms: N8_28  and  N9_30 
ROOT
HETATM    1  N4  UNL     1      15.945 -12.574  20.134  1.00  0.00    -0.341 N 
HETATM    2  C11 UNL     1      16.199 -13.806  19.714  1.00  0.00     0.184 A 
HETATM    3  N5  UNL     1      15.185 -14.590  20.106  1.00  0.00    -0.346 N 
ATOM      4  H5  UNL     1      15.105 -15.590  19.925  1.00  0.00     0.167 HD
HETATM    5  C12 UNL     1      14.278 -13.833  20.783  1.00  0.00     0.129 A 
HETATM    6  C13 UNL     1      13.079 -14.059  21.403  1.00  0.00     0.275 A 
HETATM    7  O1  UNL     1      12.629 -15.249  21.387  1.00  0.00    -0.266 OA
HETATM    8  N6  UNL     1      12.405 -13.053  22.007  1.00  0.00    -0.320 N 
ATOM      9  H6  UNL     1      11.514 -13.253  22.461  1.00  0.00     0.169 HD
HETATM   10  C14 UNL     1      12.879 -11.804  22.023  1.00  0.00     0.054 A 
HETATM   11  C16 UNL     1      14.107 -11.516  21.401  1.00  0.00     0.063 A 
HETATM   12  C17 UNL     1      14.770 -12.552  20.797  1.00  0.00     0.070 A 
ENDROOT
BRANCH   1  13
HETATM   13  C10 UNL     1      16.789 -11.415  19.923  1.00  0.00     0.130 C 
BRANCH  13  14
HETATM   14  C9  UNL     1      17.991 -11.560  20.837  1.00  0.00     0.020 C 
BRANCH  14  15
HETATM   15  C8  UNL     1      19.200 -11.879  20.009  1.00  0.00     0.003 C 
BRANCH  15  16
HETATM   16  C7  UNL     1      19.760 -13.204  20.374  1.00  0.00     0.020 C 
BRANCH  16  17
HETATM   17  C6  UNL     1      19.784 -13.552  21.816  1.00  0.00     0.130 C 
BRANCH  17  18
HETATM   18  N3  UNL     1      19.043 -14.714  22.196  1.00  0.00    -0.344 N 
HETATM   19  C3  UNL     1      18.586 -15.015  23.429  1.00  0.00     0.054 A 
HETATM   20  C4  UNL     1      17.941 -16.225  23.275  1.00  0.00     0.115 A 
HETATM   21  N2  UNL     1      17.999 -16.649  22.007  1.00  0.00    -0.360 N 
HETATM   22  C5  UNL     1      18.687 -15.700  21.345  1.00  0.00     0.183 A 
ATOM     23  H2  UNL     1      17.605 -17.508  21.623  1.00  0.00     0.166 HD
BRANCH  19  24
HETATM   24  C2  UNL     1      18.735 -14.254  24.659  1.00  0.00     0.295 C 
BRANCH  24  25
HETATM   25  N1  UNL     1      19.892 -14.526  25.467  1.00  0.00    -0.063 N 
HETATM   26  C1  UNL     1      19.385 -15.249  26.662  1.00  0.00     0.273 C 
HETATM   27  C18 UNL     1      20.408 -13.292  26.088  1.00  0.00     0.256 C 
HETATM   28  C19 UNL     1      21.341 -12.552  25.191  1.00  0.00     0.142 C 
HETATM   29  N10 UNL     1      22.456 -13.397  24.913  1.00  0.00    -0.418 N 
HETATM   30  C20 UNL     1      22.151 -14.695  24.428  1.00  0.00     0.142 C 
ATOM     31  H10 UNL     1      23.417 -13.086  25.054  1.00  0.00     0.153 HD
HETATM   32  C21 UNL     1      20.900 -15.332  24.894  1.00  0.00     0.256 C 
ENDBRANCH  24  25
ENDBRANCH  19  24
ENDBRANCH  17  18
ENDBRANCH  16  17
ENDBRANCH  15  16
ENDBRANCH  14  15
ENDBRANCH  13  14
ENDBRANCH   1  13
BRANCH  10  33
HETATM   33  C15 UNL     1      12.159 -10.740  22.665  1.00  0.00     0.138 C 
HETATM   34  N7  UNL     1      11.221 -10.779  23.478  1.00  0.00    -0.296 N 
ATOM     35  H7  UNL     1      10.915  -9.848  23.759  1.00  0.00     0.187 HD
BRANCH  34  36
HETATM   36  N8  UNL     1      10.515 -11.744  24.075  1.00  0.00    -0.250 N 
ATOM     37  H8  UNL     1       9.719 -12.164  23.595  1.00  0.00     0.207 HD
BRANCH  36  38
HETATM   38  N9  UNL     1      10.839 -12.144  25.256  1.00  0.00    -0.331 N 
ATOM     39  H92 UNL     1      10.274 -11.848  26.050  1.00  0.00     0.178 HD
ATOM     40  H91 UNL     1      11.651 -12.749  25.385  1.00  0.00     0.178 HD
ENDBRANCH  36  38
ENDBRANCH  34  36
ENDBRANCH  10  33
TORSDOF 11
ENDMDL
MODEL 2
REMARK VINA RESULT: -8.242633100      2.025      3.022
REMARK  11 active torsions:
REMARK  status: ('A' for Active; 'I' for Inactive)
REMARK    1  A    between atoms: N1_2  and  C2_3 
REMARK    2  A    between atoms: C2_3  and  C3_4 
REMARK    3  A    between atoms: N3_9  and  C6_10 
REMARK    4  A    between atoms: C6_10  and  C7_11 
REMARK    5  A    between atoms: C7_11  and  C8_12 
REMARK    6  A    between atoms: C8_12  and  C9_13 
REMARK    7  A    between atoms: C9_13  and  C10_14 
REMARK    8  A    between atoms: C10_14  and  N4_15 
REMARK    9  A    between atoms: C14_24  and  C15_25 
REMARK   10  A    between atoms: N7_26  and  N8_28 
REMARK   11  A    between atoms: N8_28  and  N9_30 
ROOT
HETATM    1  N4  UNL     1      13.910 -12.999  19.573  1.00  0.00    -0.341 N 
HETATM    2  C11 UNL     1      14.690 -12.352  18.718  1.00  0.00     0.184 A 
HETATM    3  N5  UNL     1      14.745 -11.069  19.103  1.00  0.00    -0.346 N 
ATOM      4  H5  UNL     1      15.271 -10.333  18.634  1.00  0.00     0.167 HD
HETATM    5  C12 UNL     1      13.985 -10.910  20.221  1.00  0.00     0.129 A 
HETATM    6  C13 UNL     1      13.661  -9.869  21.048  1.00  0.00     0.275 A 
HETATM    7  O1  UNL     1      14.154  -8.729  20.771  1.00  0.00    -0.266 OA
HETATM    8  N6  UNL     1      12.849 -10.052  22.115  1.00  0.00    -0.320 N 
ATOM      9  H6  UNL     1      12.626  -9.256  22.712  1.00  0.00     0.169 HD
HETATM   10  C14 UNL     1      12.333 -11.249  22.404  1.00  0.00     0.054 A 
HETATM   11  C16 UNL     1      12.632 -12.354  21.587  1.00  0.00     0.063 A 
HETATM   12  C17 UNL     1      13.457 -12.143  20.513  1.00  0.00     0.070 A 
ENDROOT
BRANCH   1  13
HETATM   13  C10 UNL     1      13.582 -14.409  19.523  1.00  0.00     0.130 C 
BRANCH  13  14
HETATM   14  C9  UNL     1      14.855 -15.156  19.173  1.00  0.00     0.020 C 
BRANCH  14  15
HETATM   15  C8  UNL     1      15.451 -15.722  20.428  1.00  0.00     0.003 C 
BRANCH  15  16
HETATM   16  C7  UNL     1      16.478 -14.807  20.988  1.00  0.00     0.020 C 
BRANCH  16  17
HETATM   17  C6  UNL     1      17.717 -15.429  21.517  1.00  0.00     0.130 C 
BRANCH  17  18
HETATM   18  N3  UNL     1      18.781 -14.532  21.846  1.00  0.00    -0.344 N 
HETATM   19  C3  UNL     1      19.167 -14.153  23.081  1.00  0.00     0.054 A 
HETATM   20  C4  UNL     1      20.223 -13.291  22.866  1.00  0.00     0.115 A 
HETATM   21  N2  UNL     1      20.474 -13.146  21.560  1.00  0.00    -0.360 N 
HETATM   22  C5  UNL     1      19.571 -13.923  20.935  1.00  0.00     0.183 A 
ATOM     23  H2  UNL     1      21.197 -12.568  21.129  1.00  0.00     0.166 HD
BRANCH  19  24
HETATM   24  C2  UNL     1      18.606 -14.546  24.364  1.00  0.00     0.295 C 
BRANCH  24  25
HETATM   25  N1  UNL     1      19.279 -15.591  25.086  1.00  0.00    -0.063 N 
HETATM   26  C1  UNL     1      18.249 -16.630  25.341  1.00  0.00     0.273 C 
HETATM   27  C18 UNL     1      19.592 -15.166  26.463  1.00  0.00     0.256 C 
HETATM   28  C19 UNL     1      20.881 -14.422  26.550  1.00  0.00     0.142 C 
HETATM   29  N10 UNL     1      21.927 -15.290  26.114  1.00  0.00    -0.418 N 
HETATM   30  C20 UNL     1      21.740 -15.909  24.852  1.00  0.00     0.142 C 
ATOM     31  H10 UNL     1      22.761 -15.455  26.678  1.00  0.00     0.153 HD
HETATM   32  C21 UNL     1      20.358 -16.229  24.435  1.00  0.00     0.256 C 
ENDBRANCH  24  25
ENDBRANCH  19  24
ENDBRANCH  17  18
ENDBRANCH  16  17
ENDBRANCH  15  16
ENDBRANCH  14  15
ENDBRANCH  13  14
ENDBRANCH   1  13
BRANCH  10  33
HETATM   33  C15 UNL     1      11.471 -11.438  23.538  1.00  0.00     0.138 C 
HETATM   34  N7  UNL     1      10.877 -10.606  24.244  1.00  0.00    -0.296 N 
ATOM     35  H7  UNL     1      10.334 -11.047  24.986  1.00  0.00     0.187 HD
BRANCH  34  36
HETATM   36  N8  UNL     1      10.776  -9.274  24.269  1.00  0.00    -0.250 N 
ATOM     37  H8  UNL     1       9.904  -8.824  23.991  1.00  0.00     0.207 HD
BRANCH  36  38
HETATM   38  N9  UNL     1      11.779  -8.557  24.643  1.00  0.00    -0.331 N 
ATOM     39  H92 UNL     1      11.626  -7.808  25.318  1.00  0.00     0.178 HD
ATOM     40  H91 UNL     1      12.709  -8.742  24.266  1.00  0.00     0.178 HD
ENDBRANCH  36  38
ENDBRANCH  34  36
ENDBRANCH  10  33
TORSDOF 11
ENDMDL
MODEL 3
REMARK VINA RESULT: -8.236682132      2.259      3.578
REMARK  11 active torsions:
REMARK  status: ('A' for Active; 'I' for Inactive)
REMARK    1  A    between atoms: N1_2  and  C2_3 
REMARK    2  A    between atoms: C2_3  and  C3_4 
REMARK    3  A    between atoms: N3_9  and  C6_10 
REMARK    4  A    between atoms: C6_10  and  C7_11 
REMARK    5  A    between atoms: C7_11  and  C8_12 
REMARK    6  A    between atoms: C8_12  and  C9_13 
REMARK    7  A    between atoms: C9_13  and  C10_14 
REMARK    8  A    between atoms: C10_14  and  N4_15 
REMARK    9  A    between atoms: C14_24  and  C15_25 
REMARK   10  A    between atoms: N7_26  and  N8_28 
REMARK   11  A    between atoms: N8_28  and  N9_30 
ROOT
HETATM    1  N4  UNL     1      15.877 -12.589  20.996  1.00  0.00    -0.341 N 
HETATM    2  C11 UNL     1      16.688 -11.742  20.376  1.00  0.00     0.184 A 
HETATM    3  N5  UNL     1      16.051 -10.567  20.271  1.00  0.00    -0.346 N 
ATOM      4  H5  UNL     1      16.428  -9.725  19.837  1.00  0.00     0.167 HD
HETATM    5  C12 UNL     1      14.818 -10.681  20.837  1.00  0.00     0.129 A 
HETATM    6  C13 UNL     1      13.746  -9.852  21.030  1.00  0.00     0.275 A 
HETATM    7  O1  UNL     1      13.847  -8.658  20.602  1.00  0.00    -0.266 OA
HETATM    8  N6  UNL     1      12.627 -10.291  21.651  1.00  0.00    -0.320 N 
ATOM      9  H6  UNL     1      11.845  -9.650  21.780  1.00  0.00     0.169 HD
HETATM   10  C14 UNL     1      12.522 -11.545  22.101  1.00  0.00     0.054 A 
HETATM   11  C16 UNL     1      13.594 -12.439  21.928  1.00  0.00     0.063 A 
HETATM   12  C17 UNL     1      14.716 -11.970  21.295  1.00  0.00     0.070 A 
ENDROOT
BRANCH   1  13
HETATM   13  C10 UNL     1      16.176 -13.971  21.313  1.00  0.00     0.130 C 
BRANCH  13  14
HETATM   14  C9  UNL     1      17.648 -14.192  21.022  1.00  0.00     0.020 C 
BRANCH  14  15
HETATM   15  C8  UNL     1      18.378 -14.392  22.317  1.00  0.00     0.003 C 
BRANCH  15  16
HETATM   16  C7  UNL     1      19.221 -13.213  22.639  1.00  0.00     0.020 C 
BRANCH  16  17
HETATM   17  C6  UNL     1      20.558 -13.480  23.225  1.00  0.00     0.130 C 
BRANCH  17  18
HETATM   18  N3  UNL     1      20.620 -13.534  24.653  1.00  0.00    -0.344 N 
HETATM   19  C3  UNL     1      20.433 -14.619  25.431  1.00  0.00     0.054 A 
HETATM   20  C4  UNL     1      20.599 -14.156  26.720  1.00  0.00     0.115 A 
HETATM   21  N2  UNL     1      20.873 -12.846  26.734  1.00  0.00    -0.360 N 
HETATM   22  C5  UNL     1      20.885 -12.470  25.442  1.00  0.00     0.183 A 
ATOM     23  H2  UNL     1      21.039 -12.258  27.551  1.00  0.00     0.166 HD
BRANCH  19  24
HETATM   24  C2  UNL     1      20.120 -15.980  25.024  1.00  0.00     0.295 C 
BRANCH  24  25
HETATM   25  N1  UNL     1      21.221 -16.839  24.689  1.00  0.00    -0.063 N 
HETATM   26  C1  UNL     1      21.222 -16.932  23.207  1.00  0.00     0.273 C 
HETATM   27  C18 UNL     1      20.933 -18.238  25.055  1.00  0.00     0.256 C 
HETATM   28  C19 UNL     1      21.270 -18.536  26.476  1.00  0.00     0.142 C 
HETATM   29  N10 UNL     1      22.669 -18.320  26.657  1.00  0.00    -0.418 N 
HETATM   30  C20 UNL     1      23.167 -17.061  26.232  1.00  0.00     0.142 C 
ATOM     31  H10 UNL     1      23.276 -19.029  27.068  1.00  0.00     0.153 HD
HETATM   32  C21 UNL     1      22.510 -16.411  25.077  1.00  0.00     0.256 C 
ENDBRANCH  24  25
ENDBRANCH  19  24
ENDBRANCH  17  18
ENDBRANCH  16  17
ENDBRANCH  15  16
ENDBRANCH  14  15
ENDBRANCH  13  14
ENDBRANCH   1  13
BRANCH  10  33
HETATM   33  C15 UNL     1      11.333 -12.006  22.760  1.00  0.00     0.138 C 
HETATM   34  N7  UNL     1      10.767 -11.587  23.783  1.00  0.00    -0.296 N 
ATOM     35  H7  UNL     1       9.930 -12.126  24.009  1.00  0.00     0.187 HD
BRANCH  34  36
HETATM   36  N8  UNL     1      10.985 -10.603  24.660  1.00  0.00    -0.250 N 
ATOM     37  H8  UNL     1      11.274 -10.825  25.613  1.00  0.00     0.207 HD
BRANCH  36  38
HETATM   38  N9  UNL     1      10.832  -9.375  24.303  1.00  0.00    -0.331 N 
ATOM     39  H92 UNL     1      10.133  -8.806  24.780  1.00  0.00     0.178 HD
ATOM     40  H91 UNL     1      11.404  -8.985  23.554  1.00  0.00     0.178 HD
ENDBRANCH  36  38
ENDBRANCH  34  36
ENDBRANCH  10  33
TORSDOF 11
ENDMDL
MODEL 4
REMARK VINA RESULT: -8.217203451      2.016      3.639
REMARK  11 active torsions:
REMARK  status: ('A' for Active; 'I' for Inactive)
REMARK    1  A    between atoms: N1_2  and  C2_3 
REMARK    2  A    between atoms: C2_3  and  C3_4 
REMARK    3  A    between atoms: N3_9  and  C6_10 
REMARK    4  A    between atoms: C6_10  and  C7_11 
REMARK    5  A    between atoms: C7_11  and  C8_12 
REMARK    6  A    between atoms: C8_12  and  C9_13 
REMARK    7  A    between atoms: C9_13  and  C10_14 
REMARK    8  A    between atoms: C10_14  and  N4_15 
REMARK    9  A    between atoms: C14_24  and  C15_25 
REMARK   10  A    between atoms: N7_26  and  N8_28 
REMARK   11  A    between atoms: N8_28  and  N9_30 
ROOT
HETATM    1  N4  UNL     1      15.882 -12.627  20.969  1.00  0.00    -0.341 N 
HETATM    2  C11 UNL     1      16.694 -11.781  20.350  1.00  0.00     0.184 A 
HETATM    3  N5  UNL     1      16.065 -10.601  20.259  1.00  0.00    -0.346 N 
ATOM      4  H5  UNL     1      16.446  -9.758  19.829  1.00  0.00     0.167 HD
HETATM    5  C12 UNL     1      14.834 -10.711  20.831  1.00  0.00     0.129 A 
HETATM    6  C13 UNL     1      13.770  -9.876  21.038  1.00  0.00     0.275 A 
HETATM    7  O1  UNL     1      13.876  -8.680  20.619  1.00  0.00    -0.266 OA
HETATM    8  N6  UNL     1      12.651 -10.312  21.663  1.00  0.00    -0.320 N 
ATOM      9  H6  UNL     1      11.875  -9.666  21.801  1.00  0.00     0.169 HD
HETATM   10  C14 UNL     1      12.541 -11.569  22.103  1.00  0.00     0.054 A 
HETATM   11  C16 UNL     1      13.605 -12.469  21.916  1.00  0.00     0.063 A 
HETATM   12  C17 UNL     1      14.727 -12.003  21.280  1.00  0.00     0.070 A 
ENDROOT
BRANCH   1  13
HETATM   13  C10 UNL     1      16.173 -14.013  21.273  1.00  0.00     0.130 C 
BRANCH  13  14
HETATM   14  C9  UNL     1      17.682 -14.156  21.328  1.00  0.00     0.020 C 
BRANCH  14  15
HETATM   15  C8  UNL     1      18.163 -13.753  22.690  1.00  0.00     0.003 C 
BRANCH  15  16
HETATM   16  C7  UNL     1      19.533 -13.185  22.624  1.00  0.00     0.020 C 
BRANCH  16  17
HETATM   17  C6  UNL     1      20.626 -13.990  23.222  1.00  0.00     0.130 C 
BRANCH  17  18
HETATM   18  N3  UNL     1      20.785 -13.884  24.638  1.00  0.00    -0.344 N 
HETATM   19  C3  UNL     1      21.132 -14.870  25.490  1.00  0.00     0.054 A 
HETATM   20  C4  UNL     1      21.152 -14.267  26.731  1.00  0.00     0.115 A 
HETATM   21  N2  UNL     1      20.830 -12.970  26.647  1.00  0.00    -0.360 N 
HETATM   22  C5  UNL     1      20.604 -12.743  25.340  1.00  0.00     0.183 A 
ATOM     23  H2  UNL     1      20.769 -12.297  27.411  1.00  0.00     0.166 HD
BRANCH  19  24
HETATM   24  C2  UNL     1      21.419 -16.264  25.191  1.00  0.00     0.295 C 
BRANCH  24  25
HETATM   25  N1  UNL     1      20.351 -17.209  25.363  1.00  0.00    -0.063 N 
HETATM   26  C1  UNL     1      20.857 -18.215  26.331  1.00  0.00     0.273 C 
HETATM   27  C18 UNL     1      20.182 -18.043  24.159  1.00  0.00     0.256 C 
HETATM   28  C19 UNL     1      19.305 -17.400  23.139  1.00  0.00     0.142 C 
HETATM   29  N10 UNL     1      18.016 -17.206  23.718  1.00  0.00    -0.418 N 
HETATM   30  C20 UNL     1      17.985 -16.532  24.965  1.00  0.00     0.142 C 
ATOM     31  H10 UNL     1      17.165 -17.534  23.261  1.00  0.00     0.153 HD
HETATM   32  C21 UNL     1      19.133 -16.715  25.879  1.00  0.00     0.256 C 
ENDBRANCH  24  25
ENDBRANCH  19  24
ENDBRANCH  17  18
ENDBRANCH  16  17
ENDBRANCH  15  16
ENDBRANCH  14  15
ENDBRANCH  13  14
ENDBRANCH   1  13
BRANCH  10  33
HETATM   33  C15 UNL     1      11.352 -12.027  22.766  1.00  0.00     0.138 C 
HETATM   34  N7  UNL     1      10.784 -11.599  23.784  1.00  0.00    -0.296 N 
ATOM     35  H7  UNL     1       9.949 -12.138  24.015  1.00  0.00     0.187 HD
BRANCH  34  36
HETATM   36  N8  UNL     1      10.998 -10.605  24.650  1.00  0.00    -0.250 N 
ATOM     37  H8  UNL     1      11.299 -10.815  25.602  1.00  0.00     0.207 HD
BRANCH  36  38
HETATM   38  N9  UNL     1      10.825  -9.382  24.285  1.00  0.00    -0.331 N 
ATOM     39  H92 UNL     1       9.934  -8.928  24.484  1.00  0.00     0.178 HD
ATOM     40  H91 UNL     1      11.573  -8.882  23.803  1.00  0.00     0.178 HD
ENDBRANCH  36  38
ENDBRANCH  34  36
ENDBRANCH  10  33
TORSDOF 11
ENDMDL
MODEL 5
REMARK VINA RESULT: -8.110692864      2.007      2.969
REMARK  11 active torsions:
REMARK  status: ('A' for Active; 'I' for Inactive)
REMARK    1  A    between atoms: N1_2  and  C2_3 
REMARK    2  A    between atoms: C2_3  and  C3_4 
REMARK    3  A    between atoms: N3_9  and  C6_10 
REMARK    4  A    between atoms: C6_10  and  C7_11 
REMARK    5  A    between atoms: C7_11  and  C8_12 
REMARK    6  A    between atoms: C8_12  and  C9_13 
REMARK    7  A    between atoms: C9_13  and  C10_14 
REMARK    8  A    between atoms: C10_14  and  N4_15 
REMARK    9  A    between atoms: C14_24  and  C15_25 
REMARK   10  A    between atoms: N7_26  and  N8_28 
REMARK   11  A    between atoms: N8_28  and  N9_30 
ROOT
HETATM    1  N4  UNL     1      15.730 -12.802  20.607  1.00  0.00    -0.341 N 
HETATM    2  C11 UNL     1      16.599 -11.967  20.053  1.00  0.00     0.184 A 
HETATM    3  N5  UNL     1      16.090 -10.729  20.141  1.00  0.00    -0.346 N 
ATOM      4  H5  UNL     1      16.537  -9.880  19.798  1.00  0.00     0.167 HD
HETATM    5  C12 UNL     1      14.880 -10.792  20.761  1.00  0.00     0.129 A 
HETATM    6  C13 UNL     1      13.916  -9.892  21.125  1.00  0.00     0.275 A 
HETATM    7  O1  UNL     1      14.127  -8.668  20.851  1.00  0.00    -0.266 OA
HETATM    8  N6  UNL     1      12.786 -10.294  21.752  1.00  0.00    -0.320 N 
ATOM      9  H6  UNL     1      12.085  -9.600  22.010  1.00  0.00     0.169 HD
HETATM   10  C14 UNL     1      12.566 -11.580  22.040  1.00  0.00     0.054 A 
HETATM   11  C16 UNL     1      13.524 -12.548  21.687  1.00  0.00     0.063 A 
HETATM   12  C17 UNL     1      14.659 -12.115  21.054  1.00  0.00     0.070 A 
ENDROOT
BRANCH   1  13
HETATM   13  C10 UNL     1      15.890 -14.237  20.723  1.00  0.00     0.130 C 
BRANCH  13  14
HETATM   14  C9  UNL     1      16.925 -14.490  21.803  1.00  0.00     0.020 C 
BRANCH  14  15
HETATM   15  C8  UNL     1      17.932 -15.478  21.294  1.00  0.00     0.003 C 
BRANCH  15  16
HETATM   16  C7  UNL     1      18.279 -16.471  22.342  1.00  0.00     0.020 C 
BRANCH  16  17
HETATM   17  C6  UNL     1      17.582 -16.346  23.646  1.00  0.00     0.130 C 
BRANCH  17  18
HETATM   18  N3  UNL     1      18.221 -16.968  24.764  1.00  0.00    -0.344 N 
HETATM   19  C3  UNL     1      18.851 -16.349  25.783  1.00  0.00     0.054 A 
HETATM   20  C4  UNL     1      19.290 -17.375  26.595  1.00  0.00     0.115 A 
HETATM   21  N2  UNL     1      18.946 -18.569  26.098  1.00  0.00    -0.360 N 
HETATM   22  C5  UNL     1      18.281 -18.303  24.959  1.00  0.00     0.183 A 
ATOM     23  H2  UNL     1      19.146 -19.486  26.498  1.00  0.00     0.166 HD
BRANCH  19  24
HETATM   24  C2  UNL     1      19.044 -14.923  25.994  1.00  0.00     0.295 C 
BRANCH  24  25
HETATM   25  N1  UNL     1      20.324 -14.371  25.644  1.00  0.00    -0.063 N 
HETATM   26  C1  UNL     1      20.923 -13.906  26.921  1.00  0.00     0.273 C 
HETATM   27  C18 UNL     1      20.171 -13.092  24.927  1.00  0.00     0.256 C 
HETATM   28  C19 UNL     1      19.972 -13.281  23.462  1.00  0.00     0.142 C 
HETATM   29  N10 UNL     1      21.124 -13.939  22.937  1.00  0.00    -0.418 N 
HETATM   30  C20 UNL     1      21.513 -15.135  23.592  1.00  0.00     0.142 C 
ATOM     31  H10 UNL     1      21.637 -13.571  22.136  1.00  0.00     0.153 HD
HETATM   32  C21 UNL     1      21.257 -15.244  25.044  1.00  0.00     0.256 C 
ENDBRANCH  24  25
ENDBRANCH  19  24
ENDBRANCH  17  18
ENDBRANCH  16  17
ENDBRANCH  15  16
ENDBRANCH  14  15
ENDBRANCH  13  14
ENDBRANCH   1  13
BRANCH  10  33
HETATM   33  C15 UNL     1      11.365 -12.002  22.705  1.00  0.00     0.138 C 
HETATM   34  N7  UNL     1      10.815 -11.563  23.729  1.00  0.00    -0.296 N 
ATOM     35  H7  UNL     1       9.964 -12.075  23.960  1.00  0.00     0.187 HD
BRANCH  34  36
HETATM   36  N8  UNL     1      11.067 -10.583  24.601  1.00  0.00    -0.250 N 
ATOM     37  H8  UNL     1      11.426 -10.807  25.529  1.00  0.00     0.207 HD
BRANCH  36  38
HETATM   38  N9  UNL     1      10.858  -9.355  24.271  1.00  0.00    -0.331 N 
ATOM     39  H92 UNL     1      11.016  -9.070  23.305  1.00  0.00     0.178 HD
ATOM     40  H91 UNL     1      10.539  -8.685  24.971  1.00  0.00     0.178 HD
ENDBRANCH  36  38
ENDBRANCH  34  36
ENDBRANCH  10  33
TORSDOF 11
ENDMDL
