MODEL 1
REMARK VINA RESULT: -6.900036299      0.000      0.000
REMARK  17 active torsions:
REMARK  status: ('A' for Active; 'I' for Inactive)
REMARK    1  A    between atoms: N2_4  and  N3_6 
REMARK       I    between atoms: N3_6  and  C1_8 
REMARK       I    between atoms: C1_8  and  N5_12 
REMARK    2  A    between atoms: N5_12  and  C2_14 
REMARK    3  A    between atoms: N6_16  and  C4_17 
REMARK    4  A    between atoms: C4_17  and  C5_18 
REMARK    5  A    between atoms: C5_18  and  C6_19 
REMARK    6  A    between atoms: C6_19  and  C7_20 
REMARK    7  A    between atoms: C7_20  and  C8_21 
REMARK    8  A    between atoms: C8_21  and  O1_22 
REMARK    9  A    between atoms: O1_22  and  C9_23 
REMARK   10  A    between atoms: C9_23  and  C10_24 
REMARK   11  A    between atoms: C10_24  and  N7_25 
REMARK   12  A    between atoms: C13_28  and  C14_29 
REMARK   13  A    between atoms: C14_29  and  C15_30 
REMARK   14  A    between atoms: C15_30  and  C16_31 
REMARK   15  A    between atoms: C16_31  and  C17_32 
REMARK   16  A    between atoms: C17_32  and  C18_33 
REMARK   17  A    between atoms: C18_33  and  O2_34 
ROOT
HETATM    1  C4  UNL     1      17.200 -14.213  22.103  1.00  0.00     0.128 C 
ENDROOT
BRANCH   1   2
HETATM    2  N6  UNL     1      16.670 -12.999  21.542  1.00  0.00    -0.361 N 
HETATM    3  C3  UNL     1      15.373 -12.666  21.642  1.00  0.00     0.139 A 
HETATM    4  C2  UNL     1      14.834 -11.508  21.108  1.00  0.00     0.136 A 
HETATM    5  N8  UNL     1      15.672 -10.685  20.457  1.00  0.00    -0.349 N 
HETATM    6  C22 UNL     1      16.973 -11.001  20.345  1.00  0.00     0.107 A 
ATOM      7  H8  UNL     1      15.320  -9.820  20.047  1.00  0.00     0.166 HD
HETATM    8  C21 UNL     1      17.484 -12.151  20.881  1.00  0.00     0.107 A 
BRANCH   4   9
HETATM    9  N5  UNL     1      13.584 -11.230  21.229  1.00  0.00    -0.174 N 
HETATM   10  C1  UNL     1      13.013  -9.952  21.222  1.00  0.00     0.693 C 
HETATM   11  N3  UNL     1      12.347  -9.408  22.377  1.00  0.00    -0.118 N 
HETATM   12  N4  UNL     1      13.047  -9.182  20.178  1.00  0.00    -0.233 N 
ATOM     13  H3  UNL     1      12.490  -8.432  22.638  1.00  0.00     0.207 HD
ATOM     14  H42 UNL     1      12.631  -8.251  20.173  1.00  0.00     0.174 HD
ATOM     15  H41 UNL     1      13.519  -9.567  19.361  1.00  0.00     0.174 HD
ATOM     16  H5  UNL     1      12.946 -12.018  21.341  1.00  0.00     0.186 HD
BRANCH  11  17
HETATM   17  N2  UNL     1      11.504 -10.219  23.139  1.00  0.00    -0.235 N 
HETATM   18  N1  UNL     1      11.034  -9.849  24.248  1.00  0.00    -0.330 N 
ATOM     19  H12 UNL     1      11.288  -8.921  24.587  1.00  0.00     0.178 HD
ATOM     20  H11 UNL     1      10.418 -10.442  24.805  1.00  0.00     0.178 HD
ATOM     21  H2  UNL     1      11.260 -11.145  22.786  1.00  0.00     0.208 HD
ENDBRANCH  11  17
ENDBRANCH   4   9
ENDBRANCH   1   2
BRANCH   1  22
HETATM   22  C5  UNL     1      17.335 -15.328  21.104  1.00  0.00     0.020 C 
BRANCH  22  23
HETATM   23  C6  UNL     1      17.046 -16.663  21.712  1.00  0.00     0.004 C 
BRANCH  23  24
HETATM   24  C7  UNL     1      15.852 -16.662  22.643  1.00  0.00     0.026 C 
BRANCH  24  25
HETATM   25  C8  UNL     1      15.484 -18.062  23.088  1.00  0.00     0.167 C 
BRANCH  25  26
HETATM   26  O1  UNL     1      14.135 -18.303  23.006  1.00  0.00    -0.390 OA
BRANCH  26  27
HETATM   27  C9  UNL     1      13.732 -19.088  21.973  1.00  0.00     0.187 C 
BRANCH  27  28
HETATM   28  C10 UNL     1      12.677 -18.563  21.066  1.00  0.00     0.154 C 
BRANCH  28  29
HETATM   29  N7  UNL     1      13.131 -17.348  20.418  1.00  0.00    -0.364 N 
HETATM   30  C11 UNL     1      12.691 -16.118  20.658  1.00  0.00     0.092 A 
HETATM   31  C12 UNL     1      13.192 -14.989  19.993  1.00  0.00     0.038 A 
HETATM   32  C13 UNL     1      14.180 -15.131  19.046  1.00  0.00     0.021 A 
HETATM   33  C19 UNL     1      14.624 -16.414  18.809  1.00  0.00     0.038 A 
HETATM   34  C20 UNL     1      14.116 -17.481  19.474  1.00  0.00     0.092 A 
BRANCH  32  35
HETATM   35  C14 UNL     1      14.709 -13.993  18.347  1.00  0.00    -0.053 C 
BRANCH  35  36
HETATM   36  C15 UNL     1      15.147 -13.033  17.736  1.00  0.00    -0.009 C 
BRANCH  36  37
HETATM   37  C16 UNL     1      15.668 -11.936  17.006  1.00  0.00    -0.013 C 
BRANCH  37  38
HETATM   38  C17 UNL     1      16.122 -11.015  16.370  1.00  0.00    -0.067 C 
BRANCH  38  39
HETATM   39  C18 UNL     1      16.684  -9.908  15.573  1.00  0.00     0.258 C 
BRANCH  39  40
HETATM   40  O2  UNL     1      16.666 -10.241  14.196  1.00  0.00    -0.389 OA
ATOM     41  H2  UNL     1      16.311  -9.519  13.690  1.00  0.00     0.210 HD
ENDBRANCH  39  40
ENDBRANCH  38  39
ENDBRANCH  37  38
ENDBRANCH  36  37
ENDBRANCH  35  36
ENDBRANCH  32  35
ENDBRANCH  28  29
ENDBRANCH  27  28
ENDBRANCH  26  27
ENDBRANCH  25  26
ENDBRANCH  24  25
ENDBRANCH  23  24
ENDBRANCH  22  23
ENDBRANCH   1  22
TORSDOF 17
ENDMDL
MODEL 2
REMARK VINA RESULT: -6.762683200      2.801      5.078
REMARK  17 active torsions:
REMARK  status: ('A' for Active; 'I' for Inactive)
REMARK    1  A    between atoms: N2_4  and  N3_6 
REMARK       I    between atoms: N3_6  and  C1_8 
REMARK       I    between atoms: C1_8  and  N5_12 
REMARK    2  A    between atoms: N5_12  and  C2_14 
REMARK    3  A    between atoms: N6_16  and  C4_17 
REMARK    4  A    between atoms: C4_17  and  C5_18 
REMARK    5  A    between atoms: C5_18  and  C6_19 
REMARK    6  A    between atoms: C6_19  and  C7_20 
REMARK    7  A    between atoms: C7_20  and  C8_21 
REMARK    8  A    between atoms: C8_21  and  O1_22 
REMARK    9  A    between atoms: O1_22  and  C9_23 
REMARK   10  A    between atoms: C9_23  and  C10_24 
REMARK   11  A    between atoms: C10_24  and  N7_25 
REMARK   12  A    between atoms: C13_28  and  C14_29 
REMARK   13  A    between atoms: C14_29  and  C15_30 
REMARK   14  A    between atoms: C15_30  and  C16_31 
REMARK   15  A    between atoms: C16_31  and  C17_32 
REMARK   16  A    between atoms: C17_32  and  C18_33 
REMARK   17  A    between atoms: C18_33  and  O2_34 
ROOT
HETATM    1  C4  UNL     1      15.012 -13.257  20.616  1.00  0.00     0.128 C 
ENDROOT
BRANCH   1   2
HETATM    2  N6  UNL     1      14.218 -12.148  21.074  1.00  0.00    -0.361 N 
HETATM    3  C3  UNL     1      13.193 -12.301  21.927  1.00  0.00     0.139 A 
HETATM    4  C2  UNL     1      12.409 -11.254  22.381  1.00  0.00     0.136 A 
HETATM    5  N8  UNL     1      12.706 -10.025  21.929  1.00  0.00    -0.349 N 
HETATM    6  C22 UNL     1      13.728  -9.851  21.074  1.00  0.00     0.107 A 
ATOM      7  H8  UNL     1      12.156  -9.222  22.236  1.00  0.00     0.166 HD
HETATM    8  C21 UNL     1      14.490 -10.901  20.640  1.00  0.00     0.107 A 
BRANCH   4   9
HETATM    9  N5  UNL     1      11.436 -11.448  23.199  1.00  0.00    -0.174 N 
HETATM   10  C1  UNL     1      11.146 -10.689  24.339  1.00  0.00     0.693 C 
HETATM   11  N3  UNL     1      11.217 -11.246  25.665  1.00  0.00    -0.118 N 
HETATM   12  N4  UNL     1      10.793  -9.442  24.272  1.00  0.00    -0.233 N 
ATOM     13  H3  UNL     1      11.622 -10.703  26.427  1.00  0.00     0.207 HD
ATOM     14  H42 UNL     1      10.582  -8.889  25.102  1.00  0.00     0.174 HD
ATOM     15  H41 UNL     1      10.743  -9.047  23.333  1.00  0.00     0.174 HD
ATOM     16  H5  UNL     1      10.814 -12.232  22.998  1.00  0.00     0.186 HD
BRANCH  11  17
HETATM   17  N2  UNL     1      10.729 -12.532  25.905  1.00  0.00    -0.235 N 
HETATM   18  N1  UNL     1      10.366 -12.912  27.050  1.00  0.00    -0.330 N 
ATOM     19  H12 UNL     1      10.437 -12.245  27.818  1.00  0.00     0.178 HD
ATOM     20  H11 UNL     1      10.010 -13.852  27.226  1.00  0.00     0.178 HD
ATOM     21  H2  UNL     1      10.665 -13.188  25.126  1.00  0.00     0.208 HD
ENDBRANCH  11  17
ENDBRANCH   4   9
ENDBRANCH   1   2
BRANCH   1  22
HETATM   22  C5  UNL     1      14.907 -13.502  19.137  1.00  0.00     0.020 C 
BRANCH  22  23
HETATM   23  C6  UNL     1      14.192 -14.779  18.830  1.00  0.00     0.004 C 
BRANCH  23  24
HETATM   24  C7  UNL     1      12.805 -14.859  19.430  1.00  0.00     0.026 C 
BRANCH  24  25
HETATM   25  C8  UNL     1      12.016 -16.024  18.870  1.00  0.00     0.167 C 
BRANCH  25  26
HETATM   26  O1  UNL     1      12.819 -17.070  18.490  1.00  0.00    -0.390 OA
BRANCH  26  27
HETATM   27  C9  UNL     1      12.685 -18.216  19.208  1.00  0.00     0.187 C 
BRANCH  27  28
HETATM   28  C10 UNL     1      13.922 -18.924  19.632  1.00  0.00     0.154 C 
BRANCH  28  29
HETATM   29  N7  UNL     1      14.759 -18.043  20.424  1.00  0.00    -0.364 N 
HETATM   30  C11 UNL     1      14.439 -17.493  21.590  1.00  0.00     0.092 A 
HETATM   31  C12 UNL     1      15.313 -16.657  22.300  1.00  0.00     0.038 A 
HETATM   32  C13 UNL     1      16.560 -16.375  21.793  1.00  0.00     0.021 A 
HETATM   33  C19 UNL     1      16.875 -16.953  20.581  1.00  0.00     0.038 A 
HETATM   34  C20 UNL     1      16.004 -17.758  19.924  1.00  0.00     0.092 A 
BRANCH  32  35
HETATM   35  C14 UNL     1      17.474 -15.519  22.496  1.00  0.00    -0.053 C 
BRANCH  35  36
HETATM   36  C15 UNL     1      18.233 -14.785  23.106  1.00  0.00    -0.009 C 
BRANCH  36  37
HETATM   37  C16 UNL     1      19.127 -13.955  23.828  1.00  0.00    -0.013 C 
BRANCH  37  38
HETATM   38  C17 UNL     1      19.905 -13.262  24.437  1.00  0.00    -0.067 C 
BRANCH  38  39
HETATM   39  C18 UNL     1      20.852 -12.430  25.205  1.00  0.00     0.258 C 
BRANCH  39  40
HETATM   40  O2  UNL     1      22.029 -13.167  25.487  1.00  0.00    -0.389 OA
ATOM     41  H2  UNL     1      22.398 -12.888  26.317  1.00  0.00     0.210 HD
ENDBRANCH  39  40
ENDBRANCH  38  39
ENDBRANCH  37  38
ENDBRANCH  36  37
ENDBRANCH  35  36
ENDBRANCH  32  35
ENDBRANCH  28  29
ENDBRANCH  27  28
ENDBRANCH  26  27
ENDBRANCH  25  26
ENDBRANCH  24  25
ENDBRANCH  23  24
ENDBRANCH  22  23
ENDBRANCH   1  22
TORSDOF 17
ENDMDL
MODEL 3
REMARK VINA RESULT: -6.585252737      4.247      7.041
REMARK  17 active torsions:
REMARK  status: ('A' for Active; 'I' for Inactive)
REMARK    1  A    between atoms: N2_4  and  N3_6 
REMARK       I    between atoms: N3_6  and  C1_8 
REMARK       I    between atoms: C1_8  and  N5_12 
REMARK    2  A    between atoms: N5_12  and  C2_14 
REMARK    3  A    between atoms: N6_16  and  C4_17 
REMARK    4  A    between atoms: C4_17  and  C5_18 
REMARK    5  A    between atoms: C5_18  and  C6_19 
REMARK    6  A    between atoms: C6_19  and  C7_20 
REMARK    7  A    between atoms: C7_20  and  C8_21 
REMARK    8  A    between atoms: C8_21  and  O1_22 
REMARK    9  A    between atoms: O1_22  and  C9_23 
REMARK   10  A    between atoms: C9_23  and  C10_24 
REMARK   11  A    between atoms: C10_24  and  N7_25 
REMARK   12  A    between atoms: C13_28  and  C14_29 
REMARK   13  A    between atoms: C14_29  and  C15_30 
REMARK   14  A    between atoms: C15_30  and  C16_31 
REMARK   15  A    between atoms: C16_31  and  C17_32 
REMARK   16  A    between atoms: C17_32  and  C18_33 
REMARK   17  A    between atoms: C18_33  and  O2_34 
ROOT
HETATM    1  C4  UNL     1      17.224 -16.232  22.548  1.00  0.00     0.128 C 
ENDROOT
BRANCH   1   2
HETATM    2  N6  UNL     1      18.377 -15.390  22.379  1.00  0.00    -0.361 N 
HETATM    3  C3  UNL     1      19.506 -15.567  23.084  1.00  0.00     0.139 A 
HETATM    4  C2  UNL     1      20.630 -14.769  22.948  1.00  0.00     0.136 A 
HETATM    5  N8  UNL     1      20.566 -13.768  22.056  1.00  0.00    -0.349 N 
HETATM    6  C22 UNL     1      19.445 -13.574  21.340  1.00  0.00     0.107 A 
ATOM      7  H8  UNL     1      21.370 -13.154  21.920  1.00  0.00     0.166 HD
HETATM    8  C21 UNL     1      18.347 -14.375  21.492  1.00  0.00     0.107 A 
BRANCH   4   9
HETATM    9  N5  UNL     1      21.690 -14.977  23.646  1.00  0.00    -0.174 N 
HETATM   10  C1  UNL     1      22.541 -13.998  24.173  1.00  0.00     0.693 C 
HETATM   11  N3  UNL     1      23.910 -13.866  23.744  1.00  0.00    -0.118 N 
HETATM   12  N4  UNL     1      22.153 -13.156  25.080  1.00  0.00    -0.233 N 
ATOM     13  H3  UNL     1      24.309 -12.941  23.589  1.00  0.00     0.207 HD
ATOM     14  H42 UNL     1      22.772 -12.443  25.464  1.00  0.00     0.174 HD
ATOM     15  H41 UNL     1      21.184 -13.249  25.383  1.00  0.00     0.174 HD
ATOM     16  H5  UNL     1      21.936 -15.949  23.833  1.00  0.00     0.186 HD
BRANCH  11  17
HETATM   17  N2  UNL     1      24.688 -15.007  23.542  1.00  0.00    -0.235 N 
HETATM   18  N1  UNL     1      25.454 -15.133  22.549  1.00  0.00    -0.330 N 
ATOM     19  H12 UNL     1      25.495 -14.365  21.879  1.00  0.00     0.178 HD
ATOM     20  H11 UNL     1      26.023 -15.967  22.401  1.00  0.00     0.178 HD
ATOM     21  H2  UNL     1      24.634 -15.767  24.221  1.00  0.00     0.208 HD
ENDBRANCH  11  17
ENDBRANCH   4   9
ENDBRANCH   1   2
BRANCH   1  22
HETATM   22  C5  UNL     1      16.038 -15.799  21.732  1.00  0.00     0.020 C 
BRANCH  22  23
HETATM   23  C6  UNL     1      14.888 -16.745  21.868  1.00  0.00     0.004 C 
BRANCH  23  24
HETATM   24  C7  UNL     1      15.210 -18.160  21.437  1.00  0.00     0.026 C 
BRANCH  24  25
HETATM   25  C8  UNL     1      14.560 -18.507  20.114  1.00  0.00     0.167 C 
BRANCH  25  26
HETATM   26  O1  UNL     1      15.265 -18.026  19.038  1.00  0.00    -0.390 OA
BRANCH  26  27
HETATM   27  C9  UNL     1      14.523 -17.517  18.020  1.00  0.00     0.187 C 
BRANCH  27  28
HETATM   28  C10 UNL     1      14.840 -16.145  17.541  1.00  0.00     0.154 C 
BRANCH  28  29
HETATM   29  N7  UNL     1      14.291 -15.157  18.449  1.00  0.00    -0.364 N 
HETATM   30  C11 UNL     1      13.120 -15.227  19.073  1.00  0.00     0.092 A 
HETATM   31  C12 UNL     1      12.664 -14.230  19.947  1.00  0.00     0.038 A 
HETATM   32  C13 UNL     1      13.440 -13.119  20.189  1.00  0.00     0.021 A 
HETATM   33  C19 UNL     1      14.652 -13.063  19.533  1.00  0.00     0.038 A 
HETATM   34  C20 UNL     1      15.059 -14.048  18.696  1.00  0.00     0.092 A 
BRANCH  32  35
HETATM   35  C14 UNL     1      12.997 -12.081  21.077  1.00  0.00    -0.053 C 
BRANCH  35  36
HETATM   36  C15 UNL     1      12.639 -11.202  21.842  1.00  0.00    -0.009 C 
BRANCH  36  37
HETATM   37  C16 UNL     1      12.241 -10.162  22.718  1.00  0.00    -0.013 C 
BRANCH  37  38
HETATM   38  C17 UNL     1      11.921  -9.265  23.461  1.00  0.00    -0.067 C 
BRANCH  38  39
HETATM   39  C18 UNL     1      11.520  -8.155  24.347  1.00  0.00     0.258 C 
BRANCH  39  40
HETATM   40  O2  UNL     1      12.663  -7.430  24.766  1.00  0.00    -0.389 OA
ATOM     41  H2  UNL     1      13.221  -7.982  25.301  1.00  0.00     0.210 HD
ENDBRANCH  39  40
ENDBRANCH  38  39
ENDBRANCH  37  38
ENDBRANCH  36  37
ENDBRANCH  35  36
ENDBRANCH  32  35
ENDBRANCH  28  29
ENDBRANCH  27  28
ENDBRANCH  26  27
ENDBRANCH  25  26
ENDBRANCH  24  25
ENDBRANCH  23  24
ENDBRANCH  22  23
ENDBRANCH   1  22
TORSDOF 17
ENDMDL
MODEL 4
REMARK VINA RESULT: -6.419334335      3.160      5.167
REMARK  17 active torsions:
REMARK  status: ('A' for Active; 'I' for Inactive)
REMARK    1  A    between atoms: N2_4  and  N3_6 
REMARK       I    between atoms: N3_6  and  C1_8 
REMARK       I    between atoms: C1_8  and  N5_12 
REMARK    2  A    between atoms: N5_12  and  C2_14 
REMARK    3  A    between atoms: N6_16  and  C4_17 
REMARK    4  A    between atoms: C4_17  and  C5_18 
REMARK    5  A    between atoms: C5_18  and  C6_19 
REMARK    6  A    between atoms: C6_19  and  C7_20 
REMARK    7  A    between atoms: C7_20  and  C8_21 
REMARK    8  A    between atoms: C8_21  and  O1_22 
REMARK    9  A    between atoms: O1_22  and  C9_23 
REMARK   10  A    between atoms: C9_23  and  C10_24 
REMARK   11  A    between atoms: C10_24  and  N7_25 
REMARK   12  A    between atoms: C13_28  and  C14_29 
REMARK   13  A    between atoms: C14_29  and  C15_30 
REMARK   14  A    between atoms: C15_30  and  C16_31 
REMARK   15  A    between atoms: C16_31  and  C17_32 
REMARK   16  A    between atoms: C17_32  and  C18_33 
REMARK   17  A    between atoms: C18_33  and  O2_34 
ROOT
HETATM    1  C4  UNL     1      15.535 -13.213  21.290  1.00  0.00     0.128 C 
ENDROOT
BRANCH   1   2
HETATM    2  N6  UNL     1      14.536 -12.185  21.401  1.00  0.00    -0.361 N 
HETATM    3  C3  UNL     1      13.460 -12.310  22.195  1.00  0.00     0.139 A 
HETATM    4  C2  UNL     1      12.479 -11.341  22.318  1.00  0.00     0.136 A 
HETATM    5  N8  UNL     1      12.630 -10.221  21.594  1.00  0.00    -0.349 N 
HETATM    6  C22 UNL     1      13.699 -10.076  20.793  1.00  0.00     0.107 A 
ATOM      7  H8  UNL     1      11.933  -9.479  21.652  1.00  0.00     0.166 HD
HETATM    8  C21 UNL     1      14.657 -11.047  20.688  1.00  0.00     0.107 A 
BRANCH   4   9
HETATM    9  N5  UNL     1      11.465 -11.505  23.092  1.00  0.00    -0.174 N 
HETATM   10  C1  UNL     1      11.153 -10.743  24.224  1.00  0.00     0.693 C 
HETATM   11  N3  UNL     1      11.146 -11.310  25.548  1.00  0.00    -0.118 N 
HETATM   12  N4  UNL     1      10.848  -9.484  24.150  1.00  0.00    -0.233 N 
ATOM     13  H3  UNL     1      11.537 -10.786  26.330  1.00  0.00     0.207 HD
ATOM     14  H42 UNL     1      10.620  -8.929  24.974  1.00  0.00     0.174 HD
ATOM     15  H41 UNL     1      10.852  -9.082  23.213  1.00  0.00     0.174 HD
ATOM     16  H5  UNL     1      10.826 -12.266  22.859  1.00  0.00     0.186 HD
BRANCH  11  17
HETATM   17  N2  UNL     1      10.604 -12.579  25.757  1.00  0.00    -0.235 N 
HETATM   18  N1  UNL     1      10.475 -13.075  26.908  1.00  0.00    -0.330 N 
ATOM     19  H12 UNL     1      10.783 -12.517  27.704  1.00  0.00     0.178 HD
ATOM     20  H11 UNL     1      10.079 -14.003  27.061  1.00  0.00     0.178 HD
ATOM     21  H2  UNL     1      10.301 -13.124  24.950  1.00  0.00     0.208 HD
ENDBRANCH  11  17
ENDBRANCH   4   9
ENDBRANCH   1   2
BRANCH   1  22
HETATM   22  C5  UNL     1      16.935 -12.680  21.168  1.00  0.00     0.020 C 
BRANCH  22  23
HETATM   23  C6  UNL     1      17.867 -13.325  22.143  1.00  0.00     0.004 C 
BRANCH  23  24
HETATM   24  C7  UNL     1      19.296 -13.415  21.650  1.00  0.00     0.026 C 
BRANCH  24  25
HETATM   25  C8  UNL     1      20.273 -13.624  22.789  1.00  0.00     0.167 C 
BRANCH  25  26
HETATM   26  O1  UNL     1      20.919 -14.832  22.713  1.00  0.00    -0.390 OA
BRANCH  26  27
HETATM   27  C9  UNL     1      20.692 -15.694  23.738  1.00  0.00     0.187 C 
BRANCH  27  28
HETATM   28  C10 UNL     1      20.182 -17.052  23.410  1.00  0.00     0.154 C 
BRANCH  28  29
HETATM   29  N7  UNL     1      18.863 -16.963  22.814  1.00  0.00    -0.364 N 
HETATM   30  C11 UNL     1      17.719 -16.771  23.461  1.00  0.00     0.092 A 
HETATM   31  C12 UNL     1      16.481 -16.685  22.806  1.00  0.00     0.038 A 
HETATM   32  C13 UNL     1      16.418 -16.801  21.436  1.00  0.00     0.021 A 
HETATM   33  C19 UNL     1      17.614 -17.000  20.781  1.00  0.00     0.038 A 
HETATM   34  C20 UNL     1      18.792 -17.077  21.449  1.00  0.00     0.092 A 
BRANCH  32  35
HETATM   35  C14 UNL     1      15.164 -16.721  20.740  1.00  0.00    -0.053 C 
BRANCH  35  36
HETATM   36  C15 UNL     1      14.103 -16.631  20.147  1.00  0.00    -0.009 C 
BRANCH  36  37
HETATM   37  C16 UNL     1      12.859 -16.512  19.478  1.00  0.00    -0.013 C 
BRANCH  37  38
HETATM   38  C17 UNL     1      11.799 -16.388  18.913  1.00  0.00    -0.067 C 
BRANCH  38  39
HETATM   39  C18 UNL     1      10.495 -16.220  18.242  1.00  0.00     0.258 C 
BRANCH  39  40
HETATM   40  O2  UNL     1      10.516 -16.851  16.974  1.00  0.00    -0.389 OA
ATOM     41  H2  UNL     1      10.134 -16.279  16.318  1.00  0.00     0.210 HD
ENDBRANCH  39  40
ENDBRANCH  38  39
ENDBRANCH  37  38
ENDBRANCH  36  37
ENDBRANCH  35  36
ENDBRANCH  32  35
ENDBRANCH  28  29
ENDBRANCH  27  28
ENDBRANCH  26  27
ENDBRANCH  25  26
ENDBRANCH  24  25
ENDBRANCH  23  24
ENDBRANCH  22  23
ENDBRANCH   1  22
TORSDOF 17
ENDMDL
MODEL 5
REMARK VINA RESULT: -6.404989596      2.917      5.257
REMARK  17 active torsions:
REMARK  status: ('A' for Active; 'I' for Inactive)
REMARK    1  A    between atoms: N2_4  and  N3_6 
REMARK       I    between atoms: N3_6  and  C1_8 
REMARK       I    between atoms: C1_8  and  N5_12 
REMARK    2  A    between atoms: N5_12  and  C2_14 
REMARK    3  A    between atoms: N6_16  and  C4_17 
REMARK    4  A    between atoms: C4_17  and  C5_18 
REMARK    5  A    between atoms: C5_18  and  C6_19 
REMARK    6  A    between atoms: C6_19  and  C7_20 
REMARK    7  A    between atoms: C7_20  and  C8_21 
REMARK    8  A    between atoms: C8_21  and  O1_22 
REMARK    9  A    between atoms: O1_22  and  C9_23 
REMARK   10  A    between atoms: C9_23  and  C10_24 
REMARK   11  A    between atoms: C10_24  and  N7_25 
REMARK   12  A    between atoms: C13_28  and  C14_29 
REMARK   13  A    between atoms: C14_29  and  C15_30 
REMARK   14  A    between atoms: C15_30  and  C16_31 
REMARK   15  A    between atoms: C16_31  and  C17_32 
REMARK   16  A    between atoms: C17_32  and  C18_33 
REMARK   17  A    between atoms: C18_33  and  O2_34 
ROOT
HETATM    1  C4  UNL     1      17.596 -12.840  21.613  1.00  0.00     0.128 C 
ENDROOT
BRANCH   1   2
HETATM    2  N6  UNL     1      16.583 -12.321  20.733  1.00  0.00    -0.361 N 
HETATM    3  C3  UNL     1      15.306 -12.167  21.118  1.00  0.00     0.139 A 
HETATM    4  C2  UNL     1      14.308 -11.676  20.293  1.00  0.00     0.136 A 
HETATM    5  N8  UNL     1      14.659 -11.342  19.041  1.00  0.00    -0.349 N 
HETATM    6  C22 UNL     1      15.932 -11.488  18.636  1.00  0.00     0.107 A 
ATOM      7  H8  UNL     1      13.958 -10.975  18.396  1.00  0.00     0.166 HD
HETATM    8  C21 UNL     1      16.900 -11.976  19.469  1.00  0.00     0.107 A 
BRANCH   4   9
HETATM    9  N5  UNL     1      13.097 -11.546  20.706  1.00  0.00    -0.174 N 
HETATM   10  C1  UNL     1      12.585 -10.477  21.451  1.00  0.00     0.693 C 
HETATM   11  N3  UNL     1      12.096 -10.649  22.795  1.00  0.00    -0.118 N 
HETATM   12  N4  UNL     1      12.516  -9.271  20.978  1.00  0.00    -0.233 N 
ATOM     13  H3  UNL     1      12.313  -9.955  23.510  1.00  0.00     0.207 HD
ATOM     14  H42 UNL     1      12.143  -8.493  21.521  1.00  0.00     0.174 HD
ATOM     15  H41 UNL     1      12.862  -9.149  20.027  1.00  0.00     0.174 HD
ATOM     16  H5  UNL     1      12.446 -12.294  20.467  1.00  0.00     0.186 HD
BRANCH  11  17
HETATM   17  N2  UNL     1      11.325 -11.768  23.116  1.00  0.00    -0.235 N 
HETATM   18  N1  UNL     1      10.604 -11.815  24.148  1.00  0.00    -0.330 N 
ATOM     19  H12 UNL     1      10.595 -11.000  24.760  1.00  0.00     0.178 HD
ATOM     20  H11 UNL     1      10.040 -12.633  24.382  1.00  0.00     0.178 HD
ATOM     21  H2  UNL     1      11.346 -12.575  22.492  1.00  0.00     0.208 HD
ENDBRANCH  11  17
ENDBRANCH   4   9
ENDBRANCH   1   2
BRANCH   1  22
HETATM   22  C5  UNL     1      18.777 -13.424  20.891  1.00  0.00     0.020 C 
BRANCH  22  23
HETATM   23  C6  UNL     1      20.050 -13.232  21.653  1.00  0.00     0.004 C 
BRANCH  23  24
HETATM   24  C7  UNL     1      19.865 -13.225  23.155  1.00  0.00     0.026 C 
BRANCH  24  25
HETATM   25  C8  UNL     1      21.168 -13.479  23.884  1.00  0.00     0.167 C 
BRANCH  25  26
HETATM   26  O1  UNL     1      21.721 -14.695  23.565  1.00  0.00    -0.390 OA
BRANCH  26  27
HETATM   27  C9  UNL     1      21.533 -15.690  24.470  1.00  0.00     0.187 C 
BRANCH  27  28
HETATM   28  C10 UNL     1      21.105 -17.022  23.965  1.00  0.00     0.154 C 
BRANCH  28  29
HETATM   29  N7  UNL     1      19.885 -16.897  23.191  1.00  0.00    -0.364 N 
HETATM   30  C11 UNL     1      19.753 -17.126  21.889  1.00  0.00     0.092 A 
HETATM   31  C12 UNL     1      18.530 -16.992  21.216  1.00  0.00     0.038 A 
HETATM   32  C13 UNL     1      17.403 -16.608  21.905  1.00  0.00     0.021 A 
HETATM   33  C19 UNL     1      17.558 -16.374  23.254  1.00  0.00     0.038 A 
HETATM   34  C20 UNL     1      18.757 -16.515  23.872  1.00  0.00     0.092 A 
BRANCH  32  35
HETATM   35  C14 UNL     1      16.139 -16.459  21.239  1.00  0.00    -0.053 C 
BRANCH  35  36
HETATM   36  C15 UNL     1      15.074 -16.317  20.662  1.00  0.00    -0.009 C 
BRANCH  36  37
HETATM   37  C16 UNL     1      13.823 -16.150  20.017  1.00  0.00    -0.013 C 
BRANCH  37  38
HETATM   38  C17 UNL     1      12.759 -15.986  19.470  1.00  0.00    -0.067 C 
BRANCH  38  39
HETATM   39  C18 UNL     1      11.470 -15.796  18.778  1.00  0.00     0.258 C 
BRANCH  39  40
HETATM   40  O2  UNL     1      10.610 -16.891  19.043  1.00  0.00    -0.389 OA
ATOM     41  H2  UNL     1      10.054 -16.696  19.789  1.00  0.00     0.210 HD
ENDBRANCH  39  40
ENDBRANCH  38  39
ENDBRANCH  37  38
ENDBRANCH  36  37
ENDBRANCH  35  36
ENDBRANCH  32  35
ENDBRANCH  28  29
ENDBRANCH  27  28
ENDBRANCH  26  27
ENDBRANCH  25  26
ENDBRANCH  24  25
ENDBRANCH  23  24
ENDBRANCH  22  23
ENDBRANCH   1  22
TORSDOF 17
ENDMDL
