MODEL 1
REMARK VINA RESULT: -8.704931828      0.000      0.000
REMARK  13 active torsions:
REMARK  status: ('A' for Active; 'I' for Inactive)
REMARK    1  A    between atoms: C1_4  and  C2_6 
REMARK    2  A    between atoms: N3_9  and  C5_10 
REMARK    3  A    between atoms: C5_10  and  C6_11 
REMARK    4  A    between atoms: C6_11  and  C7_12 
REMARK    5  A    between atoms: C7_12  and  C8_13 
REMARK    6  A    between atoms: N4_16  and  N5_17 
REMARK    7  A    between atoms: C11_19  and  C12_20 
REMARK    8  A    between atoms: C15_23  and  C16_24 
REMARK    9  A    between atoms: C16_24  and  C17_25 
REMARK   10  A    between atoms: C17_25  and  C18_26 
REMARK   11  A    between atoms: C18_26  and  N6_27 
REMARK   12  A    between atoms: C20_31  and  O1_32 
REMARK   13  A    between atoms: C22_35  and  O2_36 
ROOT
HETATM    1  N5  UNL     1      20.846 -14.409  22.880  1.00  0.00    -0.305 N 
ATOM      2  H5  UNL     1      21.835 -14.279  22.666  1.00  0.00     0.186 HD
HETATM    3  C11 UNL     1      20.515 -15.200  23.817  1.00  0.00     0.119 C 
ENDROOT
BRANCH   1   4
HETATM    4  N4  UNL     1      19.876 -13.701  22.123  1.00  0.00    -0.279 N 
HETATM    5  C10 UNL     1      18.578 -13.735  22.468  1.00  0.00     0.116 A 
HETATM    6  C9  UNL     1      17.638 -13.049  21.734  1.00  0.00     0.026 A 
HETATM    7  C8  UNL     1      17.973 -12.286  20.601  1.00  0.00    -0.055 A 
HETATM    8  C25 UNL     1      19.296 -12.273  20.279  1.00  0.00     0.026 A 
HETATM    9  C24 UNL     1      20.226 -12.983  21.049  1.00  0.00     0.116 A 
BRANCH   7  10
HETATM   10  C7  UNL     1      16.917 -11.607  19.825  1.00  0.00     0.040 C 
BRANCH  10  11
HETATM   11  C6  UNL     1      15.650 -12.335  19.659  1.00  0.00     0.025 C 
BRANCH  11  12
HETATM   12  C5  UNL     1      14.377 -11.657  19.384  1.00  0.00     0.128 C 
BRANCH  12  13
HETATM   13  N3  UNL     1      13.680 -11.095  20.518  1.00  0.00    -0.366 N 
HETATM   14  C4  UNL     1      12.846 -11.927  21.226  1.00  0.00     0.091 A 
HETATM   15  C3  UNL     1      12.166 -11.501  22.338  1.00  0.00     0.032 A 
HETATM   16  C2  UNL     1      12.263 -10.220  22.826  1.00  0.00     0.007 A 
HETATM   17  C27 UNL     1      13.109  -9.380  22.107  1.00  0.00     0.032 A 
HETATM   18  C26 UNL     1      13.782  -9.853  20.985  1.00  0.00     0.091 A 
BRANCH  16  19
HETATM   19  C1  UNL     1      11.549  -9.761  23.996  1.00  0.00     0.120 C 
HETATM   20  N1  UNL     1      10.869 -10.558  24.709  1.00  0.00    -0.387 N 
ATOM     21  H12 UNL     1      10.365 -10.234  25.535  1.00  0.00     0.157 HD
ATOM     22  H11 UNL     1      10.821 -11.545  24.455  1.00  0.00     0.157 HD
HETATM   23  N2  UNL     1      11.617  -8.392  24.347  1.00  0.00    -0.082 NA
ENDBRANCH  16  19
ENDBRANCH  12  13
ENDBRANCH  11  12
ENDBRANCH  10  11
ENDBRANCH   7  10
ENDBRANCH   1   4
BRANCH   3  24
HETATM   24  C12 UNL     1      21.518 -15.916  24.580  1.00  0.00    -0.017 A 
HETATM   25  C13 UNL     1      21.225 -16.904  25.475  1.00  0.00     0.013 A 
HETATM   26  C14 UNL     1      22.214 -17.579  26.199  1.00  0.00     0.011 A 
HETATM   27  C15 UNL     1      23.531 -17.248  26.013  1.00  0.00    -0.025 A 
HETATM   28  C22 UNL     1      23.872 -16.249  25.112  1.00  0.00     0.072 A 
HETATM   29  C23 UNL     1      22.877 -15.604  24.418  1.00  0.00     0.050 A 
BRANCH  27  30
HETATM   30  C16 UNL     1      24.565 -17.975  26.789  1.00  0.00     0.043 C 
BRANCH  30  31
HETATM   31  C17 UNL     1      23.922 -18.524  28.044  1.00  0.00     0.025 C 
BRANCH  31  32
HETATM   32  C18 UNL     1      24.903 -18.661  29.174  1.00  0.00     0.129 C 
BRANCH  32  33
HETATM   33  N6  UNL     1      24.695 -17.708  30.229  1.00  0.00    -0.349 N 
HETATM   34  C19 UNL     1      24.140 -17.957  31.422  1.00  0.00     0.184 A 
HETATM   35  N7  UNL     1      24.102 -16.838  32.163  1.00  0.00    -0.332 N 
HETATM   36  C20 UNL     1      24.644 -15.849  31.433  1.00  0.00     0.156 A 
ATOM     37  H7  UNL     1      23.730 -16.754  33.109  1.00  0.00     0.168 HD
HETATM   38  C21 UNL     1      25.011 -16.406  30.223  1.00  0.00     0.147 A 
BRANCH  36  39
HETATM   39  O1  UNL     1      24.817 -14.511  31.790  1.00  0.00    -0.345 OA
ATOM     40  H1  UNL     1      25.632 -14.037  31.904  1.00  0.00     0.219 HD
ENDBRANCH  36  39
ENDBRANCH  32  33
ENDBRANCH  31  32
ENDBRANCH  30  31
ENDBRANCH  27  30
BRANCH  28  41
HETATM   41  O2  UNL     1      25.218 -15.938  24.949  1.00  0.00    -0.360 OA
ATOM     42  H2  UNL     1      25.472 -15.414  24.198  1.00  0.00     0.217 HD
ENDBRANCH  28  41
ENDBRANCH   3  24
TORSDOF 13
ENDMDL
MODEL 2
REMARK VINA RESULT: -8.568789436      4.071     11.215
REMARK  13 active torsions:
REMARK  status: ('A' for Active; 'I' for Inactive)
REMARK    1  A    between atoms: C1_4  and  C2_6 
REMARK    2  A    between atoms: N3_9  and  C5_10 
REMARK    3  A    between atoms: C5_10  and  C6_11 
REMARK    4  A    between atoms: C6_11  and  C7_12 
REMARK    5  A    between atoms: C7_12  and  C8_13 
REMARK    6  A    between atoms: N4_16  and  N5_17 
REMARK    7  A    between atoms: C11_19  and  C12_20 
REMARK    8  A    between atoms: C15_23  and  C16_24 
REMARK    9  A    between atoms: C16_24  and  C17_25 
REMARK   10  A    between atoms: C17_25  and  C18_26 
REMARK   11  A    between atoms: C18_26  and  N6_27 
REMARK   12  A    between atoms: C20_31  and  O1_32 
REMARK   13  A    between atoms: C22_35  and  O2_36 
ROOT
HETATM    1  N5  UNL     1      18.470 -16.059  21.490  1.00  0.00    -0.305 N 
ATOM      2  H5  UNL     1      17.635 -16.516  21.122  1.00  0.00     0.186 HD
HETATM    3  C11 UNL     1      18.542 -14.791  21.466  1.00  0.00     0.119 C 
ENDROOT
BRANCH   1   4
HETATM    4  N4  UNL     1      19.521 -16.858  22.014  1.00  0.00    -0.279 N 
HETATM    5  C10 UNL     1      19.366 -17.523  23.170  1.00  0.00     0.116 A 
HETATM    6  C9  UNL     1      20.384 -18.296  23.678  1.00  0.00     0.026 A 
HETATM    7  C8  UNL     1      21.625 -18.433  23.030  1.00  0.00    -0.055 A 
HETATM    8  C25 UNL     1      21.749 -17.746  21.861  1.00  0.00     0.026 A 
HETATM    9  C24 UNL     1      20.691 -16.968  21.373  1.00  0.00     0.116 A 
BRANCH   7  10
HETATM   10  C7  UNL     1      22.697 -19.239  23.644  1.00  0.00     0.040 C 
BRANCH  10  11
HETATM   11  C6  UNL     1      23.971 -18.553  23.907  1.00  0.00     0.025 C 
BRANCH  11  12
HETATM   12  C5  UNL     1      24.167 -17.659  25.054  1.00  0.00     0.128 C 
BRANCH  12  13
HETATM   13  N3  UNL     1      23.297 -16.509  25.141  1.00  0.00    -0.366 N 
HETATM   14  C4  UNL     1      23.465 -15.514  24.207  1.00  0.00     0.091 A 
HETATM   15  C3  UNL     1      22.668 -14.399  24.182  1.00  0.00     0.032 A 
HETATM   16  C2  UNL     1      21.649 -14.189  25.081  1.00  0.00     0.007 A 
HETATM   17  C27 UNL     1      21.482 -15.198  26.024  1.00  0.00     0.032 A 
HETATM   18  C26 UNL     1      22.311 -16.316  26.014  1.00  0.00     0.091 A 
BRANCH  16  19
HETATM   19  C1  UNL     1      20.805 -13.016  25.063  1.00  0.00     0.120 C 
HETATM   20  N1  UNL     1      21.122 -11.965  25.698  1.00  0.00    -0.387 N 
ATOM     21  H12 UNL     1      20.526 -11.137  25.685  1.00  0.00     0.157 HD
ATOM     22  H11 UNL     1      21.989 -11.943  26.235  1.00  0.00     0.157 HD
HETATM   23  N2  UNL     1      19.603 -13.047  24.318  1.00  0.00    -0.082 NA
ENDBRANCH  16  19
ENDBRANCH  12  13
ENDBRANCH  11  12
ENDBRANCH  10  11
ENDBRANCH   7  10
ENDBRANCH   1   4
BRANCH   3  24
HETATM   24  C12 UNL     1      17.460 -13.992  20.928  1.00  0.00    -0.017 A 
HETATM   25  C13 UNL     1      16.302 -14.521  20.434  1.00  0.00     0.013 A 
HETATM   26  C14 UNL     1      15.273 -13.725  19.920  1.00  0.00     0.011 A 
HETATM   27  C15 UNL     1      15.417 -12.361  19.905  1.00  0.00    -0.025 A 
HETATM   28  C22 UNL     1      16.578 -11.784  20.397  1.00  0.00     0.072 A 
HETATM   29  C23 UNL     1      17.570 -12.593  20.894  1.00  0.00     0.050 A 
BRANCH  27  30
HETATM   30  C16 UNL     1      14.314 -11.535  19.355  1.00  0.00     0.043 C 
BRANCH  30  31
HETATM   31  C17 UNL     1      13.178 -11.527  20.356  1.00  0.00     0.025 C 
BRANCH  31  32
HETATM   32  C18 UNL     1      13.095 -10.232  21.112  1.00  0.00     0.129 C 
BRANCH  32  33
HETATM   33  N6  UNL     1      12.368 -10.338  22.348  1.00  0.00    -0.349 N 
HETATM   34  C19 UNL     1      11.953  -9.319  23.111  1.00  0.00     0.184 A 
HETATM   35  N7  UNL     1      11.304  -9.780  24.193  1.00  0.00    -0.332 N 
HETATM   36  C20 UNL     1      11.303 -11.121  24.125  1.00  0.00     0.156 A 
ATOM     37  H7  UNL     1      10.888  -9.214  24.933  1.00  0.00     0.168 HD
HETATM   38  C21 UNL     1      11.972 -11.459  22.965  1.00  0.00     0.147 A 
BRANCH  36  39
HETATM   39  O1  UNL     1      10.746 -12.028  25.028  1.00  0.00    -0.345 OA
ATOM     40  H1  UNL     1      10.399 -12.894  24.849  1.00  0.00     0.219 HD
ENDBRANCH  36  39
ENDBRANCH  32  33
ENDBRANCH  31  32
ENDBRANCH  30  31
ENDBRANCH  27  30
BRANCH  28  41
HETATM   41  O2  UNL     1      16.691 -10.398  20.365  1.00  0.00    -0.360 OA
ATOM     42  H2  UNL     1      17.529 -10.019  20.128  1.00  0.00     0.217 HD
ENDBRANCH  28  41
ENDBRANCH   3  24
TORSDOF 13
ENDMDL
MODEL 3
REMARK VINA RESULT: -8.519575961      4.676     12.459
REMARK  13 active torsions:
REMARK  status: ('A' for Active; 'I' for Inactive)
REMARK    1  A    between atoms: C1_4  and  C2_6 
REMARK    2  A    between atoms: N3_9  and  C5_10 
REMARK    3  A    between atoms: C5_10  and  C6_11 
REMARK    4  A    between atoms: C6_11  and  C7_12 
REMARK    5  A    between atoms: C7_12  and  C8_13 
REMARK    6  A    between atoms: N4_16  and  N5_17 
REMARK    7  A    between atoms: C11_19  and  C12_20 
REMARK    8  A    between atoms: C15_23  and  C16_24 
REMARK    9  A    between atoms: C16_24  and  C17_25 
REMARK   10  A    between atoms: C17_25  and  C18_26 
REMARK   11  A    between atoms: C18_26  and  N6_27 
REMARK   12  A    between atoms: C20_31  and  O1_32 
REMARK   13  A    between atoms: C22_35  and  O2_36 
ROOT
HETATM    1  N5  UNL     1      19.196 -13.950  22.807  1.00  0.00    -0.305 N 
ATOM      2  H5  UNL     1      18.367 -14.043  23.395  1.00  0.00     0.186 HD
HETATM    3  C11 UNL     1      19.086 -13.404  21.665  1.00  0.00     0.119 C 
ENDROOT
BRANCH   1   4
HETATM    4  N4  UNL     1      20.442 -14.435  23.287  1.00  0.00    -0.279 N 
HETATM    5  C10 UNL     1      21.409 -13.584  23.664  1.00  0.00     0.116 A 
HETATM    6  C9  UNL     1      22.616 -14.052  24.129  1.00  0.00     0.026 A 
HETATM    7  C8  UNL     1      22.903 -15.425  24.234  1.00  0.00    -0.055 A 
HETATM    8  C25 UNL     1      21.902 -16.261  23.842  1.00  0.00     0.026 A 
HETATM    9  C24 UNL     1      20.685 -15.748  23.375  1.00  0.00     0.116 A 
BRANCH   7  10
HETATM   10  C7  UNL     1      24.231 -15.872  24.696  1.00  0.00     0.040 C 
BRANCH  10  11
HETATM   11  C6  UNL     1      24.696 -17.179  24.207  1.00  0.00     0.025 C 
BRANCH  11  12
HETATM   12  C5  UNL     1      25.643 -17.318  23.094  1.00  0.00     0.128 C 
BRANCH  12  13
HETATM   13  N3  UNL     1      25.180 -18.040  21.932  1.00  0.00    -0.366 N 
HETATM   14  C4  UNL     1      23.925 -17.742  21.457  1.00  0.00     0.091 A 
HETATM   15  C3  UNL     1      23.407 -18.346  20.340  1.00  0.00     0.032 A 
HETATM   16  C2  UNL     1      24.096 -19.290  19.615  1.00  0.00     0.007 A 
HETATM   17  C27 UNL     1      25.366 -19.588  20.098  1.00  0.00     0.032 A 
HETATM   18  C26 UNL     1      25.856 -18.951  21.234  1.00  0.00     0.091 A 
BRANCH  16  19
HETATM   19  C1  UNL     1      23.558 -19.933  18.438  1.00  0.00     0.120 C 
HETATM   20  N1  UNL     1      24.300 -20.243  17.458  1.00  0.00    -0.387 N 
ATOM     21  H12 UNL     1      23.920 -20.697  16.627  1.00  0.00     0.157 HD
ATOM     22  H11 UNL     1      25.298 -20.035  17.496  1.00  0.00     0.157 HD
HETATM   23  N2  UNL     1      22.173 -20.221  18.386  1.00  0.00    -0.082 NA
ENDBRANCH  16  19
ENDBRANCH  12  13
ENDBRANCH  11  12
ENDBRANCH  10  11
ENDBRANCH   7  10
ENDBRANCH   1   4
BRANCH   3  24
HETATM   24  C12 UNL     1      17.807 -12.915  21.191  1.00  0.00    -0.017 A 
HETATM   25  C13 UNL     1      16.618 -13.189  21.804  1.00  0.00     0.013 A 
HETATM   26  C14 UNL     1      15.397 -12.704  21.324  1.00  0.00     0.011 A 
HETATM   27  C15 UNL     1      15.377 -11.921  20.199  1.00  0.00    -0.025 A 
HETATM   28  C22 UNL     1      16.563 -11.619  19.546  1.00  0.00     0.072 A 
HETATM   29  C23 UNL     1      17.745 -12.112  20.042  1.00  0.00     0.050 A 
BRANCH  27  30
HETATM   30  C16 UNL     1      14.072 -11.416  19.706  1.00  0.00     0.043 C 
BRANCH  30  31
HETATM   31  C17 UNL     1      13.569 -10.366  20.674  1.00  0.00     0.025 C 
BRANCH  31  32
HETATM   32  C18 UNL     1      12.431 -10.867  21.516  1.00  0.00     0.129 C 
BRANCH  32  33
HETATM   33  N6  UNL     1      12.206 -10.081  22.698  1.00  0.00    -0.349 N 
HETATM   34  C19 UNL     1      11.509 -10.458  23.778  1.00  0.00     0.184 A 
HETATM   35  N7  UNL     1      11.501  -9.477  24.696  1.00  0.00    -0.332 N 
HETATM   36  C20 UNL     1      12.207  -8.449  24.196  1.00  0.00     0.156 A 
ATOM     37  H7  UNL     1      11.044  -9.507  25.606  1.00  0.00     0.168 HD
HETATM   38  C21 UNL     1      12.642  -8.839  22.944  1.00  0.00     0.147 A 
BRANCH  36  39
HETATM   39  O1  UNL     1      12.468  -7.214  24.792  1.00  0.00    -0.345 OA
ATOM     40  H1  UNL     1      12.750  -6.410  24.373  1.00  0.00     0.219 HD
ENDBRANCH  36  39
ENDBRANCH  32  33
ENDBRANCH  31  32
ENDBRANCH  30  31
ENDBRANCH  27  30
BRANCH  28  41
HETATM   41  O2  UNL     1      16.505 -10.823  18.407  1.00  0.00    -0.360 OA
ATOM     42  H2  UNL     1      17.044 -11.062  17.662  1.00  0.00     0.217 HD
ENDBRANCH  28  41
ENDBRANCH   3  24
TORSDOF 13
ENDMDL
MODEL 4
REMARK VINA RESULT: -8.507057468      4.684     12.510
REMARK  13 active torsions:
REMARK  status: ('A' for Active; 'I' for Inactive)
REMARK    1  A    between atoms: C1_4  and  C2_6 
REMARK    2  A    between atoms: N3_9  and  C5_10 
REMARK    3  A    between atoms: C5_10  and  C6_11 
REMARK    4  A    between atoms: C6_11  and  C7_12 
REMARK    5  A    between atoms: C7_12  and  C8_13 
REMARK    6  A    between atoms: N4_16  and  N5_17 
REMARK    7  A    between atoms: C11_19  and  C12_20 
REMARK    8  A    between atoms: C15_23  and  C16_24 
REMARK    9  A    between atoms: C16_24  and  C17_25 
REMARK   10  A    between atoms: C17_25  and  C18_26 
REMARK   11  A    between atoms: C18_26  and  N6_27 
REMARK   12  A    between atoms: C20_31  and  O1_32 
REMARK   13  A    between atoms: C22_35  and  O2_36 
ROOT
HETATM    1  N5  UNL     1      19.407 -13.714  22.927  1.00  0.00    -0.305 N 
ATOM      2  H5  UNL     1      18.777 -13.351  23.643  1.00  0.00     0.186 HD
HETATM    3  C11 UNL     1      19.086 -13.596  21.704  1.00  0.00     0.119 C 
ENDROOT
BRANCH   1   4
HETATM    4  N4  UNL     1      20.620 -14.337  23.324  1.00  0.00    -0.279 N 
HETATM    5  C10 UNL     1      20.742 -15.674  23.305  1.00  0.00     0.116 A 
HETATM    6  C9  UNL     1      21.916 -16.278  23.690  1.00  0.00     0.026 A 
HETATM    7  C8  UNL     1      23.038 -15.544  24.119  1.00  0.00    -0.055 A 
HETATM    8  C25 UNL     1      22.880 -14.192  24.128  1.00  0.00     0.026 A 
HETATM    9  C24 UNL     1      21.670 -13.612  23.728  1.00  0.00     0.116 A 
BRANCH   7  10
HETATM   10  C7  UNL     1      24.257 -16.247  24.564  1.00  0.00     0.040 C 
BRANCH  10  11
HETATM   11  C6  UNL     1      25.289 -16.487  23.545  1.00  0.00     0.025 C 
BRANCH  11  12
HETATM   12  C5  UNL     1      25.686 -17.836  23.121  1.00  0.00     0.128 C 
BRANCH  12  13
HETATM   13  N3  UNL     1      25.113 -18.326  21.889  1.00  0.00    -0.366 N 
HETATM   14  C4  UNL     1      25.843 -19.241  21.170  1.00  0.00     0.091 A 
HETATM   15  C3  UNL     1      25.373 -19.794  20.006  1.00  0.00     0.032 A 
HETATM   16  C2  UNL     1      24.146 -19.477  19.472  1.00  0.00     0.007 A 
HETATM   17  C27 UNL     1      23.409 -18.550  20.204  1.00  0.00     0.032 A 
HETATM   18  C26 UNL     1      23.922 -18.015  21.382  1.00  0.00     0.091 A 
BRANCH  16  19
HETATM   19  C1  UNL     1      23.642 -20.052  18.246  1.00  0.00     0.120 C 
HETATM   20  N1  UNL     1      24.418 -20.347  17.288  1.00  0.00    -0.387 N 
ATOM     21  H12 UNL     1      24.063 -20.753  16.422  1.00  0.00     0.157 HD
ATOM     22  H11 UNL     1      25.420 -20.176  17.379  1.00  0.00     0.157 HD
HETATM   23  N2  UNL     1      22.253 -20.290  18.120  1.00  0.00    -0.082 NA
ENDBRANCH  16  19
ENDBRANCH  12  13
ENDBRANCH  11  12
ENDBRANCH  10  11
ENDBRANCH   7  10
ENDBRANCH   1   4
BRANCH   3  24
HETATM   24  C12 UNL     1      17.844 -12.957  21.316  1.00  0.00    -0.017 A 
HETATM   25  C13 UNL     1      16.693 -13.036  22.046  1.00  0.00     0.013 A 
HETATM   26  C14 UNL     1      15.507 -12.409  21.647  1.00  0.00     0.011 A 
HETATM   27  C15 UNL     1      15.485 -11.684  20.483  1.00  0.00    -0.025 A 
HETATM   28  C22 UNL     1      16.633 -11.579  19.713  1.00  0.00     0.072 A 
HETATM   29  C23 UNL     1      17.781 -12.207  20.131  1.00  0.00     0.050 A 
BRANCH  27  30
HETATM   30  C16 UNL     1      14.218 -11.027  20.079  1.00  0.00     0.043 C 
BRANCH  30  31
HETATM   31  C17 UNL     1      13.999  -9.822  20.969  1.00  0.00     0.025 C 
BRANCH  31  32
HETATM   32  C18 UNL     1      12.541  -9.538  21.192  1.00  0.00     0.129 C 
BRANCH  32  33
HETATM   33  N6  UNL     1      12.078  -9.922  22.498  1.00  0.00    -0.349 N 
HETATM   34  C19 UNL     1      11.937  -9.113  23.556  1.00  0.00     0.184 A 
HETATM   35  N7  UNL     1      11.483  -9.803  24.615  1.00  0.00    -0.332 N 
HETATM   36  C20 UNL     1      11.329 -11.081  24.230  1.00  0.00     0.156 A 
ATOM     37  H7  UNL     1      11.290  -9.426  25.543  1.00  0.00     0.168 HD
HETATM   38  C21 UNL     1      11.705 -11.143  22.903  1.00  0.00     0.147 A 
BRANCH  36  39
HETATM   39  O1  UNL     1      10.881 -12.161  24.993  1.00  0.00    -0.345 OA
ATOM     40  H1  UNL     1      11.319 -12.989  25.149  1.00  0.00     0.219 HD
ENDBRANCH  36  39
ENDBRANCH  32  33
ENDBRANCH  31  32
ENDBRANCH  30  31
ENDBRANCH  27  30
BRANCH  28  41
HETATM   41  O2  UNL     1      16.574 -10.837  18.538  1.00  0.00    -0.360 OA
ATOM     42  H2  UNL     1      17.342 -10.341  18.279  1.00  0.00     0.217 HD
ENDBRANCH  28  41
ENDBRANCH   3  24
TORSDOF 13
ENDMDL
MODEL 5
REMARK VINA RESULT: -8.500542334      4.328     11.333
REMARK  13 active torsions:
REMARK  status: ('A' for Active; 'I' for Inactive)
REMARK    1  A    between atoms: C1_4  and  C2_6 
REMARK    2  A    between atoms: N3_9  and  C5_10 
REMARK    3  A    between atoms: C5_10  and  C6_11 
REMARK    4  A    between atoms: C6_11  and  C7_12 
REMARK    5  A    between atoms: C7_12  and  C8_13 
REMARK    6  A    between atoms: N4_16  and  N5_17 
REMARK    7  A    between atoms: C11_19  and  C12_20 
REMARK    8  A    between atoms: C15_23  and  C16_24 
REMARK    9  A    between atoms: C16_24  and  C17_25 
REMARK   10  A    between atoms: C17_25  and  C18_26 
REMARK   11  A    between atoms: C18_26  and  N6_27 
REMARK   12  A    between atoms: C20_31  and  O1_32 
REMARK   13  A    between atoms: C22_35  and  O2_36 
ROOT
HETATM    1  N5  UNL     1      18.097 -15.532  21.809  1.00  0.00    -0.305 N 
ATOM      2  H5  UNL     1      17.132 -15.823  21.964  1.00  0.00     0.186 HD
HETATM    3  C11 UNL     1      18.326 -14.373  21.343  1.00  0.00     0.119 C 
ENDROOT
BRANCH   1   4
HETATM    4  N4  UNL     1      19.150 -16.433  22.121  1.00  0.00    -0.279 N 
HETATM    5  C10 UNL     1      20.261 -16.476  21.369  1.00  0.00     0.116 A 
HETATM    6  C9  UNL     1      21.281 -17.349  21.670  1.00  0.00     0.026 A 
HETATM    7  C8  UNL     1      21.221 -18.231  22.764  1.00  0.00    -0.055 A 
HETATM    8  C25 UNL     1      20.081 -18.163  23.505  1.00  0.00     0.026 A 
HETATM    9  C24 UNL     1      19.063 -17.261  23.169  1.00  0.00     0.116 A 
BRANCH   7  10
HETATM   10  C7  UNL     1      22.325 -19.178  23.013  1.00  0.00     0.040 C 
BRANCH  10  11
HETATM   11  C6  UNL     1      23.662 -18.598  23.204  1.00  0.00     0.025 C 
BRANCH  11  12
HETATM   12  C5  UNL     1      24.063 -17.919  24.442  1.00  0.00     0.128 C 
BRANCH  12  13
HETATM   13  N3  UNL     1      23.298 -16.755  24.825  1.00  0.00    -0.366 N 
HETATM   14  C4  UNL     1      23.425 -15.628  24.049  1.00  0.00     0.091 A 
HETATM   15  C3  UNL     1      22.716 -14.483  24.307  1.00  0.00     0.032 A 
HETATM   16  C2  UNL     1      21.831 -14.374  25.353  1.00  0.00     0.007 A 
HETATM   17  C27 UNL     1      21.703 -15.518  26.136  1.00  0.00     0.032 A 
HETATM   18  C26 UNL     1      22.440 -16.660  25.839  1.00  0.00     0.091 A 
BRANCH  16  19
HETATM   19  C1  UNL     1      21.080 -13.172  25.634  1.00  0.00     0.120 C 
HETATM   20  N1  UNL     1      20.574 -12.477  24.703  1.00  0.00    -0.387 N 
ATOM     21  H12 UNL     1      20.044 -11.628  24.902  1.00  0.00     0.157 HD
ATOM     22  H11 UNL     1      20.697 -12.767  23.733  1.00  0.00     0.157 HD
HETATM   23  N2  UNL     1      20.908 -12.769  26.980  1.00  0.00    -0.082 NA
ENDBRANCH  16  19
ENDBRANCH  12  13
ENDBRANCH  11  12
ENDBRANCH  10  11
ENDBRANCH   7  10
ENDBRANCH   1   4
BRANCH   3  24
HETATM   24  C12 UNL     1      17.240 -13.466  21.030  1.00  0.00    -0.017 A 
HETATM   25  C13 UNL     1      16.082 -13.395  21.750  1.00  0.00     0.013 A 
HETATM   26  C14 UNL     1      15.049 -12.509  21.425  1.00  0.00     0.011 A 
HETATM   27  C15 UNL     1      15.190 -11.673  20.348  1.00  0.00    -0.025 A 
HETATM   28  C22 UNL     1      16.352 -11.713  19.590  1.00  0.00     0.072 A 
HETATM   29  C23 UNL     1      17.347 -12.595  19.934  1.00  0.00     0.050 A 
BRANCH  27  30
HETATM   30  C16 UNL     1      14.084 -10.741  20.021  1.00  0.00     0.043 C 
BRANCH  30  31
HETATM   31  C17 UNL     1      13.956  -9.736  21.145  1.00  0.00     0.025 C 
BRANCH  31  32
HETATM   32  C18 UNL     1      12.528  -9.353  21.407  1.00  0.00     0.129 C 
BRANCH  32  33
HETATM   33  N6  UNL     1      12.040  -9.806  22.681  1.00  0.00    -0.349 N 
HETATM   34  C19 UNL     1      11.821  -9.044  23.761  1.00  0.00     0.184 A 
HETATM   35  N7  UNL     1      11.366  -9.794  24.778  1.00  0.00    -0.332 N 
HETATM   36  C20 UNL     1      11.290 -11.063  24.344  1.00  0.00     0.156 A 
ATOM     37  H7  UNL     1      11.121  -9.460  25.710  1.00  0.00     0.168 HD
HETATM   38  C21 UNL     1      11.715 -11.058  23.030  1.00  0.00     0.147 A 
BRANCH  36  39
HETATM   39  O1  UNL     1      10.870 -12.191  25.052  1.00  0.00    -0.345 OA
ATOM     40  H1  UNL     1      10.001 -12.383  25.383  1.00  0.00     0.219 HD
ENDBRANCH  36  39
ENDBRANCH  32  33
ENDBRANCH  31  32
ENDBRANCH  30  31
ENDBRANCH  27  30
BRANCH  28  41
HETATM   41  O2  UNL     1      16.461 -10.851  18.504  1.00  0.00    -0.360 OA
ATOM     42  H2  UNL     1      17.031 -11.100  17.787  1.00  0.00     0.217 HD
ENDBRANCH  28  41
ENDBRANCH   3  24
TORSDOF 13
ENDMDL
