MODEL 1
REMARK VINA RESULT: -7.653277942      0.000      0.000
REMARK  13 active torsions:
REMARK  status: ('A' for Active; 'I' for Inactive)
REMARK    1  A    between atoms: C3_3  and  C4_4 
REMARK    2  A    between atoms: C4_4  and  C5_5 
REMARK    3  A    between atoms: C6_6  and  O1_7 
REMARK    4  A    between atoms: O1_7  and  C7_8 
REMARK    5  A    between atoms: C7_8  and  C8_9 
REMARK    6  A    between atoms: C8_9  and  C9_10 
REMARK    7  A    between atoms: C9_10  and  C10_11 
REMARK    8  A    between atoms: C10_11  and  N1_12 
REMARK    9  A    between atoms: N1_12  and  C13_15 
REMARK   10  A    between atoms: C15_17  and  C16_18 
REMARK   11  A    between atoms: C16_18  and  C17_19 
REMARK   12  A    between atoms: C17_19  and  N2_20 
REMARK   13  A    between atoms: C26_32  and  N5_34 
ROOT
HETATM    1  C1  UNL     1      20.516 -17.013  21.286  1.00  0.00     0.112 C 
HETATM    2  C2  UNL     1      19.123 -16.667  21.443  1.00  0.00    -0.106 C 
HETATM    3  C3  UNL     1      17.979 -16.363  21.554  1.00  0.00    -0.078 C 
ENDROOT
BRANCH   3   4
HETATM    4  C4  UNL     1      16.658 -15.962  21.764  1.00  0.00     0.081 C 
BRANCH   4   5
HETATM    5  C5  UNL     1      15.561 -15.724  21.172  1.00  0.00     0.036 A 
HETATM    6  C6  UNL     1      15.146 -14.358  21.148  1.00  0.00     0.093 A 
HETATM    7  C15 UNL     1      14.009 -13.952  20.507  1.00  0.00     0.046 A 
HETATM    8  C24 UNL     1      13.238 -14.889  19.848  1.00  0.00     0.255 A 
HETATM    9  O2  UNL     1      12.187 -14.508  19.241  1.00  0.00    -0.268 OA
HETATM   10  N3  UNL     1      13.623 -16.153  19.872  1.00  0.00    -0.319 N 
HETATM   11  C25 UNL     1      14.767 -16.611  20.524  1.00  0.00     0.090 A 
ATOM     12  H3  UNL     1      13.048 -16.837  19.382  1.00  0.00     0.169 HD
HETATM   13  C26 UNL     1      14.721 -17.927  20.704  1.00  0.00     0.146 C 
HETATM   14  N4  UNL     1      13.868 -18.678  19.913  1.00  0.00    -0.080 NA
BRANCH   6  15
HETATM   15  O1  UNL     1      15.870 -13.328  21.754  1.00  0.00    -0.349 OA
BRANCH  15  16
HETATM   16  C7  UNL     1      16.735 -12.453  21.098  1.00  0.00     0.176 C 
BRANCH  16  17
HETATM   17  C8  UNL     1      18.195 -12.674  21.262  1.00  0.00     0.028 C 
BRANCH  17  18
HETATM   18  C9  UNL     1      18.544 -13.014  22.726  1.00  0.00     0.030 C 
BRANCH  18  19
HETATM   19  C10 UNL     1      20.009 -13.301  22.775  1.00  0.00     0.236 C 
BRANCH  19  20
HETATM   20  N1  UNL     1      20.475 -13.768  24.047  1.00  0.00    -0.075 N 
HETATM   21  C11 UNL     1      19.425 -14.547  24.672  1.00  0.00     0.272 C 
HETATM   22  C12 UNL     1      21.628 -14.602  23.986  1.00  0.00     0.272 C 
BRANCH  20  23
HETATM   23  C13 UNL     1      20.656 -12.601  24.912  1.00  0.00     0.232 C 
HETATM   24  C14 UNL     1      21.026 -12.940  26.317  1.00  0.00     0.034 C 
ENDBRANCH  20  23
ENDBRANCH  19  20
ENDBRANCH  18  19
ENDBRANCH  17  18
ENDBRANCH  16  17
ENDBRANCH  15  16
ENDBRANCH   6  15
BRANCH   7  25
HETATM   25  C16 UNL     1      13.476 -12.572  20.573  1.00  0.00     0.067 C 
BRANCH  25  26
HETATM   26  C17 UNL     1      12.475 -12.582  21.719  1.00  0.00     0.132 C 
BRANCH  26  27
HETATM   27  N2  UNL     1      12.347 -11.299  22.373  1.00  0.00    -0.366 N 
HETATM   28  C18 UNL     1      11.635 -11.203  23.484  1.00  0.00     0.091 A 
HETATM   29  C19 UNL     1      11.521  -9.984  24.167  1.00  0.00     0.024 A 
HETATM   30  C20 UNL     1      12.137  -8.852  23.714  1.00  0.00    -0.059 A 
HETATM   31  C21 UNL     1      12.028  -7.543  24.421  1.00  0.00     0.048 C 
HETATM   32  C22 UNL     1      12.885  -8.980  22.541  1.00  0.00     0.024 A 
HETATM   33  C23 UNL     1      12.972 -10.195  21.898  1.00  0.00     0.091 A 
ENDBRANCH  26  27
ENDBRANCH  25  26
ENDBRANCH   7  25
BRANCH  13  34
HETATM   34  N5  UNL     1      15.271 -18.594  21.814  1.00  0.00    -0.320 N 
HETATM   35  C27 UNL     1      14.655 -19.122  22.796  1.00  0.00     0.202 C 
HETATM   36  N6  UNL     1      15.431 -19.741  23.808  1.00  0.00    -0.066 NA
HETATM   37  N7  UNL     1      13.261 -19.112  22.891  1.00  0.00    -0.066 NA
ATOM     38  H5  UNL     1      16.289 -18.663  21.834  1.00  0.00     0.169 HD
ENDBRANCH  13  34
ENDBRANCH   4   5
ENDBRANCH   3   4
TORSDOF 13
ENDMDL
MODEL 2
REMARK VINA RESULT: -7.437475627      2.291      7.668
REMARK  13 active torsions:
REMARK  status: ('A' for Active; 'I' for Inactive)
REMARK    1  A    between atoms: C3_3  and  C4_4 
REMARK    2  A    between atoms: C4_4  and  C5_5 
REMARK    3  A    between atoms: C6_6  and  O1_7 
REMARK    4  A    between atoms: O1_7  and  C7_8 
REMARK    5  A    between atoms: C7_8  and  C8_9 
REMARK    6  A    between atoms: C8_9  and  C9_10 
REMARK    7  A    between atoms: C9_10  and  C10_11 
REMARK    8  A    between atoms: C10_11  and  N1_12 
REMARK    9  A    between atoms: N1_12  and  C13_15 
REMARK   10  A    between atoms: C15_17  and  C16_18 
REMARK   11  A    between atoms: C16_18  and  C17_19 
REMARK   12  A    between atoms: C17_19  and  N2_20 
REMARK   13  A    between atoms: C26_32  and  N5_34 
ROOT
HETATM    1  C1  UNL     1      11.664 -17.071  20.609  1.00  0.00     0.112 C 
HETATM    2  C2  UNL     1      12.607 -16.023  20.919  1.00  0.00    -0.106 C 
HETATM    3  C3  UNL     1      13.374 -15.145  21.153  1.00  0.00    -0.078 C 
ENDROOT
BRANCH   3   4
HETATM    4  C4  UNL     1      14.343 -14.169  21.391  1.00  0.00     0.081 C 
BRANCH   4   5
HETATM    5  C5  UNL     1      15.242 -13.470  20.831  1.00  0.00     0.036 A 
HETATM    6  C6  UNL     1      16.592 -13.850  21.103  1.00  0.00     0.093 A 
HETATM    7  C15 UNL     1      17.658 -13.214  20.531  1.00  0.00     0.046 A 
HETATM    8  C24 UNL     1      17.429 -12.176  19.650  1.00  0.00     0.255 A 
HETATM    9  O2  UNL     1      18.422 -11.594  19.109  1.00  0.00    -0.268 OA
HETATM   10  N3  UNL     1      16.179 -11.825  19.400  1.00  0.00    -0.319 N 
HETATM   11  C25 UNL     1      15.065 -12.437  19.971  1.00  0.00     0.090 A 
ATOM     12  H3  UNL     1      16.020 -11.057  18.748  1.00  0.00     0.169 HD
HETATM   13  C26 UNL     1      13.983 -11.675  19.846  1.00  0.00     0.146 C 
HETATM   14  N4  UNL     1      13.973 -10.687  18.876  1.00  0.00    -0.080 NA
BRANCH   6  15
HETATM   15  O1  UNL     1      16.932 -14.907  21.952  1.00  0.00    -0.349 OA
BRANCH  15  16
HETATM   16  C7  UNL     1      17.106 -16.234  21.562  1.00  0.00     0.176 C 
BRANCH  16  17
HETATM   17  C8  UNL     1      16.328 -17.273  22.284  1.00  0.00     0.028 C 
BRANCH  17  18
HETATM   18  C9  UNL     1      15.601 -18.209  21.296  1.00  0.00     0.030 C 
BRANCH  18  19
HETATM   19  C10 UNL     1      15.889 -17.709  19.919  1.00  0.00     0.236 C 
BRANCH  19  20
HETATM   20  N1  UNL     1      15.182 -18.399  18.882  1.00  0.00    -0.075 N 
HETATM   21  C11 UNL     1      16.138 -19.098  18.048  1.00  0.00     0.272 C 
HETATM   22  C12 UNL     1      14.250 -19.371  19.347  1.00  0.00     0.272 C 
BRANCH  20  23
HETATM   23  C13 UNL     1      14.573 -17.393  18.010  1.00  0.00     0.232 C 
HETATM   24  C14 UNL     1      15.207 -16.046  18.104  1.00  0.00     0.034 C 
ENDBRANCH  20  23
ENDBRANCH  19  20
ENDBRANCH  18  19
ENDBRANCH  17  18
ENDBRANCH  16  17
ENDBRANCH  15  16
ENDBRANCH   6  15
BRANCH   7  25
HETATM   25  C16 UNL     1      19.068 -13.489  20.889  1.00  0.00     0.067 C 
BRANCH  25  26
HETATM   26  C17 UNL     1      19.310 -12.726  22.184  1.00  0.00     0.132 C 
BRANCH  26  27
HETATM   27  N2  UNL     1      19.957 -13.524  23.202  1.00  0.00    -0.366 N 
HETATM   28  C18 UNL     1      20.312 -14.769  22.926  1.00  0.00     0.091 A 
HETATM   29  C19 UNL     1      20.976 -15.559  23.874  1.00  0.00     0.024 A 
HETATM   30  C20 UNL     1      21.282 -15.078  25.115  1.00  0.00    -0.059 A 
HETATM   31  C21 UNL     1      21.987 -15.899  26.141  1.00  0.00     0.048 C 
HETATM   32  C22 UNL     1      20.901 -13.760  25.380  1.00  0.00     0.024 A 
HETATM   33  C23 UNL     1      20.249 -13.016  24.423  1.00  0.00     0.091 A 
ENDBRANCH  26  27
ENDBRANCH  25  26
ENDBRANCH   7  25
BRANCH  13  34
HETATM   34  N5  UNL     1      12.946 -11.611  20.794  1.00  0.00    -0.320 N 
HETATM   35  C27 UNL     1      12.768 -10.737  21.704  1.00  0.00     0.202 C 
HETATM   36  N6  UNL     1      11.641 -10.885  22.551  1.00  0.00    -0.066 NA
HETATM   37  N7  UNL     1      13.635  -9.655  21.875  1.00  0.00    -0.066 NA
ATOM     38  H5  UNL     1      12.251 -12.356  20.747  1.00  0.00     0.169 HD
ENDBRANCH  13  34
ENDBRANCH   4   5
ENDBRANCH   3   4
TORSDOF 13
ENDMDL
MODEL 3
REMARK VINA RESULT: -7.412465077      2.222      7.382
REMARK  13 active torsions:
REMARK  status: ('A' for Active; 'I' for Inactive)
REMARK    1  A    between atoms: C3_3  and  C4_4 
REMARK    2  A    between atoms: C4_4  and  C5_5 
REMARK    3  A    between atoms: C6_6  and  O1_7 
REMARK    4  A    between atoms: O1_7  and  C7_8 
REMARK    5  A    between atoms: C7_8  and  C8_9 
REMARK    6  A    between atoms: C8_9  and  C9_10 
REMARK    7  A    between atoms: C9_10  and  C10_11 
REMARK    8  A    between atoms: C10_11  and  N1_12 
REMARK    9  A    between atoms: N1_12  and  C13_15 
REMARK   10  A    between atoms: C15_17  and  C16_18 
REMARK   11  A    between atoms: C16_18  and  C17_19 
REMARK   12  A    between atoms: C17_19  and  N2_20 
REMARK   13  A    between atoms: C26_32  and  N5_34 
ROOT
HETATM    1  C1  UNL     1      11.718 -16.724  20.309  1.00  0.00     0.112 C 
HETATM    2  C2  UNL     1      12.505 -15.625  20.817  1.00  0.00    -0.106 C 
HETATM    3  C3  UNL     1      13.163 -14.716  21.210  1.00  0.00    -0.078 C 
ENDROOT
BRANCH   3   4
HETATM    4  C4  UNL     1      13.994 -13.713  21.711  1.00  0.00     0.081 C 
BRANCH   4   5
HETATM    5  C5  UNL     1      14.979 -12.968  21.420  1.00  0.00     0.036 A 
HETATM    6  C6  UNL     1      16.266 -13.586  21.469  1.00  0.00     0.093 A 
HETATM    7  C15 UNL     1      17.410 -12.915  21.135  1.00  0.00     0.046 A 
HETATM    8  C24 UNL     1      17.324 -11.599  20.727  1.00  0.00     0.255 A 
HETATM    9  O2  UNL     1      18.387 -10.981  20.405  1.00  0.00    -0.268 OA
HETATM   10  N3  UNL     1      16.132 -11.029  20.684  1.00  0.00    -0.319 N 
HETATM   11  C25 UNL     1      14.943 -11.672  21.026  1.00  0.00     0.090 A 
ATOM     12  H3  UNL     1      16.078 -10.057  20.380  1.00  0.00     0.169 HD
HETATM   13  C26 UNL     1      13.971 -10.794  21.248  1.00  0.00     0.146 C 
HETATM   14  N4  UNL     1      14.095  -9.516  20.728  1.00  0.00    -0.080 NA
BRANCH   6  15
HETATM   15  O1  UNL     1      16.461 -14.920  21.836  1.00  0.00    -0.349 OA
BRANCH  15  16
HETATM   16  C7  UNL     1      16.565 -15.995  20.954  1.00  0.00     0.176 C 
BRANCH  16  17
HETATM   17  C8  UNL     1      16.025 -17.305  21.396  1.00  0.00     0.028 C 
BRANCH  17  18
HETATM   18  C9  UNL     1      15.430 -17.210  22.816  1.00  0.00     0.030 C 
BRANCH  18  19
HETATM   19  C10 UNL     1      16.373 -17.911  23.739  1.00  0.00     0.236 C 
BRANCH  19  20
HETATM   20  N1  UNL     1      15.916 -19.194  24.182  1.00  0.00    -0.075 N 
HETATM   21  C11 UNL     1      16.194 -19.326  25.599  1.00  0.00     0.272 C 
HETATM   22  C12 UNL     1      14.519 -19.417  24.013  1.00  0.00     0.272 C 
BRANCH  20  23
HETATM   23  C13 UNL     1      16.741 -20.213  23.531  1.00  0.00     0.232 C 
HETATM   24  C14 UNL     1      18.189 -19.862  23.455  1.00  0.00     0.034 C 
ENDBRANCH  20  23
ENDBRANCH  19  20
ENDBRANCH  18  19
ENDBRANCH  17  18
ENDBRANCH  16  17
ENDBRANCH  15  16
ENDBRANCH   6  15
BRANCH   7  25
HETATM   25  C16 UNL     1      18.770 -13.477  21.300  1.00  0.00     0.067 C 
BRANCH  25  26
HETATM   26  C17 UNL     1      19.191 -13.102  22.714  1.00  0.00     0.132 C 
BRANCH  26  27
HETATM   27  N2  UNL     1      19.222 -14.231  23.617  1.00  0.00    -0.366 N 
HETATM   28  C18 UNL     1      19.735 -15.379  23.206  1.00  0.00     0.091 A 
HETATM   29  C19 UNL     1      19.819 -16.483  24.065  1.00  0.00     0.024 A 
HETATM   30  C20 UNL     1      19.374 -16.418  25.355  1.00  0.00    -0.059 A 
HETATM   31  C21 UNL     1      19.449 -17.580  26.288  1.00  0.00     0.048 C 
HETATM   32  C22 UNL     1      18.840 -15.195  25.766  1.00  0.00     0.024 A 
HETATM   33  C23 UNL     1      18.775 -14.133  24.891  1.00  0.00     0.091 A 
ENDBRANCH  26  27
ENDBRANCH  25  26
ENDBRANCH   7  25
BRANCH  13  34
HETATM   34  N5  UNL     1      12.945 -10.970  22.193  1.00  0.00    -0.320 N 
HETATM   35  C27 UNL     1      12.435 -10.099  22.971  1.00  0.00     0.202 C 
HETATM   36  N6  UNL     1      11.404 -10.518  23.849  1.00  0.00    -0.066 NA
HETATM   37  N7  UNL     1      12.855  -8.766  22.970  1.00  0.00    -0.066 NA
ATOM     38  H5  UNL     1      12.561 -11.913  22.265  1.00  0.00     0.169 HD
ENDBRANCH  13  34
ENDBRANCH   4   5
ENDBRANCH   3   4
TORSDOF 13
ENDMDL
MODEL 4
REMARK VINA RESULT: -7.378346810      1.957      7.363
REMARK  13 active torsions:
REMARK  status: ('A' for Active; 'I' for Inactive)
REMARK    1  A    between atoms: C3_3  and  C4_4 
REMARK    2  A    between atoms: C4_4  and  C5_5 
REMARK    3  A    between atoms: C6_6  and  O1_7 
REMARK    4  A    between atoms: O1_7  and  C7_8 
REMARK    5  A    between atoms: C7_8  and  C8_9 
REMARK    6  A    between atoms: C8_9  and  C9_10 
REMARK    7  A    between atoms: C9_10  and  C10_11 
REMARK    8  A    between atoms: C10_11  and  N1_12 
REMARK    9  A    between atoms: N1_12  and  C13_15 
REMARK   10  A    between atoms: C15_17  and  C16_18 
REMARK   11  A    between atoms: C16_18  and  C17_19 
REMARK   12  A    between atoms: C17_19  and  N2_20 
REMARK   13  A    between atoms: C26_32  and  N5_34 
ROOT
HETATM    1  C1  UNL     1      11.657 -16.676  20.208  1.00  0.00     0.112 C 
HETATM    2  C2  UNL     1      12.504 -15.641  20.752  1.00  0.00    -0.106 C 
HETATM    3  C3  UNL     1      13.213 -14.785  21.174  1.00  0.00    -0.078 C 
ENDROOT
BRANCH   3   4
HETATM    4  C4  UNL     1      14.097 -13.847  21.711  1.00  0.00     0.081 C 
BRANCH   4   5
HETATM    5  C5  UNL     1      15.055 -13.068  21.417  1.00  0.00     0.036 A 
HETATM    6  C6  UNL     1      16.363 -13.639  21.460  1.00  0.00     0.093 A 
HETATM    7  C15 UNL     1      17.481 -12.928  21.123  1.00  0.00     0.046 A 
HETATM    8  C24 UNL     1      17.346 -11.616  20.716  1.00  0.00     0.255 A 
HETATM    9  O2  UNL     1      18.385 -10.959  20.392  1.00  0.00    -0.268 OA
HETATM   10  N3  UNL     1      16.134 -11.088  20.678  1.00  0.00    -0.319 N 
HETATM   11  C25 UNL     1      14.971 -11.773  21.024  1.00  0.00     0.090 A 
ATOM     12  H3  UNL     1      16.044 -10.119  20.376  1.00  0.00     0.169 HD
HETATM   13  C26 UNL     1      13.968 -10.931  21.250  1.00  0.00     0.146 C 
HETATM   14  N4  UNL     1      14.045  -9.649  20.731  1.00  0.00    -0.080 NA
BRANCH   6  15
HETATM   15  O1  UNL     1      16.607 -14.966  21.826  1.00  0.00    -0.349 OA
BRANCH  15  16
HETATM   16  C7  UNL     1      17.065 -15.969  20.972  1.00  0.00     0.176 C 
BRANCH  16  17
HETATM   17  C8  UNL     1      16.120 -16.493  19.954  1.00  0.00     0.028 C 
BRANCH  17  18
HETATM   18  C9  UNL     1      16.067 -18.035  19.987  1.00  0.00     0.030 C 
BRANCH  18  19
HETATM   19  C10 UNL     1      14.950 -18.420  20.901  1.00  0.00     0.236 C 
BRANCH  19  20
HETATM   20  N1  UNL     1      15.371 -19.085  22.097  1.00  0.00    -0.075 N 
HETATM   21  C11 UNL     1      14.522 -20.240  22.315  1.00  0.00     0.272 C 
HETATM   22  C12 UNL     1      16.715 -19.559  22.071  1.00  0.00     0.272 C 
BRANCH  20  23
HETATM   23  C13 UNL     1      15.102 -18.191  23.224  1.00  0.00     0.232 C 
HETATM   24  C14 UNL     1      16.307 -17.866  24.042  1.00  0.00     0.034 C 
ENDBRANCH  20  23
ENDBRANCH  19  20
ENDBRANCH  18  19
ENDBRANCH  17  18
ENDBRANCH  16  17
ENDBRANCH  15  16
ENDBRANCH   6  15
BRANCH   7  25
HETATM   25  C16 UNL     1      18.860 -13.441  21.283  1.00  0.00     0.067 C 
BRANCH  25  26
HETATM   26  C17 UNL     1      19.284 -13.026  22.685  1.00  0.00     0.132 C 
BRANCH  26  27
HETATM   27  N2  UNL     1      19.368 -14.137  23.606  1.00  0.00    -0.366 N 
HETATM   28  C18 UNL     1      18.785 -14.047  24.791  1.00  0.00     0.091 A 
HETATM   29  C19 UNL     1      18.812 -15.118  25.694  1.00  0.00     0.024 A 
HETATM   30  C20 UNL     1      19.438 -16.293  25.389  1.00  0.00    -0.059 A 
HETATM   31  C21 UNL     1      19.482 -17.447  26.334  1.00  0.00     0.048 C 
HETATM   32  C22 UNL     1      20.042 -16.365  24.132  1.00  0.00     0.024 A 
HETATM   33  C23 UNL     1      19.995 -15.290  23.272  1.00  0.00     0.091 A 
ENDBRANCH  26  27
ENDBRANCH  25  26
ENDBRANCH   7  25
BRANCH  13  34
HETATM   34  N5  UNL     1      12.952 -11.145  22.199  1.00  0.00    -0.320 N 
HETATM   35  C27 UNL     1      12.401 -10.289  22.966  1.00  0.00     0.202 C 
HETATM   36  N6  UNL     1      11.392 -10.746  23.850  1.00  0.00    -0.066 NA
HETATM   37  N7  UNL     1      12.755  -8.938  22.947  1.00  0.00    -0.066 NA
ATOM     38  H5  UNL     1      12.615 -12.104  22.284  1.00  0.00     0.169 HD
ENDBRANCH  13  34
ENDBRANCH   4   5
ENDBRANCH   3   4
TORSDOF 13
ENDMDL
MODEL 5
REMARK VINA RESULT: -7.216400589      0.900      1.449
REMARK  13 active torsions:
REMARK  status: ('A' for Active; 'I' for Inactive)
REMARK    1  A    between atoms: C3_3  and  C4_4 
REMARK    2  A    between atoms: C4_4  and  C5_5 
REMARK    3  A    between atoms: C6_6  and  O1_7 
REMARK    4  A    between atoms: O1_7  and  C7_8 
REMARK    5  A    between atoms: C7_8  and  C8_9 
REMARK    6  A    between atoms: C8_9  and  C9_10 
REMARK    7  A    between atoms: C9_10  and  C10_11 
REMARK    8  A    between atoms: C10_11  and  N1_12 
REMARK    9  A    between atoms: N1_12  and  C13_15 
REMARK   10  A    between atoms: C15_17  and  C16_18 
REMARK   11  A    between atoms: C16_18  and  C17_19 
REMARK   12  A    between atoms: C17_19  and  N2_20 
REMARK   13  A    between atoms: C26_32  and  N5_34 
ROOT
HETATM    1  C1  UNL     1      18.747 -17.654  23.590  1.00  0.00     0.112 C 
HETATM    2  C2  UNL     1      17.975 -17.111  22.498  1.00  0.00    -0.106 C 
HETATM    3  C3  UNL     1      17.320 -16.656  21.616  1.00  0.00    -0.078 C 
ENDROOT
BRANCH   3   4
HETATM    4  C4  UNL     1      16.528 -16.211  20.556  1.00  0.00     0.081 C 
BRANCH   4   5
HETATM    5  C5  UNL     1      15.344 -15.884  20.238  1.00  0.00     0.036 A 
HETATM    6  C6  UNL     1      14.998 -14.512  20.435  1.00  0.00     0.093 A 
HETATM    7  C15 UNL     1      13.772 -14.013  20.093  1.00  0.00     0.046 A 
HETATM    8  C24 UNL     1      12.836 -14.856  19.528  1.00  0.00     0.255 A 
HETATM    9  O2  UNL     1      11.700 -14.387  19.199  1.00  0.00    -0.268 OA
HETATM   10  N3  UNL     1      13.158 -16.125  19.348  1.00  0.00    -0.319 N 
HETATM   11  C25 UNL     1      14.390 -16.678  19.692  1.00  0.00     0.090 A 
ATOM     12  H3  UNL     1      12.460 -16.740  18.929  1.00  0.00     0.169 HD
HETATM   13  C26 UNL     1      14.321 -18.004  19.751  1.00  0.00     0.146 C 
HETATM   14  N4  UNL     1      13.286 -18.647  19.093  1.00  0.00    -0.080 NA
BRANCH   6  15
HETATM   15  O1  UNL     1      15.881 -13.570  20.968  1.00  0.00    -0.349 OA
BRANCH  15  16
HETATM   16  C7  UNL     1      16.792 -12.810  20.234  1.00  0.00     0.176 C 
BRANCH  16  17
HETATM   17  C8  UNL     1      18.201 -12.780  20.704  1.00  0.00     0.028 C 
BRANCH  17  18
HETATM   18  C9  UNL     1      18.310 -13.262  22.166  1.00  0.00     0.030 C 
BRANCH  18  19
HETATM   19  C10 UNL     1      19.739 -13.114  22.574  1.00  0.00     0.236 C 
BRANCH  19  20
HETATM   20  N1  UNL     1      20.043 -13.667  23.860  1.00  0.00    -0.075 N 
HETATM   21  C11 UNL     1      20.714 -12.659  24.656  1.00  0.00     0.272 C 
HETATM   22  C12 UNL     1      18.906 -14.093  24.606  1.00  0.00     0.272 C 
BRANCH  20  23
HETATM   23  C13 UNL     1      21.032 -14.728  23.668  1.00  0.00     0.232 C 
HETATM   24  C14 UNL     1      22.310 -14.506  24.405  1.00  0.00     0.034 C 
ENDBRANCH  20  23
ENDBRANCH  19  20
ENDBRANCH  18  19
ENDBRANCH  17  18
ENDBRANCH  16  17
ENDBRANCH  15  16
ENDBRANCH   6  15
BRANCH   7  25
HETATM   25  C16 UNL     1      13.331 -12.634  20.403  1.00  0.00     0.067 C 
BRANCH  25  26
HETATM   26  C17 UNL     1      12.605 -12.735  21.737  1.00  0.00     0.132 C 
BRANCH  26  27
HETATM   27  N2  UNL     1      12.466 -11.461  22.407  1.00  0.00    -0.366 N 
HETATM   28  C18 UNL     1      13.112 -10.405  21.938  1.00  0.00     0.091 A 
HETATM   29  C19 UNL     1      12.970  -9.146  22.537  1.00  0.00     0.024 A 
HETATM   30  C20 UNL     1      12.164  -8.959  23.623  1.00  0.00    -0.059 A 
HETATM   31  C21 UNL     1      11.998  -7.629  24.279  1.00  0.00     0.048 C 
HETATM   32  C22 UNL     1      11.489 -10.087  24.096  1.00  0.00     0.024 A 
HETATM   33  C23 UNL     1      11.655 -11.308  23.481  1.00  0.00     0.091 A 
ENDBRANCH  26  27
ENDBRANCH  25  26
ENDBRANCH   7  25
BRANCH  13  34
HETATM   34  N5  UNL     1      15.059 -18.796  20.648  1.00  0.00    -0.320 N 
HETATM   35  C27 UNL     1      14.738 -19.150  21.830  1.00  0.00     0.202 C 
HETATM   36  N6  UNL     1      15.656 -19.955  22.551  1.00  0.00    -0.066 NA
HETATM   37  N7  UNL     1      13.525 -18.777  22.414  1.00  0.00    -0.066 NA
ATOM     38  H5  UNL     1      15.962 -19.129  20.311  1.00  0.00     0.169 HD
ENDBRANCH  13  34
ENDBRANCH   4   5
ENDBRANCH   3   4
TORSDOF 13
ENDMDL
