MODEL 1
REMARK VINA RESULT: -8.546082763      0.000      0.000
REMARK  15 active torsions:
REMARK  status: ('A' for Active; 'I' for Inactive)
REMARK    1  A    between atoms: C2_2  and  C3_3 
REMARK    2  A    between atoms: C3_3  and  C4_4 
REMARK    3  A    between atoms: C7_7  and  C8_8 
REMARK    4  A    between atoms: C8_8  and  C9_9 
REMARK    5  A    between atoms: C10_10  and  C11_11 
REMARK    6  A    between atoms: C11_11  and  C12_12 
REMARK    7  A    between atoms: C12_12  and  C13_13 
REMARK    8  A    between atoms: C13_13  and  C14_14 
REMARK    9  A    between atoms: C14_14  and  C15_15 
REMARK   10  A    between atoms: C15_15  and  C16_16 
REMARK   11  A    between atoms: C16_16  and  C17_17 
REMARK   12  A    between atoms: C17_17  and  C18_18 
REMARK   13  A    between atoms: C18_18  and  C19_19 
REMARK   14  A    between atoms: C19_19  and  N1_20 
REMARK   15  A    between atoms: N3_28  and  C23_29 
ROOT
HETATM    1  C9  UNL     1      14.758 -14.511  20.597  1.00  0.00     0.067 A 
HETATM    2  C10 UNL     1      15.960 -14.163  21.175  1.00  0.00    -0.028 A 
HETATM    3  C20 UNL     1      16.653 -15.200  21.816  1.00  0.00     0.028 A 
HETATM    4  C21 UNL     1      16.179 -16.489  21.876  1.00  0.00     0.111 A 
HETATM    5  N2  UNL     1      14.989 -16.740  21.281  1.00  0.00    -0.299 N 
HETATM    6  C22 UNL     1      14.403 -18.070  21.289  1.00  0.00     0.177 C 
HETATM    7  N3  UNL     1      14.299 -15.797  20.665  1.00  0.00    -0.236 N 
ENDROOT
BRANCH   2   8
HETATM    8  C11 UNL     1      16.537 -12.794  21.140  1.00  0.00     0.041 C 
BRANCH   8   9
HETATM    9  C12 UNL     1      17.645 -12.690  20.090  1.00  0.00     0.005 C 
BRANCH   9  10
HETATM   10  C13 UNL     1      18.820 -11.919  20.614  1.00  0.00     0.000 C 
BRANCH  10  11
HETATM   11  C14 UNL     1      20.059 -12.753  20.735  1.00  0.00     0.000 C 
BRANCH  11  12
HETATM   12  C15 UNL     1      20.021 -13.743  21.862  1.00  0.00     0.000 C 
BRANCH  12  13
HETATM   13  C16 UNL     1      19.705 -13.079  23.156  1.00  0.00     0.000 C 
BRANCH  13  14
HETATM   14  C17 UNL     1      20.838 -13.358  24.136  1.00  0.00     0.002 C 
BRANCH  14  15
HETATM   15  C18 UNL     1      20.965 -12.301  25.194  1.00  0.00     0.027 C 
BRANCH  15  16
HETATM   16  C19 UNL     1      20.947 -13.033  26.540  1.00  0.00     0.229 C 
BRANCH  16  17
HETATM   17  N1  UNL     1      21.708 -14.255  26.366  1.00  0.00    -0.079 N 
ATOM     18  H13 UNL     1      21.170 -15.003  25.929  1.00  0.00     0.274 HD
ATOM     19  H12 UNL     1      22.431 -14.179  25.651  1.00  0.00     0.274 HD
ATOM     20  H11 UNL     1      22.076 -14.508  27.284  1.00  0.00     0.274 HD
ENDBRANCH  16  17
ENDBRANCH  15  16
ENDBRANCH  14  15
ENDBRANCH  13  14
ENDBRANCH  12  13
ENDBRANCH  11  12
ENDBRANCH  10  11
ENDBRANCH   9  10
ENDBRANCH   8   9
ENDBRANCH   2   8
BRANCH   1  21
HETATM   21  C8  UNL     1      14.006 -13.477  19.934  1.00  0.00     0.061 C 
BRANCH  21  22
HETATM   22  C7  UNL     1      13.486 -12.433  20.601  1.00  0.00     0.037 A 
HETATM   23  C6  UNL     1      12.712 -12.597  21.711  1.00  0.00     0.030 A 
HETATM   24  C5  UNL     1      12.198 -11.522  22.373  1.00  0.00     0.019 A 
HETATM   25  C4  UNL     1      12.456 -10.219  21.926  1.00  0.00     0.028 A 
HETATM   26  C27 UNL     1      13.229 -10.089  20.818  1.00  0.00     0.255 A 
HETATM   27  N7  UNL     1      13.717 -11.181  20.196  1.00  0.00    -0.323 N 
HETATM   28  O2  UNL     1      13.524  -8.950  20.329  1.00  0.00    -0.267 OA
ATOM     29  H7  UNL     1      14.296 -11.043  19.367  1.00  0.00     0.169 HD
BRANCH  25  30
HETATM   30  C3  UNL     1      11.948  -9.190  22.583  1.00  0.00    -0.010 C 
BRANCH  30  31
HETATM   31  C2  UNL     1      11.861  -9.128  24.030  1.00  0.00     0.023 C 
HETATM   32  C1  UNL     1      11.907  -7.647  24.456  1.00  0.00     0.009 C 
ENDBRANCH  30  31
ENDBRANCH  25  30
ENDBRANCH  21  22
ENDBRANCH   1  21
BRANCH   7  33
HETATM   33  C23 UNL     1      13.057 -16.105  20.052  1.00  0.00     0.160 A 
HETATM   34  C24 UNL     1      12.596 -16.488  18.870  1.00  0.00     0.127 A 
HETATM   35  N4  UNL     1      12.548 -16.860  17.573  1.00  0.00    -0.302 N 
HETATM   36  C26 UNL     1      11.281 -16.512  19.304  1.00  0.00     0.142 A 
HETATM   37  C25 UNL     1      11.260 -17.097  17.234  1.00  0.00     0.326 A 
ATOM     38  H4  UNL     1      13.352 -16.947  16.951  1.00  0.00     0.171 HD
HETATM   39  O1  UNL     1      10.851 -17.468  16.080  1.00  0.00    -0.247 OA
HETATM   40  N5  UNL     1      10.474 -16.884  18.300  1.00  0.00    -0.292 N 
ATOM     41  H5  UNL     1       9.461 -16.984  18.339  1.00  0.00     0.172 HD
HETATM   42  N6  UNL     1      11.700 -16.140  20.459  1.00  0.00    -0.323 N 
ATOM     43  H6  UNL     1      11.230 -15.944  21.343  1.00  0.00     0.169 HD
ENDBRANCH   7  33
TORSDOF 15
ENDMDL
MODEL 2
REMARK VINA RESULT: -8.380091862      0.856      1.229
REMARK  15 active torsions:
REMARK  status: ('A' for Active; 'I' for Inactive)
REMARK    1  A    between atoms: C2_2  and  C3_3 
REMARK    2  A    between atoms: C3_3  and  C4_4 
REMARK    3  A    between atoms: C7_7  and  C8_8 
REMARK    4  A    between atoms: C8_8  and  C9_9 
REMARK    5  A    between atoms: C10_10  and  C11_11 
REMARK    6  A    between atoms: C11_11  and  C12_12 
REMARK    7  A    between atoms: C12_12  and  C13_13 
REMARK    8  A    between atoms: C13_13  and  C14_14 
REMARK    9  A    between atoms: C14_14  and  C15_15 
REMARK   10  A    between atoms: C15_15  and  C16_16 
REMARK   11  A    between atoms: C16_16  and  C17_17 
REMARK   12  A    between atoms: C17_17  and  C18_18 
REMARK   13  A    between atoms: C18_18  and  C19_19 
REMARK   14  A    between atoms: C19_19  and  N1_20 
REMARK   15  A    between atoms: N3_28  and  C23_29 
ROOT
HETATM    1  C9  UNL     1      15.098 -14.861  20.555  1.00  0.00     0.067 A 
HETATM    2  C10 UNL     1      16.354 -14.654  21.083  1.00  0.00    -0.028 A 
HETATM    3  C20 UNL     1      16.915 -15.738  21.771  1.00  0.00     0.028 A 
HETATM    4  C21 UNL     1      16.269 -16.943  21.920  1.00  0.00     0.111 A 
HETATM    5  N2  UNL     1      15.038 -17.058  21.368  1.00  0.00    -0.299 N 
HETATM    6  C22 UNL     1      14.274 -18.290  21.469  1.00  0.00     0.177 C 
HETATM    7  N3  UNL     1      14.467 -16.064  20.711  1.00  0.00    -0.236 N 
ENDROOT
BRANCH   2   8
HETATM    8  C11 UNL     1      17.114 -13.383  20.951  1.00  0.00     0.041 C 
BRANCH   8   9
HETATM    9  C12 UNL     1      18.009 -13.148  22.170  1.00  0.00     0.005 C 
BRANCH   9  10
HETATM   10  C13 UNL     1      19.446 -12.992  21.767  1.00  0.00     0.000 C 
BRANCH  10  11
HETATM   11  C14 UNL     1      20.402 -13.323  22.872  1.00  0.00     0.000 C 
BRANCH  11  12
HETATM   12  C15 UNL     1      19.869 -13.040  24.246  1.00  0.00     0.000 C 
BRANCH  12  13
HETATM   13  C16 UNL     1      20.896 -12.382  25.100  1.00  0.00     0.000 C 
BRANCH  13  14
HETATM   14  C17 UNL     1      20.922 -13.081  26.454  1.00  0.00     0.002 C 
BRANCH  14  15
HETATM   15  C18 UNL     1      20.375 -14.478  26.397  1.00  0.00     0.027 C 
BRANCH  15  16
HETATM   16  C19 UNL     1      21.574 -15.402  26.164  1.00  0.00     0.229 C 
BRANCH  16  17
HETATM   17  N1  UNL     1      21.189 -16.340  25.128  1.00  0.00    -0.079 N 
ATOM     18  H13 UNL     1      20.282 -16.776  25.298  1.00  0.00     0.274 HD
ATOM     19  H12 UNL     1      20.952 -15.888  24.245  1.00  0.00     0.274 HD
ATOM     20  H11 UNL     1      21.949 -17.016  25.042  1.00  0.00     0.274 HD
ENDBRANCH  16  17
ENDBRANCH  15  16
ENDBRANCH  14  15
ENDBRANCH  13  14
ENDBRANCH  12  13
ENDBRANCH  11  12
ENDBRANCH  10  11
ENDBRANCH   9  10
ENDBRANCH   8   9
ENDBRANCH   2   8
BRANCH   1  21
HETATM   21  C8  UNL     1      14.478 -13.772  19.846  1.00  0.00     0.061 C 
BRANCH  21  22
HETATM   22  C7  UNL     1      13.893 -12.745  20.485  1.00  0.00     0.037 A 
HETATM   23  C6  UNL     1      13.150 -12.926  21.614  1.00  0.00     0.030 A 
HETATM   24  C5  UNL     1      12.569 -11.868  22.248  1.00  0.00     0.019 A 
HETATM   25  C4  UNL     1      12.723 -10.566  21.753  1.00  0.00     0.028 A 
HETATM   26  C27 UNL     1      13.469 -10.420  20.627  1.00  0.00     0.255 A 
HETATM   27  N7  UNL     1      14.025 -11.495  20.034  1.00  0.00    -0.323 N 
HETATM   28  O2  UNL     1      13.672  -9.281  20.094  1.00  0.00    -0.267 OA
ATOM     29  H7  UNL     1      14.580 -11.346  19.191  1.00  0.00     0.169 HD
BRANCH  25  30
HETATM   30  C3  UNL     1      12.152  -9.554  22.383  1.00  0.00    -0.010 C 
BRANCH  30  31
HETATM   31  C2  UNL     1      11.747  -9.604  23.775  1.00  0.00     0.023 C 
HETATM   32  C1  UNL     1      11.744  -8.166  24.331  1.00  0.00     0.009 C 
ENDBRANCH  30  31
ENDBRANCH  25  30
ENDBRANCH  21  22
ENDBRANCH   1  21
BRANCH   7  33
HETATM   33  C23 UNL     1      13.177 -16.230  20.145  1.00  0.00     0.160 A 
HETATM   34  C24 UNL     1      12.629 -16.463  18.962  1.00  0.00     0.127 A 
HETATM   35  N4  UNL     1      12.488 -16.701  17.640  1.00  0.00    -0.302 N 
HETATM   36  C26 UNL     1      11.340 -16.445  19.467  1.00  0.00     0.142 A 
HETATM   37  C25 UNL     1      11.170 -16.820  17.356  1.00  0.00     0.326 A 
ATOM     38  H4  UNL     1      13.250 -16.777  16.966  1.00  0.00     0.171 HD
HETATM   39  O1  UNL     1      10.676 -17.047  16.198  1.00  0.00    -0.247 OA
HETATM   40  N5  UNL     1      10.458 -16.663  18.481  1.00  0.00    -0.292 N 
ATOM     41  H5  UNL     1       9.443 -16.702  18.570  1.00  0.00     0.172 HD
HETATM   42  N6  UNL     1      11.843 -16.218  20.626  1.00  0.00    -0.323 N 
ATOM     43  H6  UNL     1      11.435 -16.080  21.551  1.00  0.00     0.169 HD
ENDBRANCH   7  33
TORSDOF 15
ENDMDL
MODEL 3
REMARK VINA RESULT: -8.268741171      0.967      1.171
REMARK  15 active torsions:
REMARK  status: ('A' for Active; 'I' for Inactive)
REMARK    1  A    between atoms: C2_2  and  C3_3 
REMARK    2  A    between atoms: C3_3  and  C4_4 
REMARK    3  A    between atoms: C7_7  and  C8_8 
REMARK    4  A    between atoms: C8_8  and  C9_9 
REMARK    5  A    between atoms: C10_10  and  C11_11 
REMARK    6  A    between atoms: C11_11  and  C12_12 
REMARK    7  A    between atoms: C12_12  and  C13_13 
REMARK    8  A    between atoms: C13_13  and  C14_14 
REMARK    9  A    between atoms: C14_14  and  C15_15 
REMARK   10  A    between atoms: C15_15  and  C16_16 
REMARK   11  A    between atoms: C16_16  and  C17_17 
REMARK   12  A    between atoms: C17_17  and  C18_18 
REMARK   13  A    between atoms: C18_18  and  C19_19 
REMARK   14  A    between atoms: C19_19  and  N1_20 
REMARK   15  A    between atoms: N3_28  and  C23_29 
ROOT
HETATM    1  C9  UNL     1      14.801 -14.291  20.530  1.00  0.00     0.067 A 
HETATM    2  C10 UNL     1      16.030 -13.953  21.055  1.00  0.00    -0.028 A 
HETATM    3  C20 UNL     1      16.749 -14.998  21.650  1.00  0.00     0.028 A 
HETATM    4  C21 UNL     1      16.276 -16.288  21.715  1.00  0.00     0.111 A 
HETATM    5  N2  UNL     1      15.059 -16.529  21.173  1.00  0.00    -0.299 N 
HETATM    6  C22 UNL     1      14.471 -17.858  21.191  1.00  0.00     0.177 C 
HETATM    7  N3  UNL     1      14.343 -15.577  20.602  1.00  0.00    -0.236 N 
ENDROOT
BRANCH   2   8
HETATM    8  C11 UNL     1      16.607 -12.584  21.011  1.00  0.00     0.041 C 
BRANCH   8   9
HETATM    9  C12 UNL     1      17.526 -12.413  19.800  1.00  0.00     0.005 C 
BRANCH   9  10
HETATM   10  C13 UNL     1      18.915 -12.030  20.220  1.00  0.00     0.000 C 
BRANCH  10  11
HETATM   11  C14 UNL     1      19.712 -13.191  20.732  1.00  0.00     0.000 C 
BRANCH  11  12
HETATM   12  C15 UNL     1      20.481 -12.898  21.986  1.00  0.00     0.000 C 
BRANCH  12  13
HETATM   13  C16 UNL     1      19.721 -13.313  23.197  1.00  0.00     0.000 C 
BRANCH  13  14
HETATM   14  C17 UNL     1      20.712 -13.611  24.315  1.00  0.00     0.002 C 
BRANCH  14  15
HETATM   15  C18 UNL     1      20.990 -12.414  25.178  1.00  0.00     0.027 C 
BRANCH  15  16
HETATM   16  C19 UNL     1      20.893 -12.896  26.628  1.00  0.00     0.229 C 
BRANCH  16  17
HETATM   17  N1  UNL     1      21.778 -14.038  26.754  1.00  0.00    -0.079 N 
ATOM     18  H13 UNL     1      21.429 -14.870  26.278  1.00  0.00     0.274 HD
ATOM     19  H12 UNL     1      22.642 -13.936  26.222  1.00  0.00     0.274 HD
ATOM     20  H11 UNL     1      21.935 -14.183  27.752  1.00  0.00     0.274 HD
ENDBRANCH  16  17
ENDBRANCH  15  16
ENDBRANCH  14  15
ENDBRANCH  13  14
ENDBRANCH  12  13
ENDBRANCH  11  12
ENDBRANCH  10  11
ENDBRANCH   9  10
ENDBRANCH   8   9
ENDBRANCH   2   8
BRANCH   1  21
HETATM   21  C8  UNL     1      14.022 -13.247  19.915  1.00  0.00     0.061 C 
BRANCH  21  22
HETATM   22  C7  UNL     1      13.522 -12.219  20.622  1.00  0.00     0.037 A 
HETATM   23  C6  UNL     1      13.712 -10.923  20.245  1.00  0.00     0.030 A 
HETATM   24  C5  UNL     1      13.192  -9.896  20.976  1.00  0.00     0.019 A 
HETATM   25  C4  UNL     1      12.448 -10.151  22.135  1.00  0.00     0.028 A 
HETATM   26  C27 UNL     1      12.277 -11.453  22.484  1.00  0.00     0.255 A 
HETATM   27  N7  UNL     1      12.809 -12.436  21.730  1.00  0.00    -0.323 N 
HETATM   28  O2  UNL     1      11.617 -11.794  23.519  1.00  0.00    -0.267 OA
ATOM     29  H7  UNL     1      12.658 -13.401  22.023  1.00  0.00     0.169 HD
BRANCH  25  30
HETATM   30  C3  UNL     1      11.952  -9.141  22.830  1.00  0.00    -0.010 C 
BRANCH  30  31
HETATM   31  C2  UNL     1      12.773  -8.133  23.473  1.00  0.00     0.023 C 
HETATM   32  C1  UNL     1      11.930  -7.445  24.565  1.00  0.00     0.009 C 
ENDBRANCH  30  31
ENDBRANCH  25  30
ENDBRANCH  21  22
ENDBRANCH   1  21
BRANCH   7  33
HETATM   33  C23 UNL     1      13.073 -15.875  20.043  1.00  0.00     0.160 A 
HETATM   34  C24 UNL     1      12.554 -16.218  18.874  1.00  0.00     0.127 A 
HETATM   35  N4  UNL     1      12.442 -16.541  17.567  1.00  0.00    -0.302 N 
HETATM   36  C26 UNL     1      11.264 -16.272  19.374  1.00  0.00     0.142 A 
HETATM   37  C25 UNL     1      11.139 -16.779  17.287  1.00  0.00     0.326 A 
ATOM     38  H4  UNL     1      13.212 -16.596  16.901  1.00  0.00     0.171 HD
HETATM   39  O1  UNL     1      10.673 -17.110  16.143  1.00  0.00    -0.247 OA
HETATM   40  N5  UNL     1      10.409 -16.615  18.400  1.00  0.00    -0.292 N 
ATOM     41  H5  UNL     1       9.400 -16.728  18.488  1.00  0.00     0.172 HD
HETATM   42  N6  UNL     1      11.740 -15.941  20.519  1.00  0.00    -0.323 N 
ATOM     43  H6  UNL     1      11.315 -15.783  21.433  1.00  0.00     0.169 HD
ENDBRANCH   7  33
TORSDOF 15
ENDMDL
MODEL 4
REMARK VINA RESULT: -8.215971222      1.294      1.802
REMARK  15 active torsions:
REMARK  status: ('A' for Active; 'I' for Inactive)
REMARK    1  A    between atoms: C2_2  and  C3_3 
REMARK    2  A    between atoms: C3_3  and  C4_4 
REMARK    3  A    between atoms: C7_7  and  C8_8 
REMARK    4  A    between atoms: C8_8  and  C9_9 
REMARK    5  A    between atoms: C10_10  and  C11_11 
REMARK    6  A    between atoms: C11_11  and  C12_12 
REMARK    7  A    between atoms: C12_12  and  C13_13 
REMARK    8  A    between atoms: C13_13  and  C14_14 
REMARK    9  A    between atoms: C14_14  and  C15_15 
REMARK   10  A    between atoms: C15_15  and  C16_16 
REMARK   11  A    between atoms: C16_16  and  C17_17 
REMARK   12  A    between atoms: C17_17  and  C18_18 
REMARK   13  A    between atoms: C18_18  and  C19_19 
REMARK   14  A    between atoms: C19_19  and  N1_20 
REMARK   15  A    between atoms: N3_28  and  C23_29 
ROOT
HETATM    1  C9  UNL     1      15.003 -16.086  20.346  1.00  0.00     0.067 A 
HETATM    2  C10 UNL     1      16.166 -16.253  21.066  1.00  0.00    -0.028 A 
HETATM    3  C20 UNL     1      16.197 -17.356  21.931  1.00  0.00     0.028 A 
HETATM    4  C21 UNL     1      15.143 -18.229  22.066  1.00  0.00     0.111 A 
HETATM    5  N2  UNL     1      14.040 -17.988  21.319  1.00  0.00    -0.299 N 
HETATM    6  C22 UNL     1      12.873 -18.852  21.390  1.00  0.00     0.177 C 
HETATM    7  N3  UNL     1      13.963 -16.962  20.491  1.00  0.00    -0.236 N 
ENDROOT
BRANCH   2   8
HETATM    8  C11 UNL     1      17.346 -15.357  20.962  1.00  0.00     0.041 C 
BRANCH   8   9
HETATM    9  C12 UNL     1      17.385 -14.360  22.123  1.00  0.00     0.005 C 
BRANCH   9  10
HETATM   10  C13 UNL     1      18.431 -13.307  21.901  1.00  0.00     0.000 C 
BRANCH  10  11
HETATM   11  C14 UNL     1      19.827 -13.848  21.962  1.00  0.00     0.000 C 
BRANCH  11  12
HETATM   12  C15 UNL     1      20.707 -13.155  22.960  1.00  0.00     0.000 C 
BRANCH  12  13
HETATM   13  C16 UNL     1      20.065 -13.100  24.303  1.00  0.00     0.000 C 
BRANCH  13  14
HETATM   14  C17 UNL     1      21.016 -12.404  25.268  1.00  0.00     0.002 C 
BRANCH  14  15
HETATM   15  C18 UNL     1      20.971 -12.987  26.650  1.00  0.00     0.027 C 
BRANCH  15  16
HETATM   16  C19 UNL     1      20.762 -14.494  26.476  1.00  0.00     0.229 C 
BRANCH  16  17
HETATM   17  N1  UNL     1      22.078 -15.104  26.456  1.00  0.00    -0.079 N 
ATOM     18  H13 UNL     1      22.158 -15.907  27.080  1.00  0.00     0.274 HD
ATOM     19  H12 UNL     1      22.279 -15.595  25.585  1.00  0.00     0.274 HD
ATOM     20  H11 UNL     1      22.750 -14.365  26.664  1.00  0.00     0.274 HD
ENDBRANCH  16  17
ENDBRANCH  15  16
ENDBRANCH  14  15
ENDBRANCH  13  14
ENDBRANCH  12  13
ENDBRANCH  11  12
ENDBRANCH  10  11
ENDBRANCH   9  10
ENDBRANCH   8   9
ENDBRANCH   2   8
BRANCH   1  21
HETATM   21  C8  UNL     1      14.921 -14.961  19.451  1.00  0.00     0.061 C 
BRANCH  21  22
HETATM   22  C7  UNL     1      14.650 -13.720  19.886  1.00  0.00     0.037 A 
HETATM   23  C6  UNL     1      13.561 -13.448  20.661  1.00  0.00     0.030 A 
HETATM   24  C5  UNL     1      13.307 -12.181  21.095  1.00  0.00     0.019 A 
HETATM   25  C4  UNL     1      14.163 -11.125  20.753  1.00  0.00     0.028 A 
HETATM   26  C27 UNL     1      15.238 -11.428  19.981  1.00  0.00     0.255 A 
HETATM   27  N7  UNL     1      15.450 -12.697  19.575  1.00  0.00    -0.323 N 
HETATM   28  O2  UNL     1      16.079 -10.544  19.614  1.00  0.00    -0.267 OA
ATOM     29  H7  UNL     1      16.269 -12.886  18.998  1.00  0.00     0.169 HD
BRANCH  25  30
HETATM   30  C3  UNL     1      13.899  -9.904  21.184  1.00  0.00    -0.010 C 
BRANCH  30  31
HETATM   31  C2  UNL     1      12.555  -9.412  21.424  1.00  0.00     0.023 C 
HETATM   32  C1  UNL     1      12.351  -9.281  22.946  1.00  0.00     0.009 C 
ENDBRANCH  30  31
ENDBRANCH  25  30
ENDBRANCH  21  22
ENDBRANCH   1  21
BRANCH   7  33
HETATM   33  C23 UNL     1      12.788 -16.749  19.725  1.00  0.00     0.160 A 
HETATM   34  C24 UNL     1      12.373 -16.891  18.475  1.00  0.00     0.127 A 
HETATM   35  N4  UNL     1      12.356 -17.180  17.156  1.00  0.00    -0.302 N 
HETATM   36  C26 UNL     1      11.104 -16.416  18.760  1.00  0.00     0.142 A 
HETATM   37  C25 UNL     1      11.129 -16.891  16.661  1.00  0.00     0.326 A 
ATOM     38  H4  UNL     1      13.139 -17.554  16.620  1.00  0.00     0.171 HD
HETATM   39  O1  UNL     1      10.763 -17.043  15.445  1.00  0.00    -0.247 OA
HETATM   40  N5  UNL     1      10.353 -16.420  17.648  1.00  0.00    -0.292 N 
ATOM     41  H5  UNL     1       9.381 -16.122  17.569  1.00  0.00     0.172 HD
HETATM   42  N6  UNL     1      11.478 -16.268  19.978  1.00  0.00    -0.323 N 
ATOM     43  H6  UNL     1      11.008 -15.929  20.817  1.00  0.00     0.169 HD
ENDBRANCH   7  33
TORSDOF 15
ENDMDL
MODEL 5
REMARK VINA RESULT: -8.001440363      1.617      2.422
REMARK  15 active torsions:
REMARK  status: ('A' for Active; 'I' for Inactive)
REMARK    1  A    between atoms: C2_2  and  C3_3 
REMARK    2  A    between atoms: C3_3  and  C4_4 
REMARK    3  A    between atoms: C7_7  and  C8_8 
REMARK    4  A    between atoms: C8_8  and  C9_9 
REMARK    5  A    between atoms: C10_10  and  C11_11 
REMARK    6  A    between atoms: C11_11  and  C12_12 
REMARK    7  A    between atoms: C12_12  and  C13_13 
REMARK    8  A    between atoms: C13_13  and  C14_14 
REMARK    9  A    between atoms: C14_14  and  C15_15 
REMARK   10  A    between atoms: C15_15  and  C16_16 
REMARK   11  A    between atoms: C16_16  and  C17_17 
REMARK   12  A    between atoms: C17_17  and  C18_18 
REMARK   13  A    between atoms: C18_18  and  C19_19 
REMARK   14  A    between atoms: C19_19  and  N1_20 
REMARK   15  A    between atoms: N3_28  and  C23_29 
ROOT
HETATM    1  C9  UNL     1      16.598 -14.969  21.170  1.00  0.00     0.067 A 
HETATM    2  C10 UNL     1      17.540 -14.721  22.146  1.00  0.00    -0.028 A 
HETATM    3  C20 UNL     1      17.962 -15.834  22.885  1.00  0.00     0.028 A 
HETATM    4  C21 UNL     1      17.480 -17.103  22.665  1.00  0.00     0.111 A 
HETATM    5  N2  UNL     1      16.557 -17.254  21.687  1.00  0.00    -0.299 N 
HETATM    6  C22 UNL     1      15.986 -18.554  21.377  1.00  0.00     0.177 C 
HETATM    7  N3  UNL     1      16.126 -16.236  20.964  1.00  0.00    -0.236 N 
ENDROOT
BRANCH   2   8
HETATM    8  C11 UNL     1      18.111 -13.379  22.429  1.00  0.00     0.041 C 
BRANCH   8   9
HETATM    9  C12 UNL     1      19.520 -13.247  21.848  1.00  0.00     0.005 C 
BRANCH   9  10
HETATM   10  C13 UNL     1      20.560 -13.276  22.929  1.00  0.00     0.000 C 
BRANCH  10  11
HETATM   11  C14 UNL     1      19.994 -13.019  24.292  1.00  0.00     0.000 C 
BRANCH  11  12
HETATM   12  C15 UNL     1      20.937 -12.314  25.222  1.00  0.00     0.000 C 
BRANCH  12  13
HETATM   13  C16 UNL     1      21.012 -13.001  26.541  1.00  0.00     0.000 C 
BRANCH  13  14
HETATM   14  C17 UNL     1      20.259 -14.321  26.444  1.00  0.00     0.002 C 
BRANCH  14  15
HETATM   15  C18 UNL     1      21.174 -15.505  26.326  1.00  0.00     0.027 C 
BRANCH  15  16
HETATM   16  C19 UNL     1      20.327 -16.653  25.770  1.00  0.00     0.229 C 
BRANCH  16  17
HETATM   17  N1  UNL     1      19.179 -16.793  26.645  1.00  0.00    -0.079 N 
ATOM     18  H13 UNL     1      19.307 -17.504  27.365  1.00  0.00     0.274 HD
ATOM     19  H12 UNL     1      19.051 -15.996  27.270  1.00  0.00     0.274 HD
ATOM     20  H11 UNL     1      18.370 -16.967  26.048  1.00  0.00     0.274 HD
ENDBRANCH  16  17
ENDBRANCH  15  16
ENDBRANCH  14  15
ENDBRANCH  13  14
ENDBRANCH  12  13
ENDBRANCH  11  12
ENDBRANCH  10  11
ENDBRANCH   9  10
ENDBRANCH   8   9
ENDBRANCH   2   8
BRANCH   1  21
HETATM   21  C8  UNL     1      16.126 -13.853  20.390  1.00  0.00     0.061 C 
BRANCH  21  22
HETATM   22  C7  UNL     1      15.193 -13.004  20.851  1.00  0.00     0.037 A 
HETATM   23  C6  UNL     1      14.129 -13.431  21.590  1.00  0.00     0.030 A 
HETATM   24  C5  UNL     1      13.196 -12.549  22.050  1.00  0.00     0.019 A 
HETATM   25  C4  UNL     1      13.310 -11.180  21.772  1.00  0.00     0.028 A 
HETATM   26  C27 UNL     1      14.379 -10.788  21.033  1.00  0.00     0.255 A 
HETATM   27  N7  UNL     1      15.278 -11.695  20.600  1.00  0.00    -0.323 N 
HETATM   28  O2  UNL     1      14.577  -9.568  20.725  1.00  0.00    -0.267 OA
ATOM     29  H7  UNL     1      16.069 -11.362  20.049  1.00  0.00     0.169 HD
BRANCH  25  30
HETATM   30  C3  UNL     1      12.394 -10.343  22.227  1.00  0.00    -0.010 C 
BRANCH  30  31
HETATM   31  C2  UNL     1      11.766 -10.473  23.529  1.00  0.00     0.023 C 
HETATM   32  C1  UNL     1      11.630  -9.067  24.145  1.00  0.00     0.009 C 
ENDBRANCH  30  31
ENDBRANCH  25  30
ENDBRANCH  21  22
ENDBRANCH   1  21
BRANCH   7  33
HETATM   33  C23 UNL     1      15.160 -16.440  19.945  1.00  0.00     0.160 A 
HETATM   34  C24 UNL     1      13.843 -16.446  19.806  1.00  0.00     0.127 A 
HETATM   35  N4  UNL     1      12.525 -16.358  20.087  1.00  0.00    -0.302 N 
HETATM   36  C26 UNL     1      13.908 -16.740  18.455  1.00  0.00     0.142 A 
HETATM   37  C25 UNL     1      11.821 -16.592  18.955  1.00  0.00     0.326 A 
ATOM     38  H4  UNL     1      12.125 -16.151  21.003  1.00  0.00     0.171 HD
HETATM   39  O1  UNL     1      10.545 -16.587  18.858  1.00  0.00    -0.247 OA
HETATM   40  N5  UNL     1      12.671 -16.827  17.945  1.00  0.00    -0.292 N 
ATOM     41  H5  UNL     1      12.425 -17.033  16.977  1.00  0.00     0.172 HD
HETATM   42  N6  UNL     1      15.187 -16.742  18.560  1.00  0.00    -0.323 N 
ATOM     43  H6  UNL     1      15.943 -16.901  17.894  1.00  0.00     0.169 HD
ENDBRANCH   7  33
TORSDOF 15
ENDMDL
