MODEL 1
REMARK VINA RESULT: -7.990760548      0.000      0.000
REMARK  13 active torsions:
REMARK  status: ('A' for Active; 'I' for Inactive)
REMARK    1  A    between atoms: N1_2  and  C4_5 
REMARK    2  A    between atoms: C4_5  and  C5_6 
REMARK    3  A    between atoms: C5_6  and  C6_7 
REMARK    4  A    between atoms: C6_7  and  C7_8 
REMARK    5  A    between atoms: C7_8  and  C8_9 
REMARK    6  A    between atoms: C8_9  and  O1_10 
REMARK    7  A    between atoms: O1_10  and  C9_11 
REMARK    8  A    between atoms: N2_14  and  C12_15 
REMARK    9  A    between atoms: C12_15  and  C13_16 
REMARK   10  A    between atoms: C16_19  and  C17_20 
REMARK   11  A    between atoms: C17_20  and  N3_21 
REMARK   12  A    between atoms: C19_23  and  N4_24 
REMARK   13  A    between atoms: N4_24  and  N5_25 
REMARK       I    between atoms: N9_36  and  C23_37 
ROOT
HETATM    1  C9  UNL     1      20.335 -15.217  23.392  1.00  0.00     0.153 A 
HETATM    2  C10 UNL     1      19.772 -15.636  22.232  1.00  0.00     0.074 A 
HETATM    3  C11 UNL     1      19.177 -14.736  21.355  1.00  0.00     0.096 A 
HETATM    4  N2  UNL     1      19.121 -13.431  21.590  1.00  0.00    -0.348 N 
HETATM    5  C22 UNL     1      19.697 -13.027  22.769  1.00  0.00     0.196 A 
HETATM    6  N9  UNL     1      20.276 -13.859  23.633  1.00  0.00    -0.262 N 
HETATM    7  C23 UNL     1      20.858 -13.348  24.839  1.00  0.00     0.195 C 
HETATM    8  N10 UNL     1      20.907 -12.110  25.136  1.00  0.00    -0.373 N 
ATOM      9 1H10 UNL     1      21.321 -11.746  25.994  1.00  0.00     0.158 HD
ATOM     10 2H10 UNL     1      20.500 -11.462  24.461  1.00  0.00     0.158 HD
HETATM   11  N11 UNL     1      21.423 -14.248  25.777  1.00  0.00    -0.063 NA
ENDROOT
BRANCH   4  12
HETATM   12  C12 UNL     1      18.521 -12.432  20.748  1.00  0.00     0.169 C 
BRANCH  12  13
HETATM   13  C13 UNL     1      17.061 -12.346  20.753  1.00  0.00    -0.016 A 
HETATM   14  C14 UNL     1      16.341 -12.914  21.820  1.00  0.00     0.011 A 
HETATM   15  C15 UNL     1      14.971 -12.859  21.903  1.00  0.00     0.009 A 
HETATM   16  C16 UNL     1      14.254 -12.232  20.923  1.00  0.00    -0.037 A 
HETATM   17  C20 UNL     1      14.937 -11.677  19.879  1.00  0.00     0.036 A 
HETATM   18  C21 UNL     1      16.342 -11.724  19.777  1.00  0.00     0.054 A 
HETATM   19  N8  UNL     1      16.950 -11.132  18.643  1.00  0.00    -0.102 NA
BRANCH  16  20
HETATM   20  C17 UNL     1      12.776 -12.117  20.920  1.00  0.00     0.188 C 
BRANCH  20  21
HETATM   21  N3  UNL     1      12.278 -11.323  22.000  1.00  0.00    -0.280 N 
HETATM   22  C18 UNL     1      12.686 -10.064  22.285  1.00  0.00     0.179 A 
HETATM   23  C19 UNL     1      11.996  -9.601  23.391  1.00  0.00     0.235 A 
HETATM   24  N6  UNL     1      11.182 -10.618  23.735  1.00  0.00    -0.257 N 
HETATM   25  N7  UNL     1      11.364 -11.644  22.889  1.00  0.00    -0.238 N 
ATOM     26  H6  UNL     1      10.529 -10.610  24.518  1.00  0.00     0.191 HD
ATOM     27  H7  UNL     1      10.870 -12.535  22.931  1.00  0.00     0.208 HD
BRANCH  23  28
HETATM   28  N4  UNL     1      12.068  -8.496  23.980  1.00  0.00    -0.311 NA
BRANCH  28  29
HETATM   29  N5  UNL     1      12.393  -7.449  24.536  1.00  0.00    -0.278 N 
ATOM     30  H52 UNL     1      12.718  -7.970  25.351  1.00  0.00     0.191 HD
ATOM     31  H51 UNL     1      12.589  -6.489  24.819  1.00  0.00     0.191 HD
ENDBRANCH  28  29
ENDBRANCH  23  28
ENDBRANCH  20  21
ENDBRANCH  16  20
ENDBRANCH  12  13
ENDBRANCH   4  12
BRANCH   1  32
HETATM   32  O1  UNL     1      20.941 -15.956  24.335  1.00  0.00    -0.335 OA
BRANCH  32  33
HETATM   33  C8  UNL     1      21.121 -17.275  24.606  1.00  0.00     0.177 C 
BRANCH  33  34
HETATM   34  C7  UNL     1      20.583 -17.679  25.962  1.00  0.00     0.027 C 
BRANCH  34  35
HETATM   35  C6  UNL     1      19.142 -17.228  26.110  1.00  0.00     0.004 C 
BRANCH  35  36
HETATM   36  C5  UNL     1      18.171 -17.883  25.215  1.00  0.00     0.028 C 
BRANCH  36  37
HETATM   37  C4  UNL     1      17.183 -17.070  24.488  1.00  0.00     0.236 C 
BRANCH  37  38
HETATM   38  N1  UNL     1      16.586 -17.620  23.322  1.00  0.00    -0.079 N 
HETATM   39  C1  UNL     1      16.069 -16.692  22.356  1.00  0.00     0.271 C 
HETATM   40  C2  UNL     1      17.451 -18.561  22.629  1.00  0.00     0.271 C 
HETATM   41  C3  UNL     1      15.420 -18.436  23.735  1.00  0.00     0.271 C 
ENDBRANCH  37  38
ENDBRANCH  36  37
ENDBRANCH  35  36
ENDBRANCH  34  35
ENDBRANCH  33  34
ENDBRANCH  32  33
ENDBRANCH   1  32
TORSDOF 13
ENDMDL
MODEL 2
REMARK VINA RESULT: -7.872735629      1.223      1.785
REMARK  13 active torsions:
REMARK  status: ('A' for Active; 'I' for Inactive)
REMARK    1  A    between atoms: N1_2  and  C4_5 
REMARK    2  A    between atoms: C4_5  and  C5_6 
REMARK    3  A    between atoms: C5_6  and  C6_7 
REMARK    4  A    between atoms: C6_7  and  C7_8 
REMARK    5  A    between atoms: C7_8  and  C8_9 
REMARK    6  A    between atoms: C8_9  and  O1_10 
REMARK    7  A    between atoms: O1_10  and  C9_11 
REMARK    8  A    between atoms: N2_14  and  C12_15 
REMARK    9  A    between atoms: C12_15  and  C13_16 
REMARK   10  A    between atoms: C16_19  and  C17_20 
REMARK   11  A    between atoms: C17_20  and  N3_21 
REMARK   12  A    between atoms: C19_23  and  N4_24 
REMARK   13  A    between atoms: N4_24  and  N5_25 
REMARK       I    between atoms: N9_36  and  C23_37 
ROOT
HETATM    1  C9  UNL     1      20.199 -14.579  23.624  1.00  0.00     0.153 A 
HETATM    2  C10 UNL     1      19.703 -13.329  23.790  1.00  0.00     0.074 A 
HETATM    3  C11 UNL     1      19.002 -12.693  22.771  1.00  0.00     0.096 A 
HETATM    4  N2  UNL     1      18.776 -13.257  21.590  1.00  0.00    -0.348 N 
HETATM    5  C22 UNL     1      19.286 -14.523  21.444  1.00  0.00     0.196 A 
HETATM    6  N9  UNL     1      19.961 -15.163  22.397  1.00  0.00    -0.262 N 
HETATM    7  C23 UNL     1      20.453 -16.488  22.158  1.00  0.00     0.195 C 
HETATM    8  N10 UNL     1      20.246 -17.141  21.083  1.00  0.00    -0.373 N 
ATOM      9 1H10 UNL     1      20.596 -18.084  20.914  1.00  0.00     0.158 HD
ATOM     10 2H10 UNL     1      19.696 -16.673  20.363  1.00  0.00     0.158 HD
HETATM   11  N11 UNL     1      21.217 -17.140  23.159  1.00  0.00    -0.063 NA
ENDROOT
BRANCH   4  12
HETATM   12  C12 UNL     1      18.072 -12.674  20.481  1.00  0.00     0.169 C 
BRANCH  12  13
HETATM   13  C13 UNL     1      16.620 -12.542  20.610  1.00  0.00    -0.016 A 
HETATM   14  C14 UNL     1      15.937 -13.339  21.546  1.00  0.00     0.011 A 
HETATM   15  C15 UNL     1      14.579 -13.259  21.737  1.00  0.00     0.009 A 
HETATM   16  C16 UNL     1      13.839 -12.378  21.000  1.00  0.00    -0.037 A 
HETATM   17  C20 UNL     1      14.486 -11.598  20.086  1.00  0.00     0.036 A 
HETATM   18  C21 UNL     1      15.878 -11.667  19.877  1.00  0.00     0.054 A 
HETATM   19  N8  UNL     1      16.448 -10.826  18.888  1.00  0.00    -0.102 NA
BRANCH  16  20
HETATM   20  C17 UNL     1      12.371 -12.215  21.131  1.00  0.00     0.188 C 
BRANCH  20  21
HETATM   21  N3  UNL     1      11.998 -11.399  22.244  1.00  0.00    -0.280 N 
HETATM   22  C18 UNL     1      12.421 -10.130  22.448  1.00  0.00     0.179 A 
HETATM   23  C19 UNL     1      11.866  -9.646  23.619  1.00  0.00     0.235 A 
HETATM   24  N6  UNL     1      11.115 -10.663  24.084  1.00  0.00    -0.257 N 
HETATM   25  N7  UNL     1      11.206 -11.708  23.247  1.00  0.00    -0.238 N 
ATOM     26  H6  UNL     1      10.563 -10.643  24.942  1.00  0.00     0.191 HD
ATOM     27  H7  UNL     1      10.733 -12.603  23.371  1.00  0.00     0.208 HD
BRANCH  23  28
HETATM   28  N4  UNL     1      11.995  -8.526  24.169  1.00  0.00    -0.311 NA
BRANCH  28  29
HETATM   29  N5  UNL     1      12.349  -7.427  24.588  1.00  0.00    -0.278 N 
ATOM     30  H52 UNL     1      13.211  -7.486  24.047  1.00  0.00     0.191 HD
ATOM     31  H51 UNL     1      12.458  -6.520  25.043  1.00  0.00     0.191 HD
ENDBRANCH  28  29
ENDBRANCH  23  28
ENDBRANCH  20  21
ENDBRANCH  16  20
ENDBRANCH  12  13
ENDBRANCH   4  12
BRANCH   1  32
HETATM   32  O1  UNL     1      20.892 -15.320  24.505  1.00  0.00    -0.335 OA
BRANCH  32  33
HETATM   33  C8  UNL     1      20.934 -15.488  25.851  1.00  0.00     0.177 C 
BRANCH  33  34
HETATM   34  C7  UNL     1      19.607 -15.926  26.434  1.00  0.00     0.027 C 
BRANCH  34  35
HETATM   35  C6  UNL     1      19.504 -17.439  26.425  1.00  0.00     0.004 C 
BRANCH  35  36
HETATM   36  C5  UNL     1      18.417 -18.003  25.603  1.00  0.00     0.028 C 
BRANCH  36  37
HETATM   37  C4  UNL     1      17.704 -17.143  24.645  1.00  0.00     0.236 C 
BRANCH  37  38
HETATM   38  N1  UNL     1      17.015 -17.763  23.567  1.00  0.00    -0.079 N 
HETATM   39  C1  UNL     1      16.621 -16.919  22.475  1.00  0.00     0.271 C 
HETATM   40  C2  UNL     1      17.725 -18.909  23.022  1.00  0.00     0.271 C 
HETATM   41  C3  UNL     1      15.752 -18.334  24.089  1.00  0.00     0.271 C 
ENDBRANCH  37  38
ENDBRANCH  36  37
ENDBRANCH  35  36
ENDBRANCH  34  35
ENDBRANCH  33  34
ENDBRANCH  32  33
ENDBRANCH   1  32
TORSDOF 13
ENDMDL
MODEL 3
REMARK VINA RESULT: -7.648317916      1.612      2.425
REMARK  13 active torsions:
REMARK  status: ('A' for Active; 'I' for Inactive)
REMARK    1  A    between atoms: N1_2  and  C4_5 
REMARK    2  A    between atoms: C4_5  and  C5_6 
REMARK    3  A    between atoms: C5_6  and  C6_7 
REMARK    4  A    between atoms: C6_7  and  C7_8 
REMARK    5  A    between atoms: C7_8  and  C8_9 
REMARK    6  A    between atoms: C8_9  and  O1_10 
REMARK    7  A    between atoms: O1_10  and  C9_11 
REMARK    8  A    between atoms: N2_14  and  C12_15 
REMARK    9  A    between atoms: C12_15  and  C13_16 
REMARK   10  A    between atoms: C16_19  and  C17_20 
REMARK   11  A    between atoms: C17_20  and  N3_21 
REMARK   12  A    between atoms: C19_23  and  N4_24 
REMARK   13  A    between atoms: N4_24  and  N5_25 
REMARK       I    between atoms: N9_36  and  C23_37 
ROOT
HETATM    1  C9  UNL     1      20.254 -13.977  23.215  1.00  0.00     0.153 A 
HETATM    2  C10 UNL     1      19.460 -12.878  23.249  1.00  0.00     0.074 A 
HETATM    3  C11 UNL     1      18.563 -12.607  22.221  1.00  0.00     0.096 A 
HETATM    4  N2  UNL     1      18.427 -13.391  21.158  1.00  0.00    -0.348 N 
HETATM    5  C22 UNL     1      19.238 -14.499  21.145  1.00  0.00     0.196 A 
HETATM    6  N9  UNL     1      20.108 -14.791  22.111  1.00  0.00    -0.262 N 
HETATM    7  C23 UNL     1      20.912 -15.973  22.015  1.00  0.00     0.195 C 
HETATM    8  N10 UNL     1      20.822 -16.820  21.068  1.00  0.00    -0.373 N 
ATOM      9 1H10 UNL     1      21.395 -17.662  21.001  1.00  0.00     0.158 HD
ATOM     10 2H10 UNL     1      20.131 -16.624  20.344  1.00  0.00     0.158 HD
HETATM   11  N11 UNL     1      21.873 -16.246  23.022  1.00  0.00    -0.063 NA
ENDROOT
BRANCH   4  12
HETATM   12  C12 UNL     1      17.535 -13.187  20.049  1.00  0.00     0.169 C 
BRANCH  12  13
HETATM   13  C13 UNL     1      16.122 -12.970  20.362  1.00  0.00    -0.016 A 
HETATM   14  C14 UNL     1      15.424 -13.940  21.104  1.00  0.00     0.011 A 
HETATM   15  C15 UNL     1      14.103 -13.799  21.452  1.00  0.00     0.009 A 
HETATM   16  C16 UNL     1      13.416 -12.680  21.074  1.00  0.00    -0.037 A 
HETATM   17  C20 UNL     1      14.078 -11.728  20.353  1.00  0.00     0.036 A 
HETATM   18  C21 UNL     1      15.433 -11.857  19.987  1.00  0.00     0.054 A 
HETATM   19  N8  UNL     1      16.019 -10.819  19.220  1.00  0.00    -0.102 NA
BRANCH  16  20
HETATM   20  C17 UNL     1      11.991 -12.432  21.399  1.00  0.00     0.188 C 
BRANCH  20  21
HETATM   21  N3  UNL     1      11.817 -11.469  22.442  1.00  0.00    -0.280 N 
HETATM   22  C18 UNL     1      12.299 -10.204  22.414  1.00  0.00     0.179 A 
HETATM   23  C19 UNL     1      11.946  -9.555  23.583  1.00  0.00     0.235 A 
HETATM   24  N6  UNL     1      11.250 -10.472  24.283  1.00  0.00    -0.257 N 
HETATM   25  N7  UNL     1      11.182 -11.615  23.584  1.00  0.00    -0.238 N 
ATOM     26  H6  UNL     1      10.838 -10.321  25.205  1.00  0.00     0.191 HD
ATOM     27  H7  UNL     1      10.710 -12.466  23.892  1.00  0.00     0.208 HD
BRANCH  23  28
HETATM   28  N4  UNL     1      12.188  -8.383  23.958  1.00  0.00    -0.311 NA
BRANCH  28  29
HETATM   29  N5  UNL     1      12.617  -7.346  24.458  1.00  0.00    -0.278 N 
ATOM     30  H52 UNL     1      13.231  -7.201  23.657  1.00  0.00     0.191 HD
ATOM     31  H51 UNL     1      12.838  -6.531  25.031  1.00  0.00     0.191 HD
ENDBRANCH  28  29
ENDBRANCH  23  28
ENDBRANCH  20  21
ENDBRANCH  16  20
ENDBRANCH  12  13
ENDBRANCH   4  12
BRANCH   1  32
HETATM   32  O1  UNL     1      21.162 -14.372  24.122  1.00  0.00    -0.335 OA
BRANCH  32  33
HETATM   33  C8  UNL     1      21.722 -13.874  25.254  1.00  0.00     0.177 C 
BRANCH  33  34
HETATM   34  C7  UNL     1      21.337 -14.650  26.496  1.00  0.00     0.027 C 
BRANCH  34  35
HETATM   35  C6  UNL     1      19.844 -14.540  26.740  1.00  0.00     0.004 C 
BRANCH  35  36
HETATM   36  C5  UNL     1      19.081 -15.796  26.621  1.00  0.00     0.028 C 
BRANCH  36  37
HETATM   37  C4  UNL     1      19.691 -16.963  25.965  1.00  0.00     0.236 C 
BRANCH  37  38
HETATM   38  N1  UNL     1      18.863 -17.791  25.159  1.00  0.00    -0.079 N 
HETATM   39  C1  UNL     1      17.964 -18.676  25.843  1.00  0.00     0.271 C 
HETATM   40  C2  UNL     1      18.100 -17.045  24.171  1.00  0.00     0.271 C 
HETATM   41  C3  UNL     1      19.734 -18.676  24.352  1.00  0.00     0.271 C 
ENDBRANCH  37  38
ENDBRANCH  36  37
ENDBRANCH  35  36
ENDBRANCH  34  35
ENDBRANCH  33  34
ENDBRANCH  32  33
ENDBRANCH   1  32
TORSDOF 13
ENDMDL
MODEL 4
REMARK VINA RESULT: -7.628933226      1.925      3.411
REMARK  13 active torsions:
REMARK  status: ('A' for Active; 'I' for Inactive)
REMARK    1  A    between atoms: N1_2  and  C4_5 
REMARK    2  A    between atoms: C4_5  and  C5_6 
REMARK    3  A    between atoms: C5_6  and  C6_7 
REMARK    4  A    between atoms: C6_7  and  C7_8 
REMARK    5  A    between atoms: C7_8  and  C8_9 
REMARK    6  A    between atoms: C8_9  and  O1_10 
REMARK    7  A    between atoms: O1_10  and  C9_11 
REMARK    8  A    between atoms: N2_14  and  C12_15 
REMARK    9  A    between atoms: C12_15  and  C13_16 
REMARK   10  A    between atoms: C16_19  and  C17_20 
REMARK   11  A    between atoms: C17_20  and  N3_21 
REMARK   12  A    between atoms: C19_23  and  N4_24 
REMARK   13  A    between atoms: N4_24  and  N5_25 
REMARK       I    between atoms: N9_36  and  C23_37 
ROOT
HETATM    1  C9  UNL     1      19.908 -15.207  24.545  1.00  0.00     0.153 A 
HETATM    2  C10 UNL     1      19.348 -15.809  23.467  1.00  0.00     0.074 A 
HETATM    3  C11 UNL     1      19.022 -15.083  22.327  1.00  0.00     0.096 A 
HETATM    4  N2  UNL     1      19.232 -13.777  22.220  1.00  0.00    -0.348 N 
HETATM    5  C22 UNL     1      19.800 -13.187  23.321  1.00  0.00     0.196 A 
HETATM    6  N9  UNL     1      20.127 -13.849  24.430  1.00  0.00    -0.262 N 
HETATM    7  C23 UNL     1      20.722 -13.151  25.531  1.00  0.00     0.195 C 
HETATM    8  N10 UNL     1      21.016 -11.912  25.513  1.00  0.00    -0.373 N 
ATOM      9 1H10 UNL     1      21.439 -11.415  26.297  1.00  0.00     0.158 HD
ATOM     10 2H10 UNL     1      20.805 -11.405  24.653  1.00  0.00     0.158 HD
HETATM   11  N11 UNL     1      21.016 -13.855  26.726  1.00  0.00    -0.063 NA
ENDROOT
BRANCH   4  12
HETATM   12  C12 UNL     1      18.920 -12.947  21.088  1.00  0.00     0.169 C 
BRANCH  12  13
HETATM   13  C13 UNL     1      17.511 -12.614  20.875  1.00  0.00    -0.016 A 
HETATM   14  C14 UNL     1      16.566 -12.957  21.859  1.00  0.00     0.011 A 
HETATM   15  C15 UNL     1      15.230 -12.662  21.739  1.00  0.00     0.009 A 
HETATM   16  C16 UNL     1      14.774 -12.009  20.629  1.00  0.00    -0.037 A 
HETATM   17  C20 UNL     1      15.678 -11.669  19.664  1.00  0.00     0.036 A 
HETATM   18  C21 UNL     1      17.051 -11.964  19.770  1.00  0.00     0.054 A 
HETATM   19  N8  UNL     1      17.901 -11.584  18.701  1.00  0.00    -0.102 NA
BRANCH  16  20
HETATM   20  C17 UNL     1      13.355 -11.644  20.405  1.00  0.00     0.188 C 
BRANCH  20  21
HETATM   21  N3  UNL     1      12.764 -10.989  21.530  1.00  0.00    -0.280 N 
HETATM   22  C18 UNL     1      13.087  -9.746  21.959  1.00  0.00     0.179 A 
HETATM   23  C19 UNL     1      12.323  -9.432  23.068  1.00  0.00     0.235 A 
HETATM   24  N6  UNL     1      11.553 -10.519  23.268  1.00  0.00    -0.257 N 
HETATM   25  N7  UNL     1      11.830 -11.444  22.337  1.00  0.00    -0.238 N 
ATOM     26  H6  UNL     1      10.865 -10.624  24.015  1.00  0.00     0.191 HD
ATOM     27  H7  UNL     1      11.385 -12.359  22.266  1.00  0.00     0.208 HD
BRANCH  23  28
HETATM   28  N4  UNL     1      12.306  -8.390  23.766  1.00  0.00    -0.311 NA
BRANCH  28  29
HETATM   29  N5  UNL     1      12.529  -7.440  24.512  1.00  0.00    -0.278 N 
ATOM     30  H52 UNL     1      13.387  -7.883  24.839  1.00  0.00     0.191 HD
ATOM     31  H51 UNL     1      12.531  -6.574  25.052  1.00  0.00     0.191 HD
ENDBRANCH  28  29
ENDBRANCH  23  28
ENDBRANCH  20  21
ENDBRANCH  16  20
ENDBRANCH  12  13
ENDBRANCH   4  12
BRANCH   1  32
HETATM   32  O1  UNL     1      20.276 -15.765  25.709  1.00  0.00    -0.335 OA
BRANCH  32  33
HETATM   33  C8  UNL     1      20.489 -17.017  26.192  1.00  0.00     0.177 C 
BRANCH  33  34
HETATM   34  C7  UNL     1      21.755 -17.650  25.657  1.00  0.00     0.027 C 
BRANCH  34  35
HETATM   35  C6  UNL     1      22.942 -16.739  25.905  1.00  0.00     0.004 C 
BRANCH  35  36
HETATM   36  C5  UNL     1      23.569 -16.160  24.703  1.00  0.00     0.028 C 
BRANCH  36  37
HETATM   37  C4  UNL     1      23.373 -16.803  23.394  1.00  0.00     0.236 C 
BRANCH  37  38
HETATM   38  N1  UNL     1      24.520 -17.265  22.693  1.00  0.00    -0.079 N 
HETATM   39  C1  UNL     1      24.305 -17.818  21.386  1.00  0.00     0.271 C 
HETATM   40  C2  UNL     1      25.568 -16.262  22.594  1.00  0.00     0.271 C 
HETATM   41  C3  UNL     1      25.137 -18.359  23.477  1.00  0.00     0.271 C 
ENDBRANCH  37  38
ENDBRANCH  36  37
ENDBRANCH  35  36
ENDBRANCH  34  35
ENDBRANCH  33  34
ENDBRANCH  32  33
ENDBRANCH   1  32
TORSDOF 13
ENDMDL
MODEL 5
REMARK VINA RESULT: -7.613389202      1.842      2.936
REMARK  13 active torsions:
REMARK  status: ('A' for Active; 'I' for Inactive)
REMARK    1  A    between atoms: N1_2  and  C4_5 
REMARK    2  A    between atoms: C4_5  and  C5_6 
REMARK    3  A    between atoms: C5_6  and  C6_7 
REMARK    4  A    between atoms: C6_7  and  C7_8 
REMARK    5  A    between atoms: C7_8  and  C8_9 
REMARK    6  A    between atoms: C8_9  and  O1_10 
REMARK    7  A    between atoms: O1_10  and  C9_11 
REMARK    8  A    between atoms: N2_14  and  C12_15 
REMARK    9  A    between atoms: C12_15  and  C13_16 
REMARK   10  A    between atoms: C16_19  and  C17_20 
REMARK   11  A    between atoms: C17_20  and  N3_21 
REMARK   12  A    between atoms: C19_23  and  N4_24 
REMARK   13  A    between atoms: N4_24  and  N5_25 
REMARK       I    between atoms: N9_36  and  C23_37 
ROOT
HETATM    1  C9  UNL     1      20.198 -13.854  23.357  1.00  0.00     0.153 A 
HETATM    2  C10 UNL     1      19.068 -13.108  23.278  1.00  0.00     0.074 A 
HETATM    3  C11 UNL     1      18.033 -13.460  22.418  1.00  0.00     0.096 A 
HETATM    4  N2  UNL     1      18.080 -14.528  21.632  1.00  0.00    -0.348 N 
HETATM    5  C22 UNL     1      19.231 -15.270  21.729  1.00  0.00     0.196 A 
HETATM    6  N9  UNL     1      20.243 -14.965  22.540  1.00  0.00    -0.262 N 
HETATM    7  C23 UNL     1      21.407 -15.801  22.578  1.00  0.00     0.195 C 
HETATM    8  N10 UNL     1      21.532 -16.877  21.907  1.00  0.00    -0.373 N 
ATOM      9 1H10 UNL     1      22.360 -17.472  21.935  1.00  0.00     0.158 HD
ATOM     10 2H10 UNL     1      20.745 -17.139  21.313  1.00  0.00     0.158 HD
HETATM   11  N11 UNL     1      22.499 -15.438  23.405  1.00  0.00    -0.063 NA
ENDROOT
BRANCH   4  12
HETATM   12  C12 UNL     1      17.066 -14.962  20.711  1.00  0.00     0.169 C 
BRANCH  12  13
HETATM   13  C13 UNL     1      15.745 -14.345  20.836  1.00  0.00    -0.016 A 
HETATM   14  C14 UNL     1      15.495 -13.118  20.195  1.00  0.00     0.011 A 
HETATM   15  C15 UNL     1      14.276 -12.486  20.251  1.00  0.00     0.009 A 
HETATM   16  C16 UNL     1      13.249 -13.051  20.951  1.00  0.00    -0.037 A 
HETATM   17  C20 UNL     1      13.474 -14.242  21.581  1.00  0.00     0.036 A 
HETATM   18  C21 UNL     1      14.718 -14.903  21.534  1.00  0.00     0.054 A 
HETATM   19  N8  UNL     1      14.851 -16.125  22.239  1.00  0.00    -0.102 NA
BRANCH  16  20
HETATM   20  C17 UNL     1      11.898 -12.452  21.072  1.00  0.00     0.188 C 
BRANCH  20  21
HETATM   21  N3  UNL     1      11.782 -11.560  22.184  1.00  0.00    -0.280 N 
HETATM   22  C18 UNL     1      12.236 -10.285  22.203  1.00  0.00     0.179 A 
HETATM   23  C19 UNL     1      11.956  -9.720  23.434  1.00  0.00     0.235 A 
HETATM   24  N6  UNL     1      11.332 -10.695  24.122  1.00  0.00    -0.257 N 
HETATM   25  N7  UNL     1      11.235 -11.793  23.357  1.00  0.00    -0.238 N 
ATOM     26  H6  UNL     1      10.986 -10.612  25.078  1.00  0.00     0.191 HD
ATOM     27  H7  UNL     1      10.805 -12.673  23.642  1.00  0.00     0.208 HD
BRANCH  23  28
HETATM   28  N4  UNL     1      12.202  -8.568  23.866  1.00  0.00    -0.311 NA
BRANCH  28  29
HETATM   29  N5  UNL     1      12.672  -7.540  24.348  1.00  0.00    -0.278 N 
ATOM     30  H52 UNL     1      13.600  -7.962  24.372  1.00  0.00     0.191 HD
ATOM     31  H51 UNL     1      12.860  -6.616  24.736  1.00  0.00     0.191 HD
ENDBRANCH  28  29
ENDBRANCH  23  28
ENDBRANCH  20  21
ENDBRANCH  16  20
ENDBRANCH  12  13
ENDBRANCH   4  12
BRANCH   1  32
HETATM   32  O1  UNL     1      21.276 -13.647  24.129  1.00  0.00    -0.335 OA
BRANCH  32  33
HETATM   33  C8  UNL     1      21.606 -12.872  25.195  1.00  0.00     0.177 C 
BRANCH  33  34
HETATM   34  C7  UNL     1      20.856 -13.249  26.455  1.00  0.00     0.027 C 
BRANCH  34  35
HETATM   35  C6  UNL     1      20.826 -14.757  26.615  1.00  0.00     0.004 C 
BRANCH  35  36
HETATM   36  C5  UNL     1      19.505 -15.392  26.459  1.00  0.00     0.028 C 
BRANCH  36  37
HETATM   37  C4  UNL     1      19.382 -16.856  26.550  1.00  0.00     0.236 C 
BRANCH  37  38
HETATM   38  N1  UNL     1      18.661 -17.536  25.531  1.00  0.00    -0.079 N 
HETATM   39  C1  UNL     1      17.859 -18.655  25.937  1.00  0.00     0.271 C 
HETATM   40  C2  UNL     1      17.831 -16.649  24.732  1.00  0.00     0.271 C 
HETATM   41  C3  UNL     1      19.635 -18.091  24.563  1.00  0.00     0.271 C 
ENDBRANCH  37  38
ENDBRANCH  36  37
ENDBRANCH  35  36
ENDBRANCH  34  35
ENDBRANCH  33  34
ENDBRANCH  32  33
ENDBRANCH   1  32
TORSDOF 13
ENDMDL
