MODEL 1
REMARK VINA RESULT: -8.273442883      0.000      0.000
REMARK  10 active torsions:
REMARK  status: ('A' for Active; 'I' for Inactive)
REMARK    1  A    between atoms: C2_2  and  N1_3 
REMARK    2  A    between atoms: N3_12  and  C9_13 
REMARK    3  A    between atoms: C9_13  and  C10_14 
REMARK    4  A    between atoms: C10_14  and  C11_15 
REMARK    5  A    between atoms: C11_15  and  C12_16 
REMARK    6  A    between atoms: C12_16  and  C13_17 
REMARK    7  A    between atoms: C13_17  and  N4_18 
REMARK    8  A    between atoms: C14_21  and  C15_22 
REMARK    9  A    between atoms: C19_30  and  C20_31 
REMARK   10  A    between atoms: C21_32  and  C22_33 
ROOT
HETATM    1  N1  UNL     1      20.045 -14.600  24.255  1.00  0.00    -0.322 N 
HETATM    2  C3  UNL     1      20.628 -13.448  23.706  1.00  0.00     0.100 A 
HETATM    3  C4  UNL     1      20.435 -12.984  22.462  1.00  0.00     0.048 A 
HETATM    4  C5  UNL     1      19.606 -13.664  21.629  1.00  0.00     0.044 A 
HETATM    5  N2  UNL     1      19.406 -13.239  20.423  1.00  0.00    -0.393 N 
ATOM      6  H2  UNL     1      18.787 -13.736  19.782  1.00  0.00     0.159 HD
HETATM    7  C6  UNL     1      20.106 -12.011  20.010  1.00  0.00     0.146 C 
HETATM    8  C7  UNL     1      19.005 -14.801  22.116  1.00  0.00     0.051 A 
HETATM    9  C8  UNL     1      18.090 -15.467  21.327  1.00  0.00     0.110 A 
HETATM   10  N3  UNL     1      17.446 -16.505  21.801  1.00  0.00    -0.342 N 
HETATM   11  C19 UNL     1      17.657 -16.960  23.074  1.00  0.00     0.110 A 
HETATM   12  N9  UNL     1      18.548 -16.360  23.887  1.00  0.00    -0.322 N 
HETATM   13  C23 UNL     1      19.004 -16.957  25.089  1.00  0.00     0.159 C 
HETATM   14  C24 UNL     1      19.235 -15.261  23.431  1.00  0.00     0.128 A 
ENDROOT
BRANCH  10  15
HETATM   15  C9  UNL     1      16.510 -17.186  20.961  1.00  0.00     0.130 C 
BRANCH  15  16
HETATM   16  C10 UNL     1      15.424 -16.261  20.402  1.00  0.00     0.020 C 
BRANCH  16  17
HETATM   17  C11 UNL     1      14.291 -16.255  21.408  1.00  0.00     0.003 C 
BRANCH  17  18
HETATM   18  C12 UNL     1      14.022 -14.855  21.862  1.00  0.00     0.022 C 
BRANCH  18  19
HETATM   19  C13 UNL     1      13.033 -14.146  20.996  1.00  0.00     0.148 C 
BRANCH  19  20
HETATM   20  N4  UNL     1      12.892 -12.750  21.436  1.00  0.00    -0.296 N 
HETATM   21  N5  UNL     1      12.244 -12.341  22.512  1.00  0.00    -0.295 N 
HETATM   22  C14 UNL     1      12.296 -11.006  22.653  1.00  0.00     0.090 A 
ATOM     23  H5  UNL     1      11.761 -12.965  23.158  1.00  0.00     0.187 HD
HETATM   24  C16 UNL     1      13.049 -10.580  21.552  1.00  0.00     0.060 A 
HETATM   25  C17 UNL     1      13.409 -11.676  20.810  1.00  0.00     0.027 A 
HETATM   26  C18 UNL     1      14.205 -11.704  19.570  1.00  0.00     0.070 C 
BRANCH  22  27
HETATM   27  C15 UNL     1      11.714 -10.178  23.695  1.00  0.00     0.138 C 
HETATM   28  N6  UNL     1      10.957 -10.724  24.570  1.00  0.00    -0.386 N 
ATOM     29  H62 UNL     1      10.777 -11.726  24.517  1.00  0.00     0.157 HD
ATOM     30  H61 UNL     1      10.549 -10.142  25.302  1.00  0.00     0.157 HD
HETATM   31  N7  UNL     1      11.962  -8.794  23.768  1.00  0.00    -0.081 NA
ENDBRANCH  22  27
ENDBRANCH  19  20
ENDBRANCH  18  19
ENDBRANCH  17  18
ENDBRANCH  16  17
ENDBRANCH  15  16
ENDBRANCH  10  15
BRANCH  11  32
HETATM   32  C20 UNL     1      16.855 -18.080  23.507  1.00  0.00     0.054 C 
HETATM   33  C21 UNL     1      15.802 -18.019  24.278  1.00  0.00     0.074 C 
BRANCH  33  34
HETATM   34  C22 UNL     1      15.069 -19.256  24.655  1.00  0.00     0.254 C 
HETATM   35  N8  UNL     1      13.834 -19.628  24.109  1.00  0.00    -0.058 NA
HETATM   36  O1  UNL     1      15.608 -19.989  25.509  1.00  0.00    -0.272 OA
ENDBRANCH  33  34
ENDBRANCH  11  32
BRANCH   1  37
HETATM   37  C2  UNL     1      20.395 -14.940  25.567  1.00  0.00     0.067 C 
HETATM   38  C1  UNL     1      20.603 -13.842  26.586  1.00  0.00     0.055 C 
ENDBRANCH   1  37
TORSDOF 10
ENDMDL
MODEL 2
REMARK VINA RESULT: -8.132850756      2.325      4.484
REMARK  10 active torsions:
REMARK  status: ('A' for Active; 'I' for Inactive)
REMARK    1  A    between atoms: C2_2  and  N1_3 
REMARK    2  A    between atoms: N3_12  and  C9_13 
REMARK    3  A    between atoms: C9_13  and  C10_14 
REMARK    4  A    between atoms: C10_14  and  C11_15 
REMARK    5  A    between atoms: C11_15  and  C12_16 
REMARK    6  A    between atoms: C12_16  and  C13_17 
REMARK    7  A    between atoms: C13_17  and  N4_18 
REMARK    8  A    between atoms: C14_21  and  C15_22 
REMARK    9  A    between atoms: C19_30  and  C20_31 
REMARK   10  A    between atoms: C21_32  and  C22_33 
ROOT
HETATM    1  N1  UNL     1      20.146 -15.504  25.413  1.00  0.00    -0.322 N 
HETATM    2  C3  UNL     1      19.952 -16.514  26.366  1.00  0.00     0.100 A 
HETATM    3  C4  UNL     1      19.063 -17.515  26.284  1.00  0.00     0.048 A 
HETATM    4  C5  UNL     1      18.258 -17.591  25.192  1.00  0.00     0.044 A 
HETATM    5  N2  UNL     1      17.389 -18.544  25.091  1.00  0.00    -0.393 N 
ATOM      6  H2  UNL     1      16.776 -18.618  24.279  1.00  0.00     0.159 HD
HETATM    7  C6  UNL     1      17.318 -19.520  26.192  1.00  0.00     0.146 C 
HETATM    8  C7  UNL     1      18.406 -16.625  24.224  1.00  0.00     0.051 A 
HETATM    9  C8  UNL     1      17.667 -16.722  23.063  1.00  0.00     0.110 A 
HETATM   10  N3  UNL     1      17.850 -15.860  22.094  1.00  0.00    -0.342 N 
HETATM   11  C19 UNL     1      18.765 -14.848  22.198  1.00  0.00     0.110 A 
HETATM   12  N9  UNL     1      19.506 -14.695  23.311  1.00  0.00    -0.322 N 
HETATM   13  C23 UNL     1      20.246 -13.515  23.577  1.00  0.00     0.159 C 
HETATM   14  C24 UNL     1      19.352 -15.586  24.346  1.00  0.00     0.128 A 
ENDROOT
BRANCH  10  15
HETATM   15  C9  UNL     1      17.065 -15.973  20.903  1.00  0.00     0.130 C 
BRANCH  15  16
HETATM   16  C10 UNL     1      15.562 -16.064  21.183  1.00  0.00     0.020 C 
BRANCH  16  17
HETATM   17  C11 UNL     1      15.086 -14.657  21.485  1.00  0.00     0.003 C 
BRANCH  17  18
HETATM   18  C12 UNL     1      13.594 -14.641  21.607  1.00  0.00     0.022 C 
BRANCH  18  19
HETATM   19  C13 UNL     1      12.946 -13.691  20.655  1.00  0.00     0.148 C 
BRANCH  19  20
HETATM   20  N4  UNL     1      12.803 -12.370  21.285  1.00  0.00    -0.296 N 
HETATM   21  N5  UNL     1      12.142 -12.113  22.399  1.00  0.00    -0.295 N 
HETATM   22  C14 UNL     1      12.195 -10.812  22.728  1.00  0.00     0.090 A 
ATOM     23  H5  UNL     1      11.649 -12.820  22.945  1.00  0.00     0.187 HD
HETATM   24  C16 UNL     1      12.964 -10.239  21.708  1.00  0.00     0.060 A 
HETATM   25  C17 UNL     1      13.330 -11.221  20.823  1.00  0.00     0.027 A 
HETATM   26  C18 UNL     1      14.142 -11.077  19.602  1.00  0.00     0.070 C 
BRANCH  22  27
HETATM   27  C15 UNL     1      11.602 -10.136  23.869  1.00  0.00     0.138 C 
HETATM   28  N6  UNL     1      10.915 -10.820  24.706  1.00  0.00    -0.386 N 
ATOM     29  H62 UNL     1      10.800 -11.822  24.554  1.00  0.00     0.157 HD
ATOM     30  H61 UNL     1      10.499 -10.345  25.507  1.00  0.00     0.157 HD
HETATM   31  N7  UNL     1      11.762  -8.754  24.078  1.00  0.00    -0.081 NA
ENDBRANCH  22  27
ENDBRANCH  19  20
ENDBRANCH  18  19
ENDBRANCH  17  18
ENDBRANCH  16  17
ENDBRANCH  15  16
ENDBRANCH  10  15
BRANCH  11  32
HETATM   32  C20 UNL     1      18.920 -13.988  21.048  1.00  0.00     0.054 C 
HETATM   33  C21 UNL     1      18.370 -12.814  20.887  1.00  0.00     0.074 C 
BRANCH  33  34
HETATM   34  C22 UNL     1      18.607 -12.033  19.644  1.00  0.00     0.254 C 
HETATM   35  N8  UNL     1      17.583 -11.499  18.852  1.00  0.00    -0.058 NA
HETATM   36  O1  UNL     1      19.797 -11.857  19.311  1.00  0.00    -0.272 OA
ENDBRANCH  33  34
ENDBRANCH  11  32
BRANCH   1  37
HETATM   37  C2  UNL     1      21.106 -14.525  25.692  1.00  0.00     0.067 C 
HETATM   38  C1  UNL     1      20.878 -13.573  26.845  1.00  0.00     0.055 C 
ENDBRANCH   1  37
TORSDOF 10
ENDMDL
MODEL 3
REMARK VINA RESULT: -8.078739610      2.489      4.550
REMARK  10 active torsions:
REMARK  status: ('A' for Active; 'I' for Inactive)
REMARK    1  A    between atoms: C2_2  and  N1_3 
REMARK    2  A    between atoms: N3_12  and  C9_13 
REMARK    3  A    between atoms: C9_13  and  C10_14 
REMARK    4  A    between atoms: C10_14  and  C11_15 
REMARK    5  A    between atoms: C11_15  and  C12_16 
REMARK    6  A    between atoms: C12_16  and  C13_17 
REMARK    7  A    between atoms: C13_17  and  N4_18 
REMARK    8  A    between atoms: C14_21  and  C15_22 
REMARK    9  A    between atoms: C19_30  and  C20_31 
REMARK   10  A    between atoms: C21_32  and  C22_33 
ROOT
HETATM    1  N1  UNL     1      20.024 -15.117  25.262  1.00  0.00    -0.322 N 
HETATM    2  C3  UNL     1      20.002 -16.173  26.183  1.00  0.00     0.100 A 
HETATM    3  C4  UNL     1      19.189 -17.240  26.140  1.00  0.00     0.048 A 
HETATM    4  C5  UNL     1      18.293 -17.342  25.125  1.00  0.00     0.044 A 
HETATM    5  N2  UNL     1      17.495 -18.359  25.062  1.00  0.00    -0.393 N 
ATOM      6  H2  UNL     1      16.815 -18.453  24.308  1.00  0.00     0.159 HD
HETATM    7  C6  UNL     1      17.606 -19.376  26.121  1.00  0.00     0.146 C 
HETATM    8  C7  UNL     1      18.271 -16.333  24.190  1.00  0.00     0.051 A 
HETATM    9  C8  UNL     1      17.435 -16.447  23.099  1.00  0.00     0.110 A 
HETATM   10  N3  UNL     1      17.457 -15.538  22.156  1.00  0.00    -0.342 N 
HETATM   11  C19 UNL     1      18.296 -14.459  22.220  1.00  0.00     0.110 A 
HETATM   12  N9  UNL     1      19.126 -14.286  23.266  1.00  0.00    -0.322 N 
HETATM   13  C23 UNL     1      19.793 -13.060  23.514  1.00  0.00     0.159 C 
HETATM   14  C24 UNL     1      19.141 -15.224  24.271  1.00  0.00     0.128 A 
ENDROOT
BRANCH  10  15
HETATM   15  C9  UNL     1      16.573 -15.672  21.039  1.00  0.00     0.130 C 
BRANCH  15  16
HETATM   16  C10 UNL     1      16.420 -17.121  20.567  1.00  0.00     0.020 C 
BRANCH  16  17
HETATM   17  C11 UNL     1      14.951 -17.329  20.257  1.00  0.00     0.003 C 
BRANCH  17  18
HETATM   18  C12 UNL     1      14.116 -16.483  21.166  1.00  0.00     0.022 C 
BRANCH  18  19
HETATM   19  C13 UNL     1      12.975 -15.827  20.461  1.00  0.00     0.148 C 
BRANCH  19  20
HETATM   20  N4  UNL     1      13.025 -14.373  20.672  1.00  0.00    -0.296 N 
HETATM   21  N5  UNL     1      12.435 -13.715  21.653  1.00  0.00    -0.295 N 
HETATM   22  C14 UNL     1      12.668 -12.393  21.585  1.00  0.00     0.090 A 
ATOM     23  H5  UNL     1      11.869 -14.157  22.378  1.00  0.00     0.187 HD
HETATM   24  C16 UNL     1      13.477 -12.253  20.451  1.00  0.00     0.060 A 
HETATM   25  C17 UNL     1      13.686 -13.491  19.899  1.00  0.00     0.027 A 
HETATM   26  C18 UNL     1      14.475 -13.822  18.699  1.00  0.00     0.070 C 
BRANCH  22  27
HETATM   27  C15 UNL     1      12.201 -11.340  22.469  1.00  0.00     0.138 C 
HETATM   28  N6  UNL     1      11.247 -11.592  23.284  1.00  0.00    -0.386 N 
ATOM     29  H62 UNL     1      10.835 -12.525  23.295  1.00  0.00     0.157 HD
ATOM     30  H61 UNL     1      10.920 -10.852  23.905  1.00  0.00     0.157 HD
HETATM   31  N7  UNL     1      12.770 -10.052  22.455  1.00  0.00    -0.081 NA
ENDBRANCH  22  27
ENDBRANCH  19  20
ENDBRANCH  18  19
ENDBRANCH  17  18
ENDBRANCH  16  17
ENDBRANCH  15  16
ENDBRANCH  10  15
BRANCH  11  32
HETATM   32  C20 UNL     1      18.272 -13.547  21.099  1.00  0.00     0.054 C 
HETATM   33  C21 UNL     1      17.503 -12.499  20.978  1.00  0.00     0.074 C 
BRANCH  33  34
HETATM   34  C22 UNL     1      17.576 -11.646  19.762  1.00  0.00     0.254 C 
HETATM   35  N8  UNL     1      16.527 -10.830  19.319  1.00  0.00    -0.058 NA
HETATM   36  O1  UNL     1      18.645 -11.676  19.119  1.00  0.00    -0.272 OA
ENDBRANCH  33  34
ENDBRANCH  11  32
BRANCH   1  37
HETATM   37  C2  UNL     1      20.926 -14.073  25.495  1.00  0.00     0.067 C 
HETATM   38  C1  UNL     1      20.897 -13.351  26.823  1.00  0.00     0.055 C 
ENDBRANCH   1  37
TORSDOF 10
ENDMDL
MODEL 4
REMARK VINA RESULT: -8.010400204      2.020      3.243
REMARK  10 active torsions:
REMARK  status: ('A' for Active; 'I' for Inactive)
REMARK    1  A    between atoms: C2_2  and  N1_3 
REMARK    2  A    between atoms: N3_12  and  C9_13 
REMARK    3  A    between atoms: C9_13  and  C10_14 
REMARK    4  A    between atoms: C10_14  and  C11_15 
REMARK    5  A    between atoms: C11_15  and  C12_16 
REMARK    6  A    between atoms: C12_16  and  C13_17 
REMARK    7  A    between atoms: C13_17  and  N4_18 
REMARK    8  A    between atoms: C14_21  and  C15_22 
REMARK    9  A    between atoms: C19_30  and  C20_31 
REMARK   10  A    between atoms: C21_32  and  C22_33 
ROOT
HETATM    1  N1  UNL     1      18.700 -16.731  25.259  1.00  0.00    -0.322 N 
HETATM    2  C3  UNL     1      19.577 -15.972  26.047  1.00  0.00     0.100 A 
HETATM    3  C4  UNL     1      20.028 -14.741  25.762  1.00  0.00     0.048 A 
HETATM    4  C5  UNL     1      19.618 -14.141  24.614  1.00  0.00     0.044 A 
HETATM    5  N2  UNL     1      20.041 -12.955  24.314  1.00  0.00    -0.393 N 
ATOM      6  H2  UNL     1      19.746 -12.489  23.457  1.00  0.00     0.159 HD
HETATM    7  C6  UNL     1      20.966 -12.305  25.258  1.00  0.00     0.146 C 
HETATM    8  C7  UNL     1      18.756 -14.841  23.803  1.00  0.00     0.051 A 
HETATM    9  C8  UNL     1      18.252 -14.228  22.674  1.00  0.00     0.110 A 
HETATM   10  N3  UNL     1      17.367 -14.845  21.931  1.00  0.00    -0.342 N 
HETATM   11  C19 UNL     1      16.919 -16.100  22.242  1.00  0.00     0.110 A 
HETATM   12  N9  UNL     1      17.384 -16.754  23.323  1.00  0.00    -0.322 N 
HETATM   13  C23 UNL     1      17.172 -18.142  23.523  1.00  0.00     0.159 C 
HETATM   14  C24 UNL     1      18.305 -16.136  24.135  1.00  0.00     0.128 A 
ENDROOT
BRANCH  10  15
HETATM   15  C9  UNL     1      16.866 -14.194  20.760  1.00  0.00     0.130 C 
BRANCH  15  16
HETATM   16  C10 UNL     1      17.318 -12.735  20.645  1.00  0.00     0.020 C 
BRANCH  16  17
HETATM   17  C11 UNL     1      16.527 -12.118  19.509  1.00  0.00     0.003 C 
BRANCH  17  18
HETATM   18  C12 UNL     1      15.800 -10.904  19.997  1.00  0.00     0.022 C 
BRANCH  18  19
HETATM   19  C13 UNL     1      14.367 -10.881  19.581  1.00  0.00     0.148 C 
BRANCH  19  20
HETATM   20  N4  UNL     1      13.501 -11.041  20.758  1.00  0.00    -0.296 N 
HETATM   21  N5  UNL     1      13.148 -10.081  21.594  1.00  0.00    -0.295 N 
HETATM   22  C14 UNL     1      12.344 -10.534  22.570  1.00  0.00     0.090 A 
ATOM     23  H5  UNL     1      13.451  -9.111  21.508  1.00  0.00     0.187 HD
HETATM   24  C16 UNL     1      12.205 -11.898  22.286  1.00  0.00     0.060 A 
HETATM   25  C17 UNL     1      12.931 -12.192  21.159  1.00  0.00     0.027 A 
HETATM   26  C18 UNL     1      13.073 -13.500  20.495  1.00  0.00     0.070 C 
BRANCH  22  27
HETATM   27  C15 UNL     1      11.747  -9.799  23.672  1.00  0.00     0.138 C 
HETATM   28  N6  UNL     1      10.913 -10.397  24.436  1.00  0.00    -0.386 N 
ATOM     29  H62 UNL     1      10.685 -11.375  24.256  1.00  0.00     0.157 HD
ATOM     30  H61 UNL     1      10.493  -9.881  25.209  1.00  0.00     0.157 HD
HETATM   31  N7  UNL     1      12.062  -8.450  23.920  1.00  0.00    -0.081 NA
ENDBRANCH  22  27
ENDBRANCH  19  20
ENDBRANCH  18  19
ENDBRANCH  17  18
ENDBRANCH  16  17
ENDBRANCH  15  16
ENDBRANCH  10  15
BRANCH  11  32
HETATM   32  C20 UNL     1      15.905 -16.663  21.381  1.00  0.00     0.054 C 
HETATM   33  C21 UNL     1      14.623 -16.702  21.628  1.00  0.00     0.074 C 
BRANCH  33  34
HETATM   34  C22 UNL     1      13.685 -17.321  20.653  1.00  0.00     0.254 C 
HETATM   35  N8  UNL     1      12.725 -18.281  20.998  1.00  0.00    -0.058 NA
HETATM   36  O1  UNL     1      13.780 -16.945  19.467  1.00  0.00    -0.272 OA
ENDBRANCH  33  34
ENDBRANCH  11  32
BRANCH   1  37
HETATM   37  C2  UNL     1      18.368 -18.013  25.711  1.00  0.00     0.067 C 
HETATM   38  C1  UNL     1      19.270 -18.702  26.710  1.00  0.00     0.055 C 
ENDBRANCH   1  37
TORSDOF 10
ENDMDL
MODEL 5
REMARK VINA RESULT: -7.715059777      2.340      5.009
REMARK  10 active torsions:
REMARK  status: ('A' for Active; 'I' for Inactive)
REMARK    1  A    between atoms: C2_2  and  N1_3 
REMARK    2  A    between atoms: N3_12  and  C9_13 
REMARK    3  A    between atoms: C9_13  and  C10_14 
REMARK    4  A    between atoms: C10_14  and  C11_15 
REMARK    5  A    between atoms: C11_15  and  C12_16 
REMARK    6  A    between atoms: C12_16  and  C13_17 
REMARK    7  A    between atoms: C13_17  and  N4_18 
REMARK    8  A    between atoms: C14_21  and  C15_22 
REMARK    9  A    between atoms: C19_30  and  C20_31 
REMARK   10  A    between atoms: C21_32  and  C22_33 
ROOT
HETATM    1  N1  UNL     1      16.646 -18.350  24.328  1.00  0.00    -0.322 N 
HETATM    2  C3  UNL     1      15.559 -19.043  23.778  1.00  0.00     0.100 A 
HETATM    3  C4  UNL     1      14.801 -18.632  22.750  1.00  0.00     0.048 A 
HETATM    4  C5  UNL     1      15.083 -17.441  22.161  1.00  0.00     0.044 A 
HETATM    5  N2  UNL     1      14.364 -17.020  21.171  1.00  0.00    -0.393 N 
ATOM      6  H2  UNL     1      14.560 -16.128  20.716  1.00  0.00     0.159 HD
HETATM    7  C6  UNL     1      13.254 -17.877  20.723  1.00  0.00     0.146 C 
HETATM    8  C7  UNL     1      16.141 -16.718  22.661  1.00  0.00     0.051 A 
HETATM    9  C8  UNL     1      16.509 -15.547  22.032  1.00  0.00     0.110 A 
HETATM   10  N3  UNL     1      17.563 -14.884  22.441  1.00  0.00    -0.342 N 
HETATM   11  C19 UNL     1      18.323 -15.324  23.490  1.00  0.00     0.110 A 
HETATM   12  N9  UNL     1      18.006 -16.453  24.152  1.00  0.00    -0.322 N 
HETATM   13  C23 UNL     1      18.582 -16.789  25.403  1.00  0.00     0.159 C 
HETATM   14  C24 UNL     1      16.914 -17.182  23.746  1.00  0.00     0.128 A 
ENDROOT
BRANCH  10  15
HETATM   15  C9  UNL     1      17.920 -13.667  21.780  1.00  0.00     0.130 C 
BRANCH  15  16
HETATM   16  C10 UNL     1      16.756 -12.675  21.684  1.00  0.00     0.020 C 
BRANCH  16  17
HETATM   17  C11 UNL     1      16.600 -12.322  20.218  1.00  0.00     0.003 C 
BRANCH  17  18
HETATM   18  C12 UNL     1      15.867 -11.024  20.083  1.00  0.00     0.022 C 
BRANCH  18  19
HETATM   19  C13 UNL     1      14.453 -11.202  19.640  1.00  0.00     0.148 C 
BRANCH  19  20
HETATM   20  N4  UNL     1      13.562 -11.232  20.809  1.00  0.00    -0.296 N 
HETATM   21  N5  UNL     1      13.234 -10.194  21.557  1.00  0.00    -0.295 N 
HETATM   22  C14 UNL     1      12.397 -10.534  22.551  1.00  0.00     0.090 A 
ATOM     23  H5  UNL     1      13.576  -9.246  21.399  1.00  0.00     0.187 HD
HETATM   24  C16 UNL     1      12.209 -11.910  22.376  1.00  0.00     0.060 A 
HETATM   25  C17 UNL     1      12.940 -12.324  21.292  1.00  0.00     0.027 A 
HETATM   26  C18 UNL     1      13.042 -13.686  20.739  1.00  0.00     0.070 C 
BRANCH  22  27
HETATM   27  C15 UNL     1      11.811  -9.689  23.577  1.00  0.00     0.138 C 
HETATM   28  N6  UNL     1      10.876 -10.163  24.312  1.00  0.00    -0.386 N 
ATOM     29  H62 UNL     1      10.563 -11.122  24.162  1.00  0.00     0.157 HD
ATOM     30  H61 UNL     1      10.465  -9.569  25.032  1.00  0.00     0.157 HD
HETATM   31  N7  UNL     1      12.244  -8.366  23.785  1.00  0.00    -0.081 NA
ENDBRANCH  22  27
ENDBRANCH  19  20
ENDBRANCH  18  19
ENDBRANCH  17  18
ENDBRANCH  16  17
ENDBRANCH  15  16
ENDBRANCH  10  15
BRANCH  11  32
HETATM   32  C20 UNL     1      19.492 -14.542  23.821  1.00  0.00     0.054 C 
HETATM   33  C21 UNL     1      20.731 -14.865  23.564  1.00  0.00     0.074 C 
BRANCH  33  34
HETATM   34  C22 UNL     1      21.845 -13.967  23.969  1.00  0.00     0.254 C 
HETATM   35  N8  UNL     1      23.182 -14.171  23.603  1.00  0.00    -0.058 NA
HETATM   36  O1  UNL     1      21.544 -12.982  24.674  1.00  0.00    -0.272 OA
ENDBRANCH  33  34
ENDBRANCH  11  32
BRANCH   1  37
HETATM   37  C2  UNL     1      17.297 -18.930  25.423  1.00  0.00     0.067 C 
HETATM   38  C1  UNL     1      16.518 -19.834  26.353  1.00  0.00     0.055 C 
ENDBRANCH   1  37
TORSDOF 10
ENDMDL
