MODEL 1
REMARK VINA RESULT: -8.569321727      0.000      0.000
REMARK  11 active torsions:
REMARK  status: ('A' for Active; 'I' for Inactive)
REMARK    1  A    between atoms: C2_2  and  N1_3 
REMARK    2  A    between atoms: N2_6  and  C5_7 
REMARK    3  A    between atoms: C5_7  and  C6_8 
REMARK    4  A    between atoms: C6_8  and  C7_9 
REMARK    5  A    between atoms: C7_9  and  C8_10 
REMARK    6  A    between atoms: C8_10  and  N3_11 
REMARK    7  A    between atoms: N3_11  and  C9_12 
REMARK    8  A    between atoms: C9_12  and  C10_13 
REMARK    9  A    between atoms: C10_13  and  C11_14 
REMARK   10  A    between atoms: C11_14  and  N4_15 
REMARK   11  A    between atoms: N7_23  and  O1_24 
ROOT
HETATM    1  N3  UNL     1      13.842 -15.595  20.077  1.00  0.00    -0.039 N 
HETATM    2  C16 UNL     1      12.849 -15.697  19.026  1.00  0.00     0.269 C 
HETATM    3  C17 UNL     1      12.004 -16.865  19.478  1.00  0.00     0.290 C 
HETATM    4  N8  UNL     1      12.946 -17.718  20.132  1.00  0.00     0.038 N 
HETATM    5  C18 UNL     1      13.080 -19.047  19.562  1.00  0.00     0.280 C 
HETATM    6  C19 UNL     1      11.907 -19.363  20.463  1.00  0.00     0.172 C 
HETATM    7  N9  UNL     1      12.466 -18.293  21.289  1.00  0.00    -0.043 NA
HETATM    8  C20 UNL     1      14.208 -17.012  20.213  1.00  0.00     0.496 C 
ENDROOT
BRANCH   1   9
HETATM    9  C8  UNL     1      14.957 -14.781  19.714  1.00  0.00     0.239 C 
BRANCH   9  10
HETATM   10  C7  UNL     1      14.757 -13.919  18.498  1.00  0.00     0.030 C 
BRANCH  10  11
HETATM   11  C6  UNL     1      15.720 -12.727  18.570  1.00  0.00     0.032 C 
BRANCH  11  12
HETATM   12  C5  UNL     1      16.883 -13.055  19.492  1.00  0.00     0.272 C 
BRANCH  12  13
HETATM   13  N2  UNL     1      17.230 -11.956  20.358  1.00  0.00     0.090 N 
HETATM   14  C4  UNL     1      16.957 -12.225  21.744  1.00  0.00     0.292 C 
HETATM   15  C3  UNL     1      17.308 -13.620  22.188  1.00  0.00     0.156 C 
HETATM   16  N1  UNL     1      18.722 -13.814  22.319  1.00  0.00    -0.351 N 
HETATM   17  C23 UNL     1      19.740 -13.157  21.555  1.00  0.00     0.221 C 
HETATM   18  C22 UNL     1      19.663 -12.447  20.284  1.00  0.00     0.133 C 
HETATM   19  O2  UNL     1      20.917 -13.194  22.062  1.00  0.00    -0.273 OA
HETATM   20  C21 UNL     1      18.561 -11.462  20.135  1.00  0.00     0.281 C 
BRANCH  16  21
HETATM   21  C2  UNL     1      19.193 -14.761  23.322  1.00  0.00     0.121 C 
HETATM   22  C1  UNL     1      18.963 -14.218  24.720  1.00  0.00     0.026 C 
ENDBRANCH  16  21
ENDBRANCH  12  13
ENDBRANCH  11  12
ENDBRANCH  10  11
ENDBRANCH   9  10
ENDBRANCH   1   9
BRANCH   1  23
HETATM   23  C9  UNL     1      13.288 -15.194  21.334  1.00  0.00     0.241 C 
BRANCH  23  24
HETATM   24  C10 UNL     1      13.594 -13.797  21.729  1.00  0.00     0.048 C 
BRANCH  24  25
HETATM   25  C11 UNL     1      12.545 -12.813  21.265  1.00  0.00     0.133 C 
BRANCH  25  26
HETATM   26  N4  UNL     1      12.823 -11.446  21.605  1.00  0.00    -0.324 N 
HETATM   27  C12 UNL     1      13.718 -10.649  20.954  1.00  0.00     0.186 A 
HETATM   28  N5  UNL     1      13.757  -9.446  21.530  1.00  0.00    -0.335 N 
HETATM   29  C13 UNL     1      12.902  -9.429  22.554  1.00  0.00     0.154 A 
ATOM     30  H5  UNL     1      14.346  -8.666  21.236  1.00  0.00     0.168 HD
HETATM   31  N6  UNL     1      12.411  -8.653  23.532  1.00  0.00    -0.333 N 
HETATM   32  C15 UNL     1      12.316 -10.699  22.594  1.00  0.00     0.181 A 
HETATM   33  C14 UNL     1      11.520  -9.400  24.197  1.00  0.00     0.217 A 
ATOM     34  H6  UNL     1      12.666  -7.686  23.730  1.00  0.00     0.168 HD
HETATM   35  N7  UNL     1      11.458 -10.640  23.632  1.00  0.00    -0.200 N 
BRANCH  35  36
HETATM   36  O1  UNL     1      10.653 -11.678  24.027  1.00  0.00    -0.280 OA
ATOM     37  H1  UNL     1      10.781 -12.599  23.833  1.00  0.00     0.245 HD
ENDBRANCH  35  36
ENDBRANCH  25  26
ENDBRANCH  24  25
ENDBRANCH  23  24
ENDBRANCH   1  23
TORSDOF 11
ENDMDL
MODEL 2
REMARK VINA RESULT: -8.452881193      1.790      2.663
REMARK  11 active torsions:
REMARK  status: ('A' for Active; 'I' for Inactive)
REMARK    1  A    between atoms: C2_2  and  N1_3 
REMARK    2  A    between atoms: N2_6  and  C5_7 
REMARK    3  A    between atoms: C5_7  and  C6_8 
REMARK    4  A    between atoms: C6_8  and  C7_9 
REMARK    5  A    between atoms: C7_9  and  C8_10 
REMARK    6  A    between atoms: C8_10  and  N3_11 
REMARK    7  A    between atoms: N3_11  and  C9_12 
REMARK    8  A    between atoms: C9_12  and  C10_13 
REMARK    9  A    between atoms: C10_13  and  C11_14 
REMARK   10  A    between atoms: C11_14  and  N4_15 
REMARK   11  A    between atoms: N7_23  and  O1_24 
ROOT
HETATM    1  N3  UNL     1      15.437 -15.011  21.178  1.00  0.00    -0.039 N 
HETATM    2  C16 UNL     1      16.092 -15.768  20.129  1.00  0.00     0.269 C 
HETATM    3  C17 UNL     1      15.413 -17.115  20.218  1.00  0.00     0.290 C 
HETATM    4  N8  UNL     1      15.144 -17.255  21.614  1.00  0.00     0.038 N 
HETATM    5  C18 UNL     1      15.765 -18.401  22.255  1.00  0.00     0.280 C 
HETATM    6  C19 UNL     1      14.528 -19.124  21.767  1.00  0.00     0.172 C 
HETATM    7  N9  UNL     1      13.910 -17.804  21.891  1.00  0.00    -0.043 NA
HETATM    8  C20 UNL     1      15.476 -16.003  22.262  1.00  0.00     0.496 C 
ENDROOT
BRANCH   1   9
HETATM    9  C8  UNL     1      16.134 -13.812  21.518  1.00  0.00     0.239 C 
BRANCH   9  10
HETATM   10  C7  UNL     1      16.672 -13.027  20.354  1.00  0.00     0.030 C 
BRANCH  10  11
HETATM   11  C6  UNL     1      18.017 -12.405  20.751  1.00  0.00     0.032 C 
BRANCH  11  12
HETATM   12  C5  UNL     1      18.534 -13.059  22.023  1.00  0.00     0.272 C 
BRANCH  12  13
HETATM   13  N2  UNL     1      19.804 -13.714  21.833  1.00  0.00     0.090 N 
HETATM   14  C4  UNL     1      20.790 -13.316  22.800  1.00  0.00     0.292 C 
HETATM   15  C3  UNL     1      20.265 -13.177  24.204  1.00  0.00     0.156 C 
HETATM   16  N1  UNL     1      20.012 -14.444  24.823  1.00  0.00    -0.351 N 
HETATM   17  C23 UNL     1      19.618 -15.649  24.156  1.00  0.00     0.221 C 
HETATM   18  C22 UNL     1      19.041 -15.854  22.832  1.00  0.00     0.133 C 
HETATM   19  O2  UNL     1      19.797 -16.729  24.822  1.00  0.00    -0.273 OA
HETATM   20  C21 UNL     1      19.688 -15.140  21.703  1.00  0.00     0.281 C 
BRANCH  16  21
HETATM   21  C2  UNL     1      20.172 -14.543  26.269  1.00  0.00     0.121 C 
HETATM   22  C1  UNL     1      20.842 -13.298  26.820  1.00  0.00     0.026 C 
ENDBRANCH  16  21
ENDBRANCH  12  13
ENDBRANCH  11  12
ENDBRANCH  10  11
ENDBRANCH   9  10
ENDBRANCH   1   9
BRANCH   1  23
HETATM   23  C9  UNL     1      14.056 -14.755  20.907  1.00  0.00     0.241 C 
BRANCH  23  24
HETATM   24  C10 UNL     1      13.415 -13.776  21.818  1.00  0.00     0.048 C 
BRANCH  24  25
HETATM   25  C11 UNL     1      12.610 -12.730  21.082  1.00  0.00     0.133 C 
BRANCH  25  26
HETATM   26  N4  UNL     1      12.884 -11.379  21.485  1.00  0.00    -0.324 N 
HETATM   27  C12 UNL     1      13.792 -10.557  20.885  1.00  0.00     0.186 A 
HETATM   28  N5  UNL     1      13.822  -9.379  21.514  1.00  0.00    -0.335 N 
HETATM   29  C13 UNL     1      12.948  -9.405  22.521  1.00  0.00     0.154 A 
ATOM     30  H5  UNL     1      14.417  -8.589  21.264  1.00  0.00     0.168 HD
HETATM   31  N6  UNL     1      12.440  -8.670  23.522  1.00  0.00    -0.333 N 
HETATM   32  C15 UNL     1      12.359 -10.674  22.496  1.00  0.00     0.181 A 
HETATM   33  C14 UNL     1      11.535  -9.443  24.138  1.00  0.00     0.217 A 
ATOM     34  H6  UNL     1      12.692  -7.712  23.766  1.00  0.00     0.168 HD
HETATM   35  N7  UNL     1      11.482 -10.657  23.519  1.00  0.00    -0.200 N 
BRANCH  35  36
HETATM   36  O1  UNL     1      10.668 -11.709  23.853  1.00  0.00    -0.280 OA
ATOM     37  H1  UNL     1       9.922 -12.026  23.359  1.00  0.00     0.245 HD
ENDBRANCH  35  36
ENDBRANCH  25  26
ENDBRANCH  24  25
ENDBRANCH  23  24
ENDBRANCH   1  23
TORSDOF 11
ENDMDL
MODEL 3
REMARK VINA RESULT: -8.340664319      1.706      2.589
REMARK  11 active torsions:
REMARK  status: ('A' for Active; 'I' for Inactive)
REMARK    1  A    between atoms: C2_2  and  N1_3 
REMARK    2  A    between atoms: N2_6  and  C5_7 
REMARK    3  A    between atoms: C5_7  and  C6_8 
REMARK    4  A    between atoms: C6_8  and  C7_9 
REMARK    5  A    between atoms: C7_9  and  C8_10 
REMARK    6  A    between atoms: C8_10  and  N3_11 
REMARK    7  A    between atoms: N3_11  and  C9_12 
REMARK    8  A    between atoms: C9_12  and  C10_13 
REMARK    9  A    between atoms: C10_13  and  C11_14 
REMARK   10  A    between atoms: C11_14  and  N4_15 
REMARK   11  A    between atoms: N7_23  and  O1_24 
ROOT
HETATM    1  N3  UNL     1      15.279 -14.684  20.438  1.00  0.00    -0.039 N 
HETATM    2  C16 UNL     1      15.151 -14.474  19.009  1.00  0.00     0.269 C 
HETATM    3  C17 UNL     1      14.632 -15.807  18.523  1.00  0.00     0.290 C 
HETATM    4  N8  UNL     1      15.254 -16.744  19.403  1.00  0.00     0.038 N 
HETATM    5  C18 UNL     1      16.108 -17.728  18.761  1.00  0.00     0.280 C 
HETATM    6  C19 UNL     1      14.810 -18.487  18.592  1.00  0.00     0.172 C 
HETATM    7  N9  UNL     1      14.424 -17.767  19.805  1.00  0.00    -0.043 NA
HETATM    8  C20 UNL     1      15.940 -15.997  20.438  1.00  0.00     0.496 C 
ENDROOT
BRANCH   1   9
HETATM    9  C8  UNL     1      16.069 -13.682  21.079  1.00  0.00     0.239 C 
BRANCH   9  10
HETATM   10  C7  UNL     1      16.807 -12.753  20.154  1.00  0.00     0.030 C 
BRANCH  10  11
HETATM   11  C6  UNL     1      17.966 -12.105  20.922  1.00  0.00     0.032 C 
BRANCH  11  12
HETATM   12  C5  UNL     1      18.390 -13.001  22.075  1.00  0.00     0.272 C 
BRANCH  12  13
HETATM   13  N2  UNL     1      19.651 -13.656  21.832  1.00  0.00     0.090 N 
HETATM   14  C4  UNL     1      20.669 -13.279  22.775  1.00  0.00     0.292 C 
HETATM   15  C3  UNL     1      20.188 -13.164  24.198  1.00  0.00     0.156 C 
HETATM   16  N1  UNL     1      19.951 -14.442  24.801  1.00  0.00    -0.351 N 
HETATM   17  C23 UNL     1      19.532 -15.633  24.124  1.00  0.00     0.221 C 
HETATM   18  C22 UNL     1      18.912 -15.812  22.816  1.00  0.00     0.133 C 
HETATM   19  O2  UNL     1      19.727 -16.726  24.764  1.00  0.00    -0.273 OA
HETATM   20  C21 UNL     1      19.527 -15.079  21.680  1.00  0.00     0.281 C 
BRANCH  16  21
HETATM   21  C2  UNL     1      20.155 -14.568  26.239  1.00  0.00     0.121 C 
HETATM   22  C1  UNL     1      20.871 -13.348  26.787  1.00  0.00     0.026 C 
ENDBRANCH  16  21
ENDBRANCH  12  13
ENDBRANCH  11  12
ENDBRANCH  10  11
ENDBRANCH   9  10
ENDBRANCH   1   9
BRANCH   1  23
HETATM   23  C9  UNL     1      14.020 -14.859  21.094  1.00  0.00     0.241 C 
BRANCH  23  24
HETATM   24  C10 UNL     1      13.611 -13.728  21.963  1.00  0.00     0.048 C 
BRANCH  24  25
HETATM   25  C11 UNL     1      12.714 -12.740  21.255  1.00  0.00     0.133 C 
BRANCH  25  26
HETATM   26  N4  UNL     1      12.943 -11.368  21.614  1.00  0.00    -0.324 N 
HETATM   27  C12 UNL     1      13.834 -10.541  20.996  1.00  0.00     0.186 A 
HETATM   28  N5  UNL     1      13.822  -9.342  21.583  1.00  0.00    -0.335 N 
HETATM   29  C13 UNL     1      12.938  -9.359  22.582  1.00  0.00     0.154 A 
ATOM     30  H5  UNL     1      14.397  -8.544  21.313  1.00  0.00     0.168 HD
HETATM   31  N6  UNL     1      12.396  -8.605  23.551  1.00  0.00    -0.333 N 
HETATM   32  C15 UNL     1      12.386 -10.644  22.594  1.00  0.00     0.181 A 
HETATM   33  C14 UNL     1      11.507  -9.383  24.183  1.00  0.00     0.217 A 
ATOM     34  H6  UNL     1      12.618  -7.633  23.764  1.00  0.00     0.168 HD
HETATM   35  N7  UNL     1      11.497 -10.619  23.607  1.00  0.00    -0.200 N 
BRANCH  35  36
HETATM   36  O1  UNL     1      10.710 -11.682  23.969  1.00  0.00    -0.280 OA
ATOM     37  H1  UNL     1      10.378 -12.362  23.394  1.00  0.00     0.245 HD
ENDBRANCH  35  36
ENDBRANCH  25  26
ENDBRANCH  24  25
ENDBRANCH  23  24
ENDBRANCH   1  23
TORSDOF 11
ENDMDL
MODEL 4
REMARK VINA RESULT: -8.281188878      2.056      3.544
REMARK  11 active torsions:
REMARK  status: ('A' for Active; 'I' for Inactive)
REMARK    1  A    between atoms: C2_2  and  N1_3 
REMARK    2  A    between atoms: N2_6  and  C5_7 
REMARK    3  A    between atoms: C5_7  and  C6_8 
REMARK    4  A    between atoms: C6_8  and  C7_9 
REMARK    5  A    between atoms: C7_9  and  C8_10 
REMARK    6  A    between atoms: C8_10  and  N3_11 
REMARK    7  A    between atoms: N3_11  and  C9_12 
REMARK    8  A    between atoms: C9_12  and  C10_13 
REMARK    9  A    between atoms: C10_13  and  C11_14 
REMARK   10  A    between atoms: C11_14  and  N4_15 
REMARK   11  A    between atoms: N7_23  and  O1_24 
ROOT
HETATM    1  N3  UNL     1      15.678 -12.630  20.111  1.00  0.00    -0.039 N 
HETATM    2  C16 UNL     1      15.953 -13.250  18.830  1.00  0.00     0.269 C 
HETATM    3  C17 UNL     1      14.620 -13.860  18.463  1.00  0.00     0.290 C 
HETATM    4  N8  UNL     1      14.073 -14.239  19.727  1.00  0.00     0.038 N 
HETATM    5  C18 UNL     1      13.793 -15.655  19.883  1.00  0.00     0.280 C 
HETATM    6  C19 UNL     1      12.478 -15.289  19.229  1.00  0.00     0.172 C 
HETATM    7  N9  UNL     1      12.724 -13.987  19.848  1.00  0.00    -0.043 NA
HETATM    8  C20 UNL     1      14.943 -13.722  20.764  1.00  0.00     0.496 C 
ENDROOT
BRANCH   1   9
HETATM    9  C8  UNL     1      16.863 -12.275  20.824  1.00  0.00     0.239 C 
BRANCH   9  10
HETATM   10  C7  UNL     1      18.023 -11.840  19.971  1.00  0.00     0.030 C 
BRANCH  10  11
HETATM   11  C6  UNL     1      19.330 -12.207  20.684  1.00  0.00     0.032 C 
BRANCH  11  12
HETATM   12  C5  UNL     1      19.035 -13.099  21.880  1.00  0.00     0.272 C 
BRANCH  12  13
HETATM   13  N2  UNL     1      19.746 -14.352  21.824  1.00  0.00     0.090 N 
HETATM   14  C4  UNL     1      20.848 -14.414  22.745  1.00  0.00     0.292 C 
HETATM   15  C3  UNL     1      20.563 -13.817  24.098  1.00  0.00     0.156 C 
HETATM   16  N1  UNL     1      19.711 -14.647  24.895  1.00  0.00    -0.351 N 
HETATM   17  C23 UNL     1      18.696 -15.533  24.408  1.00  0.00     0.221 C 
HETATM   18  C22 UNL     1      18.019 -15.581  23.117  1.00  0.00     0.133 C 
HETATM   19  O2  UNL     1      18.309 -16.433  25.235  1.00  0.00    -0.273 OA
HETATM   20  C21 UNL     1      18.879 -15.495  21.909  1.00  0.00     0.281 C 
BRANCH  16  21
HETATM   21  C2  UNL     1      19.879 -14.610  26.343  1.00  0.00     0.121 C 
HETATM   22  C1  UNL     1      20.790 -13.466  26.747  1.00  0.00     0.026 C 
ENDBRANCH  16  21
ENDBRANCH  12  13
ENDBRANCH  11  12
ENDBRANCH  10  11
ENDBRANCH   9  10
ENDBRANCH   1   9
BRANCH   1  23
HETATM   23  C9  UNL     1      14.773 -11.526  20.017  1.00  0.00     0.241 C 
BRANCH  23  24
HETATM   24  C10 UNL     1      14.808 -10.594  21.171  1.00  0.00     0.048 C 
BRANCH  24  25
HETATM   25  C11 UNL     1      13.750  -9.518  21.087  1.00  0.00     0.133 C 
BRANCH  25  26
HETATM   26  N4  UNL     1      12.996  -9.334  22.295  1.00  0.00    -0.324 N 
HETATM   27  C12 UNL     1      12.952  -8.178  23.016  1.00  0.00     0.186 A 
HETATM   28  N5  UNL     1      12.181  -8.344  24.094  1.00  0.00    -0.335 N 
HETATM   29  C13 UNL     1      11.712  -9.592  24.101  1.00  0.00     0.154 A 
ATOM     30  H5  UNL     1      11.984  -7.632  24.798  1.00  0.00     0.168 HD
HETATM   31  N6  UNL     1      10.937 -10.445  24.788  1.00  0.00    -0.333 N 
HETATM   32  C15 UNL     1      12.232 -10.212  22.960  1.00  0.00     0.181 A 
HETATM   33  C14 UNL     1      10.949 -11.600  24.108  1.00  0.00     0.217 A 
ATOM     34  H6  UNL     1      10.437 -10.253  25.656  1.00  0.00     0.168 HD
HETATM   35  N7  UNL     1      11.732 -11.463  22.999  1.00  0.00    -0.200 N 
BRANCH  35  36
HETATM   36  O1  UNL     1      11.979 -12.422  22.051  1.00  0.00    -0.280 OA
ATOM     37  H1  UNL     1      12.589 -12.357  21.325  1.00  0.00     0.245 HD
ENDBRANCH  35  36
ENDBRANCH  25  26
ENDBRANCH  24  25
ENDBRANCH  23  24
ENDBRANCH   1  23
TORSDOF 11
ENDMDL
MODEL 5
REMARK VINA RESULT: -8.215746377      2.894      4.477
REMARK  11 active torsions:
REMARK  status: ('A' for Active; 'I' for Inactive)
REMARK    1  A    between atoms: C2_2  and  N1_3 
REMARK    2  A    between atoms: N2_6  and  C5_7 
REMARK    3  A    between atoms: C5_7  and  C6_8 
REMARK    4  A    between atoms: C6_8  and  C7_9 
REMARK    5  A    between atoms: C7_9  and  C8_10 
REMARK    6  A    between atoms: C8_10  and  N3_11 
REMARK    7  A    between atoms: N3_11  and  C9_12 
REMARK    8  A    between atoms: C9_12  and  C10_13 
REMARK    9  A    between atoms: C10_13  and  C11_14 
REMARK   10  A    between atoms: C11_14  and  N4_15 
REMARK   11  A    between atoms: N7_23  and  O1_24 
ROOT
HETATM    1  N3  UNL     1      15.342 -12.363  19.329  1.00  0.00    -0.039 N 
HETATM    2  C16 UNL     1      16.761 -12.108  19.176  1.00  0.00     0.269 C 
HETATM    3  C17 UNL     1      16.822 -11.344  17.873  1.00  0.00     0.290 C 
HETATM    4  N8  UNL     1      15.761 -11.916  17.107  1.00  0.00     0.038 N 
HETATM    5  C18 UNL     1      16.162 -12.536  15.856  1.00  0.00     0.280 C 
HETATM    6  C19 UNL     1      16.025 -11.129  15.317  1.00  0.00     0.172 C 
HETATM    7  N9  UNL     1      15.036 -10.993  16.385  1.00  0.00    -0.043 NA
HETATM    8  C20 UNL     1      15.022 -12.817  17.968  1.00  0.00     0.496 C 
ENDROOT
BRANCH   1   9
HETATM    9  C8  UNL     1      15.058 -13.360  20.311  1.00  0.00     0.239 C 
BRANCH   9  10
HETATM   10  C7  UNL     1      15.923 -14.589  20.250  1.00  0.00     0.030 C 
BRANCH  10  11
HETATM   11  C6  UNL     1      16.314 -14.994  21.677  1.00  0.00     0.032 C 
BRANCH  11  12
HETATM   12  C5  UNL     1      17.601 -14.292  22.081  1.00  0.00     0.272 C 
BRANCH  12  13
HETATM   13  N2  UNL     1      18.719 -14.664  21.251  1.00  0.00     0.090 N 
HETATM   14  C4  UNL     1      19.774 -13.688  21.260  1.00  0.00     0.292 C 
HETATM   15  C3  UNL     1      20.060 -13.092  22.613  1.00  0.00     0.156 C 
HETATM   16  N1  UNL     1      20.749 -14.002  23.479  1.00  0.00    -0.351 N 
HETATM   17  C23 UNL     1      20.636 -15.430  23.468  1.00  0.00     0.221 C 
HETATM   18  C22 UNL     1      19.611 -16.296  22.895  1.00  0.00     0.133 C 
HETATM   19  O2  UNL     1      21.584 -16.061  24.056  1.00  0.00    -0.273 OA
HETATM   20  C21 UNL     1      19.187 -15.999  21.504  1.00  0.00     0.281 C 
BRANCH  16  21
HETATM   21  C2  UNL     1      21.663 -13.446  24.469  1.00  0.00     0.121 C 
HETATM   22  C1  UNL     1      20.968 -12.384  25.301  1.00  0.00     0.026 C 
ENDBRANCH  16  21
ENDBRANCH  12  13
ENDBRANCH  11  12
ENDBRANCH  10  11
ENDBRANCH   9  10
ENDBRANCH   1   9
BRANCH   1  23
HETATM   23  C9  UNL     1      14.579 -11.174  19.554  1.00  0.00     0.241 C 
BRANCH  23  24
HETATM   24  C10 UNL     1      14.696 -10.611  20.921  1.00  0.00     0.048 C 
BRANCH  24  25
HETATM   25  C11 UNL     1      13.934  -9.317  21.089  1.00  0.00     0.133 C 
BRANCH  25  26
HETATM   26  N4  UNL     1      13.125  -9.255  22.274  1.00  0.00    -0.324 N 
HETATM   27  C12 UNL     1      13.056  -8.183  23.113  1.00  0.00     0.186 A 
HETATM   28  N5  UNL     1      12.234  -8.455  24.130  1.00  0.00    -0.335 N 
HETATM   29  C13 UNL     1      11.755  -9.691  23.979  1.00  0.00     0.154 A 
ATOM     30  H5  UNL     1      12.010  -7.821  24.897  1.00  0.00     0.168 HD
HETATM   31  N6  UNL     1      10.942 -10.603  24.532  1.00  0.00    -0.333 N 
HETATM   32  C15 UNL     1      12.323 -10.189  22.802  1.00  0.00     0.181 A 
HETATM   33  C14 UNL     1      10.976 -11.677  23.731  1.00  0.00     0.217 A 
ATOM     34  H6  UNL     1      10.403 -10.500  25.392  1.00  0.00     0.168 HD
HETATM   35  N7  UNL     1      11.812 -11.431  22.682  1.00  0.00    -0.200 N 
BRANCH  35  36
HETATM   36  O1  UNL     1      12.095 -12.284  21.647  1.00  0.00    -0.280 OA
ATOM     37  H1  UNL     1      11.690 -12.286  20.787  1.00  0.00     0.245 HD
ENDBRANCH  35  36
ENDBRANCH  25  26
ENDBRANCH  24  25
ENDBRANCH  23  24
ENDBRANCH   1  23
TORSDOF 11
ENDMDL
