MODEL 1
REMARK VINA RESULT: -8.098069048      0.000      0.000
REMARK  13 active torsions:
REMARK  status: ('A' for Active; 'I' for Inactive)
REMARK    1  A    between atoms: C2_2  and  N1_3 
REMARK    2  A    between atoms: N1_3  and  C5_6 
REMARK    3  A    between atoms: C5_6  and  C6_7 
REMARK    4  A    between atoms: C6_7  and  C7_8 
REMARK    5  A    between atoms: C7_8  and  C8_9 
REMARK    6  A    between atoms: C8_9  and  C9_10 
REMARK    7  A    between atoms: C9_10  and  N2_11 
REMARK    8  A    between atoms: C13_15  and  C14_16 
REMARK    9  A    between atoms: C14_16  and  N3_17 
REMARK   10  A    between atoms: N3_17  and  C15_19 
REMARK   11  A    between atoms: C16_22  and  N5_23 
REMARK   12  A    between atoms: C18_28  and  N7_29 
REMARK   13  A    between atoms: N7_29  and  C19_31 
ROOT
HETATM    1  C15 UNL     1      14.479 -11.558  21.272  1.00  0.00     0.707 A 
HETATM    2  N4  UNL     1      13.592 -10.781  21.917  1.00  0.00    -0.022 N 
ATOM      3  H4  UNL     1      13.800  -9.791  22.048  1.00  0.00     0.203 HD
HETATM    4  C16 UNL     1      12.425 -11.284  22.399  1.00  0.00     0.706 A 
HETATM    5  N6  UNL     1      12.140 -12.578  22.234  1.00  0.00    -0.021 N 
ATOM      6  H6  UNL     1      11.265 -12.959  22.593  1.00  0.00     0.203 HD
HETATM    7  C18 UNL     1      13.024 -13.393  21.581  1.00  0.00     0.710 A 
HETATM    8  N10 UNL     1      14.169 -12.854  21.120  1.00  0.00    -0.021 N 
ATOM      9  H10 UNL     1      14.831 -13.459  20.633  1.00  0.00     0.203 HD
ENDROOT
BRANCH   1  10
HETATM   10  N3  UNL     1      15.570 -11.048  20.833  1.00  0.00    -0.221 N 
ATOM     11  H3  UNL     1      15.882 -10.195  21.298  1.00  0.00     0.178 HD
BRANCH  10  12
HETATM   12  C14 UNL     1      16.399 -11.518  19.782  1.00  0.00     0.178 C 
BRANCH  12  13
HETATM   13  C13 UNL     1      17.570 -12.296  20.218  1.00  0.00    -0.024 A 
HETATM   14  C12 UNL     1      18.846 -11.824  20.066  1.00  0.00     0.011 A 
HETATM   15  C11 UNL     1      19.896 -12.605  20.499  1.00  0.00     0.018 A 
HETATM   16  C10 UNL     1      19.658 -13.836  21.073  1.00  0.00     0.090 A 
HETATM   17  N2  UNL     1      18.401 -14.293  21.219  1.00  0.00    -0.366 N 
HETATM   18  C24 UNL     1      17.374 -13.524  20.793  1.00  0.00     0.099 A 
BRANCH  17  19
HETATM   19  C9  UNL     1      18.229 -15.582  21.814  1.00  0.00     0.128 C 
BRANCH  19  20
HETATM   20  C8  UNL     1      19.063 -15.844  23.033  1.00  0.00     0.020 C 
BRANCH  20  21
HETATM   21  C7  UNL     1      18.231 -16.000  24.263  1.00  0.00     0.003 C 
BRANCH  21  22
HETATM   22  C6  UNL     1      18.640 -15.091  25.399  1.00  0.00     0.028 C 
BRANCH  22  23
HETATM   23  C5  UNL     1      19.381 -13.921  24.846  1.00  0.00     0.236 C 
BRANCH  23  24
HETATM   24  N1  UNL     1      20.630 -13.667  25.538  1.00  0.00    -0.075 N 
HETATM   25  C3  UNL     1      20.479 -13.803  26.955  1.00  0.00     0.272 C 
HETATM   26  C4  UNL     1      20.984 -12.269  25.263  1.00  0.00     0.272 C 
BRANCH  24  27
HETATM   27  C2  UNL     1      21.719 -14.475  25.087  1.00  0.00     0.232 C 
HETATM   28  C1  UNL     1      22.671 -13.754  24.160  1.00  0.00     0.034 C 
ENDBRANCH  24  27
ENDBRANCH  23  24
ENDBRANCH  22  23
ENDBRANCH  21  22
ENDBRANCH  20  21
ENDBRANCH  19  20
ENDBRANCH  17  19
ENDBRANCH  12  13
ENDBRANCH  10  12
ENDBRANCH   1  10
BRANCH   4  29
HETATM   29  N5  UNL     1      11.561 -10.552  23.021  1.00  0.00    -0.229 N 
HETATM   30  C17 UNL     1      11.977  -9.226  23.420  1.00  0.00     0.165 C 
ATOM     31  H5  UNL     1      10.622 -10.897  23.224  1.00  0.00     0.177 HD
ENDBRANCH   4  29
BRANCH   7  32
HETATM   32  N7  UNL     1      12.720 -14.634  21.440  1.00  0.00    -0.172 N 
ATOM     33  H7  UNL     1      12.152 -15.107  22.143  1.00  0.00     0.181 HD
BRANCH  32  34
HETATM   34  C19 UNL     1      13.184 -15.350  20.285  1.00  0.00     0.502 C 
HETATM   35  N8  UNL     1      12.104 -15.363  19.319  1.00  0.00    -0.026 N 
HETATM   36  C20 UNL     1      11.314 -16.556  19.570  1.00  0.00     0.265 C 
ATOM     37  H82 UNL     1      11.550 -14.507  19.329  1.00  0.00     0.281 HD
ATOM     38  H81 UNL     1      12.431 -15.297  18.355  1.00  0.00     0.281 HD
HETATM   39  C21 UNL     1      12.011 -17.223  20.760  1.00  0.00     0.268 C 
HETATM   40  N9  UNL     1      13.363 -16.768  20.560  1.00  0.00    -0.026 N 
HETATM   41  C22 UNL     1      13.938 -17.375  19.395  1.00  0.00     0.276 C 
HETATM   42  C23 UNL     1      14.168 -16.993  21.732  1.00  0.00     0.276 C 
ENDBRANCH  32  34
ENDBRANCH   7  32
TORSDOF 13
ENDMDL
MODEL 2
REMARK VINA RESULT: -8.095026277      1.124      2.037
REMARK  13 active torsions:
REMARK  status: ('A' for Active; 'I' for Inactive)
REMARK    1  A    between atoms: C2_2  and  N1_3 
REMARK    2  A    between atoms: N1_3  and  C5_6 
REMARK    3  A    between atoms: C5_6  and  C6_7 
REMARK    4  A    between atoms: C6_7  and  C7_8 
REMARK    5  A    between atoms: C7_8  and  C8_9 
REMARK    6  A    between atoms: C8_9  and  C9_10 
REMARK    7  A    between atoms: C9_10  and  N2_11 
REMARK    8  A    between atoms: C13_15  and  C14_16 
REMARK    9  A    between atoms: C14_16  and  N3_17 
REMARK   10  A    between atoms: N3_17  and  C15_19 
REMARK   11  A    between atoms: C16_22  and  N5_23 
REMARK   12  A    between atoms: C18_28  and  N7_29 
REMARK   13  A    between atoms: N7_29  and  C19_31 
ROOT
HETATM    1  C15 UNL     1      14.477 -11.614  21.312  1.00  0.00     0.707 A 
HETATM    2  N4  UNL     1      13.530 -10.874  21.915  1.00  0.00    -0.022 N 
ATOM      3  H4  UNL     1      13.664  -9.867  22.002  1.00  0.00     0.203 HD
HETATM    4  C16 UNL     1      12.397 -11.439  22.410  1.00  0.00     0.706 A 
HETATM    5  N6  UNL     1      12.208 -12.757  22.302  1.00  0.00    -0.021 N 
ATOM      6  H6  UNL     1      11.359 -13.184  22.672  1.00  0.00     0.203 HD
HETATM    7  C18 UNL     1      13.156 -13.534  21.694  1.00  0.00     0.710 A 
HETATM    8  N10 UNL     1      14.264 -12.934  21.217  1.00  0.00    -0.021 N 
ATOM      9  H10 UNL     1      14.973 -13.511  20.763  1.00  0.00     0.203 HD
ENDROOT
BRANCH   1  10
HETATM   10  N3  UNL     1      15.533 -11.046  20.858  1.00  0.00    -0.221 N 
ATOM     11  H3  UNL     1      15.765 -10.141  21.270  1.00  0.00     0.178 HD
BRANCH  10  12
HETATM   12  C14 UNL     1      16.420 -11.514  19.855  1.00  0.00     0.178 C 
BRANCH  12  13
HETATM   13  C13 UNL     1      17.730 -11.966  20.350  1.00  0.00    -0.024 A 
HETATM   14  C12 UNL     1      18.852 -11.924  19.566  1.00  0.00     0.011 A 
HETATM   15  C11 UNL     1      20.047 -12.362  20.095  1.00  0.00     0.018 A 
HETATM   16  C10 UNL     1      20.104 -12.831  21.390  1.00  0.00     0.090 A 
HETATM   17  N2  UNL     1      18.998 -12.871  22.155  1.00  0.00    -0.366 N 
HETATM   18  C24 UNL     1      17.828 -12.440  21.632  1.00  0.00     0.099 A 
BRANCH  17  19
HETATM   19  C9  UNL     1      19.129 -13.380  23.485  1.00  0.00     0.128 C 
BRANCH  19  20
HETATM   20  C8  UNL     1      20.506 -13.291  24.074  1.00  0.00     0.020 C 
BRANCH  20  21
HETATM   21  C7  UNL     1      20.476 -13.009  25.539  1.00  0.00     0.003 C 
BRANCH  21  22
HETATM   22  C6  UNL     1      20.456 -14.250  26.402  1.00  0.00     0.028 C 
BRANCH  22  23
HETATM   23  C5  UNL     1      21.270 -15.315  25.747  1.00  0.00     0.236 C 
BRANCH  23  24
HETATM   24  N1  UNL     1      20.544 -16.560  25.585  1.00  0.00    -0.075 N 
HETATM   25  C3  UNL     1      21.206 -17.640  26.251  1.00  0.00     0.272 C 
HETATM   26  C4  UNL     1      20.543 -16.859  24.148  1.00  0.00     0.272 C 
BRANCH  24  27
HETATM   27  C2  UNL     1      19.179 -16.496  26.004  1.00  0.00     0.232 C 
HETATM   28  C1  UNL     1      18.188 -16.803  24.905  1.00  0.00     0.034 C 
ENDBRANCH  24  27
ENDBRANCH  23  24
ENDBRANCH  22  23
ENDBRANCH  21  22
ENDBRANCH  20  21
ENDBRANCH  19  20
ENDBRANCH  17  19
ENDBRANCH  12  13
ENDBRANCH  10  12
ENDBRANCH   1  10
BRANCH   4  29
HETATM   29  N5  UNL     1      11.476 -10.745  22.992  1.00  0.00    -0.229 N 
HETATM   30  C17 UNL     1      11.836  -9.428  23.469  1.00  0.00     0.165 C 
ATOM     31  H5  UNL     1      10.531 -11.112  23.111  1.00  0.00     0.177 HD
ENDBRANCH   4  29
BRANCH   7  32
HETATM   32  N7  UNL     1      12.944 -14.799  21.608  1.00  0.00    -0.172 N 
ATOM     33  H7  UNL     1      12.474 -15.294  22.366  1.00  0.00     0.181 HD
BRANCH  32  34
HETATM   34  C19 UNL     1      13.373 -15.510  20.436  1.00  0.00     0.502 C 
HETATM   35  N8  UNL     1      12.327 -15.380  19.442  1.00  0.00    -0.026 N 
HETATM   36  C20 UNL     1      11.418 -16.499  19.621  1.00  0.00     0.265 C 
ATOM     37  H82 UNL     1      11.857 -14.475  19.474  1.00  0.00     0.281 HD
ATOM     38  H81 UNL     1      12.689 -15.307  18.491  1.00  0.00     0.281 HD
HETATM   39  C21 UNL     1      12.011 -17.277  20.800  1.00  0.00     0.268 C 
HETATM   40  N9  UNL     1      13.406 -16.948  20.656  1.00  0.00    -0.026 N 
HETATM   41  C22 UNL     1      13.955 -17.562  19.482  1.00  0.00     0.276 C 
HETATM   42  C23 UNL     1      14.149 -17.297  21.838  1.00  0.00     0.276 C 
ENDBRANCH  32  34
ENDBRANCH   7  32
TORSDOF 13
ENDMDL
MODEL 3
REMARK VINA RESULT: -8.074537739      1.102      1.918
REMARK  13 active torsions:
REMARK  status: ('A' for Active; 'I' for Inactive)
REMARK    1  A    between atoms: C2_2  and  N1_3 
REMARK    2  A    between atoms: N1_3  and  C5_6 
REMARK    3  A    between atoms: C5_6  and  C6_7 
REMARK    4  A    between atoms: C6_7  and  C7_8 
REMARK    5  A    between atoms: C7_8  and  C8_9 
REMARK    6  A    between atoms: C8_9  and  C9_10 
REMARK    7  A    between atoms: C9_10  and  N2_11 
REMARK    8  A    between atoms: C13_15  and  C14_16 
REMARK    9  A    between atoms: C14_16  and  N3_17 
REMARK   10  A    between atoms: N3_17  and  C15_19 
REMARK   11  A    between atoms: C16_22  and  N5_23 
REMARK   12  A    between atoms: C18_28  and  N7_29 
REMARK   13  A    between atoms: N7_29  and  C19_31 
ROOT
HETATM    1  C15 UNL     1      14.427 -11.565  21.078  1.00  0.00     0.707 A 
HETATM    2  N4  UNL     1      13.543 -11.045  21.948  1.00  0.00    -0.022 N 
ATOM      3  H4  UNL     1      13.778 -10.184  22.442  1.00  0.00     0.203 HD
HETATM    4  C16 UNL     1      12.344 -11.640  22.184  1.00  0.00     0.706 A 
HETATM    5  N6  UNL     1      12.024 -12.768  21.543  1.00  0.00    -0.021 N 
ATOM      6  H6  UNL     1      11.125 -13.217  21.716  1.00  0.00     0.203 HD
HETATM    7  C18 UNL     1      12.904 -13.319  20.652  1.00  0.00     0.710 A 
HETATM    8  N10 UNL     1      14.081 -12.697  20.448  1.00  0.00    -0.021 N 
ATOM      9  H10 UNL     1      14.740 -13.106  19.784  1.00  0.00     0.203 HD
ENDROOT
BRANCH   1  10
HETATM   10  N3  UNL     1      15.548 -10.975  20.882  1.00  0.00    -0.221 N 
ATOM     11  H3  UNL     1      15.733 -10.163  21.472  1.00  0.00     0.178 HD
BRANCH  10  12
HETATM   12  C14 UNL     1      16.565 -11.307  19.950  1.00  0.00     0.178 C 
BRANCH  12  13
HETATM   13  C13 UNL     1      17.702 -12.052  20.515  1.00  0.00    -0.024 A 
HETATM   14  C12 UNL     1      18.973 -11.908  20.027  1.00  0.00     0.011 A 
HETATM   15  C11 UNL     1      19.991 -12.635  20.604  1.00  0.00     0.018 A 
HETATM   16  C10 UNL     1      19.726 -13.490  21.653  1.00  0.00     0.090 A 
HETATM   17  N2  UNL     1      18.475 -13.627  22.129  1.00  0.00    -0.366 N 
HETATM   18  C24 UNL     1      17.479 -12.912  21.559  1.00  0.00     0.099 A 
BRANCH  17  19
HETATM   19  C9  UNL     1      18.273 -14.539  23.211  1.00  0.00     0.128 C 
BRANCH  19  20
HETATM   20  C8  UNL     1      18.600 -14.001  24.573  1.00  0.00     0.020 C 
BRANCH  20  21
HETATM   21  C7  UNL     1      18.644 -15.075  25.609  1.00  0.00     0.003 C 
BRANCH  21  22
HETATM   22  C6  UNL     1      19.747 -16.087  25.398  1.00  0.00     0.028 C 
BRANCH  22  23
HETATM   23  C5  UNL     1      21.058 -15.457  25.731  1.00  0.00     0.236 C 
BRANCH  23  24
HETATM   24  N1  UNL     1      22.013 -15.536  24.644  1.00  0.00    -0.075 N 
HETATM   25  C3  UNL     1      21.478 -16.259  23.530  1.00  0.00     0.272 C 
HETATM   26  C4  UNL     1      23.163 -16.294  25.152  1.00  0.00     0.272 C 
BRANCH  24  27
HETATM   27  C2  UNL     1      22.503 -14.267  24.208  1.00  0.00     0.232 C 
HETATM   28  C1  UNL     1      21.994 -13.102  25.026  1.00  0.00     0.034 C 
ENDBRANCH  24  27
ENDBRANCH  23  24
ENDBRANCH  22  23
ENDBRANCH  21  22
ENDBRANCH  20  21
ENDBRANCH  19  20
ENDBRANCH  17  19
ENDBRANCH  12  13
ENDBRANCH  10  12
ENDBRANCH   1  10
BRANCH   4  29
HETATM   29  N5  UNL     1      11.483 -11.156  23.016  1.00  0.00    -0.229 N 
HETATM   30  C17 UNL     1      11.729  -9.827  23.529  1.00  0.00     0.165 C 
ATOM     31  H5  UNL     1      10.662 -11.690  23.300  1.00  0.00     0.177 HD
ENDBRANCH   4  29
BRANCH   7  32
HETATM   32  N7  UNL     1      12.565 -14.405  20.053  1.00  0.00    -0.172 N 
ATOM     33  H7  UNL     1      12.417 -14.409  19.043  1.00  0.00     0.181 HD
BRANCH  32  34
HETATM   34  C19 UNL     1      12.397 -15.611  20.813  1.00  0.00     0.502 C 
HETATM   35  N8  UNL     1      13.678 -15.930  21.411  1.00  0.00    -0.026 N 
HETATM   36  C20 UNL     1      14.391 -16.783  20.475  1.00  0.00     0.265 C 
ATOM     37  H82 UNL     1      14.209 -15.103  21.681  1.00  0.00     0.281 HD
ATOM     38  H81 UNL     1      13.592 -16.342  22.339  1.00  0.00     0.281 HD
HETATM   39  C21 UNL     1      13.432 -16.921  19.289  1.00  0.00     0.268 C 
HETATM   40  N9  UNL     1      12.165 -16.765  19.957  1.00  0.00    -0.026 N 
HETATM   41  C22 UNL     1      11.891 -17.893  20.799  1.00  0.00     0.276 C 
HETATM   42  C23 UNL     1      11.103 -16.533  19.014  1.00  0.00     0.276 C 
ENDBRANCH  32  34
ENDBRANCH   7  32
TORSDOF 13
ENDMDL
MODEL 4
REMARK VINA RESULT: -8.074407546      1.259      2.390
REMARK  13 active torsions:
REMARK  status: ('A' for Active; 'I' for Inactive)
REMARK    1  A    between atoms: C2_2  and  N1_3 
REMARK    2  A    between atoms: N1_3  and  C5_6 
REMARK    3  A    between atoms: C5_6  and  C6_7 
REMARK    4  A    between atoms: C6_7  and  C7_8 
REMARK    5  A    between atoms: C7_8  and  C8_9 
REMARK    6  A    between atoms: C8_9  and  C9_10 
REMARK    7  A    between atoms: C9_10  and  N2_11 
REMARK    8  A    between atoms: C13_15  and  C14_16 
REMARK    9  A    between atoms: C14_16  and  N3_17 
REMARK   10  A    between atoms: N3_17  and  C15_19 
REMARK   11  A    between atoms: C16_22  and  N5_23 
REMARK   12  A    between atoms: C18_28  and  N7_29 
REMARK   13  A    between atoms: N7_29  and  C19_31 
ROOT
HETATM    1  C15 UNL     1      14.459 -11.578  21.112  1.00  0.00     0.707 A 
HETATM    2  N4  UNL     1      13.566 -11.047  21.966  1.00  0.00    -0.022 N 
ATOM      3  H4  UNL     1      13.797 -10.183  22.455  1.00  0.00     0.203 HD
HETATM    4  C16 UNL     1      12.362 -11.637  22.190  1.00  0.00     0.706 A 
HETATM    5  N6  UNL     1      12.046 -12.769  21.555  1.00  0.00    -0.021 N 
ATOM      6  H6  UNL     1      11.143 -13.213  21.721  1.00  0.00     0.203 HD
HETATM    7  C18 UNL     1      12.936 -13.331  20.682  1.00  0.00     0.710 A 
HETATM    8  N10 UNL     1      14.118 -12.715  20.488  1.00  0.00    -0.021 N 
ATOM      9  H10 UNL     1      14.785 -13.132  19.837  1.00  0.00     0.203 HD
ENDROOT
BRANCH   1  10
HETATM   10  N3  UNL     1      15.585 -10.994  20.927  1.00  0.00    -0.221 N 
ATOM     11  H3  UNL     1      15.823 -10.262  21.596  1.00  0.00     0.178 HD
BRANCH  10  12
HETATM   12  C14 UNL     1      16.543 -11.236  19.909  1.00  0.00     0.178 C 
BRANCH  12  13
HETATM   13  C13 UNL     1      17.804 -11.836  20.375  1.00  0.00    -0.024 A 
HETATM   14  C12 UNL     1      18.893 -11.958  19.554  1.00  0.00     0.011 A 
HETATM   15  C11 UNL     1      20.042 -12.528  20.057  1.00  0.00     0.018 A 
HETATM   16  C10 UNL     1      20.086 -12.964  21.364  1.00  0.00     0.090 A 
HETATM   17  N2  UNL     1      19.014 -12.842  22.166  1.00  0.00    -0.366 N 
HETATM   18  C24 UNL     1      17.888 -12.282  21.668  1.00  0.00     0.099 A 
BRANCH  17  19
HETATM   19  C9  UNL     1      19.129 -13.325  23.507  1.00  0.00     0.128 C 
BRANCH  19  20
HETATM   20  C8  UNL     1      20.501 -13.238  24.106  1.00  0.00     0.020 C 
BRANCH  20  21
HETATM   21  C7  UNL     1      20.460 -12.978  25.575  1.00  0.00     0.003 C 
BRANCH  21  22
HETATM   22  C6  UNL     1      20.405 -14.231  26.418  1.00  0.00     0.028 C 
BRANCH  22  23
HETATM   23  C5  UNL     1      21.195 -15.306  25.750  1.00  0.00     0.236 C 
BRANCH  23  24
HETATM   24  N1  UNL     1      20.445 -16.534  25.579  1.00  0.00    -0.075 N 
HETATM   25  C3  UNL     1      21.077 -17.630  26.248  1.00  0.00     0.272 C 
HETATM   26  C4  UNL     1      20.451 -16.831  24.141  1.00  0.00     0.272 C 
BRANCH  24  27
HETATM   27  C2  UNL     1      19.078 -16.442  25.986  1.00  0.00     0.232 C 
HETATM   28  C1  UNL     1      18.091 -16.719  24.874  1.00  0.00     0.034 C 
ENDBRANCH  24  27
ENDBRANCH  23  24
ENDBRANCH  22  23
ENDBRANCH  21  22
ENDBRANCH  20  21
ENDBRANCH  19  20
ENDBRANCH  17  19
ENDBRANCH  12  13
ENDBRANCH  10  12
ENDBRANCH   1  10
BRANCH   4  29
HETATM   29  N5  UNL     1      11.491 -11.142  23.006  1.00  0.00    -0.229 N 
HETATM   30  C17 UNL     1      11.727  -9.803  23.499  1.00  0.00     0.165 C 
ATOM     31  H5  UNL     1      10.669 -11.675  23.292  1.00  0.00     0.177 HD
ENDBRANCH   4  29
BRANCH   7  32
HETATM   32  N7  UNL     1      12.602 -14.421  20.088  1.00  0.00    -0.172 N 
ATOM     33  H7  UNL     1      12.470 -14.435  19.076  1.00  0.00     0.181 HD
BRANCH  32  34
HETATM   34  C19 UNL     1      12.415 -15.619  20.857  1.00  0.00     0.502 C 
HETATM   35  N8  UNL     1      13.680 -15.932  21.489  1.00  0.00    -0.026 N 
HETATM   36  C20 UNL     1      14.415 -16.795  20.580  1.00  0.00     0.265 C 
ATOM     37  H82 UNL     1      14.206 -15.102  21.762  1.00  0.00     0.281 HD
ATOM     38  H81 UNL     1      13.572 -16.333  22.420  1.00  0.00     0.281 HD
HETATM   39  C21 UNL     1      13.484 -16.946  19.372  1.00  0.00     0.268 C 
HETATM   40  N9  UNL     1      12.202 -16.782  20.009  1.00  0.00    -0.026 N 
HETATM   41  C22 UNL     1      11.908 -17.900  20.857  1.00  0.00     0.276 C 
HETATM   42  C23 UNL     1      11.163 -16.560  19.038  1.00  0.00     0.276 C 
ENDBRANCH  32  34
ENDBRANCH   7  32
TORSDOF 13
ENDMDL
MODEL 5
REMARK VINA RESULT: -8.035529079      1.352      2.258
REMARK  13 active torsions:
REMARK  status: ('A' for Active; 'I' for Inactive)
REMARK    1  A    between atoms: C2_2  and  N1_3 
REMARK    2  A    between atoms: N1_3  and  C5_6 
REMARK    3  A    between atoms: C5_6  and  C6_7 
REMARK    4  A    between atoms: C6_7  and  C7_8 
REMARK    5  A    between atoms: C7_8  and  C8_9 
REMARK    6  A    between atoms: C8_9  and  C9_10 
REMARK    7  A    between atoms: C9_10  and  N2_11 
REMARK    8  A    between atoms: C13_15  and  C14_16 
REMARK    9  A    between atoms: C14_16  and  N3_17 
REMARK   10  A    between atoms: N3_17  and  C15_19 
REMARK   11  A    between atoms: C16_22  and  N5_23 
REMARK   12  A    between atoms: C18_28  and  N7_29 
REMARK   13  A    between atoms: N7_29  and  C19_31 
ROOT
HETATM    1  C15 UNL     1      14.400 -11.699  21.238  1.00  0.00     0.707 A 
HETATM    2  N4  UNL     1      13.461 -11.179  22.047  1.00  0.00    -0.022 N 
ATOM      3  H4  UNL     1      13.666 -10.324  22.563  1.00  0.00     0.203 HD
HETATM    4  C16 UNL     1      12.244 -11.767  22.192  1.00  0.00     0.706 A 
HETATM    5  N6  UNL     1      11.962 -12.887  21.521  1.00  0.00    -0.021 N 
ATOM      6  H6  UNL     1      11.050 -13.330  21.626  1.00  0.00     0.203 HD
HETATM    7  C18 UNL     1      12.899 -13.438  20.691  1.00  0.00     0.710 A 
HETATM    8  N10 UNL     1      14.092 -12.824  20.576  1.00  0.00    -0.021 N 
ATOM      9  H10 UNL     1      14.794 -13.233  19.958  1.00  0.00     0.203 HD
ENDROOT
BRANCH   1  10
HETATM   10  N3  UNL     1      15.537 -11.116  21.127  1.00  0.00    -0.221 N 
ATOM     11  H3  UNL     1      15.784 -10.474  21.881  1.00  0.00     0.178 HD
BRANCH  10  12
HETATM   12  C14 UNL     1      16.496 -11.250  20.090  1.00  0.00     0.178 C 
BRANCH  12  13
HETATM   13  C13 UNL     1      17.772 -11.855  20.503  1.00  0.00    -0.024 A 
HETATM   14  C12 UNL     1      18.832 -11.962  19.641  1.00  0.00     0.011 A 
HETATM   15  C11 UNL     1      19.998 -12.538  20.094  1.00  0.00     0.018 A 
HETATM   16  C10 UNL     1      20.090 -12.993  21.393  1.00  0.00     0.090 A 
HETATM   17  N2  UNL     1      19.047 -12.885  22.234  1.00  0.00    -0.366 N 
HETATM   18  C24 UNL     1      17.903 -12.320  21.785  1.00  0.00     0.099 A 
BRANCH  17  19
HETATM   19  C9  UNL     1      19.210 -13.388  23.562  1.00  0.00     0.128 C 
BRANCH  19  20
HETATM   20  C8  UNL     1      20.566 -13.174  24.168  1.00  0.00     0.020 C 
BRANCH  20  21
HETATM   21  C7  UNL     1      20.504 -13.023  25.652  1.00  0.00     0.003 C 
BRANCH  21  22
HETATM   22  C6  UNL     1      20.159 -14.298  26.385  1.00  0.00     0.028 C 
BRANCH  22  23
HETATM   23  C5  UNL     1      21.118 -15.368  25.983  1.00  0.00     0.236 C 
BRANCH  23  24
HETATM   24  N1  UNL     1      20.456 -16.561  25.491  1.00  0.00    -0.075 N 
HETATM   25  C3  UNL     1      19.044 -16.506  25.717  1.00  0.00     0.272 C 
HETATM   26  C4  UNL     1      20.987 -17.685  26.273  1.00  0.00     0.272 C 
BRANCH  24  27
HETATM   27  C2  UNL     1      20.716 -16.844  24.115  1.00  0.00     0.232 C 
HETATM   28  C1  UNL     1      22.116 -16.484  23.672  1.00  0.00     0.034 C 
ENDBRANCH  24  27
ENDBRANCH  23  24
ENDBRANCH  22  23
ENDBRANCH  21  22
ENDBRANCH  20  21
ENDBRANCH  19  20
ENDBRANCH  17  19
ENDBRANCH  12  13
ENDBRANCH  10  12
ENDBRANCH   1  10
BRANCH   4  29
HETATM   29  N5  UNL     1      11.329 -11.282  22.964  1.00  0.00    -0.229 N 
HETATM   30  C17 UNL     1      11.655 -10.089  23.713  1.00  0.00     0.165 C 
ATOM     31  H5  UNL     1      10.413 -11.724  23.043  1.00  0.00     0.177 HD
ENDBRANCH   4  29
BRANCH   7  32
HETATM   32  N7  UNL     1      12.596 -14.517  20.060  1.00  0.00    -0.172 N 
ATOM     33  H7  UNL     1      12.501 -14.508  19.044  1.00  0.00     0.181 HD
BRANCH  32  34
HETATM   34  C19 UNL     1      12.393 -15.733  20.794  1.00  0.00     0.502 C 
HETATM   35  N8  UNL     1      13.658 -16.091  21.403  1.00  0.00    -0.026 N 
HETATM   36  C20 UNL     1      14.367 -16.940  20.461  1.00  0.00     0.265 C 
ATOM     37  H82 UNL     1      14.202 -15.280  21.696  1.00  0.00     0.281 HD
ATOM     38  H81 UNL     1      13.551 -16.518  22.322  1.00  0.00     0.281 HD
HETATM   39  C21 UNL     1      13.421 -17.036  19.259  1.00  0.00     0.268 C 
HETATM   40  N9  UNL     1      12.148 -16.866  19.913  1.00  0.00    -0.026 N 
HETATM   41  C22 UNL     1      11.840 -18.004  20.730  1.00  0.00     0.276 C 
HETATM   42  C23 UNL     1      11.105 -16.593  18.960  1.00  0.00     0.276 C 
ENDBRANCH  32  34
ENDBRANCH   7  32
TORSDOF 13
ENDMDL
