MODEL 1
REMARK VINA RESULT: -7.478544775      0.000      0.000
REMARK  11 active torsions:
REMARK  status: ('A' for Active; 'I' for Inactive)
REMARK    1  A    between atoms: C3_3  and  C4_4 
REMARK    2  A    between atoms: C4_4  and  N9_38 
REMARK    3  A    between atoms: N1_5  and  C5_7 
REMARK    4  A    between atoms: C5_7  and  C6_8 
REMARK    5  A    between atoms: C6_8  and  N2_9 
REMARK    6  A    between atoms: N3_12  and  N4_14 
REMARK    7  A    between atoms: C9_21  and  C10_22 
REMARK    8  A    between atoms: C10_22  and  N7_23 
REMARK       I    between atoms: N7_23  and  C11_25 
REMARK    9  A    between atoms: C11_25  and  C12_27 
REMARK   10  A    between atoms: C13_28  and  C14_29 
REMARK   11  A    between atoms: N8_33  and  C18_34 
ROOT
HETATM    1  C1  UNL     1      17.221 -16.867  23.966  1.00  0.00     0.012 C 
HETATM    2  C2  UNL     1      17.254 -16.598  22.783  1.00  0.00    -0.110 C 
HETATM    3  C3  UNL     1      17.271 -16.271  21.369  1.00  0.00     0.168 C 
ENDROOT
BRANCH   3   4
HETATM    4  C4  UNL     1      15.925 -15.936  20.843  1.00  0.00     0.083 C 
HETATM    5  N1  UNL     1      15.030 -15.543  21.642  1.00  0.00    -0.378 N 
ATOM      6  H1  UNL     1      15.305 -15.480  22.621  1.00  0.00     0.160 HD
BRANCH   5   7
HETATM    7  C5  UNL     1      13.684 -15.174  21.350  1.00  0.00     0.149 C 
BRANCH   7   8
HETATM    8  C6  UNL     1      13.117 -14.158  22.299  1.00  0.00     0.269 C 
BRANCH   8   9
HETATM    9  N2  UNL     1      13.024 -12.831  21.786  1.00  0.00     0.015 N 
HETATM   10  C7  UNL     1      12.786 -12.782  20.334  1.00  0.00     0.286 C 
HETATM   11  C8  UNL     1      12.288 -11.873  22.504  1.00  0.00     0.299 C 
HETATM   12  N3  UNL     1      11.292 -11.776  23.258  1.00  0.00    -0.251 N 
HETATM   13  N6  UNL     1      13.190 -10.916  22.003  1.00  0.00    -0.325 N 
ATOM     14  H3  UNL     1      10.792 -12.639  23.473  1.00  0.00     0.191 HD
HETATM   15  C9  UNL     1      14.173 -11.988  22.054  1.00  0.00     0.318 C 
ATOM     16  H6  UNL     1      13.166  -9.933  21.731  1.00  0.00     0.164 HD
BRANCH  12  17
HETATM   17  N4  UNL     1      10.803 -10.611  23.829  1.00  0.00    -0.247 N 
HETATM   18  N5  UNL     1      11.172 -10.282  24.976  1.00  0.00    -0.331 N 
ATOM     19  H52 UNL     1      11.830 -10.880  25.477  1.00  0.00     0.178 HD
ATOM     20  H51 UNL     1      10.812  -9.425  25.396  1.00  0.00     0.178 HD
ATOM     21  H4  UNL     1      10.145 -10.025  23.315  1.00  0.00     0.207 HD
ENDBRANCH  12  17
BRANCH  15  22
HETATM   22  C10 UNL     1      15.292 -11.913  21.128  1.00  0.00     0.178 C 
BRANCH  22  23
HETATM   23  N7  UNL     1      16.471 -12.584  21.624  1.00  0.00    -0.354 N 
HETATM   24  C11 UNL     1      17.784 -12.141  21.274  1.00  0.00     0.241 C 
HETATM   25  O1  UNL     1      17.890 -11.146  20.519  1.00  0.00    -0.269 OA
ATOM     26  H7  UNL     1      16.363 -13.391  22.238  1.00  0.00     0.162 HD
BRANCH  24  27
HETATM   27  C12 UNL     1      19.005 -12.777  21.742  1.00  0.00     0.075 C 
HETATM   28  C13 UNL     1      19.144 -13.361  22.899  1.00  0.00     0.018 C 
BRANCH  28  29
HETATM   29  C14 UNL     1      20.359 -13.986  23.348  1.00  0.00    -0.020 A 
HETATM   30  C15 UNL     1      21.261 -13.174  24.044  1.00  0.00     0.014 A 
HETATM   31  C16 UNL     1      22.428 -13.740  24.486  1.00  0.00     0.018 A 
HETATM   32  C17 UNL     1      22.728 -15.062  24.266  1.00  0.00     0.091 A 
HETATM   33  N8  UNL     1      21.860 -15.833  23.599  1.00  0.00    -0.355 N 
HETATM   34  C21 UNL     1      20.698 -15.294  23.152  1.00  0.00     0.102 A 
BRANCH  33  35
HETATM   35  C18 UNL     1      22.110 -17.235  23.330  1.00  0.00     0.220 C 
HETATM   36  C19 UNL     1      21.687 -17.578  21.985  1.00  0.00    -0.097 C 
HETATM   37  C20 UNL     1      21.326 -17.878  20.869  1.00  0.00     0.014 C 
ENDBRANCH  33  35
ENDBRANCH  28  29
ENDBRANCH  24  27
ENDBRANCH  22  23
ENDBRANCH  15  22
ENDBRANCH   8   9
ENDBRANCH   7   8
ENDBRANCH   5   7
BRANCH   4  38
HETATM   38  N9  UNL     1      15.691 -16.070  19.450  1.00  0.00    -0.384 N 
HETATM   39  C22 UNL     1      15.732 -17.347  18.768  1.00  0.00     0.147 C 
ATOM     40  H9  UNL     1      15.485 -15.232  18.906  1.00  0.00     0.160 HD
ENDBRANCH   4  38
ENDBRANCH   3   4
TORSDOF 11
ENDMDL
MODEL 2
REMARK VINA RESULT: -7.452345964      1.704      2.083
REMARK  11 active torsions:
REMARK  status: ('A' for Active; 'I' for Inactive)
REMARK    1  A    between atoms: C3_3  and  C4_4 
REMARK    2  A    between atoms: C4_4  and  N9_38 
REMARK    3  A    between atoms: N1_5  and  C5_7 
REMARK    4  A    between atoms: C5_7  and  C6_8 
REMARK    5  A    between atoms: C6_8  and  N2_9 
REMARK    6  A    between atoms: N3_12  and  N4_14 
REMARK    7  A    between atoms: C9_21  and  C10_22 
REMARK    8  A    between atoms: C10_22  and  N7_23 
REMARK       I    between atoms: N7_23  and  C11_25 
REMARK    9  A    between atoms: C11_25  and  C12_27 
REMARK   10  A    between atoms: C13_28  and  C14_29 
REMARK   11  A    between atoms: N8_33  and  C18_34 
ROOT
HETATM    1  C1  UNL     1      16.620 -16.905  23.649  1.00  0.00     0.012 C 
HETATM    2  C2  UNL     1      15.954 -16.931  22.635  1.00  0.00    -0.110 C 
HETATM    3  C3  UNL     1      15.144 -16.942  21.431  1.00  0.00     0.168 C 
ENDROOT
BRANCH   3   4
HETATM    4  C4  UNL     1      14.058 -15.932  21.461  1.00  0.00     0.083 C 
HETATM    5  N1  UNL     1      14.328 -14.745  21.796  1.00  0.00    -0.378 N 
ATOM      6  H1  UNL     1      15.303 -14.560  22.028  1.00  0.00     0.160 HD
BRANCH   5   7
HETATM    7  C5  UNL     1      13.445 -13.631  21.891  1.00  0.00     0.149 C 
BRANCH   7   8
HETATM    8  C6  UNL     1      13.274 -12.884  20.599  1.00  0.00     0.269 C 
BRANCH   8   9
HETATM    9  N2  UNL     1      13.661 -11.513  20.632  1.00  0.00     0.015 N 
HETATM   10  C7  UNL     1      13.806 -10.915  19.294  1.00  0.00     0.286 C 
HETATM   11  C8  UNL     1      13.051 -10.654  21.562  1.00  0.00     0.299 C 
HETATM   12  N3  UNL     1      11.963 -10.482  22.158  1.00  0.00    -0.251 N 
HETATM   13  N6  UNL     1      14.267  -9.946  21.591  1.00  0.00    -0.325 N 
ATOM     14  H3  UNL     1      11.217 -11.147  21.956  1.00  0.00     0.191 HD
HETATM   15  C9  UNL     1      14.890 -11.240  21.351  1.00  0.00     0.318 C 
ATOM     16  H6  UNL     1      14.569  -8.981  21.720  1.00  0.00     0.164 HD
BRANCH  12  17
HETATM   17  N4  UNL     1      11.674  -9.475  23.067  1.00  0.00    -0.247 N 
HETATM   18  N5  UNL     1      11.052  -9.748  24.115  1.00  0.00    -0.331 N 
ATOM     19  H52 UNL     1      10.766 -10.712  24.287  1.00  0.00     0.178 HD
ATOM     20  H51 UNL     1      10.839  -9.007  24.783  1.00  0.00     0.178 HD
ATOM     21  H4  UNL     1      11.966  -8.516  22.879  1.00  0.00     0.207 HD
ENDBRANCH  12  17
BRANCH  15  22
HETATM   22  C10 UNL     1      16.180 -11.245  20.680  1.00  0.00     0.178 C 
BRANCH  22  23
HETATM   23  N7  UNL     1      17.240 -11.757  21.516  1.00  0.00    -0.354 N 
HETATM   24  C11 UNL     1      17.599 -13.141  21.503  1.00  0.00     0.241 C 
HETATM   25  O1  UNL     1      16.966 -13.908  20.739  1.00  0.00    -0.269 OA
ATOM     26  H7  UNL     1      17.744 -11.117  22.130  1.00  0.00     0.162 HD
BRANCH  24  27
HETATM   27  C12 UNL     1      18.655 -13.712  22.322  1.00  0.00     0.075 C 
HETATM   28  C13 UNL     1      18.609 -13.833  23.619  1.00  0.00     0.018 C 
BRANCH  28  29
HETATM   29  C14 UNL     1      19.663 -14.401  24.417  1.00  0.00    -0.020 A 
HETATM   30  C15 UNL     1      19.757 -13.955  25.739  1.00  0.00     0.014 A 
HETATM   31  C16 UNL     1      20.750 -14.477  26.525  1.00  0.00     0.018 A 
HETATM   32  C17 UNL     1      21.640 -15.412  26.054  1.00  0.00     0.091 A 
HETATM   33  N8  UNL     1      21.543 -15.834  24.786  1.00  0.00    -0.355 N 
HETATM   34  C21 UNL     1      20.568 -15.330  23.990  1.00  0.00     0.102 A 
BRANCH  33  35
HETATM   35  C18 UNL     1      22.446 -16.816  24.222  1.00  0.00     0.220 C 
HETATM   36  C19 UNL     1      23.729 -16.211  23.915  1.00  0.00    -0.097 C 
HETATM   37  C20 UNL     1      24.799 -15.714  23.644  1.00  0.00     0.014 C 
ENDBRANCH  33  35
ENDBRANCH  28  29
ENDBRANCH  24  27
ENDBRANCH  22  23
ENDBRANCH  15  22
ENDBRANCH   8   9
ENDBRANCH   7   8
ENDBRANCH   5   7
BRANCH   4  38
HETATM   38  N9  UNL     1      12.746 -16.339  21.108  1.00  0.00    -0.384 N 
HETATM   39  C22 UNL     1      12.337 -16.561  19.735  1.00  0.00     0.147 C 
ATOM     40  H9  UNL     1      12.062 -16.482  21.850  1.00  0.00     0.160 HD
ENDBRANCH   4  38
ENDBRANCH   3   4
TORSDOF 11
ENDMDL
MODEL 3
REMARK VINA RESULT: -7.342376567      1.255      1.591
REMARK  11 active torsions:
REMARK  status: ('A' for Active; 'I' for Inactive)
REMARK    1  A    between atoms: C3_3  and  C4_4 
REMARK    2  A    between atoms: C4_4  and  N9_38 
REMARK    3  A    between atoms: N1_5  and  C5_7 
REMARK    4  A    between atoms: C5_7  and  C6_8 
REMARK    5  A    between atoms: C6_8  and  N2_9 
REMARK    6  A    between atoms: N3_12  and  N4_14 
REMARK    7  A    between atoms: C9_21  and  C10_22 
REMARK    8  A    between atoms: C10_22  and  N7_23 
REMARK       I    between atoms: N7_23  and  C11_25 
REMARK    9  A    between atoms: C11_25  and  C12_27 
REMARK   10  A    between atoms: C13_28  and  C14_29 
REMARK   11  A    between atoms: N8_33  and  C18_34 
ROOT
HETATM    1  C1  UNL     1      17.267 -16.606  23.113  1.00  0.00     0.012 C 
HETATM    2  C2  UNL     1      16.450 -16.661  22.218  1.00  0.00    -0.110 C 
HETATM    3  C3  UNL     1      15.461 -16.708  21.157  1.00  0.00     0.168 C 
ENDROOT
BRANCH   3   4
HETATM    4  C4  UNL     1      14.350 -15.746  21.366  1.00  0.00     0.083 C 
HETATM    5  N1  UNL     1      14.619 -14.541  21.632  1.00  0.00    -0.378 N 
ATOM      6  H1  UNL     1      15.610 -14.308  21.685  1.00  0.00     0.160 HD
BRANCH   5   7
HETATM    7  C5  UNL     1      13.714 -13.466  21.868  1.00  0.00     0.149 C 
BRANCH   7   8
HETATM    8  C6  UNL     1      13.329 -12.717  20.624  1.00  0.00     0.269 C 
BRANCH   8   9
HETATM    9  N2  UNL     1      13.641 -11.326  20.629  1.00  0.00     0.015 N 
HETATM   10  C7  UNL     1      13.607 -10.716  19.290  1.00  0.00     0.286 C 
HETATM   11  C8  UNL     1      13.088 -10.507  21.628  1.00  0.00     0.299 C 
HETATM   12  N3  UNL     1      12.063 -10.399  22.340  1.00  0.00    -0.251 N 
HETATM   13  N6  UNL     1      14.259  -9.732  21.533  1.00  0.00    -0.325 N 
ATOM     14  H3  UNL     1      11.338 -11.104  22.212  1.00  0.00     0.191 HD
HETATM   15  C9  UNL     1      14.923 -10.988  21.215  1.00  0.00     0.318 C 
ATOM     16  H6  UNL     1      14.520  -8.752  21.639  1.00  0.00     0.164 HD
BRANCH  12  17
HETATM   17  N4  UNL     1      11.818  -9.413  23.284  1.00  0.00    -0.247 N 
HETATM   18  N5  UNL     1      11.016  -9.635  24.216  1.00  0.00    -0.331 N 
ATOM     19  H52 UNL     1      10.552 -10.542  24.267  1.00  0.00     0.178 HD
ATOM     20  H51 UNL     1      10.836  -8.910  24.910  1.00  0.00     0.178 HD
ATOM     21  H4  UNL     1      12.290  -8.511  23.218  1.00  0.00     0.207 HD
ENDBRANCH  12  17
BRANCH  15  22
HETATM   22  C10 UNL     1      16.132 -10.918  20.409  1.00  0.00     0.178 C 
BRANCH  22  23
HETATM   23  N7  UNL     1      17.284 -11.466  21.084  1.00  0.00    -0.354 N 
HETATM   24  C11 UNL     1      17.668 -12.833  20.914  1.00  0.00     0.241 C 
HETATM   25  O1  UNL     1      16.975 -13.551  20.155  1.00  0.00    -0.269 OA
ATOM     26  H7  UNL     1      17.835 -10.866  21.697  1.00  0.00     0.162 HD
BRANCH  24  27
HETATM   27  C12 UNL     1      18.816 -13.439  21.568  1.00  0.00     0.075 C 
HETATM   28  C13 UNL     1      19.093 -13.332  22.838  1.00  0.00     0.018 C 
BRANCH  28  29
HETATM   29  C14 UNL     1      20.233 -13.939  23.471  1.00  0.00    -0.020 A 
HETATM   30  C15 UNL     1      20.995 -13.117  24.307  1.00  0.00     0.014 A 
HETATM   31  C16 UNL     1      22.088 -13.664  24.926  1.00  0.00     0.018 A 
HETATM   32  C17 UNL     1      22.446 -14.979  24.747  1.00  0.00     0.091 A 
HETATM   33  N8  UNL     1      21.711 -15.760  23.946  1.00  0.00    -0.355 N 
HETATM   34  C21 UNL     1      20.625 -15.238  23.322  1.00  0.00     0.102 A 
BRANCH  33  35
HETATM   35  C18 UNL     1      22.029 -17.154  23.711  1.00  0.00     0.220 C 
HETATM   36  C19 UNL     1      21.839 -17.490  22.312  1.00  0.00    -0.097 C 
HETATM   37  C20 UNL     1      21.672 -17.785  21.150  1.00  0.00     0.014 C 
ENDBRANCH  33  35
ENDBRANCH  28  29
ENDBRANCH  24  27
ENDBRANCH  22  23
ENDBRANCH  15  22
ENDBRANCH   8   9
ENDBRANCH   7   8
ENDBRANCH   5   7
BRANCH   4  38
HETATM   38  N9  UNL     1      13.017 -16.219  21.256  1.00  0.00    -0.384 N 
HETATM   39  C22 UNL     1      12.337 -16.359  19.985  1.00  0.00     0.147 C 
ATOM     40  H9  UNL     1      12.516 -16.471  22.109  1.00  0.00     0.160 HD
ENDBRANCH   4  38
ENDBRANCH   3   4
TORSDOF 11
ENDMDL
MODEL 4
REMARK VINA RESULT: -7.302972164      3.462      8.558
REMARK  11 active torsions:
REMARK  status: ('A' for Active; 'I' for Inactive)
REMARK    1  A    between atoms: C3_3  and  C4_4 
REMARK    2  A    between atoms: C4_4  and  N9_38 
REMARK    3  A    between atoms: N1_5  and  C5_7 
REMARK    4  A    between atoms: C5_7  and  C6_8 
REMARK    5  A    between atoms: C6_8  and  N2_9 
REMARK    6  A    between atoms: N3_12  and  N4_14 
REMARK    7  A    between atoms: C9_21  and  C10_22 
REMARK    8  A    between atoms: C10_22  and  N7_23 
REMARK       I    between atoms: N7_23  and  C11_25 
REMARK    9  A    between atoms: C11_25  and  C12_27 
REMARK   10  A    between atoms: C13_28  and  C14_29 
REMARK   11  A    between atoms: N8_33  and  C18_34 
ROOT
HETATM    1  C1  UNL     1      20.952 -12.361  26.007  1.00  0.00     0.012 C 
HETATM    2  C2  UNL     1      20.524 -12.756  24.942  1.00  0.00    -0.110 C 
HETATM    3  C3  UNL     1      19.995 -13.240  23.681  1.00  0.00     0.168 C 
ENDROOT
BRANCH   3   4
HETATM    4  C4  UNL     1      18.900 -14.225  23.859  1.00  0.00     0.083 C 
HETATM    5  N1  UNL     1      19.070 -15.202  24.640  1.00  0.00    -0.378 N 
ATOM      6  H1  UNL     1      19.974 -15.245  25.108  1.00  0.00     0.160 HD
BRANCH   5   7
HETATM    7  C5  UNL     1      18.159 -16.253  24.953  1.00  0.00     0.149 C 
BRANCH   7   8
HETATM    8  C6  UNL     1      18.442 -17.535  24.223  1.00  0.00     0.269 C 
BRANCH   8   9
HETATM    9  N2  UNL     1      17.350 -18.448  24.151  1.00  0.00     0.015 N 
HETATM   10  C7  UNL     1      17.448 -19.385  23.020  1.00  0.00     0.286 C 
HETATM   11  C8  UNL     1      16.884 -19.049  25.332  1.00  0.00     0.299 C 
HETATM   12  N3  UNL     1      17.292 -19.444  26.449  1.00  0.00    -0.251 N 
HETATM   13  N6  UNL     1      15.610 -19.058  24.735  1.00  0.00    -0.325 N 
ATOM     14  H3  UNL     1      18.286 -19.325  26.644  1.00  0.00     0.191 HD
HETATM   15  C9  UNL     1      16.039 -17.832  24.076  1.00  0.00     0.318 C 
ATOM     16  H6  UNL     1      14.777 -19.646  24.754  1.00  0.00     0.164 HD
BRANCH  12  17
HETATM   17  N4  UNL     1      16.525 -20.027  27.446  1.00  0.00    -0.247 N 
HETATM   18  N5  UNL     1      17.054 -20.330  28.536  1.00  0.00    -0.331 N 
ATOM     19  H52 UNL     1      18.047 -20.142  28.676  1.00  0.00     0.178 HD
ATOM     20  H51 UNL     1      16.489 -20.760  29.269  1.00  0.00     0.178 HD
ATOM     21  H4  UNL     1      15.533 -20.209  27.289  1.00  0.00     0.207 HD
ENDBRANCH  12  17
BRANCH  15  22
HETATM   22  C10 UNL     1      15.423 -17.509  22.799  1.00  0.00     0.178 C 
BRANCH  22  23
HETATM   23  N7  UNL     1      14.944 -16.149  22.742  1.00  0.00    -0.354 N 
HETATM   24  C11 UNL     1      13.771 -15.802  22.001  1.00  0.00     0.241 C 
HETATM   25  O1  UNL     1      13.161 -16.717  21.398  1.00  0.00    -0.269 OA
ATOM     26  H7  UNL     1      15.453 -15.419  23.240  1.00  0.00     0.162 HD
BRANCH  24  27
HETATM   27  C12 UNL     1      13.242 -14.451  21.907  1.00  0.00     0.075 C 
HETATM   28  C13 UNL     1      13.964 -13.366  21.920  1.00  0.00     0.018 C 
BRANCH  28  29
HETATM   29  C14 UNL     1      13.426 -12.035  21.825  1.00  0.00    -0.020 A 
HETATM   30  C15 UNL     1      13.746 -11.312  20.672  1.00  0.00     0.014 A 
HETATM   31  C16 UNL     1      13.249 -10.040  20.551  1.00  0.00     0.018 A 
HETATM   32  C17 UNL     1      12.457  -9.471  21.519  1.00  0.00     0.091 A 
HETATM   33  N8  UNL     1      12.156 -10.170  22.620  1.00  0.00    -0.355 N 
HETATM   34  C21 UNL     1      12.638 -11.430  22.761  1.00  0.00     0.102 A 
BRANCH  33  35
HETATM   35  C18 UNL     1      11.328  -9.633  23.681  1.00  0.00     0.220 C 
HETATM   36  C19 UNL     1      11.830  -8.343  24.114  1.00  0.00    -0.097 C 
HETATM   37  C20 UNL     1      12.247  -7.271  24.493  1.00  0.00     0.014 C 
ENDBRANCH  33  35
ENDBRANCH  28  29
ENDBRANCH  24  27
ENDBRANCH  22  23
ENDBRANCH  15  22
ENDBRANCH   8   9
ENDBRANCH   7   8
ENDBRANCH   5   7
BRANCH   4  38
HETATM   38  N9  UNL     1      17.692 -14.031  23.140  1.00  0.00    -0.384 N 
HETATM   39  C22 UNL     1      17.604 -13.182  21.970  1.00  0.00     0.147 C 
ATOM     40  H9  UNL     1      16.850 -14.510  23.461  1.00  0.00     0.160 HD
ENDBRANCH   4  38
ENDBRANCH   3   4
TORSDOF 11
ENDMDL
MODEL 5
REMARK VINA RESULT: -7.226397179      1.425      2.463
REMARK  11 active torsions:
REMARK  status: ('A' for Active; 'I' for Inactive)
REMARK    1  A    between atoms: C3_3  and  C4_4 
REMARK    2  A    between atoms: C4_4  and  N9_38 
REMARK    3  A    between atoms: N1_5  and  C5_7 
REMARK    4  A    between atoms: C5_7  and  C6_8 
REMARK    5  A    between atoms: C6_8  and  N2_9 
REMARK    6  A    between atoms: N3_12  and  N4_14 
REMARK    7  A    between atoms: C9_21  and  C10_22 
REMARK    8  A    between atoms: C10_22  and  N7_23 
REMARK       I    between atoms: N7_23  and  C11_25 
REMARK    9  A    between atoms: C11_25  and  C12_27 
REMARK   10  A    between atoms: C13_28  and  C14_29 
REMARK   11  A    between atoms: N8_33  and  C18_34 
ROOT
HETATM    1  C1  UNL     1      16.742 -17.158  23.745  1.00  0.00     0.012 C 
HETATM    2  C2  UNL     1      16.283 -16.896  22.653  1.00  0.00    -0.110 C 
HETATM    3  C3  UNL     1      15.717 -16.568  21.358  1.00  0.00     0.168 C 
ENDROOT
BRANCH   3   4
HETATM    4  C4  UNL     1      14.471 -15.770  21.462  1.00  0.00     0.083 C 
HETATM    5  N1  UNL     1      14.544 -14.549  21.777  1.00  0.00    -0.378 N 
ATOM      6  H1  UNL     1      15.483 -14.188  21.940  1.00  0.00     0.160 HD
BRANCH   5   7
HETATM    7  C5  UNL     1      13.482 -13.611  21.931  1.00  0.00     0.149 C 
BRANCH   7   8
HETATM    8  C6  UNL     1      13.167 -12.843  20.680  1.00  0.00     0.269 C 
BRANCH   8   9
HETATM    9  N2  UNL     1      13.555 -11.472  20.693  1.00  0.00     0.015 N 
HETATM   10  C7  UNL     1      13.716 -10.898  19.346  1.00  0.00     0.286 C 
HETATM   11  C8  UNL     1      12.935 -10.596  21.600  1.00  0.00     0.299 C 
HETATM   12  N3  UNL     1      11.841 -10.413  22.181  1.00  0.00    -0.251 N 
HETATM   13  N6  UNL     1      14.151  -9.888  21.631  1.00  0.00    -0.325 N 
ATOM     14  H3  UNL     1      11.097 -11.081  21.982  1.00  0.00     0.191 HD
HETATM   15  C9  UNL     1      14.776 -11.187  21.421  1.00  0.00     0.318 C 
ATOM     16  H6  UNL     1      14.453  -8.921  21.746  1.00  0.00     0.164 HD
BRANCH  12  17
HETATM   17  N4  UNL     1      11.542  -9.389  23.068  1.00  0.00    -0.247 N 
HETATM   18  N5  UNL     1      11.099  -9.664  24.203  1.00  0.00    -0.331 N 
ATOM     19  H52 UNL     1      10.963 -10.642  24.460  1.00  0.00     0.178 HD
ATOM     20  H51 UNL     1      10.879  -8.911  24.855  1.00  0.00     0.178 HD
ATOM     21  H4  UNL     1      11.683  -8.416  22.795  1.00  0.00     0.207 HD
ENDBRANCH  12  17
BRANCH  15  22
HETATM   22  C10 UNL     1      16.074 -11.205  20.765  1.00  0.00     0.178 C 
BRANCH  22  23
HETATM   23  N7  UNL     1      17.001 -12.118  21.390  1.00  0.00    -0.354 N 
HETATM   24  C11 UNL     1      18.271 -12.412  20.802  1.00  0.00     0.241 C 
HETATM   25  O1  UNL     1      18.564 -11.850  19.720  1.00  0.00    -0.269 OA
ATOM     26  H7  UNL     1      16.744 -12.564  22.271  1.00  0.00     0.162 HD
BRANCH  24  27
HETATM   27  C12 UNL     1      19.243 -13.322  21.386  1.00  0.00     0.075 C 
HETATM   28  C13 UNL     1      18.951 -14.455  21.959  1.00  0.00     0.018 C 
BRANCH  28  29
HETATM   29  C14 UNL     1      19.925 -15.346  22.532  1.00  0.00    -0.020 A 
HETATM   30  C15 UNL     1      20.273 -16.466  21.770  1.00  0.00     0.014 A 
HETATM   31  C16 UNL     1      21.198 -17.334  22.287  1.00  0.00     0.018 A 
HETATM   32  C17 UNL     1      21.782 -17.134  23.515  1.00  0.00     0.091 A 
HETATM   33  N8  UNL     1      21.443 -16.059  24.239  1.00  0.00    -0.355 N 
HETATM   34  C21 UNL     1      20.528 -15.187  23.746  1.00  0.00     0.102 A 
BRANCH  33  35
HETATM   35  C18 UNL     1      22.016 -15.785  25.540  1.00  0.00     0.220 C 
HETATM   36  C19 UNL     1      21.251 -14.761  26.227  1.00  0.00    -0.097 C 
HETATM   37  C20 UNL     1      20.628 -13.898  26.805  1.00  0.00     0.014 C 
ENDBRANCH  33  35
ENDBRANCH  28  29
ENDBRANCH  24  27
ENDBRANCH  22  23
ENDBRANCH  15  22
ENDBRANCH   8   9
ENDBRANCH   7   8
ENDBRANCH   5   7
BRANCH   4  38
HETATM   38  N9  UNL     1      13.233 -16.412  21.202  1.00  0.00    -0.384 N 
HETATM   39  C22 UNL     1      13.140 -17.799  20.795  1.00  0.00     0.147 C 
ATOM     40  H9  UNL     1      12.372 -15.874  21.305  1.00  0.00     0.160 HD
ENDBRANCH   4  38
ENDBRANCH   3   4
TORSDOF 11
ENDMDL
