MODEL 1
REMARK VINA RESULT: -8.293198353      0.000      0.000
REMARK  11 active torsions:
REMARK  status: ('A' for Active; 'I' for Inactive)
REMARK    1  A    between atoms: N1_3  and  C3_4 
REMARK    2  A    between atoms: C3_4  and  C4_5 
REMARK    3  A    between atoms: C4_5  and  C5_6 
REMARK    4  A    between atoms: C5_6  and  C6_7 
REMARK    5  A    between atoms: N2_10  and  C9_11 
REMARK    6  A    between atoms: C9_11  and  C10_12 
REMARK    7  A    between atoms: C10_12  and  C11_13 
REMARK    8  A    between atoms: C11_13  and  C12_14 
REMARK    9  A    between atoms: C12_14  and  N3_15 
REMARK   10  A    between atoms: C15_18  and  C16_19 
REMARK   11  A    between atoms: C20_26  and  N4_27 
ROOT
HETATM    1  C6  UNL     1      17.378 -13.669  21.446  1.00  0.00     0.012 C 
HETATM    2  C7  UNL     1      17.060 -14.966  21.098  1.00  0.00     0.042 C 
HETATM    3  C8  UNL     1      17.802 -16.146  21.215  1.00  0.00     0.096 C 
HETATM    4  N2  UNL     1      19.018 -16.315  21.759  1.00  0.00    -0.321 N 
HETATM    5  C19 UNL     1      19.883 -15.334  22.075  1.00  0.00     0.291 C 
HETATM    6  O3  UNL     1      20.982 -15.782  22.513  1.00  0.00    -0.264 OA
HETATM    7  C20 UNL     1      19.734 -13.958  21.991  1.00  0.00     0.169 C 
HETATM    8  N5  UNL     1      18.642 -13.231  21.701  1.00  0.00    -0.342 N 
ATOM      9  H5  UNL     1      18.776 -12.221  21.669  1.00  0.00     0.167 HD
ENDROOT
BRANCH   1  10
HETATM   10  C5  UNL     1      16.288 -12.665  21.558  1.00  0.00     0.059 C 
BRANCH  10  11
HETATM   11  C4  UNL     1      15.039 -13.133  20.846  1.00  0.00     0.026 C 
BRANCH  11  12
HETATM   12  C3  UNL     1      14.214 -11.957  20.407  1.00  0.00     0.131 C 
BRANCH  12  13
HETATM   13  N1  UNL     1      13.339 -11.568  21.466  1.00  0.00    -0.332 N 
HETATM   14  C2  UNL     1      13.216 -10.317  21.904  1.00  0.00     0.098 A 
HETATM   15  C1  UNL     1      14.023  -9.235  21.287  1.00  0.00     0.090 C 
HETATM   16  N8  UNL     1      12.370 -10.016  22.904  1.00  0.00    -0.177 N 
HETATM   17  C22 UNL     1      11.622 -10.975  23.491  1.00  0.00     0.679 A 
HETATM   18  C23 UNL     1      12.222  -8.672  23.393  1.00  0.00     0.177 C 
HETATM   19  N6  UNL     1      11.741 -12.238  23.053  1.00  0.00    -0.188 N 
HETATM   20  N7  UNL     1      10.805 -10.720  24.448  1.00  0.00    -0.234 N 
HETATM   21  C21 UNL     1      12.586 -12.533  22.057  1.00  0.00     0.201 A 
ATOM     22  H6  UNL     1      11.185 -12.977  23.481  1.00  0.00     0.185 HD
ATOM     23  H72 UNL     1      10.240 -11.445  24.891  1.00  0.00     0.174 HD
ATOM     24  H71 UNL     1      10.714  -9.761  24.781  1.00  0.00     0.174 HD
ENDBRANCH  12  13
ENDBRANCH  11  12
ENDBRANCH  10  11
ENDBRANCH   1  10
BRANCH   7  25
HETATM   25  N4  UNL     1      20.831 -13.310  22.232  1.00  0.00    -0.381 N 
ATOM     26  H42 UNL     1      20.742 -12.361  22.595  1.00  0.00     0.157 HD
ATOM     27  H41 UNL     1      21.670 -13.850  22.022  1.00  0.00     0.157 HD
ENDBRANCH   7  25
BRANCH   4  28
HETATM   28  C9  UNL     1      19.455 -17.696  22.038  1.00  0.00     0.132 C 
BRANCH  28  29
HETATM   29  C10 UNL     1      18.459 -18.416  22.882  1.00  0.00     0.022 C 
BRANCH  29  30
HETATM   30  C11 UNL     1      19.097 -18.827  24.179  1.00  0.00     0.022 C 
BRANCH  30  31
HETATM   31  C12 UNL     1      18.349 -18.184  25.321  1.00  0.00     0.128 C 
BRANCH  31  32
HETATM   32  N3  UNL     1      18.972 -16.863  25.527  1.00  0.00    -0.366 N 
HETATM   33  C13 UNL     1      18.288 -15.723  25.333  1.00  0.00     0.091 A 
HETATM   34  C14 UNL     1      18.853 -14.476  25.521  1.00  0.00     0.035 A 
HETATM   35  C15 UNL     1      20.167 -14.363  25.922  1.00  0.00     0.043 A 
HETATM   36  C17 UNL     1      20.867 -15.535  26.120  1.00  0.00     0.035 A 
HETATM   37  C18 UNL     1      20.254 -16.758  25.919  1.00  0.00     0.091 A 
BRANCH  35  38
HETATM   38  C16 UNL     1      20.771 -13.049  26.123  1.00  0.00     0.209 C 
HETATM   39  O1  UNL     1      20.891 -12.517  27.238  1.00  0.00    -0.644 OA
HETATM   40  O2  UNL     1      21.241 -12.348  25.022  1.00  0.00    -0.644 OA
ENDBRANCH  35  38
ENDBRANCH  31  32
ENDBRANCH  30  31
ENDBRANCH  29  30
ENDBRANCH  28  29
ENDBRANCH   4  28
TORSDOF 11
ENDMDL
MODEL 2
REMARK VINA RESULT: -8.085300549      2.724      4.035
REMARK  11 active torsions:
REMARK  status: ('A' for Active; 'I' for Inactive)
REMARK    1  A    between atoms: N1_3  and  C3_4 
REMARK    2  A    between atoms: C3_4  and  C4_5 
REMARK    3  A    between atoms: C4_5  and  C5_6 
REMARK    4  A    between atoms: C5_6  and  C6_7 
REMARK    5  A    between atoms: N2_10  and  C9_11 
REMARK    6  A    between atoms: C9_11  and  C10_12 
REMARK    7  A    between atoms: C10_12  and  C11_13 
REMARK    8  A    between atoms: C11_13  and  C12_14 
REMARK    9  A    between atoms: C12_14  and  N3_15 
REMARK   10  A    between atoms: C15_18  and  C16_19 
REMARK   11  A    between atoms: C20_26  and  N4_27 
ROOT
HETATM    1  C6  UNL     1      17.063 -12.461  20.522  1.00  0.00     0.012 C 
HETATM    2  C7  UNL     1      16.823 -13.478  21.423  1.00  0.00     0.042 C 
HETATM    3  C8  UNL     1      17.693 -14.149  22.289  1.00  0.00     0.096 C 
HETATM    4  N2  UNL     1      19.001 -13.923  22.496  1.00  0.00    -0.321 N 
HETATM    5  C19 UNL     1      19.801 -13.166  21.723  1.00  0.00     0.291 C 
HETATM    6  O3  UNL     1      21.003 -13.180  22.116  1.00  0.00    -0.264 OA
HETATM    7  C20 UNL     1      19.496 -12.407  20.605  1.00  0.00     0.169 C 
HETATM    8  N5  UNL     1      18.299 -12.110  20.071  1.00  0.00    -0.342 N 
ATOM      9  H5  UNL     1      18.318 -11.551  19.219  1.00  0.00     0.167 HD
ENDROOT
BRANCH   1  10
HETATM   10  C5  UNL     1      15.913 -11.679  19.995  1.00  0.00     0.059 C 
BRANCH  10  11
HETATM   11  C4  UNL     1      14.597 -12.274  20.440  1.00  0.00     0.026 C 
BRANCH  11  12
HETATM   12  C3  UNL     1      13.471 -11.319  20.166  1.00  0.00     0.131 C 
BRANCH  12  13
HETATM   13  N1  UNL     1      12.799 -11.013  21.389  1.00  0.00    -0.332 N 
HETATM   14  C2  UNL     1      12.898  -9.843  22.016  1.00  0.00     0.098 A 
HETATM   15  C1  UNL     1      13.751  -8.770  21.447  1.00  0.00     0.090 C 
HETATM   16  N8  UNL     1      12.237  -9.618  23.164  1.00  0.00    -0.177 N 
HETATM   17  C22 UNL     1      11.454 -10.572  23.712  1.00  0.00     0.679 A 
HETATM   18  C23 UNL     1      12.329  -8.362  23.857  1.00  0.00     0.177 C 
HETATM   19  N6  UNL     1      11.350 -11.753  23.084  1.00  0.00    -0.188 N 
HETATM   20  N7  UNL     1      10.809 -10.388  24.806  1.00  0.00    -0.234 N 
HETATM   21  C21 UNL     1      12.012 -11.974  21.941  1.00  0.00     0.201 A 
ATOM     22  H6  UNL     1      10.764 -12.487  23.479  1.00  0.00     0.185 HD
ATOM     23  H72 UNL     1      10.218 -11.108  25.220  1.00  0.00     0.174 HD
ATOM     24  H71 UNL     1      10.888  -9.490  25.283  1.00  0.00     0.174 HD
ENDBRANCH  12  13
ENDBRANCH  11  12
ENDBRANCH  10  11
ENDBRANCH   1  10
BRANCH   7  25
HETATM   25  N4  UNL     1      20.545 -11.929  20.011  1.00  0.00    -0.381 N 
ATOM     26  H42 UNL     1      21.077 -12.567  19.419  1.00  0.00     0.157 HD
ATOM     27  H41 UNL     1      20.709 -10.944  20.217  1.00  0.00     0.157 HD
ENDBRANCH   7  25
BRANCH   4  28
HETATM   28  C9  UNL     1      19.624 -14.556  23.674  1.00  0.00     0.132 C 
BRANCH  28  29
HETATM   29  C10 UNL     1      18.786 -14.369  24.892  1.00  0.00     0.022 C 
BRANCH  29  30
HETATM   30  C11 UNL     1      18.802 -15.626  25.717  1.00  0.00     0.022 C 
BRANCH  30  31
HETATM   31  C12 UNL     1      19.057 -16.805  24.812  1.00  0.00     0.128 C 
BRANCH  31  32
HETATM   32  N3  UNL     1      17.798 -17.572  24.773  1.00  0.00    -0.366 N 
HETATM   33  C13 UNL     1      16.823 -17.283  23.895  1.00  0.00     0.091 A 
HETATM   34  C14 UNL     1      15.637 -17.990  23.842  1.00  0.00     0.035 A 
HETATM   35  C15 UNL     1      15.414 -19.037  24.710  1.00  0.00     0.043 A 
HETATM   36  C17 UNL     1      16.416 -19.332  25.610  1.00  0.00     0.035 A 
HETATM   37  C18 UNL     1      17.585 -18.594  25.622  1.00  0.00     0.091 A 
BRANCH  35  38
HETATM   38  C16 UNL     1      14.163 -19.789  24.661  1.00  0.00     0.209 C 
HETATM   39  O1  UNL     1      13.841 -20.635  25.510  1.00  0.00    -0.644 OA
HETATM   40  O2  UNL     1      13.278 -19.557  23.618  1.00  0.00    -0.644 OA
ENDBRANCH  35  38
ENDBRANCH  31  32
ENDBRANCH  30  31
ENDBRANCH  29  30
ENDBRANCH  28  29
ENDBRANCH   4  28
TORSDOF 11
ENDMDL
MODEL 3
REMARK VINA RESULT: -7.884005208      1.587      3.460
REMARK  11 active torsions:
REMARK  status: ('A' for Active; 'I' for Inactive)
REMARK    1  A    between atoms: N1_3  and  C3_4 
REMARK    2  A    between atoms: C3_4  and  C4_5 
REMARK    3  A    between atoms: C4_5  and  C5_6 
REMARK    4  A    between atoms: C5_6  and  C6_7 
REMARK    5  A    between atoms: N2_10  and  C9_11 
REMARK    6  A    between atoms: C9_11  and  C10_12 
REMARK    7  A    between atoms: C10_12  and  C11_13 
REMARK    8  A    between atoms: C11_13  and  C12_14 
REMARK    9  A    between atoms: C12_14  and  N3_15 
REMARK   10  A    between atoms: C15_18  and  C16_19 
REMARK   11  A    between atoms: C20_26  and  N4_27 
ROOT
HETATM    1  C6  UNL     1      17.578 -13.855  21.393  1.00  0.00     0.012 C 
HETATM    2  C7  UNL     1      18.084 -12.977  22.329  1.00  0.00     0.042 C 
HETATM    3  C8  UNL     1      19.263 -13.027  23.079  1.00  0.00     0.096 C 
HETATM    4  N2  UNL     1      20.243 -13.945  23.030  1.00  0.00    -0.321 N 
HETATM    5  C19 UNL     1      20.169 -15.144  22.425  1.00  0.00     0.291 C 
HETATM    6  O3  UNL     1      21.217 -15.833  22.591  1.00  0.00    -0.264 OA
HETATM    7  C20 UNL     1      19.143 -15.700  21.678  1.00  0.00     0.169 C 
HETATM    8  N5  UNL     1      18.003 -15.140  21.239  1.00  0.00    -0.342 N 
ATOM      9  H5  UNL     1      17.375 -15.756  20.723  1.00  0.00     0.167 HD
ENDROOT
BRANCH   1  10
HETATM   10  C5  UNL     1      16.499 -13.394  20.481  1.00  0.00     0.059 C 
BRANCH  10  11
HETATM   11  C4  UNL     1      16.038 -12.000  20.840  1.00  0.00     0.026 C 
BRANCH  11  12
HETATM   12  C3  UNL     1      14.716 -11.702  20.192  1.00  0.00     0.131 C 
BRANCH  12  13
HETATM   13  N1  UNL     1      13.708 -11.592  21.198  1.00  0.00    -0.332 N 
HETATM   14  C2  UNL     1      13.303 -10.435  21.718  1.00  0.00     0.098 A 
HETATM   15  C1  UNL     1      13.914  -9.164  21.257  1.00  0.00     0.090 C 
HETATM   16  N8  UNL     1      12.346 -10.400  22.661  1.00  0.00    -0.177 N 
HETATM   17  C22 UNL     1      11.770 -11.537  23.107  1.00  0.00     0.679 A 
HETATM   18  C23 UNL     1      11.894  -9.162  23.235  1.00  0.00     0.177 C 
HETATM   19  N6  UNL     1      12.174 -12.706  22.586  1.00  0.00    -0.188 N 
HETATM   20  N7  UNL     1      10.854 -11.537  24.005  1.00  0.00    -0.234 N 
HETATM   21  C21 UNL     1      13.128 -12.737  21.647  1.00  0.00     0.201 A 
ATOM     22  H6  UNL     1      11.751 -13.577  22.907  1.00  0.00     0.185 HD
ATOM     23  H72 UNL     1      10.419 -12.396  24.342  1.00  0.00     0.174 HD
ATOM     24  H71 UNL     1      10.547 -10.649  24.401  1.00  0.00     0.174 HD
ENDBRANCH  12  13
ENDBRANCH  11  12
ENDBRANCH  10  11
ENDBRANCH   1  10
BRANCH   7  25
HETATM   25  N4  UNL     1      19.347 -16.944  21.376  1.00  0.00    -0.381 N 
ATOM     26  H42 UNL     1      20.298 -17.299  21.479  1.00  0.00     0.157 HD
ATOM     27  H41 UNL     1      18.504 -17.425  21.065  1.00  0.00     0.157 HD
ENDBRANCH   7  25
BRANCH   4  28
HETATM   28  C9  UNL     1      21.518 -13.617  23.695  1.00  0.00     0.132 C 
BRANCH  28  29
HETATM   29  C10 UNL     1      21.287 -12.882  24.972  1.00  0.00     0.022 C 
BRANCH  29  30
HETATM   30  C11 UNL     1      21.524 -13.802  26.136  1.00  0.00     0.022 C 
BRANCH  30  31
HETATM   31  C12 UNL     1      20.204 -14.106  26.801  1.00  0.00     0.128 C 
BRANCH  31  32
HETATM   32  N3  UNL     1      19.699 -15.338  26.169  1.00  0.00    -0.366 N 
HETATM   33  C13 UNL     1      20.463 -16.438  26.060  1.00  0.00     0.091 A 
HETATM   34  C14 UNL     1      20.009 -17.603  25.471  1.00  0.00     0.035 A 
HETATM   35  C15 UNL     1      18.729 -17.672  24.965  1.00  0.00     0.043 A 
HETATM   36  C17 UNL     1      17.947 -16.541  25.078  1.00  0.00     0.035 A 
HETATM   37  C18 UNL     1      18.449 -15.400  25.677  1.00  0.00     0.091 A 
BRANCH  35  38
HETATM   38  C16 UNL     1      18.241 -18.899  24.342  1.00  0.00     0.209 C 
HETATM   39  O1  UNL     1      18.312 -20.014  24.884  1.00  0.00    -0.644 OA
HETATM   40  O2  UNL     1      17.666 -18.832  23.082  1.00  0.00    -0.644 OA
ENDBRANCH  35  38
ENDBRANCH  31  32
ENDBRANCH  30  31
ENDBRANCH  29  30
ENDBRANCH  28  29
ENDBRANCH   4  28
TORSDOF 11
ENDMDL
MODEL 4
REMARK VINA RESULT: -7.760797263      1.727      2.237
REMARK  11 active torsions:
REMARK  status: ('A' for Active; 'I' for Inactive)
REMARK    1  A    between atoms: N1_3  and  C3_4 
REMARK    2  A    between atoms: C3_4  and  C4_5 
REMARK    3  A    between atoms: C4_5  and  C5_6 
REMARK    4  A    between atoms: C5_6  and  C6_7 
REMARK    5  A    between atoms: N2_10  and  C9_11 
REMARK    6  A    between atoms: C9_11  and  C10_12 
REMARK    7  A    between atoms: C10_12  and  C11_13 
REMARK    8  A    between atoms: C11_13  and  C12_14 
REMARK    9  A    between atoms: C12_14  and  N3_15 
REMARK   10  A    between atoms: C15_18  and  C16_19 
REMARK   11  A    between atoms: C20_26  and  N4_27 
ROOT
HETATM    1  C6  UNL     1      18.148 -13.654  22.130  1.00  0.00     0.012 C 
HETATM    2  C7  UNL     1      18.985 -14.396  21.322  1.00  0.00     0.042 C 
HETATM    3  C8  UNL     1      19.586 -15.641  21.535  1.00  0.00     0.096 C 
HETATM    4  N2  UNL     1      19.447 -16.464  22.588  1.00  0.00    -0.321 N 
HETATM    5  C19 UNL     1      18.896 -16.142  23.772  1.00  0.00     0.291 C 
HETATM    6  O3  UNL     1      18.954 -17.091  24.605  1.00  0.00    -0.264 OA
HETATM    7  C20 UNL     1      18.298 -14.960  24.181  1.00  0.00     0.169 C 
HETATM    8  N5  UNL     1      17.984 -13.866  23.465  1.00  0.00    -0.342 N 
ATOM      9  H5  UNL     1      17.570 -13.096  23.990  1.00  0.00     0.167 HD
ENDROOT
BRANCH   1  10
HETATM   10  C5  UNL     1      17.360 -12.546  21.529  1.00  0.00     0.059 C 
BRANCH  10  11
HETATM   11  C4  UNL     1      16.032 -13.042  21.004  1.00  0.00     0.026 C 
BRANCH  11  12
HETATM   12  C3  UNL     1      15.194 -11.889  20.528  1.00  0.00     0.131 C 
BRANCH  12  13
HETATM   13  N1  UNL     1      14.041 -11.765  21.361  1.00  0.00    -0.332 N 
HETATM   14  C2  UNL     1      13.510 -10.599  21.723  1.00  0.00     0.098 A 
HETATM   15  C1  UNL     1      14.127  -9.331  21.260  1.00  0.00     0.090 C 
HETATM   16  N8  UNL     1      12.420 -10.551  22.508  1.00  0.00    -0.177 N 
HETATM   17  C22 UNL     1      11.834 -11.684  22.950  1.00  0.00     0.679 A 
HETATM   18  C23 UNL     1      11.831  -9.303  22.910  1.00  0.00     0.177 C 
HETATM   19  N6  UNL     1      12.364 -12.863  22.588  1.00  0.00    -0.188 N 
HETATM   20  N7  UNL     1      10.792 -11.673  23.700  1.00  0.00    -0.234 N 
HETATM   21  C21 UNL     1      13.451 -12.906  21.807  1.00  0.00     0.201 A 
ATOM     22  H6  UNL     1      11.937 -13.731  22.910  1.00  0.00     0.185 HD
ATOM     23  H72 UNL     1      10.349 -12.528  24.034  1.00  0.00     0.174 HD
ATOM     24  H71 UNL     1      10.389 -10.777  23.975  1.00  0.00     0.174 HD
ENDBRANCH  12  13
ENDBRANCH  11  12
ENDBRANCH  10  11
ENDBRANCH   1  10
BRANCH   7  25
HETATM   25  N4  UNL     1      18.015 -14.942  25.446  1.00  0.00    -0.381 N 
ATOM     26  H42 UNL     1      18.073 -15.828  25.949  1.00  0.00     0.157 HD
ATOM     27  H41 UNL     1      17.762 -14.016  25.788  1.00  0.00     0.157 HD
ENDBRANCH   7  25
BRANCH   4  28
HETATM   28  C9  UNL     1      19.939 -17.847  22.441  1.00  0.00     0.132 C 
BRANCH  28  29
HETATM   29  C10 UNL     1      21.410 -17.873  22.206  1.00  0.00     0.022 C 
BRANCH  29  30
HETATM   30  C11 UNL     1      22.098 -18.533  23.368  1.00  0.00     0.022 C 
BRANCH  30  31
HETATM   31  C12 UNL     1      23.270 -17.684  23.794  1.00  0.00     0.128 C 
BRANCH  31  32
HETATM   32  N3  UNL     1      22.697 -16.472  24.407  1.00  0.00    -0.366 N 
HETATM   33  C13 UNL     1      22.709 -15.288  23.772  1.00  0.00     0.091 A 
HETATM   34  C14 UNL     1      22.177 -14.140  24.330  1.00  0.00     0.035 A 
HETATM   35  C15 UNL     1      21.607 -14.178  25.584  1.00  0.00     0.043 A 
HETATM   36  C17 UNL     1      21.596 -15.395  26.234  1.00  0.00     0.035 A 
HETATM   37  C18 UNL     1      22.141 -16.514  25.631  1.00  0.00     0.091 A 
BRANCH  35  38
HETATM   38  C16 UNL     1      21.043 -12.970  26.180  1.00  0.00     0.209 C 
HETATM   39  O1  UNL     1      20.708 -12.889  27.372  1.00  0.00    -0.644 OA
HETATM   40  O2  UNL     1      20.867 -11.846  25.386  1.00  0.00    -0.644 OA
ENDBRANCH  35  38
ENDBRANCH  31  32
ENDBRANCH  30  31
ENDBRANCH  29  30
ENDBRANCH  28  29
ENDBRANCH   4  28
TORSDOF 11
ENDMDL
MODEL 5
REMARK VINA RESULT: -7.736369295      2.191      3.255
REMARK  11 active torsions:
REMARK  status: ('A' for Active; 'I' for Inactive)
REMARK    1  A    between atoms: N1_3  and  C3_4 
REMARK    2  A    between atoms: C3_4  and  C4_5 
REMARK    3  A    between atoms: C4_5  and  C5_6 
REMARK    4  A    between atoms: C5_6  and  C6_7 
REMARK    5  A    between atoms: N2_10  and  C9_11 
REMARK    6  A    between atoms: C9_11  and  C10_12 
REMARK    7  A    between atoms: C10_12  and  C11_13 
REMARK    8  A    between atoms: C11_13  and  C12_14 
REMARK    9  A    between atoms: C12_14  and  N3_15 
REMARK   10  A    between atoms: C15_18  and  C16_19 
REMARK   11  A    between atoms: C20_26  and  N4_27 
ROOT
HETATM    1  C6  UNL     1      16.885 -12.398  20.232  1.00  0.00     0.012 C 
HETATM    2  C7  UNL     1      16.579 -13.441  21.081  1.00  0.00     0.042 C 
HETATM    3  C8  UNL     1      17.389 -14.164  21.963  1.00  0.00     0.096 C 
HETATM    4  N2  UNL     1      18.690 -13.976  22.242  1.00  0.00    -0.321 N 
HETATM    5  C19 UNL     1      19.544 -13.211  21.540  1.00  0.00     0.291 C 
HETATM    6  O3  UNL     1      20.724 -13.267  21.990  1.00  0.00    -0.264 OA
HETATM    7  C20 UNL     1      19.312 -12.405  20.437  1.00  0.00     0.169 C 
HETATM    8  N5  UNL     1      18.150 -12.061  19.856  1.00  0.00    -0.342 N 
ATOM      9  H5  UNL     1      18.224 -11.471  19.027  1.00  0.00     0.167 HD
ENDROOT
BRANCH   1  10
HETATM   10  C5  UNL     1      15.781 -11.571  19.678  1.00  0.00     0.059 C 
BRANCH  10  11
HETATM   11  C4  UNL     1      14.440 -12.019  20.214  1.00  0.00     0.026 C 
BRANCH  11  12
HETATM   12  C3  UNL     1      13.457 -10.884  20.182  1.00  0.00     0.131 C 
BRANCH  12  13
HETATM   13  N1  UNL     1      12.801 -10.788  21.447  1.00  0.00    -0.332 N 
HETATM   14  C2  UNL     1      12.777  -9.681  22.187  1.00  0.00     0.098 A 
HETATM   15  C1  UNL     1      13.465  -8.457  21.707  1.00  0.00     0.090 C 
HETATM   16  N8  UNL     1      12.138  -9.655  23.369  1.00  0.00    -0.177 N 
HETATM   17  C22 UNL     1      11.504 -10.751  23.838  1.00  0.00     0.679 A 
HETATM   18  C23 UNL     1      12.099  -8.471  24.183  1.00  0.00     0.177 C 
HETATM   19  N6  UNL     1      11.525 -11.870  23.096  1.00  0.00    -0.188 N 
HETATM   20  N7  UNL     1      10.884 -10.759  24.962  1.00  0.00    -0.234 N 
HETATM   21  C21 UNL     1      12.163 -11.891  21.920  1.00  0.00     0.201 A 
ATOM     22  H6  UNL     1      11.051 -12.708  23.431  1.00  0.00     0.185 HD
ATOM     23  H72 UNL     1      10.405 -11.587  25.316  1.00  0.00     0.174 HD
ATOM     24  H71 UNL     1      10.869  -9.910  25.525  1.00  0.00     0.174 HD
ENDBRANCH  12  13
ENDBRANCH  11  12
ENDBRANCH  10  11
ENDBRANCH   1  10
BRANCH   7  25
HETATM   25  N4  UNL     1      20.399 -11.930  19.913  1.00  0.00    -0.381 N 
ATOM     26  H42 UNL     1      20.774 -11.071  20.317  1.00  0.00     0.157 HD
ATOM     27  H41 UNL     1      20.752 -12.493  19.141  1.00  0.00     0.157 HD
ENDBRANCH   7  25
BRANCH   4  28
HETATM   28  C9  UNL     1      19.239 -14.666  23.425  1.00  0.00     0.132 C 
BRANCH  28  29
HETATM   29  C10 UNL     1      18.705 -14.080  24.687  1.00  0.00     0.022 C 
BRANCH  29  30
HETATM   30  C11 UNL     1      19.283 -14.807  25.869  1.00  0.00     0.022 C 
BRANCH  30  31
HETATM   31  C12 UNL     1      20.505 -14.068  26.353  1.00  0.00     0.128 C 
BRANCH  31  32
HETATM   32  N3  UNL     1      21.643 -14.612  25.591  1.00  0.00    -0.366 N 
HETATM   33  C13 UNL     1      21.957 -15.918  25.628  1.00  0.00     0.091 A 
HETATM   34  C14 UNL     1      23.020 -16.448  24.921  1.00  0.00     0.035 A 
HETATM   35  C15 UNL     1      23.808 -15.631  24.139  1.00  0.00     0.043 A 
HETATM   36  C17 UNL     1      23.484 -14.291  24.102  1.00  0.00     0.035 A 
HETATM   37  C18 UNL     1      22.410 -13.812  24.828  1.00  0.00     0.091 A 
BRANCH  35  38
HETATM   38  C16 UNL     1      24.933 -16.183  23.388  1.00  0.00     0.209 C 
HETATM   39  O1  UNL     1      25.327 -15.716  22.308  1.00  0.00    -0.644 OA
HETATM   40  O2  UNL     1      25.606 -17.285  23.895  1.00  0.00    -0.644 OA
ENDBRANCH  35  38
ENDBRANCH  31  32
ENDBRANCH  30  31
ENDBRANCH  29  30
ENDBRANCH  28  29
ENDBRANCH   4  28
TORSDOF 11
ENDMDL
