MODEL 1
REMARK VINA RESULT: -7.877062734      0.000      0.000
REMARK  15 active torsions:
REMARK  status: ('A' for Active; 'I' for Inactive)
REMARK    1  A    between atoms: C6_6  and  C7_7 
REMARK    2  A    between atoms: C7_7  and  C8_8 
REMARK    3  A    between atoms: C8_8  and  N1_9 
REMARK    4  A    between atoms: C11_12  and  C12_13 
REMARK    5  A    between atoms: C12_13  and  O1_14 
REMARK    6  A    between atoms: C12_13  and  N2_16 
REMARK    7  A    between atoms: N2_16  and  C13_17 
REMARK    8  A    between atoms: N2_16  and  C15_21 
REMARK    9  A    between atoms: C13_17  and  C14_18 
REMARK   10  A    between atoms: C14_18  and  O2_19 
REMARK   11  A    between atoms: C15_21  and  C16_22 
REMARK   12  A    between atoms: C16_22  and  O3_23 
REMARK   13  A    between atoms: N3_28  and  C20_29 
REMARK   14  A    between atoms: C20_29  and  C21_30 
REMARK   15  A    between atoms: C23_34  and  N5_35 
ROOT
HETATM    1  C1  UNL     1      20.908 -13.091  27.431  1.00  0.00     0.019 C 
HETATM    2  C2  UNL     1      20.402 -13.750  26.563  1.00  0.00    -0.059 C 
HETATM    3  C3  UNL     1      19.772 -14.520  25.531  1.00  0.00     0.088 A 
HETATM    4  C4  UNL     1      18.635 -15.259  25.820  1.00  0.00     0.039 A 
HETATM    5  C5  UNL     1      17.951 -15.994  24.890  1.00  0.00     0.011 A 
HETATM    6  C6  UNL     1      18.458 -15.974  23.585  1.00  0.00    -0.041 A 
HETATM    7  C19 UNL     1      19.577 -15.238  23.335  1.00  0.00     0.099 A 
HETATM    8  N3  UNL     1      20.234 -14.522  24.268  1.00  0.00    -0.345 N 
ENDROOT
BRANCH   8   9
HETATM    9  C20 UNL     1      21.427 -13.805  23.853  1.00  0.00     0.170 C 
BRANCH   9  10
HETATM   10  C21 UNL     1      22.665 -14.587  23.904  1.00  0.00    -0.008 A 
HETATM   11  C22 UNL     1      23.915 -13.990  23.908  1.00  0.00     0.116 A 
HETATM   12  N4  UNL     1      24.996 -14.816  23.963  1.00  0.00    -0.201 N 
HETATM   13  C23 UNL     1      24.880 -16.150  24.012  1.00  0.00     0.677 A 
ATOM     14  H4  UNL     1      25.929 -14.404  23.969  1.00  0.00     0.183 HD
HETATM   15  N6  UNL     1      23.656 -16.721  24.006  1.00  0.00    -0.197 N 
HETATM   16  C24 UNL     1      23.558 -18.169  24.059  1.00  0.00     0.174 C 
HETATM   17  C25 UNL     1      22.545 -15.976  23.953  1.00  0.00     0.118 A 
BRANCH  13  18
HETATM   18  N5  UNL     1      25.910 -16.933  24.063  1.00  0.00    -0.234 N 
ATOM     19  H52 UNL     1      26.584 -16.783  24.814  1.00  0.00     0.174 HD
ATOM     20  H51 UNL     1      26.060 -17.682  23.387  1.00  0.00     0.174 HD
ENDBRANCH  13  18
ENDBRANCH   9  10
ENDBRANCH   8   9
BRANCH   6  21
HETATM   21  C7  UNL     1      17.765 -16.771  22.552  1.00  0.00     0.060 C 
BRANCH  21  22
HETATM   22  C8  UNL     1      17.635 -15.996  21.294  1.00  0.00     0.132 C 
BRANCH  22  23
HETATM   23  N1  UNL     1      16.522 -15.068  21.313  1.00  0.00    -0.366 N 
HETATM   24  C9  UNL     1      16.720 -13.746  21.310  1.00  0.00     0.091 A 
HETATM   25  C10 UNL     1      15.698 -12.802  21.307  1.00  0.00     0.033 A 
HETATM   26  C11 UNL     1      14.389 -13.190  21.306  1.00  0.00     0.018 A 
HETATM   27  C17 UNL     1      14.208 -14.597  21.309  1.00  0.00     0.033 A 
HETATM   28  C18 UNL     1      15.246 -15.473  21.311  1.00  0.00     0.091 A 
BRANCH  26  29
HETATM   29  C12 UNL     1      13.226 -12.354  21.308  1.00  0.00     0.152 C 
BRANCH  29  30
HETATM   30  O1  UNL     1      12.303 -12.692  20.436  1.00  0.00    -0.345 OA
ATOM     31  H1  UNL     1      12.037 -13.603  20.471  1.00  0.00     0.219 HD
ENDBRANCH  29  30
BRANCH  29  32
HETATM   32  N2  UNL     1      12.863 -11.234  22.059  1.00  0.00    -0.337 N 
BRANCH  32  33
HETATM   33  C13 UNL     1      11.743 -11.525  23.020  1.00  0.00     0.156 C 
BRANCH  33  34
HETATM   34  C14 UNL     1      11.541 -10.409  23.943  1.00  0.00     0.184 C 
BRANCH  34  35
HETATM   35  O2  UNL     1      10.850 -10.825  25.103  1.00  0.00    -0.399 OA
ATOM     36  H2  UNL     1      11.027 -11.738  25.298  1.00  0.00     0.209 HD
ENDBRANCH  34  35
ENDBRANCH  33  34
ENDBRANCH  32  33
BRANCH  32  37
HETATM   37  C15 UNL     1      13.314  -9.889  21.965  1.00  0.00     0.092 C 
BRANCH  37  38
HETATM   38  C16 UNL     1      13.905  -9.349  20.736  1.00  0.00     0.208 C 
BRANCH  38  39
HETATM   39  O3  UNL     1      13.111  -8.958  19.708  1.00  0.00    -0.396 OA
ATOM     40  H3  UNL     1      13.328  -8.184  19.202  1.00  0.00     0.209 HD
ENDBRANCH  38  39
ENDBRANCH  37  38
ENDBRANCH  32  37
ENDBRANCH  29  32
ENDBRANCH  26  29
ENDBRANCH  22  23
ENDBRANCH  21  22
ENDBRANCH   6  21
TORSDOF 15
ENDMDL
MODEL 2
REMARK VINA RESULT: -7.800054280      2.648      5.114
REMARK  15 active torsions:
REMARK  status: ('A' for Active; 'I' for Inactive)
REMARK    1  A    between atoms: C6_6  and  C7_7 
REMARK    2  A    between atoms: C7_7  and  C8_8 
REMARK    3  A    between atoms: C8_8  and  N1_9 
REMARK    4  A    between atoms: C11_12  and  C12_13 
REMARK    5  A    between atoms: C12_13  and  O1_14 
REMARK    6  A    between atoms: C12_13  and  N2_16 
REMARK    7  A    between atoms: N2_16  and  C13_17 
REMARK    8  A    between atoms: N2_16  and  C15_21 
REMARK    9  A    between atoms: C13_17  and  C14_18 
REMARK   10  A    between atoms: C14_18  and  O2_19 
REMARK   11  A    between atoms: C15_21  and  C16_22 
REMARK   12  A    between atoms: C16_22  and  O3_23 
REMARK   13  A    between atoms: N3_28  and  C20_29 
REMARK   14  A    between atoms: C20_29  and  C21_30 
REMARK   15  A    between atoms: C23_34  and  N5_35 
ROOT
HETATM    1  C1  UNL     1      19.615 -17.616  26.806  1.00  0.00     0.019 C 
HETATM    2  C2  UNL     1      19.674 -16.786  25.940  1.00  0.00    -0.059 C 
HETATM    3  C3  UNL     1      19.776 -15.793  24.911  1.00  0.00     0.088 A 
HETATM    4  C4  UNL     1      20.221 -14.517  25.226  1.00  0.00     0.039 A 
HETATM    5  C5  UNL     1      20.379 -13.520  24.303  1.00  0.00     0.011 A 
HETATM    6  C6  UNL     1      20.066 -13.842  22.978  1.00  0.00    -0.041 A 
HETATM    7  C19 UNL     1      19.630 -15.104  22.702  1.00  0.00     0.099 A 
HETATM    8  N3  UNL     1      19.482 -16.070  23.629  1.00  0.00    -0.345 N 
ENDROOT
BRANCH   8   9
HETATM    9  C20 UNL     1      18.986 -17.361  23.185  1.00  0.00     0.170 C 
BRANCH   9  10
HETATM   10  C21 UNL     1      17.580 -17.373  22.772  1.00  0.00    -0.008 A 
HETATM   11  C22 UNL     1      16.578 -16.816  23.551  1.00  0.00     0.116 A 
HETATM   12  N4  UNL     1      15.308 -16.879  23.065  1.00  0.00    -0.201 N 
HETATM   13  C23 UNL     1      15.016 -17.451  21.888  1.00  0.00     0.677 A 
ATOM     14  H4  UNL     1      14.551 -16.476  23.616  1.00  0.00     0.183 HD
HETATM   15  N6  UNL     1      16.000 -17.992  21.139  1.00  0.00    -0.197 N 
HETATM   16  C24 UNL     1      15.657 -18.605  19.867  1.00  0.00     0.174 C 
HETATM   17  C25 UNL     1      17.274 -17.969  21.548  1.00  0.00     0.118 A 
BRANCH  13  18
HETATM   18  N5  UNL     1      13.806 -17.510  21.429  1.00  0.00    -0.234 N 
ATOM     19  H52 UNL     1      13.059 -17.730  22.087  1.00  0.00     0.174 HD
ATOM     20  H51 UNL     1      13.587 -17.343  20.447  1.00  0.00     0.174 HD
ENDBRANCH  13  18
ENDBRANCH   9  10
ENDBRANCH   8   9
BRANCH   6  21
HETATM   21  C7  UNL     1      20.201 -12.790  21.949  1.00  0.00     0.060 C 
BRANCH  21  22
HETATM   22  C8  UNL     1      19.493 -13.179  20.705  1.00  0.00     0.132 C 
BRANCH  22  23
HETATM   23  N1  UNL     1      18.145 -12.652  20.633  1.00  0.00    -0.366 N 
HETATM   24  C9  UNL     1      17.698 -12.035  19.535  1.00  0.00     0.091 A 
HETATM   25  C10 UNL     1      16.411 -11.526  19.393  1.00  0.00     0.033 A 
HETATM   26  C11 UNL     1      15.502 -11.633  20.405  1.00  0.00     0.018 A 
HETATM   27  C17 UNL     1      16.002 -12.291  21.558  1.00  0.00     0.033 A 
HETATM   28  C18 UNL     1      17.271 -12.770  21.640  1.00  0.00     0.091 A 
BRANCH  26  29
HETATM   29  C12 UNL     1      14.149 -11.162  20.424  1.00  0.00     0.152 C 
BRANCH  29  30
HETATM   30  O1  UNL     1      13.780 -10.505  19.347  1.00  0.00    -0.345 OA
ATOM     31  H1  UNL     1      14.493 -10.236  18.780  1.00  0.00     0.219 HD
ENDBRANCH  29  30
BRANCH  29  32
HETATM   32  N2  UNL     1      13.123 -11.258  21.365  1.00  0.00    -0.337 N 
BRANCH  32  33
HETATM   33  C13 UNL     1      12.951  -9.991  22.159  1.00  0.00     0.156 C 
BRANCH  33  34
HETATM   34  C14 UNL     1      11.877 -10.129  23.142  1.00  0.00     0.184 C 
BRANCH  34  35
HETATM   35  O2  UNL     1      12.003  -9.172  24.173  1.00  0.00    -0.399 OA
ATOM     36  H2  UNL     1      11.152  -8.915  24.508  1.00  0.00     0.209 HD
ENDBRANCH  34  35
ENDBRANCH  33  34
ENDBRANCH  32  33
BRANCH  32  37
HETATM   37  C15 UNL     1      12.327 -12.376  21.736  1.00  0.00     0.092 C 
BRANCH  37  38
HETATM   38  C16 UNL     1      12.747 -13.755  21.465  1.00  0.00     0.208 C 
BRANCH  38  39
HETATM   39  O3  UNL     1      13.307 -14.505  22.447  1.00  0.00    -0.396 OA
ATOM     40  H3  UNL     1      13.018 -15.398  22.593  1.00  0.00     0.209 HD
ENDBRANCH  38  39
ENDBRANCH  37  38
ENDBRANCH  32  37
ENDBRANCH  29  32
ENDBRANCH  26  29
ENDBRANCH  22  23
ENDBRANCH  21  22
ENDBRANCH   6  21
TORSDOF 15
ENDMDL
MODEL 3
REMARK VINA RESULT: -7.658342420      2.073      4.430
REMARK  15 active torsions:
REMARK  status: ('A' for Active; 'I' for Inactive)
REMARK    1  A    between atoms: C6_6  and  C7_7 
REMARK    2  A    between atoms: C7_7  and  C8_8 
REMARK    3  A    between atoms: C8_8  and  N1_9 
REMARK    4  A    between atoms: C11_12  and  C12_13 
REMARK    5  A    between atoms: C12_13  and  O1_14 
REMARK    6  A    between atoms: C12_13  and  N2_16 
REMARK    7  A    between atoms: N2_16  and  C13_17 
REMARK    8  A    between atoms: N2_16  and  C15_21 
REMARK    9  A    between atoms: C13_17  and  C14_18 
REMARK   10  A    between atoms: C14_18  and  O2_19 
REMARK   11  A    between atoms: C15_21  and  C16_22 
REMARK   12  A    between atoms: C16_22  and  O3_23 
REMARK   13  A    between atoms: N3_28  and  C20_29 
REMARK   14  A    between atoms: C20_29  and  C21_30 
REMARK   15  A    between atoms: C23_34  and  N5_35 
ROOT
HETATM    1  C1  UNL     1      22.461 -17.467  26.580  1.00  0.00     0.019 C 
HETATM    2  C2  UNL     1      22.029 -16.684  25.778  1.00  0.00    -0.059 C 
HETATM    3  C3  UNL     1      21.541 -15.748  24.807  1.00  0.00     0.088 A 
HETATM    4  C4  UNL     1      22.055 -14.460  24.775  1.00  0.00     0.039 A 
HETATM    5  C5  UNL     1      21.672 -13.514  23.863  1.00  0.00     0.011 A 
HETATM    6  C6  UNL     1      20.706 -13.905  22.928  1.00  0.00    -0.041 A 
HETATM    7  C19 UNL     1      20.221 -15.177  22.988  1.00  0.00     0.099 A 
HETATM    8  N3  UNL     1      20.615 -16.092  23.896  1.00  0.00    -0.345 N 
ENDROOT
BRANCH   8   9
HETATM    9  C20 UNL     1      19.990 -17.402  23.848  1.00  0.00     0.170 C 
BRANCH   9  10
HETATM   10  C21 UNL     1      18.558 -17.391  23.535  1.00  0.00    -0.008 A 
HETATM   11  C22 UNL     1      17.603 -17.012  24.465  1.00  0.00     0.116 A 
HETATM   12  N4  UNL     1      16.303 -17.034  24.062  1.00  0.00    -0.201 N 
HETATM   13  C23 UNL     1      15.939 -17.404  22.826  1.00  0.00     0.677 A 
ATOM     14  H4  UNL     1      15.579 -16.758  24.725  1.00  0.00     0.183 HD
HETATM   15  N6  UNL     1      16.879 -17.774  21.930  1.00  0.00    -0.197 N 
HETATM   16  C24 UNL     1      16.458 -18.171  20.597  1.00  0.00     0.174 C 
HETATM   17  C25 UNL     1      18.178 -17.778  22.250  1.00  0.00     0.118 A 
BRANCH  13  18
HETATM   18  N5  UNL     1      14.701 -17.425  22.446  1.00  0.00    -0.234 N 
ATOM     19  H52 UNL     1      14.091 -18.133  22.855  1.00  0.00     0.174 HD
ATOM     20  H51 UNL     1      14.328 -16.763  21.765  1.00  0.00     0.174 HD
ENDBRANCH  13  18
ENDBRANCH   9  10
ENDBRANCH   8   9
BRANCH   6  21
HETATM   21  C7  UNL     1      20.246 -12.910  21.938  1.00  0.00     0.060 C 
BRANCH  21  22
HETATM   22  C8  UNL     1      19.456 -13.564  20.866  1.00  0.00     0.132 C 
BRANCH  22  23
HETATM   23  N1  UNL     1      18.057 -13.189  20.886  1.00  0.00    -0.366 N 
HETATM   24  C9  UNL     1      17.665 -11.949  20.574  1.00  0.00     0.091 A 
HETATM   25  C10 UNL     1      16.339 -11.530  20.553  1.00  0.00     0.033 A 
HETATM   26  C11 UNL     1      15.328 -12.394  20.861  1.00  0.00     0.018 A 
HETATM   27  C17 UNL     1      15.771 -13.701  21.189  1.00  0.00     0.033 A 
HETATM   28  C18 UNL     1      17.083 -14.055  21.192  1.00  0.00     0.091 A 
BRANCH  26  29
HETATM   29  C12 UNL     1      13.922 -12.124  20.893  1.00  0.00     0.152 C 
BRANCH  29  30
HETATM   30  O1  UNL     1      13.212 -12.794  20.012  1.00  0.00    -0.345 OA
ATOM     31  H1  UNL     1      13.270 -13.738  20.089  1.00  0.00     0.219 HD
ENDBRANCH  29  30
BRANCH  29  32
HETATM   32  N2  UNL     1      13.134 -11.283  21.680  1.00  0.00    -0.337 N 
BRANCH  32  33
HETATM   33  C13 UNL     1      12.070 -12.031  22.435  1.00  0.00     0.156 C 
BRANCH  33  34
HETATM   34  C14 UNL     1      11.541 -11.226  23.536  1.00  0.00     0.184 C 
BRANCH  34  35
HETATM   35  O2  UNL     1      10.427 -11.853  24.137  1.00  0.00    -0.399 OA
ATOM     36  H2  UNL     1       9.982 -12.424  23.522  1.00  0.00     0.209 HD
ENDBRANCH  34  35
ENDBRANCH  33  34
ENDBRANCH  32  33
BRANCH  32  37
HETATM   37  C15 UNL     1      13.130  -9.864  21.777  1.00  0.00     0.092 C 
BRANCH  37  38
HETATM   38  C16 UNL     1      13.693  -9.010  20.725  1.00  0.00     0.208 C 
BRANCH  38  39
HETATM   39  O3  UNL     1      13.026  -8.832  19.557  1.00  0.00    -0.396 OA
ATOM     40  H3  UNL     1      13.496  -8.589  18.768  1.00  0.00     0.209 HD
ENDBRANCH  38  39
ENDBRANCH  37  38
ENDBRANCH  32  37
ENDBRANCH  29  32
ENDBRANCH  26  29
ENDBRANCH  22  23
ENDBRANCH  21  22
ENDBRANCH   6  21
TORSDOF 15
ENDMDL
MODEL 4
REMARK VINA RESULT: -7.628922451      1.628      2.896
REMARK  15 active torsions:
REMARK  status: ('A' for Active; 'I' for Inactive)
REMARK    1  A    between atoms: C6_6  and  C7_7 
REMARK    2  A    between atoms: C7_7  and  C8_8 
REMARK    3  A    between atoms: C8_8  and  N1_9 
REMARK    4  A    between atoms: C11_12  and  C12_13 
REMARK    5  A    between atoms: C12_13  and  O1_14 
REMARK    6  A    between atoms: C12_13  and  N2_16 
REMARK    7  A    between atoms: N2_16  and  C13_17 
REMARK    8  A    between atoms: N2_16  and  C15_21 
REMARK    9  A    between atoms: C13_17  and  C14_18 
REMARK   10  A    between atoms: C14_18  and  O2_19 
REMARK   11  A    between atoms: C15_21  and  C16_22 
REMARK   12  A    between atoms: C16_22  and  O3_23 
REMARK   13  A    between atoms: N3_28  and  C20_29 
REMARK   14  A    between atoms: C20_29  and  C21_30 
REMARK   15  A    between atoms: C23_34  and  N5_35 
ROOT
HETATM    1  C1  UNL     1      19.436 -17.398  26.806  1.00  0.00     0.019 C 
HETATM    2  C2  UNL     1      19.565 -16.626  25.895  1.00  0.00    -0.059 C 
HETATM    3  C3  UNL     1      19.731 -15.684  24.827  1.00  0.00     0.088 A 
HETATM    4  C4  UNL     1      19.031 -14.486  24.851  1.00  0.00     0.039 A 
HETATM    5  C5  UNL     1      19.154 -13.517  23.893  1.00  0.00     0.011 A 
HETATM    6  C6  UNL     1      20.043 -13.785  22.846  1.00  0.00    -0.041 A 
HETATM    7  C19 UNL     1      20.714 -14.972  22.851  1.00  0.00     0.099 A 
HETATM    8  N3  UNL     1      20.576 -15.912  23.807  1.00  0.00    -0.345 N 
ENDROOT
BRANCH   8   9
HETATM    9  C20 UNL     1      21.343 -17.137  23.664  1.00  0.00     0.170 C 
BRANCH   9  10
HETATM   10  C21 UNL     1      22.780 -16.944  23.450  1.00  0.00    -0.008 A 
HETATM   11  C22 UNL     1      23.510 -16.000  24.154  1.00  0.00     0.116 A 
HETATM   12  N4  UNL     1      24.839 -15.912  23.876  1.00  0.00    -0.201 N 
HETATM   13  C23 UNL     1      25.437 -16.692  22.965  1.00  0.00     0.677 A 
ATOM     14  H4  UNL     1      25.402 -15.226  24.381  1.00  0.00     0.183 HD
HETATM   15  N6  UNL     1      24.715 -17.607  22.284  1.00  0.00    -0.197 N 
HETATM   16  C24 UNL     1      25.387 -18.441  21.302  1.00  0.00     0.174 C 
HETATM   17  C25 UNL     1      23.403 -17.754  22.501  1.00  0.00     0.118 A 
BRANCH  13  18
HETATM   18  N5  UNL     1      26.703 -16.605  22.703  1.00  0.00    -0.234 N 
ATOM     19  H52 UNL     1      27.266 -17.451  22.788  1.00  0.00     0.174 HD
ATOM     20  H51 UNL     1      27.141 -15.729  22.417  1.00  0.00     0.174 HD
ENDBRANCH  13  18
ENDBRANCH   9  10
ENDBRANCH   8   9
BRANCH   6  21
HETATM   21  C7  UNL     1      20.192 -12.777  21.776  1.00  0.00     0.060 C 
BRANCH  21  22
HETATM   22  C8  UNL     1      19.454 -13.193  20.558  1.00  0.00     0.132 C 
BRANCH  22  23
HETATM   23  N1  UNL     1      18.036 -12.907  20.630  1.00  0.00    -0.366 N 
HETATM   24  C9  UNL     1      17.562 -11.679  20.393  1.00  0.00     0.091 A 
HETATM   25  C10 UNL     1      16.212 -11.342  20.425  1.00  0.00     0.033 A 
HETATM   26  C11 UNL     1      15.264 -12.282  20.711  1.00  0.00     0.018 A 
HETATM   27  C17 UNL     1      15.794 -13.575  20.958  1.00  0.00     0.033 A 
HETATM   28  C18 UNL     1      17.125 -13.846  20.912  1.00  0.00     0.091 A 
BRANCH  26  29
HETATM   29  C12 UNL     1      13.846 -12.102  20.789  1.00  0.00     0.152 C 
BRANCH  29  30
HETATM   30  O1  UNL     1      13.158 -12.729  19.861  1.00  0.00    -0.345 OA
ATOM     31  H1  UNL     1      12.216 -12.710  19.982  1.00  0.00     0.219 HD
ENDBRANCH  29  30
BRANCH  29  32
HETATM   32  N2  UNL     1      13.026 -11.386  21.663  1.00  0.00    -0.337 N 
BRANCH  32  33
HETATM   33  C13 UNL     1      13.467  -9.957  21.823  1.00  0.00     0.156 C 
BRANCH  33  34
HETATM   34  C14 UNL     1      12.673  -9.065  20.978  1.00  0.00     0.184 C 
BRANCH  34  35
HETATM   35  O2  UNL     1      13.198  -9.004  19.667  1.00  0.00    -0.399 OA
ATOM     36  H2  UNL     1      13.277  -8.105  19.371  1.00  0.00     0.209 HD
ENDBRANCH  34  35
ENDBRANCH  33  34
ENDBRANCH  32  33
BRANCH  32  37
HETATM   37  C15 UNL     1      11.945 -11.832  22.472  1.00  0.00     0.092 C 
BRANCH  37  38
HETATM   38  C16 UNL     1      11.533 -11.118  23.685  1.00  0.00     0.208 C 
BRANCH  38  39
HETATM   39  O3  UNL     1      10.749 -11.730  24.608  1.00  0.00    -0.396 OA
ATOM     40  H3  UNL     1       9.804 -11.732  24.509  1.00  0.00     0.209 HD
ENDBRANCH  38  39
ENDBRANCH  37  38
ENDBRANCH  32  37
ENDBRANCH  29  32
ENDBRANCH  26  29
ENDBRANCH  22  23
ENDBRANCH  21  22
ENDBRANCH   6  21
TORSDOF 15
ENDMDL
MODEL 5
REMARK VINA RESULT: -7.620738962      4.407      9.919
REMARK  15 active torsions:
REMARK  status: ('A' for Active; 'I' for Inactive)
REMARK    1  A    between atoms: C6_6  and  C7_7 
REMARK    2  A    between atoms: C7_7  and  C8_8 
REMARK    3  A    between atoms: C8_8  and  N1_9 
REMARK    4  A    between atoms: C11_12  and  C12_13 
REMARK    5  A    between atoms: C12_13  and  O1_14 
REMARK    6  A    between atoms: C12_13  and  N2_16 
REMARK    7  A    between atoms: N2_16  and  C13_17 
REMARK    8  A    between atoms: N2_16  and  C15_21 
REMARK    9  A    between atoms: C13_17  and  C14_18 
REMARK   10  A    between atoms: C14_18  and  O2_19 
REMARK   11  A    between atoms: C15_21  and  C16_22 
REMARK   12  A    between atoms: C16_22  and  O3_23 
REMARK   13  A    between atoms: N3_28  and  C20_29 
REMARK   14  A    between atoms: C20_29  and  C21_30 
REMARK   15  A    between atoms: C23_34  and  N5_35 
ROOT
HETATM    1  C1  UNL     1      20.143 -11.991  19.325  1.00  0.00     0.019 C 
HETATM    2  C2  UNL     1      19.843 -12.513  20.364  1.00  0.00    -0.059 C 
HETATM    3  C3  UNL     1      19.488 -13.109  21.619  1.00  0.00     0.088 A 
HETATM    4  C4  UNL     1      20.416 -13.148  22.649  1.00  0.00     0.039 A 
HETATM    5  C5  UNL     1      20.151 -13.667  23.888  1.00  0.00     0.011 A 
HETATM    6  C6  UNL     1      18.864 -14.176  24.088  1.00  0.00    -0.041 A 
HETATM    7  C19 UNL     1      17.976 -14.123  23.055  1.00  0.00     0.099 A 
HETATM    8  N3  UNL     1      18.260 -13.607  21.843  1.00  0.00    -0.345 N 
ENDROOT
BRANCH   8   9
HETATM    9  C20 UNL     1      17.215 -13.642  20.834  1.00  0.00     0.170 C 
BRANCH   9  10
HETATM   10  C21 UNL     1      16.235 -12.556  20.925  1.00  0.00    -0.008 A 
HETATM   11  C22 UNL     1      16.499 -11.282  20.451  1.00  0.00     0.116 A 
HETATM   12  N4  UNL     1      15.512 -10.354  20.583  1.00  0.00    -0.201 N 
HETATM   13  C23 UNL     1      14.329 -10.638  21.146  1.00  0.00     0.677 A 
ATOM     14  H4  UNL     1      15.679  -9.407  20.241  1.00  0.00     0.183 HD
HETATM   15  N6  UNL     1      14.084 -11.882  21.607  1.00  0.00    -0.197 N 
HETATM   16  C24 UNL     1      12.793 -12.164  22.212  1.00  0.00     0.174 C 
HETATM   17  C25 UNL     1      15.004 -12.850  21.512  1.00  0.00     0.118 A 
BRANCH  13  18
HETATM   18  N5  UNL     1      13.393  -9.752  21.271  1.00  0.00    -0.234 N 
ATOM     19  H52 UNL     1      13.672  -8.777  21.383  1.00  0.00     0.174 HD
ATOM     20  H51 UNL     1      12.403  -9.999  21.259  1.00  0.00     0.174 HD
ENDBRANCH  13  18
ENDBRANCH   9  10
ENDBRANCH   8   9
BRANCH   6  21
HETATM   21  C7  UNL     1      18.540 -14.766  25.404  1.00  0.00     0.060 C 
BRANCH  21  22
HETATM   22  C8  UNL     1      18.461 -16.244  25.310  1.00  0.00     0.132 C 
BRANCH  22  23
HETATM   23  N1  UNL     1      19.743 -16.864  25.041  1.00  0.00    -0.366 N 
HETATM   24  C9  UNL     1      19.963 -17.545  23.912  1.00  0.00     0.091 A 
HETATM   25  C10 UNL     1      21.175 -18.145  23.584  1.00  0.00     0.033 A 
HETATM   26  C11 UNL     1      22.245 -18.066  24.429  1.00  0.00     0.018 A 
HETATM   27  C17 UNL     1      21.984 -17.338  25.618  1.00  0.00     0.033 A 
HETATM   28  C18 UNL     1      20.778 -16.772  25.886  1.00  0.00     0.091 A 
BRANCH  26  29
HETATM   29  C12 UNL     1      23.550 -18.627  24.247  1.00  0.00     0.152 C 
BRANCH  29  30
HETATM   30  O1  UNL     1      23.907 -19.499  25.163  1.00  0.00    -0.345 OA
ATOM     31  H1  UNL     1      23.265 -20.175  25.341  1.00  0.00     0.219 HD
ENDBRANCH  29  30
BRANCH  29  32
HETATM   32  N2  UNL     1      24.539 -18.436  23.280  1.00  0.00    -0.337 N 
BRANCH  32  33
HETATM   33  C13 UNL     1      25.546 -17.396  23.687  1.00  0.00     0.156 C 
BRANCH  33  34
HETATM   34  C14 UNL     1      24.982 -16.050  23.584  1.00  0.00     0.184 C 
BRANCH  34  35
HETATM   35  O2  UNL     1      25.361 -15.429  22.373  1.00  0.00    -0.399 OA
ATOM     36  H2  UNL     1      24.818 -14.670  22.193  1.00  0.00     0.209 HD
ENDBRANCH  34  35
ENDBRANCH  33  34
ENDBRANCH  32  33
BRANCH  32  37
HETATM   37  C15 UNL     1      24.657 -18.988  21.975  1.00  0.00     0.092 C 
BRANCH  37  38
HETATM   38  C16 UNL     1      23.799 -18.557  20.866  1.00  0.00     0.208 C 
BRANCH  38  39
HETATM   39  O3  UNL     1      23.336 -17.283  20.815  1.00  0.00    -0.396 OA
ATOM     40  H3  UNL     1      23.830 -16.576  21.213  1.00  0.00     0.209 HD
ENDBRANCH  38  39
ENDBRANCH  37  38
ENDBRANCH  32  37
ENDBRANCH  29  32
ENDBRANCH  26  29
ENDBRANCH  22  23
ENDBRANCH  21  22
ENDBRANCH   6  21
TORSDOF 15
ENDMDL
