MODEL 1
REMARK VINA RESULT: -9.582032857      0.000      0.000
REMARK  12 active torsions:
REMARK  status: ('A' for Active; 'I' for Inactive)
REMARK    1  A    between atoms: C2_3  and  C3_4 
REMARK    2  A    between atoms: C3_4  and  N2_5 
REMARK    3  A    between atoms: C6_8  and  C7_9 
REMARK    4  A    between atoms: C7_9  and  C8_10 
REMARK    5  A    between atoms: C8_10  and  N3_11 
REMARK    6  A    between atoms: C10_13  and  N4_14 
REMARK    7  A    between atoms: N7_22  and  O1_23 
REMARK    8  A    between atoms: C13_28  and  C14_29 
REMARK    9  A    between atoms: C14_29  and  C15_30 
REMARK   10  A    between atoms: C15_30  and  C16_31 
REMARK   11  A    between atoms: C16_31  and  N9_32 
REMARK   12  A    between atoms: N9_32  and  C17_34 
ROOT
HETATM    1  N2  UNL     1      16.845 -13.043  21.006  1.00  0.00    -0.271 N 
HETATM    2  C4  UNL     1      15.610 -13.451  21.318  1.00  0.00     0.113 A 
HETATM    3  C5  UNL     1      14.531 -12.613  21.131  1.00  0.00     0.027 A 
HETATM    4  C6  UNL     1      14.663 -11.341  20.628  1.00  0.00    -0.036 A 
HETATM    5  C11 UNL     1      15.975 -10.969  20.320  1.00  0.00     0.150 A 
HETATM    6  N7  UNL     1      16.981 -11.814  20.517  1.00  0.00    -0.172 N 
ENDROOT
BRANCH   1   7
HETATM    7  C3  UNL     1      18.013 -13.833  21.103  1.00  0.00     0.227 C 
BRANCH   7   8
HETATM    8  C2  UNL     1      18.397 -14.338  22.418  1.00  0.00     0.104 A 
HETATM    9  N1  UNL     1      18.075 -15.424  23.131  1.00  0.00    -0.338 N 
HETATM   10  C1  UNL     1      17.221 -16.508  22.743  1.00  0.00     0.158 C 
HETATM   11  C21 UNL     1      18.698 -15.404  24.333  1.00  0.00     0.062 A 
HETATM   12  C12 UNL     1      19.448 -14.260  24.389  1.00  0.00     0.067 A 
HETATM   13  C20 UNL     1      18.717 -16.265  25.416  1.00  0.00     0.032 A 
HETATM   14  N8  UNL     1      19.254 -13.633  23.229  1.00  0.00    -0.342 N 
HETATM   15  C13 UNL     1      20.221 -13.964  25.516  1.00  0.00    -0.029 A 
ATOM     16  H8  UNL     1      19.686 -12.745  22.976  1.00  0.00     0.167 HD
HETATM   17  C18 UNL     1      20.214 -14.836  26.557  1.00  0.00     0.009 A 
HETATM   18  C19 UNL     1      19.462 -16.010  26.539  1.00  0.00     0.003 A 
BRANCH  15  19
HETATM   19  C14 UNL     1      20.999 -12.735  25.510  1.00  0.00     0.042 C 
BRANCH  19  20
HETATM   20  C15 UNL     1      22.238 -12.702  24.672  1.00  0.00     0.024 C 
BRANCH  20  21
HETATM   21  C16 UNL     1      22.737 -14.064  24.288  1.00  0.00     0.122 C 
BRANCH  21  22
HETATM   22  N9  UNL     1      24.051 -14.043  23.731  1.00  0.00    -0.368 N 
ATOM     23  H9  UNL     1      24.428 -13.152  23.408  1.00  0.00     0.161 HD
BRANCH  22  24
HETATM   24  C17 UNL     1      24.851 -15.192  23.603  1.00  0.00     0.348 C 
HETATM   25  O2  UNL     1      25.206 -15.609  22.497  1.00  0.00    -0.284 OA
ENDBRANCH  22  24
ENDBRANCH  21  22
ENDBRANCH  20  21
ENDBRANCH  19  20
ENDBRANCH  15  19
ENDBRANCH   7   8
ENDBRANCH   1   7
BRANCH   6  26
HETATM   26  O1  UNL     1      18.235 -11.321  20.119  1.00  0.00    -0.268 OA
ATOM     27  H1  UNL     1      18.359 -10.404  19.903  1.00  0.00     0.247 HD
ENDBRANCH   6  26
BRANCH   4  28
HETATM   28  C7  UNL     1      13.581 -10.401  20.374  1.00  0.00     0.062 C 
BRANCH  28  29
HETATM   29  C8  UNL     1      13.568  -9.159  21.230  1.00  0.00     0.154 C 
BRANCH  29  30
HETATM   30  N3  UNL     1      12.749  -9.521  22.396  1.00  0.00    -0.285 N 
HETATM   31  C9  UNL     1      12.056 -10.653  22.530  1.00  0.00     0.160 A 
HETATM   32  C10 UNL     1      11.449 -10.613  23.760  1.00  0.00     0.132 A 
HETATM   33  N5  UNL     1      11.800  -9.451  24.324  1.00  0.00    -0.270 N 
HETATM   34  N6  UNL     1      12.590  -8.811  23.467  1.00  0.00    -0.239 N 
ATOM     35  H5  UNL     1      11.513  -9.117  25.244  1.00  0.00     0.190 HD
ATOM     36  H6  UNL     1      13.010  -7.896  23.630  1.00  0.00     0.208 HD
BRANCH  32  37
HETATM   37  N4  UNL     1      10.691 -11.490  24.308  1.00  0.00    -0.383 N 
ATOM     38  H42 UNL     1      11.012 -12.210  24.956  1.00  0.00     0.157 HD
ATOM     39  H41 UNL     1       9.685 -11.621  24.200  1.00  0.00     0.157 HD
ENDBRANCH  32  37
ENDBRANCH  29  30
ENDBRANCH  28  29
ENDBRANCH   4  28
TORSDOF 12
ENDMDL
MODEL 2
REMARK VINA RESULT: -9.508164068      1.286      1.766
REMARK  12 active torsions:
REMARK  status: ('A' for Active; 'I' for Inactive)
REMARK    1  A    between atoms: C2_3  and  C3_4 
REMARK    2  A    between atoms: C3_4  and  N2_5 
REMARK    3  A    between atoms: C6_8  and  C7_9 
REMARK    4  A    between atoms: C7_9  and  C8_10 
REMARK    5  A    between atoms: C8_10  and  N3_11 
REMARK    6  A    between atoms: C10_13  and  N4_14 
REMARK    7  A    between atoms: N7_22  and  O1_23 
REMARK    8  A    between atoms: C13_28  and  C14_29 
REMARK    9  A    between atoms: C14_29  and  C15_30 
REMARK   10  A    between atoms: C15_30  and  C16_31 
REMARK   11  A    between atoms: C16_31  and  N9_32 
REMARK   12  A    between atoms: N9_32  and  C17_34 
ROOT
HETATM    1  N2  UNL     1      17.257 -13.085  21.209  1.00  0.00    -0.271 N 
HETATM    2  C4  UNL     1      16.067 -13.580  21.569  1.00  0.00     0.113 A 
HETATM    3  C5  UNL     1      14.914 -12.862  21.333  1.00  0.00     0.027 A 
HETATM    4  C6  UNL     1      14.924 -11.627  20.730  1.00  0.00    -0.036 A 
HETATM    5  C11 UNL     1      16.193 -11.161  20.376  1.00  0.00     0.150 A 
HETATM    6  N7  UNL     1      17.275 -11.891  20.624  1.00  0.00    -0.172 N 
ENDROOT
BRANCH   1   7
HETATM    7  C3  UNL     1      18.494 -13.755  21.351  1.00  0.00     0.227 C 
BRANCH   7   8
HETATM    8  C2  UNL     1      18.587 -14.833  22.330  1.00  0.00     0.104 A 
HETATM    9  N1  UNL     1      18.401 -16.157  22.281  1.00  0.00    -0.338 N 
HETATM   10  C1  UNL     1      18.075 -16.956  21.136  1.00  0.00     0.158 C 
HETATM   11  C21 UNL     1      18.588 -16.708  23.504  1.00  0.00     0.062 A 
HETATM   12  C12 UNL     1      18.905 -15.695  24.368  1.00  0.00     0.067 A 
HETATM   13  C20 UNL     1      18.528 -18.003  23.990  1.00  0.00     0.032 A 
HETATM   14  N8  UNL     1      18.900 -14.576  23.644  1.00  0.00    -0.342 N 
HETATM   15  C13 UNL     1      19.167 -15.958  25.716  1.00  0.00    -0.029 A 
ATOM     16  H8  UNL     1      19.102 -13.649  24.017  1.00  0.00     0.167 HD
HETATM   17  C18 UNL     1      19.101 -17.242  26.153  1.00  0.00     0.009 A 
HETATM   18  C19 UNL     1      18.779 -18.301  25.304  1.00  0.00     0.003 A 
BRANCH  15  19
HETATM   19  C14 UNL     1      19.504 -14.838  26.580  1.00  0.00     0.042 C 
BRANCH  19  20
HETATM   20  C15 UNL     1      20.916 -14.346  26.560  1.00  0.00     0.024 C 
BRANCH  20  21
HETATM   21  C16 UNL     1      21.029 -12.861  26.378  1.00  0.00     0.122 C 
BRANCH  21  22
HETATM   22  N9  UNL     1      21.407 -12.486  25.053  1.00  0.00    -0.368 N 
ATOM     23  H9  UNL     1      21.065 -11.599  24.683  1.00  0.00     0.161 HD
BRANCH  22  24
HETATM   24  C17 UNL     1      22.227 -13.280  24.233  1.00  0.00     0.348 C 
HETATM   25  O2  UNL     1      21.816 -13.735  23.161  1.00  0.00    -0.284 OA
ENDBRANCH  22  24
ENDBRANCH  21  22
ENDBRANCH  20  21
ENDBRANCH  19  20
ENDBRANCH  15  19
ENDBRANCH   7   8
ENDBRANCH   1   7
BRANCH   6  26
HETATM   26  O1  UNL     1      18.474 -11.317  20.172  1.00  0.00    -0.268 OA
ATOM     27  H1  UNL     1      18.587 -11.061  19.264  1.00  0.00     0.247 HD
ENDBRANCH   6  26
BRANCH   4  28
HETATM   28  C7  UNL     1      13.757 -10.813  20.420  1.00  0.00     0.062 C 
BRANCH  28  29
HETATM   29  C8  UNL     1      13.671  -9.482  21.124  1.00  0.00     0.154 C 
BRANCH  29  30
HETATM   30  N3  UNL     1      12.826  -9.739  22.299  1.00  0.00    -0.285 N 
HETATM   31  C9  UNL     1      12.114 -10.847  22.510  1.00  0.00     0.160 A 
HETATM   32  C10 UNL     1      11.486 -10.701  23.721  1.00  0.00     0.132 A 
HETATM   33  N5  UNL     1      11.844  -9.503  24.197  1.00  0.00    -0.270 N 
HETATM   34  N6  UNL     1      12.659  -8.944  23.307  1.00  0.00    -0.239 N 
ATOM     35  H5  UNL     1      11.546  -9.093  25.083  1.00  0.00     0.190 HD
ATOM     36  H6  UNL     1      13.090  -8.025  23.405  1.00  0.00     0.208 HD
BRANCH  32  37
HETATM   37  N4  UNL     1      10.706 -11.522  24.323  1.00  0.00    -0.383 N 
ATOM     38  H42 UNL     1      10.328 -12.373  23.908  1.00  0.00     0.157 HD
ATOM     39  H41 UNL     1      10.339 -11.472  25.274  1.00  0.00     0.157 HD
ENDBRANCH  32  37
ENDBRANCH  29  30
ENDBRANCH  28  29
ENDBRANCH   4  28
TORSDOF 12
ENDMDL
MODEL 3
REMARK VINA RESULT: -9.463795460      1.369      1.787
REMARK  12 active torsions:
REMARK  status: ('A' for Active; 'I' for Inactive)
REMARK    1  A    between atoms: C2_3  and  C3_4 
REMARK    2  A    between atoms: C3_4  and  N2_5 
REMARK    3  A    between atoms: C6_8  and  C7_9 
REMARK    4  A    between atoms: C7_9  and  C8_10 
REMARK    5  A    between atoms: C8_10  and  N3_11 
REMARK    6  A    between atoms: C10_13  and  N4_14 
REMARK    7  A    between atoms: N7_22  and  O1_23 
REMARK    8  A    between atoms: C13_28  and  C14_29 
REMARK    9  A    between atoms: C14_29  and  C15_30 
REMARK   10  A    between atoms: C15_30  and  C16_31 
REMARK   11  A    between atoms: C16_31  and  N9_32 
REMARK   12  A    between atoms: N9_32  and  C17_34 
ROOT
HETATM    1  N2  UNL     1      16.416 -13.574  21.032  1.00  0.00    -0.271 N 
HETATM    2  C4  UNL     1      16.735 -12.317  20.707  1.00  0.00     0.113 A 
HETATM    3  C5  UNL     1      15.772 -11.329  20.716  1.00  0.00     0.027 A 
HETATM    4  C6  UNL     1      14.463 -11.579  21.051  1.00  0.00    -0.036 A 
HETATM    5  C11 UNL     1      14.188 -12.909  21.382  1.00  0.00     0.150 A 
HETATM    6  N7  UNL     1      15.152 -13.824  21.358  1.00  0.00    -0.172 N 
ENDROOT
BRANCH   1   7
HETATM    7  C3  UNL     1      17.329 -14.651  21.111  1.00  0.00     0.227 C 
BRANCH   7   8
HETATM    8  C2  UNL     1      17.898 -14.980  22.414  1.00  0.00     0.104 A 
HETATM    9  N1  UNL     1      17.768 -16.013  23.255  1.00  0.00    -0.338 N 
HETATM   10  C1  UNL     1      16.999 -17.208  23.067  1.00  0.00     0.158 C 
HETATM   11  C21 UNL     1      18.507 -15.810  24.372  1.00  0.00     0.062 A 
HETATM   12  C12 UNL     1      19.132 -14.600  24.238  1.00  0.00     0.067 A 
HETATM   13  C20 UNL     1      18.728 -16.550  25.521  1.00  0.00     0.032 A 
HETATM   14  N8  UNL     1      18.754 -14.117  23.055  1.00  0.00    -0.342 N 
HETATM   15  C13 UNL     1      19.982 -14.118  25.238  1.00  0.00    -0.029 A 
ATOM     16  H8  UNL     1      19.061 -13.222  22.674  1.00  0.00     0.167 HD
HETATM   17  C18 UNL     1      20.175 -14.875  26.349  1.00  0.00     0.009 A 
HETATM   18  C19 UNL     1      19.554 -16.111  26.523  1.00  0.00     0.003 A 
BRANCH  15  19
HETATM   19  C14 UNL     1      20.620 -12.827  25.032  1.00  0.00     0.042 C 
BRANCH  19  20
HETATM   20  C15 UNL     1      22.100 -12.812  24.811  1.00  0.00     0.024 C 
BRANCH  20  21
HETATM   21  C16 UNL     1      22.574 -13.879  23.868  1.00  0.00     0.122 C 
BRANCH  21  22
HETATM   22  N9  UNL     1      23.996 -13.926  23.744  1.00  0.00    -0.368 N 
ATOM     23  H9  UNL     1      24.507 -13.045  23.686  1.00  0.00     0.161 HD
BRANCH  22  24
HETATM   24  C17 UNL     1      24.725 -15.126  23.696  1.00  0.00     0.348 C 
HETATM   25  O2  UNL     1      25.223 -15.535  22.642  1.00  0.00    -0.284 OA
ENDBRANCH  22  24
ENDBRANCH  21  22
ENDBRANCH  20  21
ENDBRANCH  19  20
ENDBRANCH  15  19
ENDBRANCH   7   8
ENDBRANCH   1   7
BRANCH   6  26
HETATM   26  O1  UNL     1      14.740 -15.106  21.758  1.00  0.00    -0.268 OA
ATOM     27  H1  UNL     1      14.288 -15.689  21.159  1.00  0.00     0.247 HD
ENDBRANCH   6  26
BRANCH   4  28
HETATM   28  C7  UNL     1      13.390 -10.597  21.112  1.00  0.00     0.062 C 
BRANCH  28  29
HETATM   29  C8  UNL     1      12.135 -11.030  21.829  1.00  0.00     0.154 C 
BRANCH  29  30
HETATM   30  N3  UNL     1      11.950 -10.027  22.888  1.00  0.00    -0.285 N 
HETATM   31  C9  UNL     1      12.676  -8.918  23.036  1.00  0.00     0.160 A 
HETATM   32  C10 UNL     1      12.174  -8.248  24.123  1.00  0.00     0.132 A 
HETATM   33  N5  UNL     1      11.160  -8.984  24.593  1.00  0.00    -0.270 N 
HETATM   34  N6  UNL     1      11.051 -10.059  23.819  1.00  0.00    -0.239 N 
ATOM     35  H5  UNL     1      10.576  -8.759  25.400  1.00  0.00     0.190 HD
ATOM     36  H6  UNL     1      10.360 -10.800  23.941  1.00  0.00     0.208 HD
BRANCH  32  37
HETATM   37  N4  UNL     1      12.562  -7.134  24.626  1.00  0.00    -0.383 N 
ATOM     38  H42 UNL     1      11.964  -6.318  24.758  1.00  0.00     0.157 HD
ATOM     39  H41 UNL     1      13.489  -6.875  24.965  1.00  0.00     0.157 HD
ENDBRANCH  32  37
ENDBRANCH  29  30
ENDBRANCH  28  29
ENDBRANCH   4  28
TORSDOF 12
ENDMDL
MODEL 4
REMARK VINA RESULT: -9.405700081      1.484      2.121
REMARK  12 active torsions:
REMARK  status: ('A' for Active; 'I' for Inactive)
REMARK    1  A    between atoms: C2_3  and  C3_4 
REMARK    2  A    between atoms: C3_4  and  N2_5 
REMARK    3  A    between atoms: C6_8  and  C7_9 
REMARK    4  A    between atoms: C7_9  and  C8_10 
REMARK    5  A    between atoms: C8_10  and  N3_11 
REMARK    6  A    between atoms: C10_13  and  N4_14 
REMARK    7  A    between atoms: N7_22  and  O1_23 
REMARK    8  A    between atoms: C13_28  and  C14_29 
REMARK    9  A    between atoms: C14_29  and  C15_30 
REMARK   10  A    between atoms: C15_30  and  C16_31 
REMARK   11  A    between atoms: C16_31  and  N9_32 
REMARK   12  A    between atoms: N9_32  and  C17_34 
ROOT
HETATM    1  N2  UNL     1      16.794 -12.990  21.391  1.00  0.00    -0.271 N 
HETATM    2  C4  UNL     1      15.655 -13.623  21.694  1.00  0.00     0.113 A 
HETATM    3  C5  UNL     1      14.444 -12.977  21.568  1.00  0.00     0.027 A 
HETATM    4  C6  UNL     1      14.343 -11.677  21.136  1.00  0.00    -0.036 A 
HETATM    5  C11 UNL     1      15.563 -11.066  20.833  1.00  0.00     0.150 A 
HETATM    6  N7  UNL     1      16.705 -11.732  20.971  1.00  0.00    -0.172 N 
ENDROOT
BRANCH   1   7
HETATM    7  C3  UNL     1      18.083 -13.570  21.429  1.00  0.00     0.227 C 
BRANCH   7   8
HETATM    8  C2  UNL     1      18.313 -14.682  22.347  1.00  0.00     0.104 A 
HETATM    9  N1  UNL     1      18.211 -16.012  22.245  1.00  0.00    -0.338 N 
HETATM   10  C1  UNL     1      17.860 -16.780  21.086  1.00  0.00     0.158 C 
HETATM   11  C21 UNL     1      18.516 -16.603  23.424  1.00  0.00     0.062 A 
HETATM   12  C12 UNL     1      18.825 -15.609  24.314  1.00  0.00     0.067 A 
HETATM   13  C20 UNL     1      18.575 -17.919  23.849  1.00  0.00     0.032 A 
HETATM   14  N8  UNL     1      18.697 -14.463  23.648  1.00  0.00    -0.342 N 
HETATM   15  C13 UNL     1      19.195 -15.914  25.627  1.00  0.00    -0.029 A 
ATOM     16  H8  UNL     1      18.863 -13.541  24.052  1.00  0.00     0.167 HD
HETATM   17  C18 UNL     1      19.243 -17.218  26.005  1.00  0.00     0.009 A 
HETATM   18  C19 UNL     1      18.934 -18.257  25.128  1.00  0.00     0.003 A 
BRANCH  15  19
HETATM   19  C14 UNL     1      19.517 -14.813  26.522  1.00  0.00     0.042 C 
BRANCH  19  20
HETATM   20  C15 UNL     1      20.929 -14.320  26.536  1.00  0.00     0.024 C 
BRANCH  20  21
HETATM   21  C16 UNL     1      21.047 -12.840  26.317  1.00  0.00     0.122 C 
BRANCH  21  22
HETATM   22  N9  UNL     1      21.389 -12.497  24.974  1.00  0.00    -0.368 N 
ATOM     23  H9  UNL     1      21.113 -11.580  24.621  1.00  0.00     0.161 HD
BRANCH  22  24
HETATM   24  C17 UNL     1      22.087 -13.362  24.113  1.00  0.00     0.348 C 
HETATM   25  O2  UNL     1      21.613 -13.707  23.026  1.00  0.00    -0.284 OA
ENDBRANCH  22  24
ENDBRANCH  21  22
ENDBRANCH  20  21
ENDBRANCH  19  20
ENDBRANCH  15  19
ENDBRANCH   7   8
ENDBRANCH   1   7
BRANCH   6  26
HETATM   26  O1  UNL     1      17.845 -11.008  20.586  1.00  0.00    -0.268 OA
ATOM     27  H1  UNL     1      18.027 -10.821  19.673  1.00  0.00     0.247 HD
ENDBRANCH   6  26
BRANCH   4  28
HETATM   28  C7  UNL     1      13.109 -10.927  20.949  1.00  0.00     0.062 C 
BRANCH  28  29
HETATM   29  C8  UNL     1      11.947 -11.335  21.820  1.00  0.00     0.154 C 
BRANCH  29  30
HETATM   30  N3  UNL     1      11.887 -10.302  22.864  1.00  0.00    -0.285 N 
HETATM   31  C9  UNL     1      12.587  -9.167  22.868  1.00  0.00     0.160 A 
HETATM   32  C10 UNL     1      12.232  -8.475  23.998  1.00  0.00     0.132 A 
HETATM   33  N5  UNL     1      11.325  -9.224  24.637  1.00  0.00    -0.270 N 
HETATM   34  N6  UNL     1      11.139 -10.329  23.920  1.00  0.00    -0.239 N 
ATOM     35  H5  UNL     1      10.861  -8.990  25.515  1.00  0.00     0.190 HD
ATOM     36  H6  UNL     1      10.501 -11.085  24.167  1.00  0.00     0.208 HD
BRANCH  32  37
HETATM   37  N4  UNL     1      12.651  -7.333  24.404  1.00  0.00    -0.383 N 
ATOM     38  H42 UNL     1      13.623  -7.116  24.619  1.00  0.00     0.157 HD
ATOM     39  H41 UNL     1      12.115  -6.483  24.579  1.00  0.00     0.157 HD
ENDBRANCH  32  37
ENDBRANCH  29  30
ENDBRANCH  28  29
ENDBRANCH   4  28
TORSDOF 12
ENDMDL
MODEL 5
REMARK VINA RESULT: -9.357364895      2.437      3.784
REMARK  12 active torsions:
REMARK  status: ('A' for Active; 'I' for Inactive)
REMARK    1  A    between atoms: C2_3  and  C3_4 
REMARK    2  A    between atoms: C3_4  and  N2_5 
REMARK    3  A    between atoms: C6_8  and  C7_9 
REMARK    4  A    between atoms: C7_9  and  C8_10 
REMARK    5  A    between atoms: C8_10  and  N3_11 
REMARK    6  A    between atoms: C10_13  and  N4_14 
REMARK    7  A    between atoms: N7_22  and  O1_23 
REMARK    8  A    between atoms: C13_28  and  C14_29 
REMARK    9  A    between atoms: C14_29  and  C15_30 
REMARK   10  A    between atoms: C15_30  and  C16_31 
REMARK   11  A    between atoms: C16_31  and  N9_32 
REMARK   12  A    between atoms: N9_32  and  C17_34 
ROOT
HETATM    1  N2  UNL     1      16.353 -13.560  21.153  1.00  0.00    -0.271 N 
HETATM    2  C4  UNL     1      16.473 -12.310  20.691  1.00  0.00     0.113 A 
HETATM    3  C5  UNL     1      15.380 -11.471  20.660  1.00  0.00     0.027 A 
HETATM    4  C6  UNL     1      14.136 -11.864  21.091  1.00  0.00    -0.036 A 
HETATM    5  C11 UNL     1      14.070 -13.178  21.564  1.00  0.00     0.150 A 
HETATM    6  N7  UNL     1      15.153 -13.947  21.574  1.00  0.00    -0.172 N 
ENDROOT
BRANCH   1   7
HETATM    7  C3  UNL     1      17.414 -14.486  21.283  1.00  0.00     0.227 C 
BRANCH   7   8
HETATM    8  C2  UNL     1      18.446 -14.218  22.280  1.00  0.00     0.104 A 
HETATM    9  N1  UNL     1      19.588 -13.520  22.277  1.00  0.00    -0.338 N 
HETATM   10  C1  UNL     1      20.136 -12.738  21.207  1.00  0.00     0.158 C 
HETATM   11  C21 UNL     1      20.206 -13.618  23.477  1.00  0.00     0.062 A 
HETATM   12  C12 UNL     1      19.428 -14.409  24.278  1.00  0.00     0.067 A 
HETATM   13  C20 UNL     1      21.380 -13.096  23.995  1.00  0.00     0.032 A 
HETATM   14  N8  UNL     1      18.375 -14.759  23.541  1.00  0.00    -0.342 N 
HETATM   15  C13 UNL     1      19.805 -14.685  25.596  1.00  0.00    -0.029 A 
ATOM     16  H8  UNL     1      17.614 -15.352  23.871  1.00  0.00     0.167 HD
HETATM   17  C18 UNL     1      20.963 -14.153  26.067  1.00  0.00     0.009 A 
HETATM   18  C19 UNL     1      21.784 -13.345  25.281  1.00  0.00     0.003 A 
BRANCH  15  19
HETATM   19  C14 UNL     1      18.931 -15.528  26.397  1.00  0.00     0.042 C 
BRANCH  19  20
HETATM   20  C15 UNL     1      19.335 -16.954  26.598  1.00  0.00     0.024 C 
BRANCH  20  21
HETATM   21  C16 UNL     1      19.129 -17.811  25.383  1.00  0.00     0.122 C 
BRANCH  21  22
HETATM   22  N9  UNL     1      17.798 -18.315  25.272  1.00  0.00    -0.368 N 
ATOM     23  H9  UNL     1      17.405 -18.828  26.061  1.00  0.00     0.161 HD
BRANCH  22  24
HETATM   24  C17 UNL     1      17.002 -18.140  24.126  1.00  0.00     0.348 C 
HETATM   25  O2  UNL     1      16.526 -17.038  23.836  1.00  0.00    -0.284 OA
ENDBRANCH  22  24
ENDBRANCH  21  22
ENDBRANCH  20  21
ENDBRANCH  19  20
ENDBRANCH  15  19
ENDBRANCH   7   8
ENDBRANCH   1   7
BRANCH   6  26
HETATM   26  O1  UNL     1      14.947 -15.226  22.118  1.00  0.00    -0.268 OA
ATOM     27  H1  UNL     1      14.073 -15.559  22.280  1.00  0.00     0.247 HD
ENDBRANCH   6  26
BRANCH   4  28
HETATM   28  C7  UNL     1      12.936 -11.040  21.118  1.00  0.00     0.062 C 
BRANCH  28  29
HETATM   29  C8  UNL     1      11.848 -11.483  22.065  1.00  0.00     0.154 C 
BRANCH  29  30
HETATM   30  N3  UNL     1      11.759 -10.403  23.058  1.00  0.00    -0.285 N 
HETATM   31  C9  UNL     1      12.439  -9.257  23.014  1.00  0.00     0.160 A 
HETATM   32  C10 UNL     1      12.058  -8.518  24.106  1.00  0.00     0.132 A 
HETATM   33  N5  UNL     1      11.158  -9.252  24.771  1.00  0.00    -0.270 N 
HETATM   34  N6  UNL     1      11.000 -10.393  24.106  1.00  0.00    -0.239 N 
ATOM     35  H5  UNL     1      10.680  -8.984  25.632  1.00  0.00     0.190 HD
ATOM     36  H6  UNL     1      10.372 -11.148  24.383  1.00  0.00     0.208 HD
BRANCH  32  37
HETATM   37  N4  UNL     1      12.452  -7.350  24.460  1.00  0.00    -0.383 N 
ATOM     38  H42 UNL     1      13.306  -6.901  24.129  1.00  0.00     0.157 HD
ATOM     39  H41 UNL     1      12.009  -6.696  25.105  1.00  0.00     0.157 HD
ENDBRANCH  32  37
ENDBRANCH  29  30
ENDBRANCH  28  29
ENDBRANCH   4  28
TORSDOF 12
ENDMDL
