MODEL 1
REMARK VINA RESULT: -6.586274483      0.000      0.000
REMARK  14 active torsions:
REMARK  status: ('A' for Active; 'I' for Inactive)
REMARK    1  A    between atoms: C2_2  and  C3_3 
REMARK    2  A    between atoms: C3_3  and  N1_4 
REMARK       I    between atoms: N1_4  and  C4_6 
REMARK    3  A    between atoms: C4_6  and  C5_8 
REMARK    4  A    between atoms: C5_8  and  N2_9 
REMARK    5  A    between atoms: N3_12  and  C8_13 
REMARK    6  A    between atoms: C8_13  and  C9_14 
REMARK    7  A    between atoms: C9_14  and  C10_15 
REMARK    8  A    between atoms: C10_15  and  C11_16 
REMARK    9  A    between atoms: N4_19  and  C14_20 
REMARK   10  A    between atoms: C16_22  and  C17_23 
REMARK   11  A    between atoms: C18_24  and  C19_25 
REMARK   12  A    between atoms: C20_29  and  N6_30 
REMARK   13  A    between atoms: N6_30  and  O2_32 
REMARK   14  A    between atoms: C24_36  and  O3_37 
ROOT
HETATM    1  C9  UNL     1      19.746 -12.841  20.357  1.00  0.00     0.033 C 
ENDROOT
BRANCH   1   2
HETATM    2  C8  UNL     1      18.597 -12.887  19.364  1.00  0.00     0.243 C 
BRANCH   2   3
HETATM    3  N3  UNL     1      17.410 -12.545  20.073  1.00  0.00    -0.011 N 
HETATM    4  C7  UNL     1      17.559 -11.389  20.930  1.00  0.00     0.271 C 
HETATM    5  C6  UNL     1      16.123 -10.853  21.086  1.00  0.00     0.276 C 
HETATM    6  N2  UNL     1      15.367 -11.789  20.334  1.00  0.00     0.014 N 
HETATM    7  C23 UNL     1      15.385 -13.066  21.021  1.00  0.00     0.276 C 
HETATM    8  C24 UNL     1      16.313 -12.099  19.236  1.00  0.00     0.536 C 
HETATM    9  C22 UNL     1      16.799 -13.593  20.825  1.00  0.00     0.271 C 
BRANCH   6  10
HETATM   10  C5  UNL     1      14.125 -11.415  19.806  1.00  0.00     0.281 C 
BRANCH  10  11
HETATM   11  C4  UNL     1      13.413 -10.319  20.421  1.00  0.00     0.265 C 
HETATM   12  N1  UNL     1      12.721 -10.513  21.648  1.00  0.00    -0.353 N 
ATOM     13  H1  UNL     1      12.739 -11.435  22.084  1.00  0.00     0.163 HD
HETATM   14  O1  UNL     1      13.376  -9.184  19.910  1.00  0.00    -0.267 OA
BRANCH  12  15
HETATM   15  C3  UNL     1      11.991  -9.443  22.301  1.00  0.00     0.149 C 
BRANCH  15  16
HETATM   16  C2  UNL     1      11.705  -9.758  23.722  1.00  0.00    -0.018 C 
HETATM   17  C1  UNL     1      11.383 -10.970  24.119  1.00  0.00     0.008 C 
ENDBRANCH  15  16
ENDBRANCH  12  15
ENDBRANCH  10  11
ENDBRANCH   6  10
BRANCH   8  18
HETATM   18  O3  UNL     1      16.587 -10.988  18.479  1.00  0.00    -0.348 OA
ATOM     19  H3  UNL     1      16.669 -10.211  19.020  1.00  0.00     0.214 HD
ENDBRANCH   8  18
ENDBRANCH   2   3
ENDBRANCH   1   2
BRANCH   1  20
HETATM   20  C10 UNL     1      20.074 -14.232  20.752  1.00  0.00     0.042 C 
BRANCH  20  21
HETATM   21  C11 UNL     1      20.162 -14.420  22.196  1.00  0.00    -0.030 A 
HETATM   22  C12 UNL     1      20.302 -13.263  22.940  1.00  0.00     0.026 A 
HETATM   23  C13 UNL     1      20.309 -13.244  24.293  1.00  0.00     0.092 A 
HETATM   24  N4  UNL     1      20.174 -14.399  24.954  1.00  0.00    -0.349 N 
HETATM   25  C16 UNL     1      20.034 -15.569  24.244  1.00  0.00     0.113 A 
HETATM   26  C20 UNL     1      20.024 -15.636  22.884  1.00  0.00     0.078 A 
BRANCH  24  27
HETATM   27  C14 UNL     1      20.177 -14.371  26.415  1.00  0.00     0.124 C 
HETATM   28  C15 UNL     1      20.975 -13.195  26.927  1.00  0.00     0.027 C 
ENDBRANCH  24  27
BRANCH  25  29
HETATM   29  C17 UNL     1      19.881 -16.719  25.125  1.00  0.00    -0.041 C 
HETATM   30  C18 UNL     1      19.750 -17.706  25.825  1.00  0.00    -0.055 C 
BRANCH  30  31
HETATM   31  C19 UNL     1      19.588 -18.851  26.669  1.00  0.00     0.146 C 
HETATM   32  N5  UNL     1      18.419 -19.280  26.996  1.00  0.00    -0.401 N 
ATOM     33  H52 UNL     1      17.603 -18.783  26.638  1.00  0.00     0.156 HD
ATOM     34  H51 UNL     1      18.304 -20.096  27.597  1.00  0.00     0.156 HD
ENDBRANCH  30  31
ENDBRANCH  25  29
BRANCH  26  35
HETATM   35  N6  UNL     1      19.968 -16.769  22.090  1.00  0.00    -0.166 NA
HETATM   36  C21 UNL     1      21.017 -17.720  22.157  1.00  0.00     0.150 C 
BRANCH  35  37
HETATM   37  O2  UNL     1      18.773 -17.468  22.287  1.00  0.00    -0.308 OA
ATOM     38  H2  UNL     1      18.439 -17.818  21.469  1.00  0.00     0.237 HD
ENDBRANCH  35  37
ENDBRANCH  26  35
ENDBRANCH  20  21
ENDBRANCH   1  20
TORSDOF 14
ENDMDL
MODEL 2
REMARK VINA RESULT: -6.445003305      2.406      7.699
REMARK  14 active torsions:
REMARK  status: ('A' for Active; 'I' for Inactive)
REMARK    1  A    between atoms: C2_2  and  C3_3 
REMARK    2  A    between atoms: C3_3  and  N1_4 
REMARK       I    between atoms: N1_4  and  C4_6 
REMARK    3  A    between atoms: C4_6  and  C5_8 
REMARK    4  A    between atoms: C5_8  and  N2_9 
REMARK    5  A    between atoms: N3_12  and  C8_13 
REMARK    6  A    between atoms: C8_13  and  C9_14 
REMARK    7  A    between atoms: C9_14  and  C10_15 
REMARK    8  A    between atoms: C10_15  and  C11_16 
REMARK    9  A    between atoms: N4_19  and  C14_20 
REMARK   10  A    between atoms: C16_22  and  C17_23 
REMARK   11  A    between atoms: C18_24  and  C19_25 
REMARK   12  A    between atoms: C20_29  and  N6_30 
REMARK   13  A    between atoms: N6_30  and  O2_32 
REMARK   14  A    between atoms: C24_36  and  O3_37 
ROOT
HETATM    1  C9  UNL     1      20.173 -14.369  21.672  1.00  0.00     0.033 C 
ENDROOT
BRANCH   1   2
HETATM    2  C8  UNL     1      20.520 -13.241  22.630  1.00  0.00     0.243 C 
BRANCH   2   3
HETATM    3  N3  UNL     1      20.735 -13.824  23.911  1.00  0.00    -0.011 N 
HETATM    4  C7  UNL     1      20.885 -12.853  24.973  1.00  0.00     0.271 C 
HETATM    5  C6  UNL     1      20.494 -13.628  26.245  1.00  0.00     0.276 C 
HETATM    6  N2  UNL     1      20.214 -14.922  25.737  1.00  0.00     0.014 N 
HETATM    7  C23 UNL     1      21.451 -15.524  25.279  1.00  0.00     0.276 C 
HETATM    8  C24 UNL     1      19.614 -14.587  24.424  1.00  0.00     0.536 C 
HETATM    9  C22 UNL     1      21.802 -14.769  24.005  1.00  0.00     0.271 C 
BRANCH   6  10
HETATM   10  C5  UNL     1      19.363 -15.779  26.448  1.00  0.00     0.281 C 
BRANCH  10  11
HETATM   11  C4  UNL     1      19.017 -17.053  25.863  1.00  0.00     0.265 C 
HETATM   12  N1  UNL     1      18.078 -17.122  24.797  1.00  0.00    -0.353 N 
ATOM     13  H1  UNL     1      17.657 -16.258  24.455  1.00  0.00     0.163 HD
HETATM   14  O1  UNL     1      19.517 -18.122  26.261  1.00  0.00    -0.267 OA
BRANCH  12  15
HETATM   15  C3  UNL     1      17.699 -18.378  24.181  1.00  0.00     0.149 C 
BRANCH  15  16
HETATM   16  C2  UNL     1      16.390 -18.864  24.682  1.00  0.00    -0.018 C 
HETATM   17  C1  UNL     1      15.309 -18.863  23.932  1.00  0.00     0.008 C 
ENDBRANCH  15  16
ENDBRANCH  12  15
ENDBRANCH  10  11
ENDBRANCH   6  10
BRANCH   8  18
HETATM   18  O3  UNL     1      18.454 -13.869  24.570  1.00  0.00    -0.348 OA
ATOM     19  H3  UNL     1      17.691 -14.398  24.369  1.00  0.00     0.214 HD
ENDBRANCH   8  18
ENDBRANCH   2   3
ENDBRANCH   1   2
BRANCH   1  20
HETATM   20  C10 UNL     1      19.217 -13.848  20.666  1.00  0.00     0.042 C 
BRANCH  20  21
HETATM   21  C11 UNL     1      17.833 -14.229  20.928  1.00  0.00    -0.030 A 
HETATM   22  C12 UNL     1      17.631 -15.561  21.239  1.00  0.00     0.026 A 
HETATM   23  C13 UNL     1      16.430 -16.068  21.597  1.00  0.00     0.092 A 
HETATM   24  N4  UNL     1      15.375 -15.246  21.654  1.00  0.00    -0.349 N 
HETATM   25  C16 UNL     1      15.541 -13.915  21.349  1.00  0.00     0.113 A 
HETATM   26  C20 UNL     1      16.731 -13.362  20.982  1.00  0.00     0.078 A 
BRANCH  24  27
HETATM   27  C14 UNL     1      14.080 -15.799  22.046  1.00  0.00     0.124 C 
HETATM   28  C15 UNL     1      13.730 -16.998  21.196  1.00  0.00     0.027 C 
ENDBRANCH  24  27
BRANCH  25  29
HETATM   29  C17 UNL     1      14.296 -13.172  21.484  1.00  0.00    -0.041 C 
HETATM   30  C18 UNL     1      13.276 -12.521  21.622  1.00  0.00    -0.055 C 
BRANCH  30  31
HETATM   31  C19 UNL     1      12.063 -11.777  21.778  1.00  0.00     0.146 C 
HETATM   32  N5  UNL     1      11.397 -11.810  22.879  1.00  0.00    -0.401 N 
ATOM     33  H52 UNL     1      11.755 -12.381  23.645  1.00  0.00     0.156 HD
ATOM     34  H51 UNL     1      10.532 -11.280  22.990  1.00  0.00     0.156 HD
ENDBRANCH  30  31
ENDBRANCH  25  29
BRANCH  26  35
HETATM   35  N6  UNL     1      16.974 -12.059  20.584  1.00  0.00    -0.166 NA
HETATM   36  C21 UNL     1      16.677 -11.670  19.254  1.00  0.00     0.150 C 
BRANCH  35  37
HETATM   37  O2  UNL     1      16.336 -11.143  21.426  1.00  0.00    -0.308 OA
ATOM     38  H2  UNL     1      16.043 -10.378  20.945  1.00  0.00     0.237 HD
ENDBRANCH  35  37
ENDBRANCH  26  35
ENDBRANCH  20  21
ENDBRANCH   1  20
TORSDOF 14
ENDMDL
MODEL 3
REMARK VINA RESULT: -6.419180131      1.941      2.593
REMARK  14 active torsions:
REMARK  status: ('A' for Active; 'I' for Inactive)
REMARK    1  A    between atoms: C2_2  and  C3_3 
REMARK    2  A    between atoms: C3_3  and  N1_4 
REMARK       I    between atoms: N1_4  and  C4_6 
REMARK    3  A    between atoms: C4_6  and  C5_8 
REMARK    4  A    between atoms: C5_8  and  N2_9 
REMARK    5  A    between atoms: N3_12  and  C8_13 
REMARK    6  A    between atoms: C8_13  and  C9_14 
REMARK    7  A    between atoms: C9_14  and  C10_15 
REMARK    8  A    between atoms: C10_15  and  C11_16 
REMARK    9  A    between atoms: N4_19  and  C14_20 
REMARK   10  A    between atoms: C16_22  and  C17_23 
REMARK   11  A    between atoms: C18_24  and  C19_25 
REMARK   12  A    between atoms: C20_29  and  N6_30 
REMARK   13  A    between atoms: N6_30  and  O2_32 
REMARK   14  A    between atoms: C24_36  and  O3_37 
ROOT
HETATM    1  C9  UNL     1      20.042 -13.486  21.865  1.00  0.00     0.033 C 
ENDROOT
BRANCH   1   2
HETATM    2  C8  UNL     1      19.237 -12.263  21.456  1.00  0.00     0.243 C 
BRANCH   2   3
HETATM    3  N3  UNL     1      18.015 -12.729  20.892  1.00  0.00    -0.011 N 
HETATM    4  C7  UNL     1      17.979 -14.160  20.687  1.00  0.00     0.271 C 
HETATM    5  C6  UNL     1      16.477 -14.499  20.681  1.00  0.00     0.276 C 
HETATM    6  N2  UNL     1      15.878 -13.223  20.846  1.00  0.00     0.014 N 
HETATM    7  C23 UNL     1      16.107 -12.439  19.647  1.00  0.00     0.276 C 
HETATM    8  C24 UNL     1      16.855 -12.567  21.747  1.00  0.00     0.536 C 
HETATM    9  C22 UNL     1      17.587 -12.086  19.691  1.00  0.00     0.271 C 
BRANCH   6  10
HETATM   10  C5  UNL     1      14.589 -13.125  21.383  1.00  0.00     0.281 C 
BRANCH  10  11
HETATM   11  C4  UNL     1      13.792 -11.963  21.065  1.00  0.00     0.265 C 
HETATM   12  N1  UNL     1      13.418 -11.048  22.088  1.00  0.00    -0.353 N 
ATOM     13  H1  UNL     1      13.722 -11.227  23.045  1.00  0.00     0.163 HD
HETATM   14  O1  UNL     1      13.409 -11.721  19.906  1.00  0.00    -0.267 OA
BRANCH  12  15
HETATM   15  C3  UNL     1      12.617  -9.870  21.815  1.00  0.00     0.149 C 
BRANCH  15  16
HETATM   16  C2  UNL     1      12.169  -9.208  23.065  1.00  0.00    -0.018 C 
HETATM   17  C1  UNL     1      11.538  -9.861  24.016  1.00  0.00     0.008 C 
ENDBRANCH  15  16
ENDBRANCH  12  15
ENDBRANCH  10  11
ENDBRANCH   6  10
BRANCH   8  18
HETATM   18  O3  UNL     1      16.940 -13.215  22.954  1.00  0.00    -0.348 OA
ATOM     19  H3  UNL     1      16.243 -12.948  23.541  1.00  0.00     0.214 HD
ENDBRANCH   8  18
ENDBRANCH   2   3
ENDBRANCH   1   2
BRANCH   1  20
HETATM   20  C10 UNL     1      20.407 -13.346  23.294  1.00  0.00     0.042 C 
BRANCH  20  21
HETATM   21  C11 UNL     1      20.819 -14.600  23.914  1.00  0.00    -0.030 A 
HETATM   22  C12 UNL     1      22.181 -14.756  24.096  1.00  0.00     0.026 A 
HETATM   23  C13 UNL     1      22.731 -15.813  24.735  1.00  0.00     0.092 A 
HETATM   24  N4  UNL     1      21.923 -16.765  25.218  1.00  0.00    -0.349 N 
HETATM   25  C16 UNL     1      20.563 -16.642  25.053  1.00  0.00     0.113 A 
HETATM   26  C20 UNL     1      19.967 -15.596  24.416  1.00  0.00     0.078 A 
BRANCH  24  27
HETATM   27  C14 UNL     1      22.524 -17.903  25.912  1.00  0.00     0.124 C 
HETATM   28  C15 UNL     1      23.756 -17.476  26.673  1.00  0.00     0.027 C 
ENDBRANCH  24  27
BRANCH  25  29
HETATM   29  C17 UNL     1      19.845 -17.755  25.658  1.00  0.00    -0.041 C 
HETATM   30  C18 UNL     1      19.280 -18.712  26.156  1.00  0.00    -0.055 C 
BRANCH  30  31
HETATM   31  C19 UNL     1      18.592 -19.825  26.738  1.00  0.00     0.146 C 
HETATM   32  N5  UNL     1      17.325 -19.784  26.959  1.00  0.00    -0.401 N 
ATOM     33  H52 UNL     1      16.816 -18.936  26.709  1.00  0.00     0.156 HD
ATOM     34  H51 UNL     1      16.835 -20.577  27.374  1.00  0.00     0.156 HD
ENDBRANCH  30  31
ENDBRANCH  25  29
BRANCH  26  35
HETATM   35  N6  UNL     1      18.621 -15.429  24.136  1.00  0.00    -0.166 NA
HETATM   36  C21 UNL     1      17.900 -16.486  23.527  1.00  0.00     0.150 C 
BRANCH  35  37
HETATM   37  O2  UNL     1      17.907 -15.056  25.279  1.00  0.00    -0.308 OA
ATOM     38  H2  UNL     1      17.984 -14.124  25.445  1.00  0.00     0.237 HD
ENDBRANCH  35  37
ENDBRANCH  26  35
ENDBRANCH  20  21
ENDBRANCH   1  20
TORSDOF 14
ENDMDL
MODEL 4
REMARK VINA RESULT: -6.382427974      2.139      3.084
REMARK  14 active torsions:
REMARK  status: ('A' for Active; 'I' for Inactive)
REMARK    1  A    between atoms: C2_2  and  C3_3 
REMARK    2  A    between atoms: C3_3  and  N1_4 
REMARK       I    between atoms: N1_4  and  C4_6 
REMARK    3  A    between atoms: C4_6  and  C5_8 
REMARK    4  A    between atoms: C5_8  and  N2_9 
REMARK    5  A    between atoms: N3_12  and  C8_13 
REMARK    6  A    between atoms: C8_13  and  C9_14 
REMARK    7  A    between atoms: C9_14  and  C10_15 
REMARK    8  A    between atoms: C10_15  and  C11_16 
REMARK    9  A    between atoms: N4_19  and  C14_20 
REMARK   10  A    between atoms: C16_22  and  C17_23 
REMARK   11  A    between atoms: C18_24  and  C19_25 
REMARK   12  A    between atoms: C20_29  and  N6_30 
REMARK   13  A    between atoms: N6_30  and  O2_32 
REMARK   14  A    between atoms: C24_36  and  O3_37 
ROOT
HETATM    1  C9  UNL     1      19.264 -12.925  20.402  1.00  0.00     0.033 C 
ENDROOT
BRANCH   1   2
HETATM    2  C8  UNL     1      18.466 -11.633  20.454  1.00  0.00     0.243 C 
BRANCH   2   3
HETATM    3  N3  UNL     1      17.156 -11.925  19.976  1.00  0.00    -0.011 N 
HETATM    4  C7  UNL     1      16.609 -13.158  20.498  1.00  0.00     0.271 C 
HETATM    5  C6  UNL     1      15.086 -12.970  20.379  1.00  0.00     0.276 C 
HETATM    6  N2  UNL     1      14.984 -11.688  19.781  1.00  0.00     0.014 N 
HETATM    7  C23 UNL     1      15.476 -11.765  18.418  1.00  0.00     0.276 C 
HETATM    8  C24 UNL     1      16.134 -10.992  20.407  1.00  0.00     0.536 C 
HETATM    9  C22 UNL     1      16.984 -11.915  18.558  1.00  0.00     0.271 C 
BRANCH   6  10
HETATM   10  C5  UNL     1      13.817 -10.932  19.950  1.00  0.00     0.281 C 
BRANCH  10  11
HETATM   11  C4  UNL     1      12.922 -11.273  21.030  1.00  0.00     0.265 C 
HETATM   12  N1  UNL     1      12.799 -10.416  22.158  1.00  0.00    -0.353 N 
ATOM     13  H1  UNL     1      13.352  -9.560  22.188  1.00  0.00     0.163 HD
HETATM   14  O1  UNL     1      12.235 -12.312  21.018  1.00  0.00    -0.267 OA
BRANCH  12  15
HETATM   15  C3  UNL     1      11.914 -10.719  23.267  1.00  0.00     0.149 C 
BRANCH  15  16
HETATM   16  C2  UNL     1      11.511  -9.494  24.000  1.00  0.00    -0.018 C 
HETATM   17  C1  UNL     1      12.237  -8.397  23.983  1.00  0.00     0.008 C 
ENDBRANCH  15  16
ENDBRANCH  12  15
ENDBRANCH  10  11
ENDBRANCH   6  10
BRANCH   8  18
HETATM   18  O3  UNL     1      15.984 -10.898  21.768  1.00  0.00    -0.348 OA
ATOM     19  H3  UNL     1      16.820 -10.773  22.201  1.00  0.00     0.214 HD
ENDBRANCH   8  18
ENDBRANCH   2   3
ENDBRANCH   1   2
BRANCH   1  20
HETATM   20  C10 UNL     1      20.220 -12.927  21.535  1.00  0.00     0.042 C 
BRANCH  20  21
HETATM   21  C11 UNL     1      20.171 -14.147  22.333  1.00  0.00    -0.030 A 
HETATM   22  C12 UNL     1      19.150 -15.024  22.019  1.00  0.00     0.026 A 
HETATM   23  C13 UNL     1      19.009 -16.240  22.594  1.00  0.00     0.092 A 
HETATM   24  N4  UNL     1      19.899 -16.623  23.518  1.00  0.00    -0.349 N 
HETATM   25  C16 UNL     1      20.927 -15.773  23.855  1.00  0.00     0.113 A 
HETATM   26  C20 UNL     1      21.106 -14.540  23.304  1.00  0.00     0.078 A 
BRANCH  24  27
HETATM   27  C14 UNL     1      19.744 -17.940  24.132  1.00  0.00     0.124 C 
HETATM   28  C15 UNL     1      18.287 -18.244  24.387  1.00  0.00     0.027 C 
ENDBRANCH  24  27
BRANCH  25  29
HETATM   29  C17 UNL     1      21.804 -16.361  24.858  1.00  0.00    -0.041 C 
HETATM   30  C18 UNL     1      22.574 -16.837  25.672  1.00  0.00    -0.055 C 
BRANCH  30  31
HETATM   31  C19 UNL     1      23.459 -17.415  26.639  1.00  0.00     0.146 C 
HETATM   32  N5  UNL     1      24.651 -16.961  26.806  1.00  0.00    -0.401 N 
ATOM     33  H52 UNL     1      24.956 -16.175  26.231  1.00  0.00     0.156 HD
ATOM     34  H51 UNL     1      25.282 -17.372  27.494  1.00  0.00     0.156 HD
ENDBRANCH  30  31
ENDBRANCH  25  29
BRANCH  26  35
HETATM   35  N6  UNL     1      22.058 -13.592  23.636  1.00  0.00    -0.166 NA
HETATM   36  C21 UNL     1      22.009 -12.973  24.910  1.00  0.00     0.150 C 
BRANCH  35  37
HETATM   37  O2  UNL     1      23.353 -14.096  23.480  1.00  0.00    -0.308 OA
ATOM     38  H2  UNL     1      23.381 -15.032  23.641  1.00  0.00     0.237 HD
ENDBRANCH  35  37
ENDBRANCH  26  35
ENDBRANCH  20  21
ENDBRANCH   1  20
TORSDOF 14
ENDMDL
MODEL 5
REMARK VINA RESULT: -6.329006084      2.611      5.063
REMARK  14 active torsions:
REMARK  status: ('A' for Active; 'I' for Inactive)
REMARK    1  A    between atoms: C2_2  and  C3_3 
REMARK    2  A    between atoms: C3_3  and  N1_4 
REMARK       I    between atoms: N1_4  and  C4_6 
REMARK    3  A    between atoms: C4_6  and  C5_8 
REMARK    4  A    between atoms: C5_8  and  N2_9 
REMARK    5  A    between atoms: N3_12  and  C8_13 
REMARK    6  A    between atoms: C8_13  and  C9_14 
REMARK    7  A    between atoms: C9_14  and  C10_15 
REMARK    8  A    between atoms: C10_15  and  C11_16 
REMARK    9  A    between atoms: N4_19  and  C14_20 
REMARK   10  A    between atoms: C16_22  and  C17_23 
REMARK   11  A    between atoms: C18_24  and  C19_25 
REMARK   12  A    between atoms: C20_29  and  N6_30 
REMARK   13  A    between atoms: N6_30  and  O2_32 
REMARK   14  A    between atoms: C24_36  and  O3_37 
ROOT
HETATM    1  C9  UNL     1      17.780 -16.881  23.112  1.00  0.00     0.033 C 
ENDROOT
BRANCH   1   2
HETATM    2  C8  UNL     1      18.393 -15.522  23.412  1.00  0.00     0.243 C 
BRANCH   2   3
HETATM    3  N3  UNL     1      18.414 -14.788  22.192  1.00  0.00    -0.011 N 
HETATM    4  C7  UNL     1      17.429 -15.232  21.230  1.00  0.00     0.271 C 
HETATM    5  C6  UNL     1      17.207 -14.004  20.329  1.00  0.00     0.276 C 
HETATM    6  N2  UNL     1      18.111 -13.058  20.877  1.00  0.00     0.014 N 
HETATM    7  C23 UNL     1      19.468 -13.498  20.611  1.00  0.00     0.276 C 
HETATM    8  C24 UNL     1      18.033 -13.395  22.318  1.00  0.00     0.536 C 
HETATM    9  C22 UNL     1      19.678 -14.688  21.535  1.00  0.00     0.271 C 
BRANCH   6  10
HETATM   10  C5  UNL     1      17.882 -11.689  20.692  1.00  0.00     0.281 C 
BRANCH  10  11
HETATM   11  C4  UNL     1      16.611 -11.266  20.151  1.00  0.00     0.265 C 
HETATM   12  N1  UNL     1      15.484 -11.114  21.004  1.00  0.00    -0.353 N 
ATOM     13  H1  UNL     1      15.590 -11.308  22.000  1.00  0.00     0.163 HD
HETATM   14  O1  UNL     1      16.456 -11.023  18.940  1.00  0.00    -0.267 OA
BRANCH  12  15
HETATM   15  C3  UNL     1      14.189 -10.694  20.506  1.00  0.00     0.149 C 
BRANCH  15  16
HETATM   16  C2  UNL     1      13.651  -9.543  21.271  1.00  0.00    -0.018 C 
HETATM   17  C1  UNL     1      12.559  -9.634  21.998  1.00  0.00     0.008 C 
ENDBRANCH  15  16
ENDBRANCH  12  15
ENDBRANCH  10  11
ENDBRANCH   6  10
BRANCH   8  18
HETATM   18  O3  UNL     1      16.769 -13.192  22.814  1.00  0.00    -0.348 OA
ATOM     19  H3  UNL     1      16.315 -14.014  22.955  1.00  0.00     0.214 HD
ENDBRANCH   8  18
ENDBRANCH   2   3
ENDBRANCH   1   2
BRANCH   1  20
HETATM   20  C10 UNL     1      18.699 -17.927  23.619  1.00  0.00     0.042 C 
BRANCH  20  21
HETATM   21  C11 UNL     1      19.860 -18.146  22.762  1.00  0.00    -0.030 A 
HETATM   22  C12 UNL     1      19.588 -18.675  21.514  1.00  0.00     0.026 A 
HETATM   23  C13 UNL     1      20.530 -18.858  20.561  1.00  0.00     0.092 A 
HETATM   24  N4  UNL     1      21.794 -18.512  20.831  1.00  0.00    -0.349 N 
HETATM   25  C16 UNL     1      22.100 -17.983  22.064  1.00  0.00     0.113 A 
HETATM   26  C20 UNL     1      21.184 -17.784  23.053  1.00  0.00     0.078 A 
BRANCH  24  27
HETATM   27  C14 UNL     1      22.807 -18.707  19.795  1.00  0.00     0.124 C 
HETATM   28  C15 UNL     1      22.739 -20.109  19.237  1.00  0.00     0.027 C 
ENDBRANCH  24  27
BRANCH  25  29
HETATM   29  C17 UNL     1      23.513 -17.649  22.171  1.00  0.00    -0.041 C 
HETATM   30  C18 UNL     1      24.684 -17.338  22.292  1.00  0.00    -0.055 C 
BRANCH  30  31
HETATM   31  C19 UNL     1      26.066 -16.983  22.410  1.00  0.00     0.146 C 
HETATM   32  N5  UNL     1      26.444 -15.753  22.386  1.00  0.00    -0.401 N 
ATOM     33  H52 UNL     1      25.733 -15.029  22.281  1.00  0.00     0.156 HD
ATOM     34  H51 UNL     1      27.429 -15.500  22.470  1.00  0.00     0.156 HD
ENDBRANCH  30  31
ENDBRANCH  25  29
BRANCH  26  35
HETATM   35  N6  UNL     1      21.412 -17.335  24.342  1.00  0.00    -0.166 NA
HETATM   36  C21 UNL     1      22.288 -18.059  25.188  1.00  0.00     0.150 C 
BRANCH  35  37
HETATM   37  O2  UNL     1      21.851 -16.006  24.347  1.00  0.00    -0.308 OA
ATOM     38  H2  UNL     1      22.702 -15.925  24.763  1.00  0.00     0.237 HD
ENDBRANCH  35  37
ENDBRANCH  26  35
ENDBRANCH  20  21
ENDBRANCH   1  20
TORSDOF 14
ENDMDL
