MODEL 1
REMARK VINA RESULT: -8.426471140      0.000      0.000
REMARK  12 active torsions:
REMARK  status: ('A' for Active; 'I' for Inactive)
REMARK    1  A    between atoms: C2_2  and  C3_3 
REMARK    2  A    between atoms: C3_3  and  C4_4 
REMARK    3  A    between atoms: C4_4  and  C5_5 
REMARK    4  A    between atoms: C5_5  and  C6_6 
REMARK    5  A    between atoms: C6_6  and  N1_7 
REMARK    6  A    between atoms: C9_10  and  C10_11 
REMARK    7  A    between atoms: C10_11  and  C11_12 
REMARK    8  A    between atoms: C11_12  and  C12_13 
REMARK    9  A    between atoms: C12_13  and  C13_14 
REMARK   10  A    between atoms: C13_14  and  C14_15 
REMARK   11  A    between atoms: C16_19  and  N3_20 
REMARK   12  A    between atoms: C21_32  and  N7_33 
ROOT
HETATM    1  C11 UNL     1      19.367 -12.459  20.125  1.00  0.00     0.005 C 
ENDROOT
BRANCH   1   2
HETATM    2  C10 UNL     1      18.912 -13.844  20.587  1.00  0.00     0.042 C 
BRANCH   2   3
HETATM    3  C9  UNL     1      19.418 -14.189  21.895  1.00  0.00    -0.013 C 
HETATM    4  C8  UNL     1      19.387 -13.198  22.881  1.00  0.00     0.028 C 
HETATM    5  C7  UNL     1      20.295 -13.016  23.939  1.00  0.00     0.096 C 
HETATM    6  N1  UNL     1      21.301 -13.826  24.312  1.00  0.00    -0.310 N 
HETATM    7  C24 UNL     1      21.794 -14.864  23.615  1.00  0.00     0.327 C 
HETATM    8  N8  UNL     1      21.190 -15.660  22.667  1.00  0.00    -0.294 N 
HETATM    9  O1  UNL     1      22.993 -15.127  23.891  1.00  0.00    -0.246 OA
HETATM   10  C21 UNL     1      19.950 -15.446  22.085  1.00  0.00     0.112 C 
ATOM     11  H8  UNL     1      21.704 -16.487  22.364  1.00  0.00     0.172 HD
BRANCH   6  12
HETATM   12  C6  UNL     1      21.935 -13.547  25.640  1.00  0.00     0.133 C 
BRANCH  12  13
HETATM   13  C5  UNL     1      20.786 -13.542  26.590  1.00  0.00     0.020 C 
BRANCH  13  14
HETATM   14  C4  UNL     1      20.091 -14.773  26.943  1.00  0.00     0.002 C 
BRANCH  14  15
HETATM   15  C3  UNL     1      18.949 -15.311  26.211  1.00  0.00    -0.000 C 
BRANCH  15  16
HETATM   16  C2  UNL     1      19.051 -16.710  25.749  1.00  0.00    -0.005 C 
HETATM   17  C1  UNL     1      20.443 -17.299  25.959  1.00  0.00     0.005 C 
ENDBRANCH  15  16
ENDBRANCH  14  15
ENDBRANCH  13  14
ENDBRANCH  12  13
ENDBRANCH   6  12
BRANCH  10  18
HETATM   18  N7  UNL     1      19.308 -16.484  21.798  1.00  0.00    -0.375 N 
HETATM   19  C22 UNL     1      19.972 -17.482  20.989  1.00  0.00     0.150 C 
HETATM   20  C23 UNL     1      18.002 -16.813  22.265  1.00  0.00     0.150 C 
ENDBRANCH  10  18
ENDBRANCH   2   3
ENDBRANCH   1   2
BRANCH   1  21
HETATM   21  C12 UNL     1      18.281 -11.441  20.252  1.00  0.00     0.006 C 
BRANCH  21  22
HETATM   22  C13 UNL     1      17.017 -12.066  19.674  1.00  0.00     0.061 C 
BRANCH  22  23
HETATM   23  C14 UNL     1      15.820 -11.488  20.345  1.00  0.00     0.055 A 
HETATM   24  C15 UNL     1      14.926 -12.271  20.967  1.00  0.00     0.102 A 
HETATM   25  N2  UNL     1      14.896 -13.612  21.119  1.00  0.00    -0.188 N 
HETATM   26  C18 UNL     1      13.810 -11.780  21.596  1.00  0.00     0.102 A 
HETATM   27  C16 UNL     1      13.809 -13.963  21.816  1.00  0.00     0.678 A 
ATOM     28  H2  UNL     1      15.597 -14.260  20.757  1.00  0.00     0.184 HD
HETATM   29  N4  UNL     1      13.144 -12.830  22.106  1.00  0.00    -0.188 N 
ATOM     30  H4  UNL     1      12.271 -12.776  22.631  1.00  0.00     0.184 HD
HETATM   31  C19 UNL     1      13.587 -10.480  21.600  1.00  0.00     0.051 A 
HETATM   32  C20 UNL     1      12.392  -9.953  22.274  1.00  0.00     0.072 C 
HETATM   33  N5  UNL     1      14.522  -9.637  20.944  1.00  0.00    -0.303 N 
HETATM   34  N6  UNL     1      15.668 -10.087  20.301  1.00  0.00    -0.302 N 
ATOM     35  H5  UNL     1      14.339  -8.634  20.944  1.00  0.00     0.186 HD
ATOM     36  H6  UNL     1      16.334  -9.465  19.843  1.00  0.00     0.186 HD
BRANCH  27  37
HETATM   37  N3  UNL     1      13.453 -15.161  22.153  1.00  0.00    -0.230 N 
HETATM   38  C17 UNL     1      14.255 -16.320  21.832  1.00  0.00     0.165 C 
ATOM     39  H3  UNL     1      12.578 -15.291  22.662  1.00  0.00     0.177 HD
ENDBRANCH  27  37
ENDBRANCH  22  23
ENDBRANCH  21  22
ENDBRANCH   1  21
TORSDOF 12
ENDMDL
MODEL 2
REMARK VINA RESULT: -8.384709131      1.212      1.957
REMARK  12 active torsions:
REMARK  status: ('A' for Active; 'I' for Inactive)
REMARK    1  A    between atoms: C2_2  and  C3_3 
REMARK    2  A    between atoms: C3_3  and  C4_4 
REMARK    3  A    between atoms: C4_4  and  C5_5 
REMARK    4  A    between atoms: C5_5  and  C6_6 
REMARK    5  A    between atoms: C6_6  and  N1_7 
REMARK    6  A    between atoms: C9_10  and  C10_11 
REMARK    7  A    between atoms: C10_11  and  C11_12 
REMARK    8  A    between atoms: C11_12  and  C12_13 
REMARK    9  A    between atoms: C12_13  and  C13_14 
REMARK   10  A    between atoms: C13_14  and  C14_15 
REMARK   11  A    between atoms: C16_19  and  N3_20 
REMARK   12  A    between atoms: C21_32  and  N7_33 
ROOT
HETATM    1  C11 UNL     1      19.320 -13.272  20.934  1.00  0.00     0.005 C 
ENDROOT
BRANCH   1   2
HETATM    2  C10 UNL     1      18.493 -14.549  20.780  1.00  0.00     0.042 C 
BRANCH   2   3
HETATM    3  C9  UNL     1      18.535 -15.385  21.958  1.00  0.00    -0.013 C 
HETATM    4  C8  UNL     1      18.050 -14.841  23.152  1.00  0.00     0.028 C 
HETATM    5  C7  UNL     1      18.498 -15.111  24.457  1.00  0.00     0.096 C 
HETATM    6  N1  UNL     1      19.386 -16.041  24.849  1.00  0.00    -0.310 N 
HETATM    7  C24 UNL     1      20.201 -16.756  24.056  1.00  0.00     0.327 C 
HETATM    8  N8  UNL     1      20.061 -17.108  22.731  1.00  0.00    -0.294 N 
HETATM    9  O1  UNL     1      21.244 -17.152  24.637  1.00  0.00    -0.246 OA
HETATM   10  C21 UNL     1      19.094 -16.640  21.856  1.00  0.00     0.112 C 
ATOM     11  H8  UNL     1      20.734 -17.778  22.359  1.00  0.00     0.172 HD
BRANCH   6  12
HETATM   12  C6  UNL     1      19.472 -16.313  26.320  1.00  0.00     0.133 C 
BRANCH  12  13
HETATM   13  C5  UNL     1      19.725 -14.971  26.917  1.00  0.00     0.020 C 
BRANCH  13  14
HETATM   14  C4  UNL     1      20.946 -14.231  26.626  1.00  0.00     0.002 C 
BRANCH  14  15
HETATM   15  C3  UNL     1      20.986 -12.811  26.292  1.00  0.00    -0.000 C 
BRANCH  15  16
HETATM   16  C2  UNL     1      21.017 -12.464  24.856  1.00  0.00    -0.005 C 
HETATM   17  C1  UNL     1      21.844 -13.446  24.031  1.00  0.00     0.005 C 
ENDBRANCH  15  16
ENDBRANCH  14  15
ENDBRANCH  13  14
ENDBRANCH  12  13
ENDBRANCH   6  12
BRANCH  10  18
HETATM   18  N7  UNL     1      18.709 -17.464  20.992  1.00  0.00    -0.375 N 
HETATM   19  C22 UNL     1      19.710 -18.310  20.380  1.00  0.00     0.150 C 
HETATM   20  C23 UNL     1      17.357 -17.707  20.614  1.00  0.00     0.150 C 
ENDBRANCH  10  18
ENDBRANCH   2   3
ENDBRANCH   1   2
BRANCH   1  21
HETATM   21  C12 UNL     1      18.467 -12.046  20.917  1.00  0.00     0.006 C 
BRANCH  21  22
HETATM   22  C13 UNL     1      17.339 -12.303  19.925  1.00  0.00     0.061 C 
BRANCH  22  23
HETATM   23  C14 UNL     1      16.089 -11.657  20.409  1.00  0.00     0.055 A 
HETATM   24  C15 UNL     1      15.109 -12.377  20.977  1.00  0.00     0.102 A 
HETATM   25  N2  UNL     1      15.028 -13.702  21.220  1.00  0.00    -0.188 N 
HETATM   26  C18 UNL     1      13.941 -11.821  21.435  1.00  0.00     0.102 A 
HETATM   27  C16 UNL     1      13.859 -13.981  21.809  1.00  0.00     0.678 A 
ATOM     28  H2  UNL     1      15.748 -14.387  20.990  1.00  0.00     0.184 HD
HETATM   29  N4  UNL     1      13.194 -12.819  21.938  1.00  0.00    -0.188 N 
ATOM     30  H4  UNL     1      12.268 -12.712  22.352  1.00  0.00     0.184 HD
HETATM   31  C19 UNL     1      13.752 -10.521  21.321  1.00  0.00     0.051 A 
HETATM   32  C20 UNL     1      12.502  -9.924  21.811  1.00  0.00     0.072 C 
HETATM   33  N5  UNL     1      14.778  -9.745  20.718  1.00  0.00    -0.303 N 
HETATM   34  N6  UNL     1      15.978 -10.261  20.248  1.00  0.00    -0.302 N 
ATOM     35  H5  UNL     1      14.623  -8.741  20.626  1.00  0.00     0.186 HD
ATOM     36  H6  UNL     1      16.708  -9.686  19.827  1.00  0.00     0.186 HD
BRANCH  27  37
HETATM   37  N3  UNL     1      13.435 -15.144  22.187  1.00  0.00    -0.230 N 
HETATM   38  C17 UNL     1      14.116 -16.366  21.821  1.00  0.00     0.165 C 
ATOM     39  H3  UNL     1      12.594 -15.201  22.762  1.00  0.00     0.177 HD
ENDBRANCH  27  37
ENDBRANCH  22  23
ENDBRANCH  21  22
ENDBRANCH   1  21
TORSDOF 12
ENDMDL
MODEL 3
REMARK VINA RESULT: -8.115010966      1.330      2.088
REMARK  12 active torsions:
REMARK  status: ('A' for Active; 'I' for Inactive)
REMARK    1  A    between atoms: C2_2  and  C3_3 
REMARK    2  A    between atoms: C3_3  and  C4_4 
REMARK    3  A    between atoms: C4_4  and  C5_5 
REMARK    4  A    between atoms: C5_5  and  C6_6 
REMARK    5  A    between atoms: C6_6  and  N1_7 
REMARK    6  A    between atoms: C9_10  and  C10_11 
REMARK    7  A    between atoms: C10_11  and  C11_12 
REMARK    8  A    between atoms: C11_12  and  C12_13 
REMARK    9  A    between atoms: C12_13  and  C13_14 
REMARK   10  A    between atoms: C13_14  and  C14_15 
REMARK   11  A    between atoms: C16_19  and  N3_20 
REMARK   12  A    between atoms: C21_32  and  N7_33 
ROOT
HETATM    1  C11 UNL     1      18.076 -12.983  20.152  1.00  0.00     0.005 C 
ENDROOT
BRANCH   1   2
HETATM    2  C10 UNL     1      17.349 -14.145  20.829  1.00  0.00     0.042 C 
BRANCH   2   3
HETATM    3  C9  UNL     1      18.217 -14.928  21.677  1.00  0.00    -0.013 C 
HETATM    4  C8  UNL     1      18.972 -14.244  22.635  1.00  0.00     0.028 C 
HETATM    5  C7  UNL     1      20.249 -14.579  23.116  1.00  0.00     0.096 C 
HETATM    6  N1  UNL     1      20.960 -15.693  22.865  1.00  0.00    -0.310 N 
HETATM    7  C24 UNL     1      20.698 -16.614  21.924  1.00  0.00     0.327 C 
HETATM    8  N8  UNL     1      19.503 -16.959  21.331  1.00  0.00    -0.294 N 
HETATM    9  O1  UNL     1      21.718 -17.246  21.545  1.00  0.00    -0.246 OA
HETATM   10  C21 UNL     1      18.298 -16.287  21.462  1.00  0.00     0.112 C 
ATOM     11  H8  UNL     1      19.505 -17.789  20.739  1.00  0.00     0.172 HD
BRANCH   6  12
HETATM   12  C6  UNL     1      22.163 -15.933  23.725  1.00  0.00     0.133 C 
BRANCH  12  13
HETATM   13  C5  UNL     1      21.587 -16.308  25.048  1.00  0.00     0.020 C 
BRANCH  13  14
HETATM   14  C4  UNL     1      21.626 -15.389  26.177  1.00  0.00     0.002 C 
BRANCH  14  15
HETATM   15  C3  UNL     1      20.555 -14.456  26.514  1.00  0.00    -0.000 C 
BRANCH  15  16
HETATM   16  C2  UNL     1      20.940 -13.045  26.721  1.00  0.00    -0.005 C 
HETATM   17  C1  UNL     1      21.167 -12.299  25.410  1.00  0.00     0.005 C 
ENDBRANCH  15  16
ENDBRANCH  14  15
ENDBRANCH  13  14
ENDBRANCH  12  13
ENDBRANCH   6  12
BRANCH  10  18
HETATM   18  N7  UNL     1      17.275 -17.011  21.436  1.00  0.00    -0.375 N 
HETATM   19  C22 UNL     1      16.816 -17.479  20.146  1.00  0.00     0.150 C 
HETATM   20  C23 UNL     1      16.563 -17.491  22.574  1.00  0.00     0.150 C 
ENDBRANCH  10  18
ENDBRANCH   2   3
ENDBRANCH   1   2
BRANCH   1  21
HETATM   21  C12 UNL     1      17.482 -11.662  20.515  1.00  0.00     0.006 C 
BRANCH  21  22
HETATM   22  C13 UNL     1      16.226 -11.492  19.669  1.00  0.00     0.061 C 
BRANCH  22  23
HETATM   23  C14 UNL     1      15.110 -11.000  20.522  1.00  0.00     0.055 A 
HETATM   24  C15 UNL     1      14.234 -11.850  21.081  1.00  0.00     0.102 A 
HETATM   25  N2  UNL     1      14.161 -13.196  21.014  1.00  0.00    -0.188 N 
HETATM   26  C18 UNL     1      13.192 -11.439  21.872  1.00  0.00     0.102 A 
HETATM   27  C16 UNL     1      13.117 -13.626  21.732  1.00  0.00     0.678 A 
ATOM     28  H2  UNL     1      14.803 -13.794  20.494  1.00  0.00     0.184 HD
HETATM   29  N4  UNL     1      12.524 -12.539  22.258  1.00  0.00    -0.188 N 
ATOM     30  H4  UNL     1      11.697 -12.549  22.855  1.00  0.00     0.184 HD
HETATM   31  C19 UNL     1      13.024 -10.152  22.107  1.00  0.00     0.051 A 
HETATM   32  C20 UNL     1      11.908  -9.710  22.955  1.00  0.00     0.072 C 
HETATM   33  N5  UNL     1      13.940  -9.238  21.521  1.00  0.00    -0.303 N 
HETATM   34  N6  UNL     1      15.013  -9.607  20.721  1.00  0.00    -0.302 N 
ATOM     35  H5  UNL     1      13.800  -8.244  21.701  1.00  0.00     0.186 HD
ATOM     36  H6  UNL     1      15.667  -8.937  20.317  1.00  0.00     0.186 HD
BRANCH  27  37
HETATM   37  N3  UNL     1      12.738 -14.853  21.898  1.00  0.00    -0.230 N 
HETATM   38  C17 UNL     1      13.616 -15.971  21.635  1.00  0.00     0.165 C 
ATOM     39  H3  UNL     1      11.789 -15.037  22.224  1.00  0.00     0.177 HD
ENDBRANCH  27  37
ENDBRANCH  22  23
ENDBRANCH  21  22
ENDBRANCH   1  21
TORSDOF 12
ENDMDL
MODEL 4
REMARK VINA RESULT: -7.804847547      1.886      3.466
REMARK  12 active torsions:
REMARK  status: ('A' for Active; 'I' for Inactive)
REMARK    1  A    between atoms: C2_2  and  C3_3 
REMARK    2  A    between atoms: C3_3  and  C4_4 
REMARK    3  A    between atoms: C4_4  and  C5_5 
REMARK    4  A    between atoms: C5_5  and  C6_6 
REMARK    5  A    between atoms: C6_6  and  N1_7 
REMARK    6  A    between atoms: C9_10  and  C10_11 
REMARK    7  A    between atoms: C10_11  and  C11_12 
REMARK    8  A    between atoms: C11_12  and  C12_13 
REMARK    9  A    between atoms: C12_13  and  C13_14 
REMARK   10  A    between atoms: C13_14  and  C14_15 
REMARK   11  A    between atoms: C16_19  and  N3_20 
REMARK   12  A    between atoms: C21_32  and  N7_33 
ROOT
HETATM    1  C11 UNL     1      18.867 -13.072  20.713  1.00  0.00     0.005 C 
ENDROOT
BRANCH   1   2
HETATM    2  C10 UNL     1      20.043 -13.032  21.689  1.00  0.00     0.042 C 
BRANCH   2   3
HETATM    3  C9  UNL     1      20.180 -14.254  22.448  1.00  0.00    -0.013 C 
HETATM    4  C8  UNL     1      19.988 -15.460  21.767  1.00  0.00     0.028 C 
HETATM    5  C7  UNL     1      19.460 -16.657  22.282  1.00  0.00     0.096 C 
HETATM    6  N1  UNL     1      19.154 -16.942  23.560  1.00  0.00    -0.310 N 
HETATM    7  C24 UNL     1      19.075 -16.070  24.578  1.00  0.00     0.327 C 
HETATM    8  N8  UNL     1      19.697 -14.853  24.751  1.00  0.00    -0.294 N 
HETATM    9  O1  UNL     1      18.309 -16.449  25.502  1.00  0.00    -0.246 OA
HETATM   10  C21 UNL     1      20.433 -14.165  23.799  1.00  0.00     0.112 C 
ATOM     11  H8  UNL     1      19.607 -14.415  25.668  1.00  0.00     0.172 HD
BRANCH   6  12
HETATM   12  C6  UNL     1      18.878 -18.379  23.883  1.00  0.00     0.133 C 
BRANCH  12  13
HETATM   13  C5  UNL     1      17.992 -18.831  22.772  1.00  0.00     0.020 C 
BRANCH  13  14
HETATM   14  C4  UNL     1      16.563 -19.026  22.977  1.00  0.00     0.002 C 
BRANCH  14  15
HETATM   15  C3  UNL     1      15.837 -18.588  24.165  1.00  0.00    -0.000 C 
BRANCH  15  16
HETATM   16  C2  UNL     1      15.274 -19.645  25.030  1.00  0.00    -0.005 C 
HETATM   17  C1  UNL     1      16.171 -19.970  26.221  1.00  0.00     0.005 C 
ENDBRANCH  15  16
ENDBRANCH  14  15
ENDBRANCH  13  14
ENDBRANCH  12  13
ENDBRANCH   6  12
BRANCH  10  18
HETATM   18  N7  UNL     1      21.397 -13.499  24.246  1.00  0.00    -0.375 N 
HETATM   19  C22 UNL     1      21.097 -12.411  25.152  1.00  0.00     0.150 C 
HETATM   20  C23 UNL     1      22.777 -13.766  24.011  1.00  0.00     0.150 C 
ENDBRANCH  10  18
ENDBRANCH   2   3
ENDBRANCH   1   2
BRANCH   1  21
HETATM   21  C12 UNL     1      18.174 -11.753  20.616  1.00  0.00     0.006 C 
BRANCH  21  22
HETATM   22  C13 UNL     1      16.960 -11.954  19.716  1.00  0.00     0.061 C 
BRANCH  22  23
HETATM   23  C14 UNL     1      15.751 -11.382  20.369  1.00  0.00     0.055 A 
HETATM   24  C15 UNL     1      14.858 -12.169  20.990  1.00  0.00     0.102 A 
HETATM   25  N2  UNL     1      14.840 -13.509  21.153  1.00  0.00    -0.188 N 
HETATM   26  C18 UNL     1      13.732 -11.683  21.602  1.00  0.00     0.102 A 
HETATM   27  C16 UNL     1      13.749 -13.864  21.842  1.00  0.00     0.678 A 
ATOM     28  H2  UNL     1      15.550 -14.153  20.804  1.00  0.00     0.184 HD
HETATM   29  N4  UNL     1      13.070 -12.735  22.115  1.00  0.00    -0.188 N 
ATOM     30  H4  UNL     1      12.191 -12.686  22.631  1.00  0.00     0.184 HD
HETATM   31  C19 UNL     1      13.495 -10.386  21.594  1.00  0.00     0.051 A 
HETATM   32  C20 UNL     1      12.289  -9.864  22.251  1.00  0.00     0.072 C 
HETATM   33  N5  UNL     1      14.429  -9.539  20.939  1.00  0.00    -0.303 N 
HETATM   34  N6  UNL     1      15.586  -9.983  20.313  1.00  0.00    -0.302 N 
ATOM     35  H5  UNL     1      14.237  -8.537  20.929  1.00  0.00     0.186 HD
ATOM     36  H6  UNL     1      16.251  -9.358  19.856  1.00  0.00     0.186 HD
BRANCH  27  37
HETATM   37  N3  UNL     1      13.401 -15.062  22.186  1.00  0.00    -0.230 N 
HETATM   38  C17 UNL     1      14.209 -16.218  21.868  1.00  0.00     0.165 C 
ATOM     39  H3  UNL     1      12.528 -15.195  22.697  1.00  0.00     0.177 HD
ENDBRANCH  27  37
ENDBRANCH  22  23
ENDBRANCH  21  22
ENDBRANCH   1  21
TORSDOF 12
ENDMDL
MODEL 5
REMARK VINA RESULT: -7.763473516      1.179      1.672
REMARK  12 active torsions:
REMARK  status: ('A' for Active; 'I' for Inactive)
REMARK    1  A    between atoms: C2_2  and  C3_3 
REMARK    2  A    between atoms: C3_3  and  C4_4 
REMARK    3  A    between atoms: C4_4  and  C5_5 
REMARK    4  A    between atoms: C5_5  and  C6_6 
REMARK    5  A    between atoms: C6_6  and  N1_7 
REMARK    6  A    between atoms: C9_10  and  C10_11 
REMARK    7  A    between atoms: C10_11  and  C11_12 
REMARK    8  A    between atoms: C11_12  and  C12_13 
REMARK    9  A    between atoms: C12_13  and  C13_14 
REMARK   10  A    between atoms: C13_14  and  C14_15 
REMARK   11  A    between atoms: C16_19  and  N3_20 
REMARK   12  A    between atoms: C21_32  and  N7_33 
ROOT
HETATM    1  C11 UNL     1      18.741 -13.065  20.868  1.00  0.00     0.005 C 
ENDROOT
BRANCH   1   2
HETATM    2  C10 UNL     1      18.212 -13.512  22.231  1.00  0.00     0.042 C 
BRANCH   2   3
HETATM    3  C9  UNL     1      19.074 -14.475  22.876  1.00  0.00    -0.013 C 
HETATM    4  C8  UNL     1      19.949 -14.000  23.859  1.00  0.00     0.028 C 
HETATM    5  C7  UNL     1      21.227 -14.492  24.175  1.00  0.00     0.096 C 
HETATM    6  N1  UNL     1      21.826 -15.599  23.702  1.00  0.00    -0.310 N 
HETATM    7  C24 UNL     1      21.423 -16.343  22.659  1.00  0.00     0.327 C 
HETATM    8  N8  UNL     1      20.165 -16.510  22.124  1.00  0.00    -0.294 N 
HETATM    9  O1  UNL     1      22.360 -16.976  22.105  1.00  0.00    -0.246 OA
HETATM   10  C21 UNL     1      19.031 -15.786  22.455  1.00  0.00     0.112 C 
ATOM     11  H8  UNL     1      20.057 -17.237  21.416  1.00  0.00     0.172 HD
BRANCH   6  12
HETATM   12  C6  UNL     1      23.065 -16.051  24.411  1.00  0.00     0.133 C 
BRANCH  12  13
HETATM   13  C5  UNL     1      22.563 -16.554  25.722  1.00  0.00     0.020 C 
BRANCH  13  14
HETATM   14  C4  UNL     1      22.038 -17.906  25.861  1.00  0.00     0.002 C 
BRANCH  14  15
HETATM   15  C3  UNL     1      20.737 -18.225  26.442  1.00  0.00    -0.000 C 
BRANCH  15  16
HETATM   16  C2  UNL     1      19.554 -17.604  25.810  1.00  0.00    -0.005 C 
HETATM   17  C1  UNL     1      19.117 -16.323  26.514  1.00  0.00     0.005 C 
ENDBRANCH  15  16
ENDBRANCH  14  15
ENDBRANCH  13  14
ENDBRANCH  12  13
ENDBRANCH   6  12
BRANCH  10  18
HETATM   18  N7  UNL     1      17.954 -16.427  22.407  1.00  0.00    -0.375 N 
HETATM   19  C22 UNL     1      17.489 -16.863  21.109  1.00  0.00     0.150 C 
HETATM   20  C23 UNL     1      17.179 -16.842  23.529  1.00  0.00     0.150 C 
ENDBRANCH  10  18
ENDBRANCH   2   3
ENDBRANCH   1   2
BRANCH   1  21
HETATM   21  C12 UNL     1      18.179 -11.745  20.453  1.00  0.00     0.006 C 
BRANCH  21  22
HETATM   22  C13 UNL     1      16.913 -12.032  19.655  1.00  0.00     0.061 C 
BRANCH  22  23
HETATM   23  C14 UNL     1      15.741 -11.419  20.337  1.00  0.00     0.055 A 
HETATM   24  C15 UNL     1      14.831 -12.175  20.972  1.00  0.00     0.102 A 
HETATM   25  N2  UNL     1      14.766 -13.514  21.130  1.00  0.00    -0.188 N 
HETATM   26  C18 UNL     1      13.737 -11.650  21.611  1.00  0.00     0.102 A 
HETATM   27  C16 UNL     1      13.678 -13.831  21.841  1.00  0.00     0.678 A 
ATOM     28  H2  UNL     1      15.444 -14.182  20.764  1.00  0.00     0.184 HD
HETATM   29  N4  UNL     1      13.048 -12.679  22.134  1.00  0.00    -0.188 N 
ATOM     30  H4  UNL     1      12.182 -12.599  22.668  1.00  0.00     0.184 HD
HETATM   31  C19 UNL     1      13.550 -10.344  21.613  1.00  0.00     0.051 A 
HETATM   32  C20 UNL     1      12.378  -9.781  22.298  1.00  0.00     0.072 C 
HETATM   33  N5  UNL     1      14.501  -9.531  20.942  1.00  0.00    -0.303 N 
HETATM   34  N6  UNL     1      15.627 -10.014  20.289  1.00  0.00    -0.302 N 
ATOM     35  H5  UNL     1      14.347  -8.522  20.940  1.00  0.00     0.186 HD
ATOM     36  H6  UNL     1      16.305  -9.413  19.821  1.00  0.00     0.186 HD
BRANCH  27  37
HETATM   37  N3  UNL     1      13.292 -15.017  22.187  1.00  0.00    -0.230 N 
HETATM   38  C17 UNL     1      13.956 -16.210  21.712  1.00  0.00     0.165 C 
ATOM     39  H3  UNL     1      12.494 -15.113  22.815  1.00  0.00     0.177 HD
ENDBRANCH  27  37
ENDBRANCH  22  23
ENDBRANCH  21  22
ENDBRANCH   1  21
TORSDOF 12
ENDMDL
