MODEL 1
REMARK VINA RESULT: -6.987997181      0.000      0.000
REMARK  13 active torsions:
REMARK  status: ('A' for Active; 'I' for Inactive)
REMARK    1  A    between atoms: C3_3  and  C4_4 
REMARK    2  A    between atoms: C4_4  and  N1_5 
REMARK    3  A    between atoms: N1_5  and  C5_6 
REMARK    4  A    between atoms: C5_6  and  C6_7 
REMARK    5  A    between atoms: C6_7  and  N2_8 
REMARK       I    between atoms: N2_8  and  C7_10 
REMARK    6  A    between atoms: N4_12  and  C8_14 
REMARK    7  A    between atoms: C8_14  and  C9_15 
REMARK    8  A    between atoms: C9_15  and  C10_16 
REMARK    9  A    between atoms: C10_16  and  C11_17 
REMARK   10  A    between atoms: C11_17  and  N5_18 
REMARK   11  A    between atoms: N6_25  and  N7_27 
REMARK   12  A    between atoms: C19_33  and  O1_34 
REMARK   13  A    between atoms: C21_37  and  O2_38 
ROOT
HETATM    1  C1  UNL     1      16.373 -18.135  19.009  1.00  0.00     0.112 C 
HETATM    2  C2  UNL     1      16.599 -17.122  20.038  1.00  0.00    -0.109 C 
HETATM    3  C3  UNL     1      16.790 -16.299  20.899  1.00  0.00    -0.079 C 
ENDROOT
BRANCH   3   4
HETATM    4  C4  UNL     1      17.015 -15.296  21.909  1.00  0.00     0.331 C 
BRANCH   4   5
HETATM    5  N1  UNL     1      16.661 -13.938  21.521  1.00  0.00    -0.048 N 
HETATM    6  C15 UNL     1      16.737 -13.916  20.095  1.00  0.00     0.245 C 
HETATM    7  C16 UNL     1      16.251 -12.691  19.457  1.00  0.00     0.082 C 
HETATM    8  C17 UNL     1      15.509 -11.830  20.384  1.00  0.00     0.015 C 
HETATM    9  N6  UNL     1      15.543 -10.551  20.168  1.00  0.00    -0.294 N 
HETATM   10  C18 UNL     1      14.761 -12.409  21.508  1.00  0.00     0.095 C 
ATOM     11  H6  UNL     1      16.084 -10.225  19.366  1.00  0.00     0.187 HD
HETATM   12  C19 UNL     1      13.318 -12.687  21.068  1.00  0.00     0.132 C 
HETATM   13  C22 UNL     1      15.295 -13.696  21.994  1.00  0.00     0.232 C 
HETATM   14  C20 UNL     1      12.970 -13.977  21.808  1.00  0.00     0.066 C 
HETATM   15  C21 UNL     1      14.297 -14.716  21.688  1.00  0.00     0.152 C 
BRANCH   5  16
HETATM   16  C5  UNL     1      17.494 -13.008  22.213  1.00  0.00     0.258 C 
BRANCH  16  17
HETATM   17  C6  UNL     1      18.909 -12.864  21.855  1.00  0.00     0.150 C 
BRANCH  17  18
HETATM   18  N2  UNL     1      19.841 -13.858  22.304  1.00  0.00    -0.363 N 
HETATM   19  C7  UNL     1      20.791 -13.495  23.323  1.00  0.00     0.184 C 
HETATM   20  N3  UNL     1      22.135 -13.862  23.175  1.00  0.00    -0.064 NA
HETATM   21  N4  UNL     1      20.370 -12.849  24.333  1.00  0.00    -0.365 N 
ATOM     22  H4  UNL     1      19.378 -12.616  24.375  1.00  0.00     0.162 HD
ATOM     23  H2  UNL     1      19.831 -14.798  21.909  1.00  0.00     0.162 HD
BRANCH  21  24
HETATM   24  C8  UNL     1      21.213 -12.425  25.424  1.00  0.00     0.122 C 
BRANCH  24  25
HETATM   25  C9  UNL     1      20.862 -13.235  26.650  1.00  0.00     0.021 C 
BRANCH  25  26
HETATM   26  C10 UNL     1      19.967 -14.399  26.357  1.00  0.00     0.029 C 
BRANCH  26  27
HETATM   27  C11 UNL     1      20.719 -15.681  26.155  1.00  0.00     0.236 C 
BRANCH  27  28
HETATM   28  N5  UNL     1      19.935 -16.667  25.437  1.00  0.00    -0.079 N 
HETATM   29  C12 UNL     1      18.674 -16.118  24.978  1.00  0.00     0.271 C 
HETATM   30  C13 UNL     1      20.717 -17.158  24.330  1.00  0.00     0.271 C 
HETATM   31  C14 UNL     1      19.663 -17.784  26.351  1.00  0.00     0.271 C 
ENDBRANCH  27  28
ENDBRANCH  26  27
ENDBRANCH  25  26
ENDBRANCH  24  25
ENDBRANCH  21  24
ENDBRANCH  17  18
ENDBRANCH  16  17
ENDBRANCH   5  16
BRANCH   9  32
HETATM   32  N7  UNL     1      14.910  -9.598  20.933  1.00  0.00    -0.249 N 
HETATM   33  N8  UNL     1      13.808  -9.093  20.594  1.00  0.00    -0.331 N 
ATOM     34  H82 UNL     1      13.385  -9.411  19.722  1.00  0.00     0.178 HD
ATOM     35  H81 UNL     1      13.338  -8.387  21.161  1.00  0.00     0.178 HD
ATOM     36  H7  UNL     1      15.346  -9.291  21.802  1.00  0.00     0.207 HD
ENDBRANCH   9  32
BRANCH  12  37
HETATM   37  O1  UNL     1      12.484 -11.648  21.393  1.00  0.00    -0.395 OA
ATOM     38  H1  UNL     1      11.655 -11.708  20.932  1.00  0.00     0.210 HD
ENDBRANCH  12  37
BRANCH  15  39
HETATM   39  O2  UNL     1      14.175 -15.760  22.614  1.00  0.00    -0.393 OA
ATOM     40  H2  UNL     1      13.548 -16.346  22.206  1.00  0.00     0.210 HD
ENDBRANCH  15  39
ENDBRANCH   4   5
ENDBRANCH   3   4
TORSDOF 13
ENDMDL
MODEL 2
REMARK VINA RESULT: -6.803173189      2.655      7.527
REMARK  13 active torsions:
REMARK  status: ('A' for Active; 'I' for Inactive)
REMARK    1  A    between atoms: C3_3  and  C4_4 
REMARK    2  A    between atoms: C4_4  and  N1_5 
REMARK    3  A    between atoms: N1_5  and  C5_6 
REMARK    4  A    between atoms: C5_6  and  C6_7 
REMARK    5  A    between atoms: C6_7  and  N2_8 
REMARK       I    between atoms: N2_8  and  C7_10 
REMARK    6  A    between atoms: N4_12  and  C8_14 
REMARK    7  A    between atoms: C8_14  and  C9_15 
REMARK    8  A    between atoms: C9_15  and  C10_16 
REMARK    9  A    between atoms: C10_16  and  C11_17 
REMARK   10  A    between atoms: C11_17  and  N5_18 
REMARK   11  A    between atoms: N6_25  and  N7_27 
REMARK   12  A    between atoms: C19_33  and  O1_34 
REMARK   13  A    between atoms: C21_37  and  O2_38 
ROOT
HETATM    1  C1  UNL     1      19.852 -12.074  18.688  1.00  0.00     0.112 C 
HETATM    2  C2  UNL     1      19.882 -12.476  20.093  1.00  0.00    -0.109 C 
HETATM    3  C3  UNL     1      19.898 -12.792  21.256  1.00  0.00    -0.079 C 
ENDROOT
BRANCH   3   4
HETATM    4  C4  UNL     1      19.927 -13.194  22.640  1.00  0.00     0.331 C 
BRANCH   4   5
HETATM    5  N1  UNL     1      19.364 -14.508  22.915  1.00  0.00    -0.048 N 
HETATM    6  C15 UNL     1      20.287 -15.444  22.354  1.00  0.00     0.245 C 
HETATM    7  C16 UNL     1      20.021 -16.851  22.659  1.00  0.00     0.082 C 
HETATM    8  C17 UNL     1      19.024 -17.018  23.722  1.00  0.00     0.015 C 
HETATM    9  N6  UNL     1      18.287 -18.086  23.687  1.00  0.00    -0.294 N 
HETATM   10  C18 UNL     1      18.878 -16.006  24.777  1.00  0.00     0.095 C 
ATOM     11  H6  UNL     1      18.449 -18.742  22.923  1.00  0.00     0.187 HD
HETATM   12  C19 UNL     1      19.778 -16.375  25.963  1.00  0.00     0.132 C 
HETATM   13  C22 UNL     1      19.275 -14.644  24.371  1.00  0.00     0.232 C 
HETATM   14  C20 UNL     1      20.260 -15.018  26.471  1.00  0.00     0.066 C 
HETATM   15  C21 UNL     1      20.463 -14.297  25.143  1.00  0.00     0.152 C 
BRANCH   5  16
HETATM   16  C5  UNL     1      18.026 -14.570  22.423  1.00  0.00     0.258 C 
BRANCH  16  17
HETATM   17  C6  UNL     1      17.753 -15.015  21.053  1.00  0.00     0.150 C 
BRANCH  17  18
HETATM   18  N2  UNL     1      17.164 -16.307  20.850  1.00  0.00    -0.363 N 
HETATM   19  C7  UNL     1      15.852 -16.554  21.389  1.00  0.00     0.184 C 
HETATM   20  N3  UNL     1      15.603 -17.749  22.078  1.00  0.00    -0.064 NA
HETATM   21  N4  UNL     1      14.956 -15.669  21.218  1.00  0.00    -0.365 N 
ATOM     22  H4  UNL     1      15.208 -14.823  20.706  1.00  0.00     0.162 HD
ATOM     23  H2  UNL     1      17.663 -17.033  20.337  1.00  0.00     0.162 HD
BRANCH  21  24
HETATM   24  C8  UNL     1      13.603 -15.790  21.704  1.00  0.00     0.122 C 
BRANCH  24  25
HETATM   25  C9  UNL     1      13.071 -14.407  22.004  1.00  0.00     0.021 C 
BRANCH  25  26
HETATM   26  C10 UNL     1      14.049 -13.316  21.698  1.00  0.00     0.029 C 
BRANCH  26  27
HETATM   27  C11 UNL     1      13.389 -12.041  21.264  1.00  0.00     0.236 C 
BRANCH  27  28
HETATM   28  N5  UNL     1      14.333 -11.107  20.683  1.00  0.00    -0.079 N 
HETATM   29  C12 UNL     1      14.074  -9.747  21.113  1.00  0.00     0.271 C 
HETATM   30  C13 UNL     1      15.667 -11.517  21.047  1.00  0.00     0.271 C 
HETATM   31  C14 UNL     1      14.203 -11.177  19.222  1.00  0.00     0.271 C 
ENDBRANCH  27  28
ENDBRANCH  26  27
ENDBRANCH  25  26
ENDBRANCH  24  25
ENDBRANCH  21  24
ENDBRANCH  17  18
ENDBRANCH  16  17
ENDBRANCH   5  16
BRANCH   9  32
HETATM   32  N7  UNL     1      17.306 -18.404  24.598  1.00  0.00    -0.249 N 
HETATM   33  N8  UNL     1      16.747 -19.532  24.611  1.00  0.00    -0.331 N 
ATOM     34  H82 UNL     1      17.043 -20.220  23.919  1.00  0.00     0.178 HD
ATOM     35  H81 UNL     1      16.020 -19.768  25.286  1.00  0.00     0.178 HD
ATOM     36  H7  UNL     1      17.022 -17.705  25.283  1.00  0.00     0.207 HD
ENDBRANCH   9  32
BRANCH  12  37
HETATM   37  O1  UNL     1      19.092 -17.084  26.915  1.00  0.00    -0.395 OA
ATOM     38  H1  UNL     1      19.264 -18.016  26.847  1.00  0.00     0.210 HD
ENDBRANCH  12  37
BRANCH  15  39
HETATM   39  O2  UNL     1      20.587 -12.953  25.519  1.00  0.00    -0.393 OA
ATOM     40  H2  UNL     1      21.185 -12.596  24.871  1.00  0.00     0.210 HD
ENDBRANCH  15  39
ENDBRANCH   4   5
ENDBRANCH   3   4
TORSDOF 13
ENDMDL
MODEL 3
REMARK VINA RESULT: -6.799152705      3.393      8.635
REMARK  13 active torsions:
REMARK  status: ('A' for Active; 'I' for Inactive)
REMARK    1  A    between atoms: C3_3  and  C4_4 
REMARK    2  A    between atoms: C4_4  and  N1_5 
REMARK    3  A    between atoms: N1_5  and  C5_6 
REMARK    4  A    between atoms: C5_6  and  C6_7 
REMARK    5  A    between atoms: C6_7  and  N2_8 
REMARK       I    between atoms: N2_8  and  C7_10 
REMARK    6  A    between atoms: N4_12  and  C8_14 
REMARK    7  A    between atoms: C8_14  and  C9_15 
REMARK    8  A    between atoms: C9_15  and  C10_16 
REMARK    9  A    between atoms: C10_16  and  C11_17 
REMARK   10  A    between atoms: C11_17  and  N5_18 
REMARK   11  A    between atoms: N6_25  and  N7_27 
REMARK   12  A    between atoms: C19_33  and  O1_34 
REMARK   13  A    between atoms: C21_37  and  O2_38 
ROOT
HETATM    1  C1  UNL     1      20.183 -12.038  18.739  1.00  0.00     0.112 C 
HETATM    2  C2  UNL     1      19.763 -12.452  20.076  1.00  0.00    -0.109 C 
HETATM    3  C3  UNL     1      19.425 -12.810  21.177  1.00  0.00    -0.079 C 
ENDROOT
BRANCH   3   4
HETATM    4  C4  UNL     1      19.011 -13.213  22.498  1.00  0.00     0.331 C 
BRANCH   4   5
HETATM    5  N1  UNL     1      19.030 -14.648  22.740  1.00  0.00    -0.048 N 
HETATM    6  C15 UNL     1      19.944 -15.185  21.782  1.00  0.00     0.245 C 
HETATM    7  C16 UNL     1      20.265 -16.604  21.945  1.00  0.00     0.082 C 
HETATM    8  C17 UNL     1      19.814 -17.140  23.234  1.00  0.00     0.015 C 
HETATM    9  N6  UNL     1      19.494 -18.396  23.279  1.00  0.00    -0.294 N 
HETATM   10  C18 UNL     1      19.734 -16.273  24.417  1.00  0.00     0.095 C 
ATOM     11  H6  UNL     1      19.577 -18.932  22.415  1.00  0.00     0.187 HD
HETATM   12  C19 UNL     1      21.060 -16.336  25.185  1.00  0.00     0.132 C 
HETATM   13  C22 UNL     1      19.506 -14.847  24.112  1.00  0.00     0.232 C 
HETATM   14  C20 UNL     1      21.230 -14.911  25.707  1.00  0.00     0.066 C 
HETATM   15  C21 UNL     1      20.713 -14.128  24.506  1.00  0.00     0.152 C 
BRANCH   5  16
HETATM   16  C5  UNL     1      17.699 -15.160  22.700  1.00  0.00     0.258 C 
BRANCH  16  17
HETATM   17  C6  UNL     1      16.892 -15.049  21.480  1.00  0.00     0.150 C 
BRANCH  17  18
HETATM   18  N2  UNL     1      15.626 -14.380  21.548  1.00  0.00    -0.363 N 
HETATM   19  C7  UNL     1      15.519 -13.056  20.992  1.00  0.00     0.184 C 
HETATM   20  N3  UNL     1      14.864 -12.053  21.719  1.00  0.00    -0.064 NA
HETATM   21  N4  UNL     1      16.029 -12.843  19.848  1.00  0.00    -0.365 N 
ATOM     22  H4  UNL     1      16.491 -13.620  19.375  1.00  0.00     0.162 HD
ATOM     23  H2  UNL     1      14.819 -14.831  21.981  1.00  0.00     0.162 HD
BRANCH  21  24
HETATM   24  C8  UNL     1      15.993 -11.566  19.177  1.00  0.00     0.122 C 
BRANCH  24  25
HETATM   25  C9  UNL     1      16.662 -11.709  17.829  1.00  0.00     0.021 C 
BRANCH  25  26
HETATM   26  C10 UNL     1      15.790 -11.292  16.686  1.00  0.00     0.029 C 
BRANCH  26  27
HETATM   27  C11 UNL     1      15.688 -12.336  15.615  1.00  0.00     0.236 C 
BRANCH  27  28
HETATM   28  N5  UNL     1      15.694 -11.758  14.285  1.00  0.00    -0.079 N 
HETATM   29  C12 UNL     1      16.801 -12.253  13.491  1.00  0.00     0.271 C 
HETATM   30  C13 UNL     1      14.432 -12.052  13.651  1.00  0.00     0.271 C 
HETATM   31  C14 UNL     1      15.821 -10.302  14.424  1.00  0.00     0.271 C 
ENDBRANCH  27  28
ENDBRANCH  26  27
ENDBRANCH  25  26
ENDBRANCH  24  25
ENDBRANCH  21  24
ENDBRANCH  17  18
ENDBRANCH  16  17
ENDBRANCH   5  16
BRANCH   9  32
HETATM   32  N7  UNL     1      19.051 -19.064  24.398  1.00  0.00    -0.249 N 
HETATM   33  N8  UNL     1      19.801 -19.824  25.064  1.00  0.00    -0.331 N 
ATOM     34  H82 UNL     1      20.765 -19.938  24.751  1.00  0.00     0.178 HD
ATOM     35  H81 UNL     1      19.473 -20.319  25.894  1.00  0.00     0.178 HD
ATOM     36  H7  UNL     1      18.084 -18.939  24.698  1.00  0.00     0.207 HD
ENDBRANCH   9  32
BRANCH  12  37
HETATM   37  O1  UNL     1      21.016 -17.267  26.191  1.00  0.00    -0.395 OA
ATOM     38  H1  UNL     1      21.885 -17.464  26.522  1.00  0.00     0.210 HD
ENDBRANCH  12  37
BRANCH  15  39
HETATM   39  O2  UNL     1      20.525 -12.836  25.016  1.00  0.00    -0.393 OA
ATOM     40  H2  UNL     1      20.287 -12.328  24.249  1.00  0.00     0.210 HD
ENDBRANCH  15  39
ENDBRANCH   4   5
ENDBRANCH   3   4
TORSDOF 13
ENDMDL
MODEL 4
REMARK VINA RESULT: -6.737535906      3.466      6.326
REMARK  13 active torsions:
REMARK  status: ('A' for Active; 'I' for Inactive)
REMARK    1  A    between atoms: C3_3  and  C4_4 
REMARK    2  A    between atoms: C4_4  and  N1_5 
REMARK    3  A    between atoms: N1_5  and  C5_6 
REMARK    4  A    between atoms: C5_6  and  C6_7 
REMARK    5  A    between atoms: C6_7  and  N2_8 
REMARK       I    between atoms: N2_8  and  C7_10 
REMARK    6  A    between atoms: N4_12  and  C8_14 
REMARK    7  A    between atoms: C8_14  and  C9_15 
REMARK    8  A    between atoms: C9_15  and  C10_16 
REMARK    9  A    between atoms: C10_16  and  C11_17 
REMARK   10  A    between atoms: C11_17  and  N5_18 
REMARK   11  A    between atoms: N6_25  and  N7_27 
REMARK   12  A    between atoms: C19_33  and  O1_34 
REMARK   13  A    between atoms: C21_37  and  O2_38 
ROOT
HETATM    1  C1  UNL     1      16.441 -12.372  19.522  1.00  0.00     0.112 C 
HETATM    2  C2  UNL     1      16.983 -13.213  20.588  1.00  0.00    -0.109 C 
HETATM    3  C3  UNL     1      17.436 -13.917  21.455  1.00  0.00    -0.079 C 
ENDROOT
BRANCH   3   4
HETATM    4  C4  UNL     1      17.971 -14.741  22.510  1.00  0.00     0.331 C 
BRANCH   4   5
HETATM    5  N1  UNL     1      19.397 -14.579  22.758  1.00  0.00    -0.048 N 
HETATM    6  C15 UNL     1      19.575 -13.197  23.072  1.00  0.00     0.245 C 
HETATM    7  C16 UNL     1      20.914 -12.823  23.533  1.00  0.00     0.082 C 
HETATM    8  C17 UNL     1      21.741 -13.988  23.864  1.00  0.00     0.015 C 
HETATM    9  N6  UNL     1      23.023 -13.873  23.708  1.00  0.00    -0.294 N 
HETATM   10  C18 UNL     1      21.124 -15.229  24.352  1.00  0.00     0.095 C 
ATOM     11  H6  UNL     1      23.375 -12.979  23.365  1.00  0.00     0.187 HD
HETATM   12  C19 UNL     1      21.066 -15.199  25.885  1.00  0.00     0.132 C 
HETATM   13  C22 UNL     1      19.737 -15.439  23.895  1.00  0.00     0.232 C 
HETATM   14  C20 UNL     1      19.748 -15.903  26.198  1.00  0.00     0.066 C 
HETATM   15  C21 UNL     1      18.881 -15.351  25.073  1.00  0.00     0.152 C 
BRANCH   5  16
HETATM   16  C5  UNL     1      20.138 -15.075  21.644  1.00  0.00     0.258 C 
BRANCH  16  17
HETATM   17  C6  UNL     1      20.164 -16.510  21.344  1.00  0.00     0.150 C 
BRANCH  17  18
HETATM   18  N2  UNL     1      21.407 -17.114  20.959  1.00  0.00    -0.363 N 
HETATM   19  C7  UNL     1      22.278 -17.609  21.993  1.00  0.00     0.184 C 
HETATM   20  N3  UNL     1      23.648 -17.320  21.937  1.00  0.00    -0.064 NA
HETATM   21  N4  UNL     1      21.766 -18.298  22.929  1.00  0.00    -0.365 N 
ATOM     22  H4  UNL     1      20.761 -18.469  22.905  1.00  0.00     0.162 HD
ATOM     23  H2  UNL     1      21.668 -17.189  19.975  1.00  0.00     0.162 HD
BRANCH  21  24
HETATM   24  C8  UNL     1      22.523 -18.854  24.024  1.00  0.00     0.122 C 
BRANCH  24  25
HETATM   25  C9  UNL     1      21.570 -19.199  25.146  1.00  0.00     0.021 C 
BRANCH  25  26
HETATM   26  C10 UNL     1      20.133 -19.187  24.728  1.00  0.00     0.029 C 
BRANCH  26  27
HETATM   27  C11 UNL     1      19.198 -19.582  25.832  1.00  0.00     0.236 C 
BRANCH  27  28
HETATM   28  N5  UNL     1      17.962 -20.147  25.326  1.00  0.00    -0.079 N 
HETATM   29  C12 UNL     1      16.846 -19.874  26.210  1.00  0.00     0.271 C 
HETATM   30  C13 UNL     1      17.719 -19.614  24.009  1.00  0.00     0.271 C 
HETATM   31  C14 UNL     1      18.138 -21.601  25.218  1.00  0.00     0.271 C 
ENDBRANCH  27  28
ENDBRANCH  26  27
ENDBRANCH  25  26
ENDBRANCH  24  25
ENDBRANCH  21  24
ENDBRANCH  17  18
ENDBRANCH  16  17
ENDBRANCH   5  16
BRANCH   9  32
HETATM   32  N7  UNL     1      23.947 -14.860  23.967  1.00  0.00    -0.249 N 
HETATM   33  N8  UNL     1      25.056 -14.910  23.373  1.00  0.00    -0.331 N 
ATOM     34  H82 UNL     1      25.261 -14.189  22.682  1.00  0.00     0.178 HD
ATOM     35  H81 UNL     1      25.741 -15.641  23.565  1.00  0.00     0.178 HD
ATOM     36  H7  UNL     1      23.727 -15.573  24.661  1.00  0.00     0.207 HD
ENDBRANCH   9  32
BRANCH  12  37
HETATM   37  O1  UNL     1      22.149 -15.830  26.442  1.00  0.00    -0.395 OA
ATOM     38  H1  UNL     1      22.934 -15.701  25.922  1.00  0.00     0.210 HD
ENDBRANCH  12  37
BRANCH  15  39
HETATM   39  O2  UNL     1      17.757 -16.188  25.087  1.00  0.00    -0.393 OA
ATOM     40  H2  UNL     1      18.120 -17.048  24.908  1.00  0.00     0.210 HD
ENDBRANCH  15  39
ENDBRANCH   4   5
ENDBRANCH   3   4
TORSDOF 13
ENDMDL
MODEL 5
REMARK VINA RESULT: -6.728160897      3.050      4.976
REMARK  13 active torsions:
REMARK  status: ('A' for Active; 'I' for Inactive)
REMARK    1  A    between atoms: C3_3  and  C4_4 
REMARK    2  A    between atoms: C4_4  and  N1_5 
REMARK    3  A    between atoms: N1_5  and  C5_6 
REMARK    4  A    between atoms: C5_6  and  C6_7 
REMARK    5  A    between atoms: C6_7  and  N2_8 
REMARK       I    between atoms: N2_8  and  C7_10 
REMARK    6  A    between atoms: N4_12  and  C8_14 
REMARK    7  A    between atoms: C8_14  and  C9_15 
REMARK    8  A    between atoms: C9_15  and  C10_16 
REMARK    9  A    between atoms: C10_16  and  C11_17 
REMARK   10  A    between atoms: C11_17  and  N5_18 
REMARK   11  A    between atoms: N6_25  and  N7_27 
REMARK   12  A    between atoms: C19_33  and  O1_34 
REMARK   13  A    between atoms: C21_37  and  O2_38 
ROOT
HETATM    1  C1  UNL     1      20.664 -17.293  20.959  1.00  0.00     0.112 C 
HETATM    2  C2  UNL     1      19.362 -16.939  21.522  1.00  0.00    -0.109 C 
HETATM    3  C3  UNL     1      18.293 -16.630  21.985  1.00  0.00    -0.079 C 
ENDROOT
BRANCH   3   4
HETATM    4  C4  UNL     1      17.007 -16.287  22.538  1.00  0.00     0.331 C 
BRANCH   4   5
HETATM    5  N1  UNL     1      15.867 -16.589  21.685  1.00  0.00    -0.048 N 
HETATM    6  C15 UNL     1      16.407 -17.276  20.554  1.00  0.00     0.245 C 
HETATM    7  C16 UNL     1      15.422 -17.840  19.629  1.00  0.00     0.082 C 
HETATM    8  C17 UNL     1      14.065 -17.846  20.188  1.00  0.00     0.015 C 
HETATM    9  N6  UNL     1      13.077 -17.745  19.354  1.00  0.00    -0.294 N 
HETATM   10  C18 UNL     1      13.853 -17.964  21.637  1.00  0.00     0.095 C 
ATOM     11  H6  UNL     1      13.305 -17.668  18.363  1.00  0.00     0.187 HD
HETATM   12  C19 UNL     1      13.700 -19.444  22.009  1.00  0.00     0.132 C 
HETATM   13  C22 UNL     1      14.965 -17.448  22.457  1.00  0.00     0.232 C 
HETATM   14  C20 UNL     1      14.384 -19.533  23.372  1.00  0.00     0.066 C 
HETATM   15  C21 UNL     1      15.561 -18.593  23.138  1.00  0.00     0.152 C 
BRANCH   5  16
HETATM   16  C5  UNL     1      15.141 -15.392  21.409  1.00  0.00     0.258 C 
BRANCH  16  17
HETATM   17  C6  UNL     1      15.783 -14.081  21.550  1.00  0.00     0.150 C 
BRANCH  17  18
HETATM   18  N2  UNL     1      16.140 -13.355  20.366  1.00  0.00    -0.363 N 
HETATM   19  C7  UNL     1      17.436 -12.730  20.309  1.00  0.00     0.184 C 
HETATM   20  N3  UNL     1      17.546 -11.413  19.840  1.00  0.00    -0.064 NA
HETATM   21  N4  UNL     1      18.444 -13.402  20.691  1.00  0.00    -0.365 N 
ATOM     22  H4  UNL     1      18.289 -14.355  21.021  1.00  0.00     0.162 HD
ATOM     23  H2  UNL     1      15.491 -13.283  19.582  1.00  0.00     0.162 HD
BRANCH  21  24
HETATM   24  C8  UNL     1      19.795 -12.897  20.686  1.00  0.00     0.122 C 
BRANCH  24  25
HETATM   25  C9  UNL     1      20.513 -13.423  21.909  1.00  0.00     0.021 C 
BRANCH  25  26
HETATM   26  C10 UNL     1      19.698 -13.330  23.161  1.00  0.00     0.029 C 
BRANCH  26  27
HETATM   27  C11 UNL     1      20.535 -13.164  24.395  1.00  0.00     0.236 C 
BRANCH  27  28
HETATM   28  N5  UNL     1      20.396 -14.285  25.304  1.00  0.00    -0.079 N 
HETATM   29  C12 UNL     1      21.269 -15.384  24.936  1.00  0.00     0.271 C 
HETATM   30  C13 UNL     1      20.678 -13.829  26.642  1.00  0.00     0.271 C 
HETATM   31  C14 UNL     1      19.003 -14.746  25.248  1.00  0.00     0.271 C 
ENDBRANCH  27  28
ENDBRANCH  26  27
ENDBRANCH  25  26
ENDBRANCH  24  25
ENDBRANCH  21  24
ENDBRANCH  17  18
ENDBRANCH  16  17
ENDBRANCH   5  16
BRANCH   9  32
HETATM   32  N7  UNL     1      11.744 -17.733  19.699  1.00  0.00    -0.249 N 
HETATM   33  N8  UNL     1      10.849 -17.362  18.896  1.00  0.00    -0.331 N 
ATOM     34  H82 UNL     1      11.137 -17.064  17.964  1.00  0.00     0.178 HD
ATOM     35  H81 UNL     1       9.862 -17.353  19.151  1.00  0.00     0.178 HD
ATOM     36  H7  UNL     1      11.473 -18.034  20.635  1.00  0.00     0.207 HD
ENDBRANCH   9  32
BRANCH  12  37
HETATM   37  O1  UNL     1      12.382 -19.819  22.053  1.00  0.00    -0.395 OA
ATOM     38  H1  UNL     1      11.874 -19.246  22.615  1.00  0.00     0.210 HD
ENDBRANCH  12  37
BRANCH  15  39
HETATM   39  O2  UNL     1      16.054 -18.360  24.429  1.00  0.00    -0.393 OA
ATOM     40  H2  UNL     1      16.021 -19.217  24.836  1.00  0.00     0.210 HD
ENDBRANCH  15  39
ENDBRANCH   4   5
ENDBRANCH   3   4
TORSDOF 13
ENDMDL
