MODEL 1
REMARK VINA RESULT: -6.697569015      0.000      0.000
REMARK  10 active torsions:
REMARK  status: ('A' for Active; 'I' for Inactive)
REMARK    1  A    between atoms: C2_2  and  N1_3 
REMARK    2  A    between atoms: N1_3  and  C3_4 
REMARK    3  A    between atoms: C3_4  and  C4_5 
REMARK    4  A    between atoms: C4_5  and  C5_6 
REMARK    5  A    between atoms: C4_5  and  C10_19 
REMARK    6  A    between atoms: C5_6  and  C6_7 
REMARK    7  A    between atoms: C6_7  and  N3_10 
REMARK       I    between atoms: C8_12  and  N5_14 
REMARK    8  A    between atoms: C10_19  and  N8_20 
REMARK    9  A    between atoms: C15_25  and  C16_26 
REMARK   10  A    between atoms: C16_26  and  N9_27 
ROOT
HETATM    1  C6  UNL     1      16.334 -13.593  21.101  1.00  0.00     0.192 C 
HETATM    2  C7  UNL     1      15.070 -13.214  21.624  1.00  0.00     0.084 C 
HETATM    3  N2  UNL     1      14.062 -12.887  22.030  1.00  0.00    -0.195 NA
ENDROOT
BRANCH   1   4
HETATM    4  C5  UNL     1      16.757 -15.011  21.119  1.00  0.00     0.048 C 
BRANCH   4   5
HETATM    5  C4  UNL     1      17.634 -15.519  22.192  1.00  0.00     0.043 C 
BRANCH   5   6
HETATM    6  C3  UNL     1      19.043 -15.313  22.342  1.00  0.00     0.247 C 
BRANCH   6   7
HETATM    7  N1  UNL     1      19.743 -14.273  22.998  1.00  0.00    -0.041 N 
HETATM    8  C13 UNL     1      19.313 -14.183  24.403  1.00  0.00     0.289 C 
HETATM    9  C14 UNL     1      19.752 -15.453  25.046  1.00  0.00     0.063 C 
HETATM   10  N10 UNL     1      20.021 -13.119  25.027  1.00  0.00    -0.375 N 
HETATM   11  C15 UNL     1      20.874 -15.976  24.123  1.00  0.00     0.047 C 
HETATM   12  C20 UNL     1      21.111 -14.780  23.304  1.00  0.00     0.203 C 
HETATM   13  C21 UNL     1      21.994 -13.741  23.881  1.00  0.00     0.078 C 
HETATM   14  C22 UNL     1      21.254 -12.881  24.817  1.00  0.00     0.059 C 
ATOM     15  H10 UNL     1      19.515 -12.516  25.676  1.00  0.00     0.160 HD
BRANCH   7  16
HETATM   16  C2  UNL     1      19.697 -13.047  22.335  1.00  0.00     0.236 C 
HETATM   17  C1  UNL     1      20.022 -13.101  20.850  1.00  0.00     0.035 C 
ENDBRANCH   7  16
BRANCH  11  18
HETATM   18  C16 UNL     1      21.881 -16.545  25.031  1.00  0.00     0.242 C 
BRANCH  18  19
HETATM   19  N9  UNL     1      22.861 -17.441  24.506  1.00  0.00    -0.078 N 
HETATM   20  C17 UNL     1      24.145 -16.751  24.419  1.00  0.00     0.271 C 
HETATM   21  C18 UNL     1      22.582 -18.084  23.269  1.00  0.00     0.271 C 
HETATM   22  C19 UNL     1      23.137 -18.514  25.510  1.00  0.00     0.271 C 
ENDBRANCH  18  19
ENDBRANCH  11  18
ENDBRANCH   6   7
ENDBRANCH   5   6
BRANCH   5  23
HETATM   23  C10 UNL     1      17.344 -17.053  22.368  1.00  0.00     0.277 C 
BRANCH  23  24
HETATM   24  N8  UNL     1      16.423 -17.275  23.429  1.00  0.00     0.080 N 
HETATM   25  C11 UNL     1      17.076 -18.076  24.429  1.00  0.00     0.309 C 
HETATM   26  C12 UNL     1      15.189 -17.878  23.036  1.00  0.00     0.309 C 
ENDBRANCH  23  24
ENDBRANCH   5  23
ENDBRANCH   4   5
ENDBRANCH   1   4
BRANCH   1  27
HETATM   27  N3  UNL     1      16.409 -13.180  19.701  1.00  0.00    -0.347 N 
HETATM   28  C8  UNL     1      16.769 -12.082  19.231  1.00  0.00     0.191 C 
HETATM   29  N4  UNL     1      17.183 -11.012  20.054  1.00  0.00    -0.063 NA
HETATM   30  N5  UNL     1      16.767 -11.886  17.826  1.00  0.00    -0.307 N 
HETATM   31  C9  UNL     1      15.705 -11.354  17.283  1.00  0.00     0.203 C 
ATOM     32  H5  UNL     1      17.571 -12.152  17.258  1.00  0.00     0.170 HD
HETATM   33  N6  UNL     1      14.586 -10.981  18.057  1.00  0.00    -0.066 NA
HETATM   34  N7  UNL     1      15.631 -11.127  15.877  1.00  0.00    -0.066 NA
ATOM     35  H3  UNL     1      16.128 -13.883  19.018  1.00  0.00     0.163 HD
ENDBRANCH   1  27
TORSDOF 10
ENDMDL
MODEL 2
REMARK VINA RESULT: -6.675330278      0.944      1.131
REMARK  10 active torsions:
REMARK  status: ('A' for Active; 'I' for Inactive)
REMARK    1  A    between atoms: C2_2  and  N1_3 
REMARK    2  A    between atoms: N1_3  and  C3_4 
REMARK    3  A    between atoms: C3_4  and  C4_5 
REMARK    4  A    between atoms: C4_5  and  C5_6 
REMARK    5  A    between atoms: C4_5  and  C10_19 
REMARK    6  A    between atoms: C5_6  and  C6_7 
REMARK    7  A    between atoms: C6_7  and  N3_10 
REMARK       I    between atoms: C8_12  and  N5_14 
REMARK    8  A    between atoms: C10_19  and  N8_20 
REMARK    9  A    between atoms: C15_25  and  C16_26 
REMARK   10  A    between atoms: C16_26  and  N9_27 
ROOT
HETATM    1  C6  UNL     1      16.184 -14.538  21.496  1.00  0.00     0.192 C 
HETATM    2  C7  UNL     1      14.838 -14.923  21.733  1.00  0.00     0.084 C 
HETATM    3  N2  UNL     1      13.754 -15.205  21.914  1.00  0.00    -0.195 NA
ENDROOT
BRANCH   1   4
HETATM    4  C5  UNL     1      17.253 -15.560  21.431  1.00  0.00     0.048 C 
BRANCH   4   5
HETATM    5  C4  UNL     1      18.055 -15.883  22.627  1.00  0.00     0.043 C 
BRANCH   5   6
HETATM    6  C3  UNL     1      19.431 -15.572  22.870  1.00  0.00     0.247 C 
BRANCH   6   7
HETATM    7  N1  UNL     1      20.011 -14.424  23.458  1.00  0.00    -0.041 N 
HETATM    8  C13 UNL     1      19.622 -14.331  24.876  1.00  0.00     0.289 C 
HETATM    9  C14 UNL     1      20.245 -15.505  25.547  1.00  0.00     0.063 C 
HETATM   10  N10 UNL     1      20.206 -13.158  25.431  1.00  0.00    -0.375 N 
HETATM   11  C15 UNL     1      21.394 -15.917  24.600  1.00  0.00     0.047 C 
HETATM   12  C20 UNL     1      21.444 -14.735  23.728  1.00  0.00     0.203 C 
HETATM   13  C21 UNL     1      22.203 -13.567  24.231  1.00  0.00     0.078 C 
HETATM   14  C22 UNL     1      21.389 -12.772  25.163  1.00  0.00     0.059 C 
ATOM     15  H10 UNL     1      19.648 -12.599  26.077  1.00  0.00     0.160 HD
BRANCH   7  16
HETATM   16  C2  UNL     1      19.782 -13.243  22.753  1.00  0.00     0.236 C 
HETATM   17  C1  UNL     1      20.125 -13.296  21.272  1.00  0.00     0.035 C 
ENDBRANCH   7  16
BRANCH  11  18
HETATM   18  C16 UNL     1      22.497 -16.311  25.488  1.00  0.00     0.242 C 
BRANCH  18  19
HETATM   19  N9  UNL     1      23.557 -17.112  24.964  1.00  0.00    -0.078 N 
HETATM   20  C17 UNL     1      24.059 -17.993  26.015  1.00  0.00     0.271 C 
HETATM   21  C18 UNL     1      24.648 -16.447  24.340  1.00  0.00     0.271 C 
HETATM   22  C19 UNL     1      23.001 -18.079  23.968  1.00  0.00     0.271 C 
ENDBRANCH  18  19
ENDBRANCH  11  18
ENDBRANCH   6   7
ENDBRANCH   5   6
BRANCH   5  23
HETATM   23  C10 UNL     1      17.834 -17.403  22.961  1.00  0.00     0.277 C 
BRANCH  23  24
HETATM   24  N8  UNL     1      16.928 -17.555  24.048  1.00  0.00     0.080 N 
HETATM   25  C11 UNL     1      17.564 -18.365  25.051  1.00  0.00     0.309 C 
HETATM   26  C12 UNL     1      15.656 -18.103  23.698  1.00  0.00     0.309 C 
ENDBRANCH  23  24
ENDBRANCH   5  23
ENDBRANCH   4   5
ENDBRANCH   1   4
BRANCH   1  27
HETATM   27  N3  UNL     1      16.253 -13.819  20.226  1.00  0.00    -0.347 N 
HETATM   28  C8  UNL     1      16.606 -12.641  20.018  1.00  0.00     0.191 C 
HETATM   29  N4  UNL     1      17.016 -11.783  21.061  1.00  0.00    -0.063 NA
HETATM   30  N5  UNL     1      16.600 -12.131  18.693  1.00  0.00    -0.307 N 
HETATM   31  C9  UNL     1      15.534 -11.496  18.285  1.00  0.00     0.203 C 
ATOM     32  H5  UNL     1      17.404 -12.257  18.079  1.00  0.00     0.170 HD
HETATM   33  N6  UNL     1      14.415 -11.314  19.126  1.00  0.00    -0.066 NA
HETATM   34  N7  UNL     1      15.456 -10.957  16.968  1.00  0.00    -0.066 NA
ATOM     35  H3  UNL     1      15.975 -14.350  19.401  1.00  0.00     0.163 HD
ENDBRANCH   1  27
TORSDOF 10
ENDMDL
MODEL 3
REMARK VINA RESULT: -6.586269305      1.918      3.284
REMARK  10 active torsions:
REMARK  status: ('A' for Active; 'I' for Inactive)
REMARK    1  A    between atoms: C2_2  and  N1_3 
REMARK    2  A    between atoms: N1_3  and  C3_4 
REMARK    3  A    between atoms: C3_4  and  C4_5 
REMARK    4  A    between atoms: C4_5  and  C5_6 
REMARK    5  A    between atoms: C4_5  and  C10_19 
REMARK    6  A    between atoms: C5_6  and  C6_7 
REMARK    7  A    between atoms: C6_7  and  N3_10 
REMARK       I    between atoms: C8_12  and  N5_14 
REMARK    8  A    between atoms: C10_19  and  N8_20 
REMARK    9  A    between atoms: C15_25  and  C16_26 
REMARK   10  A    between atoms: C16_26  and  N9_27 
ROOT
HETATM    1  C6  UNL     1      15.891 -12.669  21.140  1.00  0.00     0.192 C 
HETATM    2  C7  UNL     1      16.183 -11.664  20.181  1.00  0.00     0.084 C 
HETATM    3  N2  UNL     1      16.390 -10.859  19.408  1.00  0.00    -0.195 NA
ENDROOT
BRANCH   1   4
HETATM    4  C5  UNL     1      16.899 -13.050  22.155  1.00  0.00     0.048 C 
BRANCH   4   5
HETATM    5  C4  UNL     1      17.470 -14.411  22.170  1.00  0.00     0.043 C 
BRANCH   5   6
HETATM    6  C3  UNL     1      18.836 -14.785  22.384  1.00  0.00     0.247 C 
BRANCH   6   7
HETATM    7  N1  UNL     1      19.900 -14.046  22.952  1.00  0.00    -0.041 N 
HETATM    8  C13 UNL     1      19.525 -13.568  24.293  1.00  0.00     0.289 C 
HETATM    9  C14 UNL     1      19.368 -14.788  25.132  1.00  0.00     0.063 C 
HETATM   10  N10 UNL     1      20.608 -12.816  24.826  1.00  0.00    -0.375 N 
HETATM   11  C15 UNL     1      20.177 -15.870  24.381  1.00  0.00     0.047 C 
HETATM   12  C20 UNL     1      20.916 -15.025  23.433  1.00  0.00     0.203 C 
HETATM   13  C21 UNL     1      22.148 -14.376  23.938  1.00  0.00     0.078 C 
HETATM   14  C22 UNL     1      21.828 -13.152  24.688  1.00  0.00     0.059 C 
ATOM     15  H10 UNL     1      20.396 -11.964  25.346  1.00  0.00     0.160 HD
BRANCH   7  16
HETATM   16  C2  UNL     1      20.394 -13.033  22.131  1.00  0.00     0.236 C 
HETATM   17  C1  UNL     1      20.065 -13.178  20.653  1.00  0.00     0.035 C 
ENDBRANCH   7  16
BRANCH  11  18
HETATM   18  C16 UNL     1      20.829 -16.660  25.436  1.00  0.00     0.242 C 
BRANCH  18  19
HETATM   19  N9  UNL     1      20.526 -18.050  25.549  1.00  0.00    -0.078 N 
HETATM   20  C17 UNL     1      19.527 -18.241  26.597  1.00  0.00     0.271 C 
HETATM   21  C18 UNL     1      21.605 -18.953  25.751  1.00  0.00     0.271 C 
HETATM   22  C19 UNL     1      19.798 -18.499  24.322  1.00  0.00     0.271 C 
ENDBRANCH  18  19
ENDBRANCH  11  18
ENDBRANCH   6   7
ENDBRANCH   5   6
BRANCH   5  23
HETATM   23  C10 UNL     1      16.953 -15.167  20.893  1.00  0.00     0.277 C 
BRANCH  23  24
HETATM   24  N8  UNL     1      16.359 -16.410  21.248  1.00  0.00     0.080 N 
HETATM   25  C11 UNL     1      16.419 -17.278  20.104  1.00  0.00     0.309 C 
HETATM   26  C12 UNL     1      15.018 -16.319  21.734  1.00  0.00     0.309 C 
ENDBRANCH  23  24
ENDBRANCH   5  23
ENDBRANCH   4   5
ENDBRANCH   1   4
BRANCH   1  27
HETATM   27  N3  UNL     1      14.706 -12.270  21.896  1.00  0.00    -0.347 N 
HETATM   28  C8  UNL     1      13.592 -11.912  21.465  1.00  0.00     0.191 C 
HETATM   29  N4  UNL     1      13.309 -11.839  20.084  1.00  0.00    -0.063 NA
HETATM   30  N5  UNL     1      12.566 -11.561  22.380  1.00  0.00    -0.307 N 
HETATM   31  C9  UNL     1      12.435 -10.303  22.703  1.00  0.00     0.203 C 
ATOM     32  H5  UNL     1      11.948 -12.272  22.773  1.00  0.00     0.170 HD
HETATM   33  N6  UNL     1      13.282  -9.310  22.166  1.00  0.00    -0.066 NA
HETATM   34  N7  UNL     1      11.427  -9.877  23.617  1.00  0.00    -0.066 NA
ATOM     35  H3  UNL     1      14.804 -12.286  22.911  1.00  0.00     0.163 HD
ENDBRANCH   1  27
TORSDOF 10
ENDMDL
MODEL 4
REMARK VINA RESULT: -6.491308831      1.361      1.947
REMARK  10 active torsions:
REMARK  status: ('A' for Active; 'I' for Inactive)
REMARK    1  A    between atoms: C2_2  and  N1_3 
REMARK    2  A    between atoms: N1_3  and  C3_4 
REMARK    3  A    between atoms: C3_4  and  C4_5 
REMARK    4  A    between atoms: C4_5  and  C5_6 
REMARK    5  A    between atoms: C4_5  and  C10_19 
REMARK    6  A    between atoms: C5_6  and  C6_7 
REMARK    7  A    between atoms: C6_7  and  N3_10 
REMARK       I    between atoms: C8_12  and  N5_14 
REMARK    8  A    between atoms: C10_19  and  N8_20 
REMARK    9  A    between atoms: C15_25  and  C16_26 
REMARK   10  A    between atoms: C16_26  and  N9_27 
ROOT
HETATM    1  C6  UNL     1      15.848 -15.637  21.887  1.00  0.00     0.192 C 
HETATM    2  C7  UNL     1      14.711 -16.481  21.784  1.00  0.00     0.084 C 
HETATM    3  N2  UNL     1      13.786 -17.133  21.702  1.00  0.00    -0.195 NA
ENDROOT
BRANCH   1   4
HETATM    4  C5  UNL     1      17.207 -16.183  21.671  1.00  0.00     0.048 C 
BRANCH   4   5
HETATM    5  C4  UNL     1      18.163 -16.276  22.791  1.00  0.00     0.043 C 
BRANCH   5   6
HETATM    6  C3  UNL     1      19.518 -15.815  22.827  1.00  0.00     0.247 C 
BRANCH   6   7
HETATM    7  N1  UNL     1      20.051 -14.604  23.327  1.00  0.00    -0.041 N 
HETATM    8  C13 UNL     1      19.596 -14.385  24.710  1.00  0.00     0.289 C 
HETATM    9  C14 UNL     1      20.206 -15.476  25.519  1.00  0.00     0.063 C 
HETATM   10  N10 UNL     1      20.134 -13.153  25.176  1.00  0.00    -0.375 N 
HETATM   11  C15 UNL     1      21.405 -15.953  24.668  1.00  0.00     0.047 C 
HETATM   12  C20 UNL     1      21.475 -14.859  23.689  1.00  0.00     0.203 C 
HETATM   13  C21 UNL     1      22.191 -13.633  24.110  1.00  0.00     0.078 C 
HETATM   14  C22 UNL     1      21.322 -12.770  24.925  1.00  0.00     0.059 C 
ATOM     15  H10 UNL     1      19.538 -12.546  25.739  1.00  0.00     0.160 HD
BRANCH   7  16
HETATM   16  C2  UNL     1      19.837 -13.501  22.502  1.00  0.00     0.236 C 
HETATM   17  C1  UNL     1      19.914 -13.783  21.010  1.00  0.00     0.035 C 
ENDBRANCH   7  16
BRANCH  11  18
HETATM   18  C16 UNL     1      22.472 -16.238  25.637  1.00  0.00     0.242 C 
BRANCH  18  19
HETATM   19  N9  UNL     1      23.526 -17.127  25.267  1.00  0.00    -0.078 N 
HETATM   20  C17 UNL     1      24.041 -17.787  26.465  1.00  0.00     0.271 C 
HETATM   21  C18 UNL     1      24.609 -16.599  24.513  1.00  0.00     0.271 C 
HETATM   22  C19 UNL     1      22.958 -18.270  24.487  1.00  0.00     0.271 C 
ENDBRANCH  18  19
ENDBRANCH  11  18
ENDBRANCH   6   7
ENDBRANCH   5   6
BRANCH   5  23
HETATM   23  C10 UNL     1      18.137 -17.753  23.327  1.00  0.00     0.277 C 
BRANCH  23  24
HETATM   24  N8  UNL     1      17.380 -17.842  24.529  1.00  0.00     0.080 N 
HETATM   25  C11 UNL     1      18.207 -18.450  25.535  1.00  0.00     0.309 C 
HETATM   26  C12 UNL     1      16.143 -18.546  24.408  1.00  0.00     0.309 C 
ENDBRANCH  23  24
ENDBRANCH   5  23
ENDBRANCH   4   5
ENDBRANCH   1   4
BRANCH   1  27
HETATM   27  N3  UNL     1      15.710 -14.542  20.929  1.00  0.00    -0.347 N 
HETATM   28  C8  UNL     1      15.980 -13.334  21.084  1.00  0.00     0.191 C 
HETATM   29  N4  UNL     1      16.491 -12.828  22.298  1.00  0.00    -0.063 NA
HETATM   30  N5  UNL     1      15.769 -12.426  20.014  1.00  0.00    -0.307 N 
HETATM   31  C9  UNL     1      14.631 -11.788  19.966  1.00  0.00     0.203 C 
ATOM     32  H5  UNL     1      16.486 -12.276  19.304  1.00  0.00     0.170 HD
HETATM   33  N6  UNL     1      13.631 -11.985  20.942  1.00  0.00    -0.066 NA
HETATM   34  N7  UNL     1      14.349 -10.860  18.920  1.00  0.00    -0.066 NA
ATOM     35  H3  UNL     1      15.345 -14.800  20.012  1.00  0.00     0.163 HD
ENDBRANCH   1  27
TORSDOF 10
ENDMDL
MODEL 5
REMARK VINA RESULT: -6.314504768      1.882      2.775
REMARK  10 active torsions:
REMARK  status: ('A' for Active; 'I' for Inactive)
REMARK    1  A    between atoms: C2_2  and  N1_3 
REMARK    2  A    between atoms: N1_3  and  C3_4 
REMARK    3  A    between atoms: C3_4  and  C4_5 
REMARK    4  A    between atoms: C4_5  and  C5_6 
REMARK    5  A    between atoms: C4_5  and  C10_19 
REMARK    6  A    between atoms: C5_6  and  C6_7 
REMARK    7  A    between atoms: C6_7  and  N3_10 
REMARK       I    between atoms: C8_12  and  N5_14 
REMARK    8  A    between atoms: C10_19  and  N8_20 
REMARK    9  A    between atoms: C15_25  and  C16_26 
REMARK   10  A    between atoms: C16_26  and  N9_27 
ROOT
HETATM    1  C6  UNL     1      16.161 -15.794  21.829  1.00  0.00     0.192 C 
HETATM    2  C7  UNL     1      15.156 -16.757  22.110  1.00  0.00     0.084 C 
HETATM    3  N2  UNL     1      14.336 -17.506  22.343  1.00  0.00    -0.195 NA
ENDROOT
BRANCH   1   4
HETATM    4  C5  UNL     1      17.342 -16.162  21.016  1.00  0.00     0.048 C 
BRANCH   4   5
HETATM    5  C4  UNL     1      18.605 -16.562  21.668  1.00  0.00     0.043 C 
BRANCH   5   6
HETATM    6  C3  UNL     1      19.772 -15.761  21.879  1.00  0.00     0.247 C 
BRANCH   6   7
HETATM    7  N1  UNL     1      19.953 -14.616  22.689  1.00  0.00    -0.041 N 
HETATM    8  C13 UNL     1      19.317 -14.819  24.002  1.00  0.00     0.289 C 
HETATM    9  C14 UNL     1      20.077 -15.920  24.657  1.00  0.00     0.063 C 
HETATM   10  N10 UNL     1      19.500 -13.646  24.783  1.00  0.00    -0.375 N 
HETATM   11  C15 UNL     1      21.435 -15.932  23.922  1.00  0.00     0.047 C 
HETATM   12  C20 UNL     1      21.351 -14.651  23.207  1.00  0.00     0.203 C 
HETATM   13  C21 UNL     1      21.712 -13.435  23.971  1.00  0.00     0.078 C 
HETATM   14  C22 UNL     1      20.586 -12.980  24.800  1.00  0.00     0.059 C 
ATOM     15  H10 UNL     1      18.724 -13.321  25.359  1.00  0.00     0.160 HD
BRANCH   7  16
HETATM   16  C2  UNL     1      19.574 -13.420  22.081  1.00  0.00     0.236 C 
HETATM   17  C1  UNL     1      19.884 -13.323  20.595  1.00  0.00     0.035 C 
ENDBRANCH   7  16
BRANCH  11  18
HETATM   18  C16 UNL     1      22.432 -16.208  24.966  1.00  0.00     0.242 C 
BRANCH  18  19
HETATM   19  N9  UNL     1      23.699 -16.750  24.590  1.00  0.00    -0.078 N 
HETATM   20  C17 UNL     1      24.278 -17.454  25.731  1.00  0.00     0.271 C 
HETATM   21  C18 UNL     1      24.664 -15.865  24.037  1.00  0.00     0.271 C 
HETATM   22  C19 UNL     1      23.491 -17.853  23.601  1.00  0.00     0.271 C 
ENDBRANCH  18  19
ENDBRANCH  11  18
ENDBRANCH   6   7
ENDBRANCH   5   6
BRANCH   5  23
HETATM   23  C10 UNL     1      19.059 -17.931  21.045  1.00  0.00     0.277 C 
BRANCH  23  24
HETATM   24  N8  UNL     1      20.285 -18.367  21.620  1.00  0.00     0.080 N 
HETATM   25  C11 UNL     1      21.143 -18.818  20.559  1.00  0.00     0.309 C 
HETATM   26  C12 UNL     1      20.152 -19.380  22.619  1.00  0.00     0.309 C 
ENDBRANCH  23  24
ENDBRANCH   5  23
ENDBRANCH   4   5
ENDBRANCH   1   4
BRANCH   1  27
HETATM   27  N3  UNL     1      15.548 -14.662  21.137  1.00  0.00    -0.347 N 
HETATM   28  C8  UNL     1      15.726 -13.443  21.333  1.00  0.00     0.191 C 
HETATM   29  N4  UNL     1      16.607 -12.961  22.324  1.00  0.00    -0.063 NA
HETATM   30  N5  UNL     1      15.024 -12.496  20.542  1.00  0.00    -0.307 N 
HETATM   31  C9  UNL     1      13.893 -12.031  21.001  1.00  0.00     0.203 C 
ATOM     32  H5  UNL     1      15.392 -12.189  19.642  1.00  0.00     0.170 HD
HETATM   33  N6  UNL     1      13.373 -12.448  22.245  1.00  0.00    -0.066 NA
HETATM   34  N7  UNL     1      13.133 -11.078  20.261  1.00  0.00    -0.066 NA
ATOM     35  H3  UNL     1      14.889 -14.900  20.397  1.00  0.00     0.163 HD
ENDBRANCH   1  27
TORSDOF 10
ENDMDL
