MODEL 1
REMARK VINA RESULT: -7.971837537      0.000      0.000
REMARK  13 active torsions:
REMARK  status: ('A' for Active; 'I' for Inactive)
REMARK       I    between atoms: C2_2  and  N1_4 
REMARK    1  A    between atoms: N1_4  and  C3_6 
REMARK    2  A    between atoms: C5_15  and  C6_16 
REMARK    3  A    between atoms: C6_16  and  C7_24 
REMARK    4  A    between atoms: N5_17  and  N6_19 
REMARK    5  A    between atoms: N6_19  and  N7_21 
REMARK    6  A    between atoms: N8_27  and  C10_28 
REMARK    7  A    between atoms: C10_28  and  C11_29 
REMARK    8  A    between atoms: C11_29  and  C12_30 
REMARK    9  A    between atoms: C12_30  and  C13_31 
REMARK   10  A    between atoms: C13_31  and  C14_32 
REMARK   11  A    between atoms: C14_32  and  C15_33 
REMARK   12  A    between atoms: C15_33  and  N9_34 
REMARK   13  A    between atoms: C23_43  and  O2_44 
ROOT
HETATM    1  C6  UNL     1      15.586 -13.217  21.155  1.00  0.00     0.091 C 
HETATM    2  N5  UNL     1      14.974 -14.105  20.451  1.00  0.00    -0.284 N 
ATOM      3  H5  UNL     1      14.041 -13.860  20.119  1.00  0.00     0.188 HD
ENDROOT
BRANCH   1   4
HETATM    4  C5  UNL     1      14.775 -11.984  21.347  1.00  0.00     0.115 A 
HETATM    5  N4  UNL     1      15.107 -10.797  20.849  1.00  0.00    -0.187 N 
HETATM    6  C4  UNL     1      14.273  -9.708  21.005  1.00  0.00     0.678 A 
ATOM      7  H4  UNL     1      15.988 -10.690  20.346  1.00  0.00     0.184 HD
HETATM    8  N2  UNL     1      13.107  -9.780  21.653  1.00  0.00    -0.174 N 
HETATM    9  N3  UNL     1      14.628  -8.570  20.510  1.00  0.00    -0.234 N 
HETATM   10  C3  UNL     1      12.712 -10.973  22.184  1.00  0.00     0.159 A 
ATOM     11  H2  UNL     1      12.518  -8.953  21.749  1.00  0.00     0.186 HD
HETATM   12  C23 UNL     1      13.554 -12.034  22.017  1.00  0.00     0.140 A 
ATOM     13  H32 UNL     1      14.012  -7.765  20.625  1.00  0.00     0.174 HD
ATOM     14  H31 UNL     1      15.519  -8.514  20.015  1.00  0.00     0.174 HD
BRANCH  10  15
HETATM   15  N1  UNL     1      11.588 -10.976  22.789  1.00  0.00    -0.311 N 
HETATM   16  C2  UNL     1      11.430 -10.519  24.103  1.00  0.00     0.219 C 
HETATM   17  C1  UNL     1      11.052  -9.117  24.425  1.00  0.00     0.117 C 
HETATM   18  O1  UNL     1      11.608 -11.304  25.069  1.00  0.00    -0.274 OA
ATOM     19  H1  UNL     1      10.769 -11.327  22.293  1.00  0.00     0.170 HD
ENDBRANCH  10  15
BRANCH  12  20
HETATM   20  O2  UNL     1      13.176 -13.257  22.548  1.00  0.00    -0.355 OA
ATOM     21  H2  UNL     1      13.743 -13.658  23.196  1.00  0.00     0.218 HD
ENDBRANCH  12  20
ENDBRANCH   1   4
BRANCH   1  22
HETATM   22  C7  UNL     1      16.935 -13.386  21.629  1.00  0.00     0.013 A 
HETATM   23  C8  UNL     1      17.300 -13.935  22.845  1.00  0.00     0.034 A 
HETATM   24  C9  UNL     1      18.607 -13.950  23.249  1.00  0.00     0.111 A 
HETATM   25  N8  UNL     1      19.614 -13.447  22.517  1.00  0.00    -0.302 N 
HETATM   26  N10 UNL     1      19.282 -12.922  21.359  1.00  0.00    -0.305 N 
HETATM   27  C21 UNL     1      20.328 -12.364  20.517  1.00  0.00     0.177 C 
HETATM   28  C22 UNL     1      18.001 -12.873  20.896  1.00  0.00     0.123 A 
BRANCH  25  29
HETATM   29  C10 UNL     1      20.979 -13.487  22.984  1.00  0.00     0.148 C 
BRANCH  29  30
HETATM   30  C11 UNL     1      21.181 -12.654  24.230  1.00  0.00     0.022 C 
BRANCH  30  31
HETATM   31  C12 UNL     1      21.779 -13.430  25.354  1.00  0.00     0.002 C 
BRANCH  31  32
HETATM   32  C13 UNL     1      20.905 -13.579  26.555  1.00  0.00     0.002 C 
BRANCH  32  33
HETATM   33  C14 UNL     1      20.010 -14.788  26.485  1.00  0.00     0.020 C 
BRANCH  33  34
HETATM   34  C15 UNL     1      20.816 -16.004  26.020  1.00  0.00     0.128 C 
BRANCH  34  35
HETATM   35  N9  UNL     1      20.009 -16.670  25.027  1.00  0.00    -0.366 N 
HETATM   36  C16 UNL     1      20.473 -17.032  23.821  1.00  0.00     0.090 A 
HETATM   37  C17 UNL     1      19.692 -17.665  22.884  1.00  0.00     0.017 A 
HETATM   38  C18 UNL     1      18.376 -17.935  23.218  1.00  0.00     0.003 A 
HETATM   39  C19 UNL     1      17.878 -17.576  24.449  1.00  0.00     0.017 A 
HETATM   40  C20 UNL     1      18.723 -16.942  25.335  1.00  0.00     0.090 A 
ENDBRANCH  34  35
ENDBRANCH  33  34
ENDBRANCH  32  33
ENDBRANCH  31  32
ENDBRANCH  30  31
ENDBRANCH  29  30
ENDBRANCH  25  29
ENDBRANCH   1  22
BRANCH   2  41
HETATM   41  N6  UNL     1      15.437 -15.324  20.106  1.00  0.00    -0.249 N 
ATOM     42  H6  UNL     1      16.430 -15.546  20.174  1.00  0.00     0.207 HD
BRANCH  41  43
HETATM   43  N7  UNL     1      14.587 -16.202  19.688  1.00  0.00    -0.331 N 
ATOM     44  H72 UNL     1      13.892 -15.946  18.988  1.00  0.00     0.178 HD
ATOM     45  H71 UNL     1      14.637 -17.144  20.077  1.00  0.00     0.178 HD
ENDBRANCH  41  43
ENDBRANCH   2  41
TORSDOF 13
ENDMDL
MODEL 2
REMARK VINA RESULT: -7.866700393      1.825      3.890
REMARK  13 active torsions:
REMARK  status: ('A' for Active; 'I' for Inactive)
REMARK       I    between atoms: C2_2  and  N1_4 
REMARK    1  A    between atoms: N1_4  and  C3_6 
REMARK    2  A    between atoms: C5_15  and  C6_16 
REMARK    3  A    between atoms: C6_16  and  C7_24 
REMARK    4  A    between atoms: N5_17  and  N6_19 
REMARK    5  A    between atoms: N6_19  and  N7_21 
REMARK    6  A    between atoms: N8_27  and  C10_28 
REMARK    7  A    between atoms: C10_28  and  C11_29 
REMARK    8  A    between atoms: C11_29  and  C12_30 
REMARK    9  A    between atoms: C12_30  and  C13_31 
REMARK   10  A    between atoms: C13_31  and  C14_32 
REMARK   11  A    between atoms: C14_32  and  C15_33 
REMARK   12  A    between atoms: C15_33  and  N9_34 
REMARK   13  A    between atoms: C23_43  and  O2_44 
ROOT
HETATM    1  C6  UNL     1      13.987 -14.608  20.477  1.00  0.00     0.091 C 
HETATM    2  N5  UNL     1      12.938 -14.965  19.821  1.00  0.00    -0.284 N 
ATOM      3  H5  UNL     1      12.288 -14.224  19.561  1.00  0.00     0.188 HD
ENDROOT
BRANCH   1   4
HETATM    4  C5  UNL     1      14.028 -13.142  20.732  1.00  0.00     0.115 A 
HETATM    5  N4  UNL     1      15.030 -12.354  20.354  1.00  0.00    -0.187 N 
HETATM    6  C4  UNL     1      14.971 -10.990  20.559  1.00  0.00     0.678 A 
ATOM      7  H4  UNL     1      15.851 -12.763  19.907  1.00  0.00     0.184 HD
HETATM    8  N2  UNL     1      13.926 -10.393  21.138  1.00  0.00    -0.174 N 
HETATM    9  N3  UNL     1      15.963 -10.256  20.180  1.00  0.00    -0.234 N 
HETATM   10  C3  UNL     1      12.867 -11.149  21.546  1.00  0.00     0.159 A 
ATOM     11  H2  UNL     1      13.920  -9.382  21.274  1.00  0.00     0.186 HD
HETATM   12  C23 UNL     1      12.949 -12.495  21.332  1.00  0.00     0.140 A 
ATOM     13  H32 UNL     1      15.920  -9.248  20.332  1.00  0.00     0.174 HD
ATOM     14  H31 UNL     1      16.762 -10.712  19.738  1.00  0.00     0.174 HD
BRANCH  10  15
HETATM   15  N1  UNL     1      11.901 -10.519  22.090  1.00  0.00    -0.311 N 
HETATM   16  C2  UNL     1      11.964 -10.003  23.390  1.00  0.00     0.219 C 
HETATM   17  C1  UNL     1      12.400  -8.611  23.681  1.00  0.00     0.117 C 
HETATM   18  O1  UNL     1      11.647 -10.724  24.371  1.00  0.00    -0.274 OA
ATOM     19  H1  UNL     1      11.043 -10.385  21.554  1.00  0.00     0.170 HD
ENDBRANCH  10  15
BRANCH  12  20
HETATM   20  O2  UNL     1      11.885 -13.286  21.737  1.00  0.00    -0.355 OA
ATOM     21  H2  UNL     1      11.025 -13.095  21.382  1.00  0.00     0.218 HD
ENDBRANCH  12  20
ENDBRANCH   1   4
BRANCH   1  22
HETATM   22  C7  UNL     1      15.032 -15.527  20.847  1.00  0.00     0.013 A 
HETATM   23  C8  UNL     1      16.064 -15.947  20.028  1.00  0.00     0.034 A 
HETATM   24  C9  UNL     1      16.945 -16.909  20.440  1.00  0.00     0.111 A 
HETATM   25  N8  UNL     1      16.881 -17.506  21.642  1.00  0.00    -0.302 N 
HETATM   26  N10 UNL     1      15.905 -17.116  22.431  1.00  0.00    -0.305 N 
HETATM   27  C21 UNL     1      15.785 -17.722  23.747  1.00  0.00     0.177 C 
HETATM   28  C22 UNL     1      14.993 -16.165  22.084  1.00  0.00     0.123 A 
BRANCH  25  29
HETATM   29  C10 UNL     1      17.835 -18.516  22.034  1.00  0.00     0.148 C 
BRANCH  29  30
HETATM   30  C11 UNL     1      19.245 -18.162  21.616  1.00  0.00     0.022 C 
BRANCH  30  31
HETATM   31  C12 UNL     1      19.861 -17.121  22.488  1.00  0.00     0.002 C 
BRANCH  31  32
HETATM   32  C13 UNL     1      20.226 -15.850  21.795  1.00  0.00     0.002 C 
BRANCH  32  33
HETATM   33  C14 UNL     1      19.376 -14.682  22.221  1.00  0.00     0.020 C 
BRANCH  33  34
HETATM   34  C15 UNL     1      18.775 -14.955  23.602  1.00  0.00     0.128 C 
BRANCH  34  35
HETATM   35  N9  UNL     1      19.606 -14.256  24.552  1.00  0.00    -0.366 N 
HETATM   36  C16 UNL     1      19.802 -14.676  25.811  1.00  0.00     0.090 A 
HETATM   37  C17 UNL     1      20.596 -13.999  26.706  1.00  0.00     0.017 A 
HETATM   38  C18 UNL     1      21.212 -12.838  26.271  1.00  0.00     0.003 A 
HETATM   39  C19 UNL     1      21.027 -12.387  24.984  1.00  0.00     0.017 A 
HETATM   40  C20 UNL     1      20.215 -13.121  24.145  1.00  0.00     0.090 A 
ENDBRANCH  34  35
ENDBRANCH  33  34
ENDBRANCH  32  33
ENDBRANCH  31  32
ENDBRANCH  30  31
ENDBRANCH  29  30
ENDBRANCH  25  29
ENDBRANCH   1  22
BRANCH   2  41
HETATM   41  N6  UNL     1      12.609 -16.217  19.440  1.00  0.00    -0.249 N 
ATOM     42  H6  UNL     1      12.265 -16.897  20.118  1.00  0.00     0.207 HD
BRANCH  41  43
HETATM   43  N7  UNL     1      12.742 -16.530  18.194  1.00  0.00    -0.331 N 
ATOM     44  H72 UNL     1      13.633 -16.376  17.722  1.00  0.00     0.178 HD
ATOM     45  H71 UNL     1      11.939 -16.929  17.710  1.00  0.00     0.178 HD
ENDBRANCH  41  43
ENDBRANCH   2  41
TORSDOF 13
ENDMDL
MODEL 3
REMARK VINA RESULT: -7.847386127      1.758      3.491
REMARK  13 active torsions:
REMARK  status: ('A' for Active; 'I' for Inactive)
REMARK       I    between atoms: C2_2  and  N1_4 
REMARK    1  A    between atoms: N1_4  and  C3_6 
REMARK    2  A    between atoms: C5_15  and  C6_16 
REMARK    3  A    between atoms: C6_16  and  C7_24 
REMARK    4  A    between atoms: N5_17  and  N6_19 
REMARK    5  A    between atoms: N6_19  and  N7_21 
REMARK    6  A    between atoms: N8_27  and  C10_28 
REMARK    7  A    between atoms: C10_28  and  C11_29 
REMARK    8  A    between atoms: C11_29  and  C12_30 
REMARK    9  A    between atoms: C12_30  and  C13_31 
REMARK   10  A    between atoms: C13_31  and  C14_32 
REMARK   11  A    between atoms: C14_32  and  C15_33 
REMARK   12  A    between atoms: C15_33  and  N9_34 
REMARK   13  A    between atoms: C23_43  and  O2_44 
ROOT
HETATM    1  C6  UNL     1      14.615 -14.823  20.757  1.00  0.00     0.091 C 
HETATM    2  N5  UNL     1      13.705 -15.345  20.009  1.00  0.00    -0.284 N 
ATOM      3  H5  UNL     1      13.004 -14.708  19.632  1.00  0.00     0.188 HD
ENDROOT
BRANCH   1   4
HETATM    4  C5  UNL     1      14.443 -13.354  20.922  1.00  0.00     0.115 A 
HETATM    5  N4  UNL     1      15.339 -12.456  20.525  1.00  0.00    -0.187 N 
HETATM    6  C4  UNL     1      15.085 -11.104  20.645  1.00  0.00     0.678 A 
ATOM      7  H4  UNL     1      16.224 -12.769  20.128  1.00  0.00     0.184 HD
HETATM    8  N2  UNL     1      13.947 -10.628  21.157  1.00  0.00    -0.174 N 
HETATM    9  N3  UNL     1      15.978 -10.261  20.251  1.00  0.00    -0.234 N 
HETATM   10  C3  UNL     1      12.988 -11.501  21.580  1.00  0.00     0.159 A 
ATOM     11  H2  UNL     1      13.795  -9.622  21.230  1.00  0.00     0.186 HD
HETATM   12  C23 UNL     1      13.264 -12.832  21.451  1.00  0.00     0.140 A 
ATOM     13  H32 UNL     1      15.791  -9.262  20.339  1.00  0.00     0.174 HD
ATOM     14  H31 UNL     1      16.848 -10.624  19.860  1.00  0.00     0.174 HD
BRANCH  10  15
HETATM   15  N1  UNL     1      11.924 -10.983  22.058  1.00  0.00    -0.311 N 
HETATM   16  C2  UNL     1      11.850 -10.454  23.352  1.00  0.00     0.219 C 
HETATM   17  C1  UNL     1      12.104  -9.019  23.648  1.00  0.00     0.117 C 
HETATM   18  O1  UNL     1      11.559 -11.199  24.322  1.00  0.00    -0.274 OA
ATOM     19  H1  UNL     1      11.091 -10.953  21.470  1.00  0.00     0.170 HD
ENDBRANCH  10  15
BRANCH  12  20
HETATM   20  O2  UNL     1      12.305 -13.740  21.874  1.00  0.00    -0.355 OA
ATOM     21  H2  UNL     1      12.587 -14.624  22.082  1.00  0.00     0.218 HD
ENDBRANCH  12  20
ENDBRANCH   1   4
BRANCH   1  22
HETATM   22  C7  UNL     1      15.713 -15.580  21.300  1.00  0.00     0.013 A 
HETATM   23  C8  UNL     1      17.006 -15.591  20.809  1.00  0.00     0.034 A 
HETATM   24  C9  UNL     1      17.952 -16.430  21.331  1.00  0.00     0.111 A 
HETATM   25  N8  UNL     1      17.708 -17.287  22.337  1.00  0.00    -0.302 N 
HETATM   26  N10 UNL     1      16.484 -17.285  22.814  1.00  0.00    -0.305 N 
HETATM   27  C21 UNL     1      16.158 -18.188  23.907  1.00  0.00     0.177 C 
HETATM   28  C22 UNL     1      15.493 -16.478  22.341  1.00  0.00     0.123 A 
BRANCH  25  29
HETATM   29  C10 UNL     1      18.739 -18.152  22.856  1.00  0.00     0.148 C 
BRANCH  29  30
HETATM   30  C11 UNL     1      20.096 -17.485  22.859  1.00  0.00     0.022 C 
BRANCH  30  31
HETATM   31  C12 UNL     1      20.696 -17.401  24.222  1.00  0.00     0.002 C 
BRANCH  31  32
HETATM   32  C13 UNL     1      19.795 -17.819  25.337  1.00  0.00     0.002 C 
BRANCH  32  33
HETATM   33  C14 UNL     1      19.507 -16.705  26.309  1.00  0.00     0.020 C 
BRANCH  33  34
HETATM   34  C15 UNL     1      18.684 -15.615  25.619  1.00  0.00     0.128 C 
BRANCH  34  35
HETATM   35  N9  UNL     1      19.567 -14.486  25.451  1.00  0.00    -0.366 N 
HETATM   36  C16 UNL     1      19.685 -13.807  24.299  1.00  0.00     0.090 A 
HETATM   37  C17 UNL     1      20.531 -12.733  24.153  1.00  0.00     0.017 A 
HETATM   38  C18 UNL     1      21.283 -12.351  25.251  1.00  0.00     0.003 A 
HETATM   39  C19 UNL     1      21.177 -13.031  26.443  1.00  0.00     0.017 A 
HETATM   40  C20 UNL     1      20.307 -14.098  26.511  1.00  0.00     0.090 A 
ENDBRANCH  34  35
ENDBRANCH  33  34
ENDBRANCH  32  33
ENDBRANCH  31  32
ENDBRANCH  30  31
ENDBRANCH  29  30
ENDBRANCH  25  29
ENDBRANCH   1  22
BRANCH   2  41
HETATM   41  N6  UNL     1      13.582 -16.645  19.673  1.00  0.00    -0.249 N 
ATOM     42  H6  UNL     1      13.233 -17.330  20.345  1.00  0.00     0.207 HD
BRANCH  41  43
HETATM   43  N7  UNL     1      13.918 -17.000  18.478  1.00  0.00    -0.331 N 
ATOM     44  H72 UNL     1      14.809 -16.695  18.087  1.00  0.00     0.178 HD
ATOM     45  H71 UNL     1      13.271 -17.586  17.950  1.00  0.00     0.178 HD
ENDBRANCH  41  43
ENDBRANCH   2  41
TORSDOF 13
ENDMDL
MODEL 4
REMARK VINA RESULT: -7.739492454      1.451      2.787
REMARK  13 active torsions:
REMARK  status: ('A' for Active; 'I' for Inactive)
REMARK       I    between atoms: C2_2  and  N1_4 
REMARK    1  A    between atoms: N1_4  and  C3_6 
REMARK    2  A    between atoms: C5_15  and  C6_16 
REMARK    3  A    between atoms: C6_16  and  C7_24 
REMARK    4  A    between atoms: N5_17  and  N6_19 
REMARK    5  A    between atoms: N6_19  and  N7_21 
REMARK    6  A    between atoms: N8_27  and  C10_28 
REMARK    7  A    between atoms: C10_28  and  C11_29 
REMARK    8  A    between atoms: C11_29  and  C12_30 
REMARK    9  A    between atoms: C12_30  and  C13_31 
REMARK   10  A    between atoms: C13_31  and  C14_32 
REMARK   11  A    between atoms: C14_32  and  C15_33 
REMARK   12  A    between atoms: C15_33  and  N9_34 
REMARK   13  A    between atoms: C23_43  and  O2_44 
ROOT
HETATM    1  C6  UNL     1      14.569 -13.591  20.778  1.00  0.00     0.091 C 
HETATM    2  N5  UNL     1      13.632 -14.280  20.225  1.00  0.00    -0.284 N 
ATOM      3  H5  UNL     1      12.737 -13.808  20.091  1.00  0.00     0.188 HD
ENDROOT
BRANCH   1   4
HETATM    4  C5  UNL     1      14.134 -12.210  21.122  1.00  0.00     0.115 A 
HETATM    5  N4  UNL     1      14.737 -11.112  20.676  1.00  0.00    -0.187 N 
HETATM    6  C4  UNL     1      14.239  -9.861  20.977  1.00  0.00     0.678 A 
ATOM      7  H4  UNL     1      15.578 -11.197  20.105  1.00  0.00     0.184 HD
HETATM    8  N2  UNL     1      13.143  -9.681  21.720  1.00  0.00    -0.174 N 
HETATM    9  N3  UNL     1      14.852  -8.817  20.528  1.00  0.00    -0.234 N 
HETATM   10  C3  UNL     1      12.480 -10.770  22.204  1.00  0.00     0.159 A 
ATOM     11  H2  UNL     1      12.806  -8.740  21.922  1.00  0.00     0.186 HD
HETATM   12  C23 UNL     1      12.993 -11.996  21.893  1.00  0.00     0.140 A 
ATOM     13  H32 UNL     1      14.483  -7.892  20.750  1.00  0.00     0.174 HD
ATOM     14  H31 UNL     1      15.689  -8.954  19.961  1.00  0.00     0.174 HD
BRANCH  10  15
HETATM   15  N1  UNL     1      11.440 -10.531  22.905  1.00  0.00    -0.311 N 
HETATM   16  C2  UNL     1      11.502 -10.020  24.207  1.00  0.00     0.219 C 
HETATM   17  C1  UNL     1      11.443  -8.564  24.502  1.00  0.00     0.117 C 
HETATM   18  O1  UNL     1      11.610 -10.802  25.187  1.00  0.00    -0.274 OA
ATOM     19  H1  UNL     1      10.525 -10.721  22.498  1.00  0.00     0.170 HD
ENDBRANCH  10  15
BRANCH  12  20
HETATM   20  O2  UNL     1      12.337 -13.119  22.374  1.00  0.00    -0.355 OA
ATOM     21  H2  UNL     1      12.738 -13.968  22.229  1.00  0.00     0.218 HD
ENDBRANCH  12  20
ENDBRANCH   1   4
BRANCH   1  22
HETATM   22  C7  UNL     1      15.906 -14.093  20.964  1.00  0.00     0.013 A 
HETATM   23  C8  UNL     1      16.244 -15.268  21.609  1.00  0.00     0.034 A 
HETATM   24  C9  UNL     1      17.552 -15.602  21.830  1.00  0.00     0.111 A 
HETATM   25  N8  UNL     1      18.586 -14.835  21.446  1.00  0.00    -0.302 N 
HETATM   26  N10 UNL     1      18.279 -13.716  20.830  1.00  0.00    -0.305 N 
HETATM   27  C21 UNL     1      19.356 -12.844  20.386  1.00  0.00     0.177 C 
HETATM   28  C22 UNL     1      17.000 -13.322  20.580  1.00  0.00     0.123 A 
BRANCH  25  29
HETATM   29  C10 UNL     1      19.951 -15.230  21.699  1.00  0.00     0.148 C 
BRANCH  29  30
HETATM   30  C11 UNL     1      20.191 -16.689  21.384  1.00  0.00     0.022 C 
BRANCH  30  31
HETATM   31  C12 UNL     1      21.393 -17.239  22.076  1.00  0.00     0.002 C 
BRANCH  31  32
HETATM   32  C13 UNL     1      21.106 -18.042  23.301  1.00  0.00     0.002 C 
BRANCH  32  33
HETATM   33  C14 UNL     1      21.348 -17.279  24.576  1.00  0.00     0.020 C 
BRANCH  33  34
HETATM   34  C15 UNL     1      22.450 -16.239  24.356  1.00  0.00     0.128 C 
BRANCH  34  35
HETATM   35  N9  UNL     1      21.966 -15.007  24.931  1.00  0.00    -0.366 N 
HETATM   36  C16 UNL     1      22.150 -13.805  24.362  1.00  0.00     0.090 A 
HETATM   37  C17 UNL     1      21.685 -12.640  24.921  1.00  0.00     0.017 A 
HETATM   38  C18 UNL     1      20.999 -12.729  26.121  1.00  0.00     0.003 A 
HETATM   39  C19 UNL     1      20.797 -13.950  26.723  1.00  0.00     0.017 A 
HETATM   40  C20 UNL     1      21.295 -15.075  26.100  1.00  0.00     0.090 A 
ENDBRANCH  34  35
ENDBRANCH  33  34
ENDBRANCH  32  33
ENDBRANCH  31  32
ENDBRANCH  30  31
ENDBRANCH  29  30
ENDBRANCH  25  29
ENDBRANCH   1  22
BRANCH   2  41
HETATM   41  N6  UNL     1      13.709 -15.559  19.803  1.00  0.00    -0.249 N 
ATOM     42  H6  UNL     1      14.414 -16.193  20.179  1.00  0.00     0.207 HD
BRANCH  41  43
HETATM   43  N7  UNL     1      12.864 -15.958  18.911  1.00  0.00    -0.331 N 
ATOM     44  H72 UNL     1      11.973 -15.475  18.801  1.00  0.00     0.178 HD
ATOM     45  H71 UNL     1      13.118 -16.758  18.332  1.00  0.00     0.178 HD
ENDBRANCH  41  43
ENDBRANCH   2  41
TORSDOF 13
ENDMDL
MODEL 5
REMARK VINA RESULT: -7.670572031      1.331      1.906
REMARK  13 active torsions:
REMARK  status: ('A' for Active; 'I' for Inactive)
REMARK       I    between atoms: C2_2  and  N1_4 
REMARK    1  A    between atoms: N1_4  and  C3_6 
REMARK    2  A    between atoms: C5_15  and  C6_16 
REMARK    3  A    between atoms: C6_16  and  C7_24 
REMARK    4  A    between atoms: N5_17  and  N6_19 
REMARK    5  A    between atoms: N6_19  and  N7_21 
REMARK    6  A    between atoms: N8_27  and  C10_28 
REMARK    7  A    between atoms: C10_28  and  C11_29 
REMARK    8  A    between atoms: C11_29  and  C12_30 
REMARK    9  A    between atoms: C12_30  and  C13_31 
REMARK   10  A    between atoms: C13_31  and  C14_32 
REMARK   11  A    between atoms: C14_32  and  C15_33 
REMARK   12  A    between atoms: C15_33  and  N9_34 
REMARK   13  A    between atoms: C23_43  and  O2_44 
ROOT
HETATM    1  C6  UNL     1      14.610 -13.452  20.769  1.00  0.00     0.091 C 
HETATM    2  N5  UNL     1      13.678 -14.189  20.270  1.00  0.00    -0.284 N 
ATOM      3  H5  UNL     1      12.754 -13.763  20.190  1.00  0.00     0.188 HD
ENDROOT
BRANCH   1   4
HETATM    4  C5  UNL     1      14.126 -12.095  21.140  1.00  0.00     0.115 A 
HETATM    5  N4  UNL     1      14.685 -10.968  20.709  1.00  0.00    -0.187 N 
HETATM    6  C4  UNL     1      14.143  -9.741  21.035  1.00  0.00     0.678 A 
ATOM      7  H4  UNL     1      15.524 -11.011  20.130  1.00  0.00     0.184 HD
HETATM    8  N2  UNL     1      13.046  -9.615  21.787  1.00  0.00    -0.174 N 
HETATM    9  N3  UNL     1      14.713  -8.668  20.600  1.00  0.00    -0.234 N 
HETATM   10  C3  UNL     1      12.427 -10.736  22.258  1.00  0.00     0.159 A 
ATOM     11  H2  UNL     1      12.676  -8.691  22.008  1.00  0.00     0.186 HD
HETATM   12  C23 UNL     1      12.984 -11.937  21.922  1.00  0.00     0.140 A 
ATOM     13  H32 UNL     1      14.312  -7.761  20.840  1.00  0.00     0.174 HD
ATOM     14  H31 UNL     1      15.550  -8.764  20.025  1.00  0.00     0.174 HD
BRANCH  10  15
HETATM   15  N1  UNL     1      11.385 -10.548  22.969  1.00  0.00    -0.311 N 
HETATM   16  C2  UNL     1      11.436 -10.048  24.276  1.00  0.00     0.219 C 
HETATM   17  C1  UNL     1      11.318  -8.598  24.585  1.00  0.00     0.117 C 
HETATM   18  O1  UNL     1      11.586 -10.833  25.247  1.00  0.00    -0.274 OA
ATOM     19  H1  UNL     1      10.475 -10.773  22.569  1.00  0.00     0.170 HD
ENDBRANCH  10  15
BRANCH  12  20
HETATM   20  O2  UNL     1      12.373 -13.092  22.387  1.00  0.00    -0.355 OA
ATOM     21  H2  UNL     1      12.895 -13.884  22.439  1.00  0.00     0.218 HD
ENDBRANCH  12  20
ENDBRANCH   1   4
BRANCH   1  22
HETATM   22  C7  UNL     1      15.979 -13.886  20.875  1.00  0.00     0.013 A 
HETATM   23  C8  UNL     1      16.419 -15.007  21.555  1.00  0.00     0.034 A 
HETATM   24  C9  UNL     1      17.755 -15.272  21.689  1.00  0.00     0.111 A 
HETATM   25  N8  UNL     1      18.720 -14.485  21.184  1.00  0.00    -0.302 N 
HETATM   26  N10 UNL     1      18.315 -13.417  20.536  1.00  0.00    -0.305 N 
HETATM   27  C21 UNL     1      19.312 -12.527  19.962  1.00  0.00     0.177 C 
HETATM   28  C22 UNL     1      17.003 -13.092  20.366  1.00  0.00     0.123 A 
BRANCH  25  29
HETATM   29  C10 UNL     1      20.117 -14.807  21.350  1.00  0.00     0.148 C 
BRANCH  29  30
HETATM   30  C11 UNL     1      20.560 -14.702  22.792  1.00  0.00     0.022 C 
BRANCH  30  31
HETATM   31  C12 UNL     1      20.625 -13.292  23.275  1.00  0.00     0.002 C 
BRANCH  31  32
HETATM   32  C13 UNL     1      21.581 -13.051  24.396  1.00  0.00     0.002 C 
BRANCH  32  33
HETATM   33  C14 UNL     1      20.900 -12.630  25.671  1.00  0.00     0.020 C 
BRANCH  33  34
HETATM   34  C15 UNL     1      21.279 -13.588  26.803  1.00  0.00     0.128 C 
BRANCH  34  35
HETATM   35  N9  UNL     1      20.809 -14.893  26.405  1.00  0.00    -0.366 N 
HETATM   36  C16 UNL     1      19.508 -15.214  26.318  1.00  0.00     0.090 A 
HETATM   37  C17 UNL     1      19.075 -16.461  25.939  1.00  0.00     0.017 A 
HETATM   38  C18 UNL     1      20.034 -17.413  25.636  1.00  0.00     0.003 A 
HETATM   39  C19 UNL     1      21.374 -17.107  25.717  1.00  0.00     0.017 A 
HETATM   40  C20 UNL     1      21.730 -15.833  26.106  1.00  0.00     0.090 A 
ENDBRANCH  34  35
ENDBRANCH  33  34
ENDBRANCH  32  33
ENDBRANCH  31  32
ENDBRANCH  30  31
ENDBRANCH  29  30
ENDBRANCH  25  29
ENDBRANCH   1  22
BRANCH   2  41
HETATM   41  N6  UNL     1      13.795 -15.463  19.843  1.00  0.00    -0.249 N 
ATOM     42  H6  UNL     1      14.582 -15.751  19.261  1.00  0.00     0.207 HD
BRANCH  41  43
HETATM   43  N7  UNL     1      12.882 -16.308  20.192  1.00  0.00    -0.331 N 
ATOM     44  H72 UNL     1      11.907 -16.014  20.242  1.00  0.00     0.178 HD
ATOM     45  H71 UNL     1      13.169 -17.262  20.409  1.00  0.00     0.178 HD
ENDBRANCH  41  43
ENDBRANCH   2  41
TORSDOF 13
ENDMDL
