MODEL 1
REMARK VINA RESULT: -8.635418297      0.000      0.000
REMARK  11 active torsions:
REMARK  status: ('A' for Active; 'I' for Inactive)
REMARK    1  A    between atoms: C6_7  and  C7_8 
REMARK    2  A    between atoms: C7_8  and  C8_9 
REMARK    3  A    between atoms: C8_9  and  N2_10 
REMARK    4  A    between atoms: N4_16  and  C11_17 
REMARK    5  A    between atoms: C11_17  and  C12_18 
REMARK    6  A    between atoms: C12_18  and  C13_19 
REMARK    7  A    between atoms: C16_22  and  C17_23 
REMARK    8  A    between atoms: C17_23  and  C18_24 
REMARK    9  A    between atoms: C18_24  and  C19_25 
REMARK   10  A    between atoms: C21_27  and  N5_28 
REMARK   11  A    between atoms: N9_39  and  C25_40 
ROOT
HETATM    1  C25 UNL     1      15.062 -13.224  21.545  1.00  0.00     0.271 C 
HETATM    2  C26 UNL     1      15.067 -14.604  21.099  1.00  0.00     0.080 C 
HETATM    3  N10 UNL     1      15.081 -15.715  20.730  1.00  0.00    -0.196 NA
ENDROOT
BRANCH   1   4
HETATM    4  N9  UNL     1      16.349 -12.604  21.228  1.00  0.00    -0.166 N 
HETATM    5  C9  UNL     1      16.456 -11.409  20.625  1.00  0.00     0.682 A 
HETATM    6  N2  UNL     1      15.531 -10.682  20.251  1.00  0.00    -0.225 N 
HETATM    7  N3  UNL     1      17.755 -10.959  20.401  1.00  0.00    -0.188 N 
ATOM      8  H2  UNL     1      15.964  -9.858  19.834  1.00  0.00     0.177 HD
HETATM    9  C10 UNL     1      18.824 -11.665  20.762  1.00  0.00     0.201 A 
ATOM     10  H3  UNL     1      17.892 -10.056  19.945  1.00  0.00     0.185 HD
HETATM   11  N4  UNL     1      18.696 -12.853  21.361  1.00  0.00    -0.338 N 
HETATM   12  C24 UNL     1      17.467 -13.304  21.585  1.00  0.00     0.205 A 
BRANCH   6  13
HETATM   13  C8  UNL     1      14.184 -10.499  20.151  1.00  0.00     0.144 C 
BRANCH  13  14
HETATM   14  C7  UNL     1      13.752  -9.414  21.174  1.00  0.00     0.077 C 
BRANCH  14  15
HETATM   15  C6  UNL     1      12.862  -9.963  22.205  1.00  0.00     0.012 A 
HETATM   16  N1  UNL     1      12.474  -9.216  23.248  1.00  0.00    -0.364 N 
HETATM   17  C1  UNL     1      12.917  -7.862  23.433  1.00  0.00     0.155 C 
HETATM   18  C2  UNL     1      11.634  -9.796  24.156  1.00  0.00     0.090 A 
HETATM   19  C3  UNL     1      11.202 -11.092  24.011  1.00  0.00     0.017 A 
HETATM   20  C4  UNL     1      11.595 -11.871  22.941  1.00  0.00     0.003 A 
HETATM   21  C5  UNL     1      12.438 -11.283  22.033  1.00  0.00     0.025 A 
ENDBRANCH  14  15
ENDBRANCH  13  14
ENDBRANCH   6  13
BRANCH  11  22
HETATM   22  C11 UNL     1      19.840 -13.620  21.751  1.00  0.00     0.136 C 
BRANCH  22  23
HETATM   23  C12 UNL     1      20.749 -12.956  22.736  1.00  0.00     0.077 C 
BRANCH  23  24
HETATM   24  C13 UNL     1      20.571 -13.479  24.110  1.00  0.00     0.011 A 
HETATM   25  C14 UNL     1      21.003 -12.910  25.286  1.00  0.00     0.027 A 
HETATM   26  C15 UNL     1      20.625 -13.731  26.322  1.00  0.00     0.027 A 
HETATM   27  C16 UNL     1      19.955 -14.808  25.758  1.00  0.00     0.009 A 
HETATM   28  N8  UNL     1      19.937 -14.633  24.428  1.00  0.00    -0.363 N 
ATOM     29  H8  UNL     1      19.510 -15.273  23.758  1.00  0.00     0.165 HD
BRANCH  27  30
HETATM   30  C17 UNL     1      19.394 -15.910  26.568  1.00  0.00     0.063 C 
BRANCH  30  31
HETATM   31  C18 UNL     1      19.787 -17.231  25.925  1.00  0.00     0.063 C 
BRANCH  31  32
HETATM   32  C19 UNL     1      18.537 -17.913  25.520  1.00  0.00     0.016 A 
HETATM   33  C20 UNL     1      17.692 -17.291  24.626  1.00  0.00     0.073 A 
HETATM   34  C21 UNL     1      16.513 -17.865  24.205  1.00  0.00     0.101 A 
HETATM   35  N6  UNL     1      16.183 -19.074  24.688  1.00  0.00    -0.339 N 
HETATM   36  C22 UNL     1      16.996 -19.696  25.562  1.00  0.00     0.184 A 
ATOM     37  H6  UNL     1      15.316 -19.521  24.392  1.00  0.00     0.168 HD
HETATM   38  N7  UNL     1      18.162 -19.119  25.973  1.00  0.00    -0.351 N 
HETATM   39  C23 UNL     1      18.993 -19.820  26.902  1.00  0.00     0.156 C 
BRANCH  34  40
HETATM   40  N5  UNL     1      15.711 -17.301  23.372  1.00  0.00    -0.385 N 
ATOM     41  H52 UNL     1      16.106 -16.878  22.532  1.00  0.00     0.157 HD
ATOM     42  H51 UNL     1      14.701 -17.257  23.511  1.00  0.00     0.157 HD
ENDBRANCH  34  40
ENDBRANCH  31  32
ENDBRANCH  30  31
ENDBRANCH  27  30
ENDBRANCH  23  24
ENDBRANCH  22  23
ENDBRANCH  11  22
ENDBRANCH   1   4
TORSDOF 11
ENDMDL
MODEL 2
REMARK VINA RESULT: -8.576770207      2.379      8.802
REMARK  11 active torsions:
REMARK  status: ('A' for Active; 'I' for Inactive)
REMARK    1  A    between atoms: C6_7  and  C7_8 
REMARK    2  A    between atoms: C7_8  and  C8_9 
REMARK    3  A    between atoms: C8_9  and  N2_10 
REMARK    4  A    between atoms: N4_16  and  C11_17 
REMARK    5  A    between atoms: C11_17  and  C12_18 
REMARK    6  A    between atoms: C12_18  and  C13_19 
REMARK    7  A    between atoms: C16_22  and  C17_23 
REMARK    8  A    between atoms: C17_23  and  C18_24 
REMARK    9  A    between atoms: C18_24  and  C19_25 
REMARK   10  A    between atoms: C21_27  and  N5_28 
REMARK   11  A    between atoms: N9_39  and  C25_40 
ROOT
HETATM    1  C25 UNL     1      17.745 -16.881  21.362  1.00  0.00     0.271 C 
HETATM    2  C26 UNL     1      17.217 -15.625  20.867  1.00  0.00     0.080 C 
HETATM    3  N10 UNL     1      16.779 -14.615  20.467  1.00  0.00    -0.196 NA
ENDROOT
BRANCH   1   4
HETATM    4  N9  UNL     1      16.690 -17.608  22.069  1.00  0.00    -0.166 N 
HETATM    5  C9  UNL     1      16.666 -17.747  23.404  1.00  0.00     0.682 A 
HETATM    6  N2  UNL     1      17.496 -17.314  24.209  1.00  0.00    -0.225 N 
HETATM    7  N3  UNL     1      15.587 -18.462  23.920  1.00  0.00    -0.188 N 
ATOM      8  H2  UNL     1      17.175 -17.600  25.134  1.00  0.00     0.177 HD
HETATM    9  C10 UNL     1      14.638 -18.975  23.140  1.00  0.00     0.201 A 
ATOM     10  H3  UNL     1      15.522 -18.596  24.929  1.00  0.00     0.185 HD
HETATM   11  N4  UNL     1      14.679 -18.826  21.813  1.00  0.00    -0.338 N 
HETATM   12  C24 UNL     1      15.699 -18.147  21.298  1.00  0.00     0.205 A 
BRANCH   6  13
HETATM   13  C8  UNL     1      18.654 -16.620  24.403  1.00  0.00     0.144 C 
BRANCH  13  14
HETATM   14  C7  UNL     1      18.343 -15.101  24.324  1.00  0.00     0.077 C 
BRANCH  14  15
HETATM   15  C6  UNL     1      19.448 -14.292  24.854  1.00  0.00     0.012 A 
HETATM   16  N1  UNL     1      20.051 -13.368  24.093  1.00  0.00    -0.364 N 
HETATM   17  C1  UNL     1      19.678 -13.133  22.726  1.00  0.00     0.155 C 
HETATM   18  C2  UNL     1      21.062 -12.649  24.665  1.00  0.00     0.090 A 
HETATM   19  C3  UNL     1      21.448 -12.858  25.967  1.00  0.00     0.017 A 
HETATM   20  C4  UNL     1      20.834 -13.807  26.760  1.00  0.00     0.003 A 
HETATM   21  C5  UNL     1      19.820 -14.526  26.181  1.00  0.00     0.025 A 
ENDBRANCH  14  15
ENDBRANCH  13  14
ENDBRANCH   6  13
BRANCH  11  22
HETATM   22  C11 UNL     1      13.663 -19.375  20.967  1.00  0.00     0.136 C 
BRANCH  22  23
HETATM   23  C12 UNL     1      12.304 -18.773  21.128  1.00  0.00     0.077 C 
BRANCH  23  24
HETATM   24  C13 UNL     1      12.177 -17.470  20.433  1.00  0.00     0.011 A 
HETATM   25  C14 UNL     1      11.615 -17.228  19.201  1.00  0.00     0.027 A 
HETATM   26  C15 UNL     1      11.710 -15.881  18.946  1.00  0.00     0.027 A 
HETATM   27  C16 UNL     1      12.339 -15.306  20.042  1.00  0.00     0.009 A 
HETATM   28  N8  UNL     1      12.610 -16.282  20.922  1.00  0.00    -0.363 N 
ATOM     29  H8  UNL     1      13.071 -16.150  21.822  1.00  0.00     0.165 HD
BRANCH  27  30
HETATM   30  C17 UNL     1      12.619 -13.857  20.131  1.00  0.00     0.063 C 
BRANCH  30  31
HETATM   31  C18 UNL     1      13.388 -13.593  21.416  1.00  0.00     0.063 C 
BRANCH  31  32
HETATM   32  C19 UNL     1      13.214 -12.160  21.746  1.00  0.00     0.016 A 
HETATM   33  C20 UNL     1      12.253 -11.794  22.664  1.00  0.00     0.073 A 
HETATM   34  C21 UNL     1      12.036 -10.481  23.018  1.00  0.00     0.101 A 
HETATM   35  N6  UNL     1      12.791  -9.531  22.445  1.00  0.00    -0.339 N 
HETATM   36  C22 UNL     1      13.734  -9.870  21.547  1.00  0.00     0.184 A 
ATOM     37  H6  UNL     1      12.650  -8.551  22.691  1.00  0.00     0.168 HD
HETATM   38  N7  UNL     1      13.943 -11.173  21.202  1.00  0.00    -0.351 N 
HETATM   39  C23 UNL     1      14.957 -11.483  20.243  1.00  0.00     0.156 C 
BRANCH  34  40
HETATM   40  N5  UNL     1      11.144 -10.119  23.872  1.00  0.00    -0.385 N 
ATOM     41  H52 UNL     1      11.452  -9.834  24.803  1.00  0.00     0.157 HD
ATOM     42  H51 UNL     1      10.146 -10.103  23.665  1.00  0.00     0.157 HD
ENDBRANCH  34  40
ENDBRANCH  31  32
ENDBRANCH  30  31
ENDBRANCH  27  30
ENDBRANCH  23  24
ENDBRANCH  22  23
ENDBRANCH  11  22
ENDBRANCH   1   4
TORSDOF 11
ENDMDL
MODEL 3
REMARK VINA RESULT: -8.570244967      2.148      8.906
REMARK  11 active torsions:
REMARK  status: ('A' for Active; 'I' for Inactive)
REMARK    1  A    between atoms: C6_7  and  C7_8 
REMARK    2  A    between atoms: C7_8  and  C8_9 
REMARK    3  A    between atoms: C8_9  and  N2_10 
REMARK    4  A    between atoms: N4_16  and  C11_17 
REMARK    5  A    between atoms: C11_17  and  C12_18 
REMARK    6  A    between atoms: C12_18  and  C13_19 
REMARK    7  A    between atoms: C16_22  and  C17_23 
REMARK    8  A    between atoms: C17_23  and  C18_24 
REMARK    9  A    between atoms: C18_24  and  C19_25 
REMARK   10  A    between atoms: C21_27  and  N5_28 
REMARK   11  A    between atoms: N9_39  and  C25_40 
ROOT
HETATM    1  C25 UNL     1      18.345 -14.828  23.180  1.00  0.00     0.271 C 
HETATM    2  C26 UNL     1      19.383 -14.388  22.267  1.00  0.00     0.080 C 
HETATM    3  N10 UNL     1      20.224 -14.046  21.528  1.00  0.00    -0.196 NA
ENDROOT
BRANCH   1   4
HETATM    4  N9  UNL     1      17.919 -16.180  22.819  1.00  0.00    -0.166 N 
HETATM    5  C9  UNL     1      17.979 -17.217  23.669  1.00  0.00     0.682 A 
HETATM    6  N2  UNL     1      18.393 -17.199  24.832  1.00  0.00    -0.225 N 
HETATM    7  N3  UNL     1      17.527 -18.436  23.170  1.00  0.00    -0.188 N 
ATOM      8  H2  UNL     1      18.300 -18.151  25.184  1.00  0.00     0.177 HD
HETATM    9  C10 UNL     1      17.064 -18.567  21.929  1.00  0.00     0.201 A 
ATOM     10  H3  UNL     1      17.552 -19.257  23.776  1.00  0.00     0.185 HD
HETATM   11  N4  UNL     1      17.012 -17.522  21.097  1.00  0.00    -0.338 N 
HETATM   12  C24 UNL     1      17.438 -16.349  21.551  1.00  0.00     0.205 A 
BRANCH   6  13
HETATM   13  C8  UNL     1      18.920 -16.463  25.851  1.00  0.00     0.144 C 
BRANCH  13  14
HETATM   14  C7  UNL     1      20.468 -16.541  25.773  1.00  0.00     0.077 C 
BRANCH  14  15
HETATM   15  C6  UNL     1      21.063 -15.235  25.457  1.00  0.00     0.012 A 
HETATM   16  N1  UNL     1      22.031 -15.125  24.537  1.00  0.00    -0.364 N 
HETATM   17  C1  UNL     1      22.557 -16.261  23.832  1.00  0.00     0.155 C 
HETATM   18  C2  UNL     1      22.522 -13.874  24.292  1.00  0.00     0.090 A 
HETATM   19  C3  UNL     1      22.047 -12.771  24.958  1.00  0.00     0.017 A 
HETATM   20  C4  UNL     1      21.050 -12.872  25.907  1.00  0.00     0.003 A 
HETATM   21  C5  UNL     1      20.560 -14.130  26.149  1.00  0.00     0.025 A 
ENDBRANCH  14  15
ENDBRANCH  13  14
ENDBRANCH   6  13
BRANCH  11  22
HETATM   22  C11 UNL     1      16.516 -17.655  19.761  1.00  0.00     0.136 C 
BRANCH  22  23
HETATM   23  C12 UNL     1      15.141 -18.232  19.644  1.00  0.00     0.077 C 
BRANCH  23  24
HETATM   24  C13 UNL     1      14.085 -17.245  19.966  1.00  0.00     0.011 A 
HETATM   25  C14 UNL     1      12.767 -17.496  20.270  1.00  0.00     0.027 A 
HETATM   26  C15 UNL     1      12.144 -16.293  20.501  1.00  0.00     0.027 A 
HETATM   27  C16 UNL     1      13.105 -15.304  20.333  1.00  0.00     0.009 A 
HETATM   28  N8  UNL     1      14.262 -15.902  20.012  1.00  0.00    -0.363 N 
ATOM     29  H8  UNL     1      15.142 -15.419  19.829  1.00  0.00     0.165 HD
BRANCH  27  30
HETATM   30  C17 UNL     1      12.806 -13.866  20.501  1.00  0.00     0.063 C 
BRANCH  30  31
HETATM   31  C18 UNL     1      13.934 -13.228  21.297  1.00  0.00     0.063 C 
BRANCH  31  32
HETATM   32  C19 UNL     1      13.452 -11.909  21.764  1.00  0.00     0.016 A 
HETATM   33  C20 UNL     1      12.428 -11.855  22.686  1.00  0.00     0.073 A 
HETATM   34  C21 UNL     1      11.930 -10.663  23.164  1.00  0.00     0.101 A 
HETATM   35  N6  UNL     1      12.465  -9.519  22.711  1.00  0.00    -0.339 N 
HETATM   36  C22 UNL     1      13.465  -9.552  21.811  1.00  0.00     0.184 A 
ATOM     37  H6  UNL     1      12.114  -8.624  23.050  1.00  0.00     0.168 HD
HETATM   38  N7  UNL     1      13.953 -10.737  21.343  1.00  0.00    -0.351 N 
HETATM   39  C23 UNL     1      15.017 -10.720  20.387  1.00  0.00     0.156 C 
BRANCH  34  40
HETATM   40  N5  UNL     1      10.975 -10.593  24.024  1.00  0.00    -0.385 N 
ATOM     41  H52 UNL     1      11.000 -11.222  24.827  1.00  0.00     0.157 HD
ATOM     42  H51 UNL     1      10.196  -9.940  23.942  1.00  0.00     0.157 HD
ENDBRANCH  34  40
ENDBRANCH  31  32
ENDBRANCH  30  31
ENDBRANCH  27  30
ENDBRANCH  23  24
ENDBRANCH  22  23
ENDBRANCH  11  22
ENDBRANCH   1   4
TORSDOF 11
ENDMDL
MODEL 4
REMARK VINA RESULT: -8.533932788      2.239      8.841
REMARK  11 active torsions:
REMARK  status: ('A' for Active; 'I' for Inactive)
REMARK    1  A    between atoms: C6_7  and  C7_8 
REMARK    2  A    between atoms: C7_8  and  C8_9 
REMARK    3  A    between atoms: C8_9  and  N2_10 
REMARK    4  A    between atoms: N4_16  and  C11_17 
REMARK    5  A    between atoms: C11_17  and  C12_18 
REMARK    6  A    between atoms: C12_18  and  C13_19 
REMARK    7  A    between atoms: C16_22  and  C17_23 
REMARK    8  A    between atoms: C17_23  and  C18_24 
REMARK    9  A    between atoms: C18_24  and  C19_25 
REMARK   10  A    between atoms: C21_27  and  N5_28 
REMARK   11  A    between atoms: N9_39  and  C25_40 
ROOT
HETATM    1  C25 UNL     1      18.338 -14.917  23.166  1.00  0.00     0.271 C 
HETATM    2  C26 UNL     1      19.384 -14.439  22.282  1.00  0.00     0.080 C 
HETATM    3  N10 UNL     1      20.231 -14.066  21.565  1.00  0.00    -0.196 NA
ENDROOT
BRANCH   1   4
HETATM    4  N9  UNL     1      17.957 -16.275  22.781  1.00  0.00    -0.166 N 
HETATM    5  C9  UNL     1      18.037 -17.323  23.616  1.00  0.00     0.682 A 
HETATM    6  N2  UNL     1      18.437 -17.310  24.785  1.00  0.00    -0.225 N 
HETATM    7  N3  UNL     1      17.627 -18.547  23.094  1.00  0.00    -0.188 N 
ATOM      8  H2  UNL     1      18.368 -18.270  25.122  1.00  0.00     0.177 HD
HETATM    9  C10 UNL     1      17.182 -18.673  21.846  1.00  0.00     0.201 A 
ATOM     10  H3  UNL     1      17.669 -19.376  23.689  1.00  0.00     0.185 HD
HETATM   11  N4  UNL     1      17.109 -17.618  21.029  1.00  0.00    -0.338 N 
HETATM   12  C24 UNL     1      17.495 -16.440  21.505  1.00  0.00     0.205 A 
BRANCH   6  13
HETATM   13  C8  UNL     1      18.930 -16.574  25.821  1.00  0.00     0.144 C 
BRANCH  13  14
HETATM   14  C7  UNL     1      20.481 -16.612  25.765  1.00  0.00     0.077 C 
BRANCH  14  15
HETATM   15  C6  UNL     1      21.048 -15.286  25.489  1.00  0.00     0.012 A 
HETATM   16  N1  UNL     1      21.993 -15.123  24.553  1.00  0.00    -0.364 N 
HETATM   17  C1  UNL     1      22.520 -16.220  23.791  1.00  0.00     0.155 C 
HETATM   18  C2  UNL     1      22.459 -13.855  24.348  1.00  0.00     0.090 A 
HETATM   19  C3  UNL     1      21.982 -12.787  25.069  1.00  0.00     0.017 A 
HETATM   20  C4  UNL     1      21.009 -12.944  26.036  1.00  0.00     0.003 A 
HETATM   21  C5  UNL     1      20.544 -14.218  26.237  1.00  0.00     0.025 A 
ENDBRANCH  14  15
ENDBRANCH  13  14
ENDBRANCH   6  13
BRANCH  11  22
HETATM   22  C11 UNL     1      16.633 -17.746  19.685  1.00  0.00     0.136 C 
BRANCH  22  23
HETATM   23  C12 UNL     1      15.289 -18.386  19.541  1.00  0.00     0.077 C 
BRANCH  23  24
HETATM   24  C13 UNL     1      14.186 -17.482  19.942  1.00  0.00     0.011 A 
HETATM   25  C14 UNL     1      12.974 -17.831  20.490  1.00  0.00     0.027 A 
HETATM   26  C15 UNL     1      12.256 -16.679  20.706  1.00  0.00     0.027 A 
HETATM   27  C16 UNL     1      13.050 -15.623  20.281  1.00  0.00     0.009 A 
HETATM   28  N8  UNL     1      14.205 -16.132  19.825  1.00  0.00    -0.363 N 
ATOM     29  H8  UNL     1      14.980 -15.585  19.448  1.00  0.00     0.165 HD
BRANCH  27  30
HETATM   30  C17 UNL     1      12.611 -14.213  20.356  1.00  0.00     0.063 C 
BRANCH  30  31
HETATM   31  C18 UNL     1      13.204 -13.589  21.610  1.00  0.00     0.063 C 
BRANCH  31  32
HETATM   32  C19 UNL     1      13.842 -12.315  21.207  1.00  0.00     0.016 A 
HETATM   33  C20 UNL     1      14.897 -12.343  20.320  1.00  0.00     0.073 A 
HETATM   34  C21 UNL     1      15.538 -11.198  19.902  1.00  0.00     0.101 A 
HETATM   35  N6  UNL     1      15.114 -10.018  20.379  1.00  0.00    -0.339 N 
HETATM   36  C22 UNL     1      14.085  -9.971  21.245  1.00  0.00     0.184 A 
ATOM     37  H6  UNL     1      15.571  -9.155  20.085  1.00  0.00     0.168 HD
HETATM   38  N7  UNL     1      13.456 -11.110  21.654  1.00  0.00    -0.351 N 
HETATM   39  C23 UNL     1      12.367 -11.009  22.576  1.00  0.00     0.156 C 
BRANCH  34  40
HETATM   40  N5  UNL     1      16.524 -11.204  19.075  1.00  0.00    -0.385 N 
ATOM     41  H52 UNL     1      17.412 -11.601  19.384  1.00  0.00     0.157 HD
ATOM     42  H51 UNL     1      16.461 -10.831  18.128  1.00  0.00     0.157 HD
ENDBRANCH  34  40
ENDBRANCH  31  32
ENDBRANCH  30  31
ENDBRANCH  27  30
ENDBRANCH  23  24
ENDBRANCH  22  23
ENDBRANCH  11  22
ENDBRANCH   1   4
TORSDOF 11
ENDMDL
MODEL 5
REMARK VINA RESULT: -8.467844874      2.291      8.654
REMARK  11 active torsions:
REMARK  status: ('A' for Active; 'I' for Inactive)
REMARK    1  A    between atoms: C6_7  and  C7_8 
REMARK    2  A    between atoms: C7_8  and  C8_9 
REMARK    3  A    between atoms: C8_9  and  N2_10 
REMARK    4  A    between atoms: N4_16  and  C11_17 
REMARK    5  A    between atoms: C11_17  and  C12_18 
REMARK    6  A    between atoms: C12_18  and  C13_19 
REMARK    7  A    between atoms: C16_22  and  C17_23 
REMARK    8  A    between atoms: C17_23  and  C18_24 
REMARK    9  A    between atoms: C18_24  and  C19_25 
REMARK   10  A    between atoms: C21_27  and  N5_28 
REMARK   11  A    between atoms: N9_39  and  C25_40 
ROOT
HETATM    1  C25 UNL     1      16.407 -18.658  24.444  1.00  0.00     0.271 C 
HETATM    2  C26 UNL     1      15.073 -19.221  24.528  1.00  0.00     0.080 C 
HETATM    3  N10 UNL     1      13.993 -19.670  24.585  1.00  0.00    -0.196 NA
ENDROOT
BRANCH   1   4
HETATM    4  N9  UNL     1      16.736 -18.392  23.044  1.00  0.00    -0.166 N 
HETATM    5  C9  UNL     1      17.811 -17.680  22.668  1.00  0.00     0.682 A 
HETATM    6  N2  UNL     1      18.647 -17.154  23.408  1.00  0.00    -0.225 N 
HETATM    7  N3  UNL     1      17.984 -17.525  21.295  1.00  0.00    -0.188 N 
ATOM      8  H2  UNL     1      19.322 -16.694  22.797  1.00  0.00     0.177 HD
HETATM    9  C10 UNL     1      17.139 -18.048  20.409  1.00  0.00     0.201 A 
ATOM     10  H3  UNL     1      18.786 -16.992  20.956  1.00  0.00     0.185 HD
HETATM   11  N4  UNL     1      16.075 -18.754  20.803  1.00  0.00    -0.338 N 
HETATM   12  C24 UNL     1      15.889 -18.915  22.108  1.00  0.00     0.205 A 
BRANCH   6  13
HETATM   13  C8  UNL     1      19.064 -16.919  24.685  1.00  0.00     0.144 C 
BRANCH  13  14
HETATM   14  C7  UNL     1      18.457 -15.573  25.166  1.00  0.00     0.077 C 
BRANCH  14  15
HETATM   15  C6  UNL     1      19.472 -14.512  25.233  1.00  0.00     0.012 A 
HETATM   16  N1  UNL     1      19.664 -13.678  24.203  1.00  0.00    -0.364 N 
HETATM   17  C1  UNL     1      18.920 -13.782  22.978  1.00  0.00     0.155 C 
HETATM   18  C2  UNL     1      20.617 -12.711  24.350  1.00  0.00     0.090 A 
HETATM   19  C3  UNL     1      21.351 -12.593  25.505  1.00  0.00     0.017 A 
HETATM   20  C4  UNL     1      21.162 -13.448  26.573  1.00  0.00     0.003 A 
HETATM   21  C5  UNL     1      20.204 -14.417  26.420  1.00  0.00     0.025 A 
ENDBRANCH  14  15
ENDBRANCH  13  14
ENDBRANCH   6  13
BRANCH  11  22
HETATM   22  C11 UNL     1      15.161 -19.319  19.857  1.00  0.00     0.136 C 
BRANCH  22  23
HETATM   23  C12 UNL     1      14.579 -18.353  18.875  1.00  0.00     0.077 C 
BRANCH  23  24
HETATM   24  C13 UNL     1      13.680 -17.367  19.517  1.00  0.00     0.011 A 
HETATM   25  C14 UNL     1      12.516 -17.619  20.207  1.00  0.00     0.027 A 
HETATM   26  C15 UNL     1      12.004 -16.416  20.632  1.00  0.00     0.027 A 
HETATM   27  C16 UNL     1      12.873 -15.429  20.191  1.00  0.00     0.009 A 
HETATM   28  N8  UNL     1      13.872 -16.026  19.523  1.00  0.00    -0.363 N 
ATOM     29  H8  UNL     1      14.657 -15.543  19.085  1.00  0.00     0.165 HD
BRANCH  27  30
HETATM   30  C17 UNL     1      12.651 -13.992  20.459  1.00  0.00     0.063 C 
BRANCH  30  31
HETATM   31  C18 UNL     1      13.694 -13.521  21.460  1.00  0.00     0.063 C 
BRANCH  31  32
HETATM   32  C19 UNL     1      13.412 -12.097  21.753  1.00  0.00     0.016 A 
HETATM   33  C20 UNL     1      12.395 -11.780  22.628  1.00  0.00     0.073 A 
HETATM   34  C21 UNL     1      12.077 -10.478  22.946  1.00  0.00     0.101 A 
HETATM   35  N6  UNL     1      12.787  -9.490  22.380  1.00  0.00    -0.339 N 
HETATM   36  C22 UNL     1      13.783  -9.781  21.523  1.00  0.00     0.184 A 
ATOM     37  H6  UNL     1      12.571  -8.518  22.599  1.00  0.00     0.168 HD
HETATM   38  N7  UNL     1      14.092 -11.073  21.213  1.00  0.00    -0.351 N 
HETATM   39  C23 UNL     1      15.159 -11.332  20.298  1.00  0.00     0.156 C 
BRANCH  34  40
HETATM   40  N5  UNL     1      11.132 -10.162  23.760  1.00  0.00    -0.385 N 
ATOM     41  H52 UNL     1      10.242 -10.655  23.684  1.00  0.00     0.157 HD
ATOM     42  H51 UNL     1      11.230  -9.444  24.478  1.00  0.00     0.157 HD
ENDBRANCH  34  40
ENDBRANCH  31  32
ENDBRANCH  30  31
ENDBRANCH  27  30
ENDBRANCH  23  24
ENDBRANCH  22  23
ENDBRANCH  11  22
ENDBRANCH   1   4
TORSDOF 11
ENDMDL
