MODEL 1
REMARK VINA RESULT: -7.843375298      0.000      0.000
REMARK  14 active torsions:
REMARK  status: ('A' for Active; 'I' for Inactive)
REMARK    1  A    between atoms: N1_5  and  C5_6 
REMARK    2  A    between atoms: C5_6  and  C6_7 
REMARK    3  A    between atoms: C6_7  and  C7_8 
REMARK    4  A    between atoms: C7_8  and  N2_9 
REMARK    5  A    between atoms: C12_14  and  C13_15 
REMARK    6  A    between atoms: C13_15  and  C14_16 
REMARK    7  A    between atoms: C14_16  and  N3_17 
REMARK       I    between atoms: N3_17  and  C15_19 
REMARK    8  A    between atoms: C15_19  and  C16_21 
REMARK    9  A    between atoms: C16_21  and  C17_22 
REMARK   10  A    between atoms: C21_26  and  N4_27 
REMARK   11  A    between atoms: N4_27  and  N5_29 
REMARK   12  A    between atoms: C22_32  and  C23_33 
REMARK   13  A    between atoms: C24_35  and  C25_36 
REMARK   14  A    between atoms: C25_36  and  O2_37 
ROOT
HETATM    1  N3  UNL     1      14.781 -14.990  21.312  1.00  0.00    -0.360 N 
ATOM      2  H3  UNL     1      15.359 -14.456  20.663  1.00  0.00     0.162 HD
HETATM    3  C15 UNL     1      15.232 -16.239  21.798  1.00  0.00     0.221 C 
HETATM    4  O1  UNL     1      14.505 -16.876  22.593  1.00  0.00    -0.273 OA
ENDROOT
BRANCH   1   5
HETATM    5  C14 UNL     1      13.498 -14.468  21.736  1.00  0.00     0.128 C 
BRANCH   5   6
HETATM    6  C13 UNL     1      13.013 -13.441  20.741  1.00  0.00     0.077 C 
BRANCH   6   7
HETATM    7  C12 UNL     1      13.074 -12.058  21.277  1.00  0.00     0.012 A 
HETATM    8  N2  UNL     1      13.860 -11.121  20.723  1.00  0.00    -0.360 N 
HETATM    9  C8  UNL     1      13.799  -9.865  21.175  1.00  0.00     0.091 A 
HETATM   10  C9  UNL     1      12.955  -9.503  22.193  1.00  0.00     0.017 A 
HETATM   11  C10 UNL     1      12.145 -10.434  22.779  1.00  0.00     0.003 A 
HETATM   12  C11 UNL     1      12.198 -11.739  22.318  1.00  0.00     0.025 A 
BRANCH   8  13
HETATM   13  C7  UNL     1      14.824 -11.412  19.720  1.00  0.00     0.130 C 
BRANCH  13  14
HETATM   14  C6  UNL     1      16.252 -11.378  20.109  1.00  0.00     0.040 C 
BRANCH  14  15
HETATM   15  C5  UNL     1      17.091 -12.571  19.828  1.00  0.00     0.130 C 
BRANCH  15  16
HETATM   16  N1  UNL     1      18.055 -12.837  20.887  1.00  0.00    -0.360 N 
HETATM   17  C4  UNL     1      17.634 -13.265  22.095  1.00  0.00     0.091 A 
HETATM   18  C3  UNL     1      18.515 -13.528  23.129  1.00  0.00     0.024 A 
HETATM   19  C2  UNL     1      19.870 -13.354  22.945  1.00  0.00    -0.059 A 
HETATM   20  C1  UNL     1      20.857 -13.624  24.029  1.00  0.00     0.048 C 
HETATM   21  C28 UNL     1      20.293 -12.916  21.711  1.00  0.00     0.031 A 
HETATM   22  C26 UNL     1      19.356 -12.665  20.696  1.00  0.00     0.007 A 
HETATM   23  C27 UNL     1      19.881 -12.202  19.406  1.00  0.00     0.068 C 
ENDBRANCH  15  16
ENDBRANCH  14  15
ENDBRANCH  13  14
ENDBRANCH   8  13
ENDBRANCH   6   7
ENDBRANCH   5   6
ENDBRANCH   1   5
BRANCH   3  24
HETATM   24  C16 UNL     1      16.569 -16.785  21.358  1.00  0.00     0.131 C 
BRANCH  24  25
HETATM   25  C17 UNL     1      17.429 -16.965  22.547  1.00  0.00    -0.006 C 
HETATM   26  C18 UNL     1      18.729 -17.006  22.519  1.00  0.00    -0.030 A 
HETATM   27  C19 UNL     1      19.395 -16.866  21.237  1.00  0.00     0.014 A 
HETATM   28  C24 UNL     1      19.504 -17.176  23.787  1.00  0.00    -0.011 A 
HETATM   29  C20 UNL     1      20.715 -16.891  21.203  1.00  0.00     0.033 A 
HETATM   30  C21 UNL     1      21.503 -17.055  22.401  1.00  0.00     0.059 A 
HETATM   31  C22 UNL     1      20.814 -17.201  23.733  1.00  0.00     0.014 A 
BRANCH  30  32
HETATM   32  N4  UNL     1      22.790 -17.075  22.370  1.00  0.00    -0.306 N 
ATOM     33  H4  UNL     1      23.321 -16.823  23.204  1.00  0.00     0.186 HD
BRANCH  32  34
HETATM   34  N5  UNL     1      23.461 -17.439  21.205  1.00  0.00    -0.345 N 
ATOM     35  H52 UNL     1      23.190 -17.000  20.324  1.00  0.00     0.176 HD
ATOM     36  H51 UNL     1      24.209 -18.131  21.234  1.00  0.00     0.176 HD
ENDBRANCH  32  34
ENDBRANCH  30  32
BRANCH  31  37
HETATM   37  C23 UNL     1      21.710 -17.443  24.871  1.00  0.00     0.114 C 
HETATM   38  N6  UNL     1      22.451 -16.415  25.453  1.00  0.00    -0.114 NA
ENDBRANCH  31  37
BRANCH  28  39
HETATM   39  C25 UNL     1      18.705 -17.216  25.006  1.00  0.00     0.204 C 
BRANCH  39  40
HETATM   40  O2  UNL     1      18.692 -16.032  25.746  1.00  0.00    -0.396 OA
ATOM     41  H2  UNL     1      17.941 -15.470  25.594  1.00  0.00     0.209 HD
ENDBRANCH  39  40
ENDBRANCH  28  39
ENDBRANCH  24  25
ENDBRANCH   3  24
TORSDOF 14
ENDMDL
MODEL 2
REMARK VINA RESULT: -7.810303769      2.751      8.627
REMARK  14 active torsions:
REMARK  status: ('A' for Active; 'I' for Inactive)
REMARK    1  A    between atoms: N1_5  and  C5_6 
REMARK    2  A    between atoms: C5_6  and  C6_7 
REMARK    3  A    between atoms: C6_7  and  C7_8 
REMARK    4  A    between atoms: C7_8  and  N2_9 
REMARK    5  A    between atoms: C12_14  and  C13_15 
REMARK    6  A    between atoms: C13_15  and  C14_16 
REMARK    7  A    between atoms: C14_16  and  N3_17 
REMARK       I    between atoms: N3_17  and  C15_19 
REMARK    8  A    between atoms: C15_19  and  C16_21 
REMARK    9  A    between atoms: C16_21  and  C17_22 
REMARK   10  A    between atoms: C21_26  and  N4_27 
REMARK   11  A    between atoms: N4_27  and  N5_29 
REMARK   12  A    between atoms: C22_32  and  C23_33 
REMARK   13  A    between atoms: C24_35  and  C25_36 
REMARK   14  A    between atoms: C25_36  and  O2_37 
ROOT
HETATM    1  N3  UNL     1      18.277 -13.143  21.353  1.00  0.00    -0.360 N 
ATOM      2  H3  UNL     1      17.743 -13.884  21.808  1.00  0.00     0.162 HD
HETATM    3  C15 UNL     1      17.676 -12.356  20.343  1.00  0.00     0.221 C 
HETATM    4  O1  UNL     1      18.351 -11.453  19.799  1.00  0.00    -0.273 OA
ENDROOT
BRANCH   1   5
HETATM    5  C14 UNL     1      19.651 -12.898  21.740  1.00  0.00     0.128 C 
BRANCH   5   6
HETATM    6  C13 UNL     1      20.205 -14.114  22.445  1.00  0.00     0.077 C 
BRANCH   6   7
HETATM    7  C12 UNL     1      20.395 -13.890  23.900  1.00  0.00     0.012 A 
HETATM    8  N2  UNL     1      20.254 -14.884  24.790  1.00  0.00    -0.360 N 
HETATM    9  C8  UNL     1      20.540 -14.657  26.075  1.00  0.00     0.091 A 
HETATM   10  C9  UNL     1      20.972 -13.432  26.515  1.00  0.00     0.017 A 
HETATM   11  C10 UNL     1      21.123 -12.400  25.633  1.00  0.00     0.003 A 
HETATM   12  C11 UNL     1      20.832 -12.623  24.297  1.00  0.00     0.025 A 
BRANCH   8  13
HETATM   13  C7  UNL     1      19.736 -16.163  24.449  1.00  0.00     0.130 C 
BRANCH  13  14
HETATM   14  C6  UNL     1      18.285 -16.388  24.634  1.00  0.00     0.040 C 
BRANCH  14  15
HETATM   15  C5  UNL     1      17.677 -17.612  24.049  1.00  0.00     0.130 C 
BRANCH  15  16
HETATM   16  N1  UNL     1      16.650 -17.308  23.064  1.00  0.00    -0.360 N 
HETATM   17  C4  UNL     1      16.869 -16.364  22.125  1.00  0.00     0.091 A 
HETATM   18  C3  UNL     1      15.920 -16.042  21.171  1.00  0.00     0.024 A 
HETATM   19  C2  UNL     1      14.704 -16.692  21.157  1.00  0.00    -0.059 A 
HETATM   20  C1  UNL     1      13.650 -16.381  20.150  1.00  0.00     0.048 C 
HETATM   21  C28 UNL     1      14.487 -17.653  22.118  1.00  0.00     0.031 A 
HETATM   22  C26 UNL     1      15.484 -17.941  23.063  1.00  0.00     0.007 A 
HETATM   23  C27 UNL     1      15.182 -18.979  24.055  1.00  0.00     0.068 C 
ENDBRANCH  15  16
ENDBRANCH  14  15
ENDBRANCH  13  14
ENDBRANCH   8  13
ENDBRANCH   6   7
ENDBRANCH   5   6
ENDBRANCH   1   5
BRANCH   3  24
HETATM   24  C16 UNL     1      16.244 -12.609  19.937  1.00  0.00     0.131 C 
BRANCH  24  25
HETATM   25  C17 UNL     1      15.410 -11.472  20.384  1.00  0.00    -0.006 C 
HETATM   26  C18 UNL     1      14.356 -11.580  21.137  1.00  0.00    -0.030 A 
HETATM   27  C19 UNL     1      13.958 -12.906  21.578  1.00  0.00     0.014 A 
HETATM   28  C24 UNL     1      13.593 -10.360  21.544  1.00  0.00    -0.011 A 
HETATM   29  C20 UNL     1      12.896 -13.021  22.355  1.00  0.00     0.033 A 
HETATM   30  C21 UNL     1      12.129 -11.872  22.772  1.00  0.00     0.059 A 
HETATM   31  C22 UNL     1      12.540 -10.496  22.315  1.00  0.00     0.014 A 
BRANCH  30  32
HETATM   32  N4  UNL     1      11.098 -11.983  23.533  1.00  0.00    -0.306 N 
ATOM     33  H4  UNL     1      10.167 -12.042  23.121  1.00  0.00     0.186 HD
BRANCH  32  34
HETATM   34  N5  UNL     1      11.246 -12.022  24.918  1.00  0.00    -0.345 N 
ATOM     35  H52 UNL     1      11.571 -11.185  25.402  1.00  0.00     0.176 HD
ATOM     36  H51 UNL     1      11.032 -12.875  25.436  1.00  0.00     0.176 HD
ENDBRANCH  32  34
ENDBRANCH  30  32
BRANCH  31  37
HETATM   37  C23 UNL     1      11.643  -9.411  22.731  1.00  0.00     0.114 C 
HETATM   38  N6  UNL     1      11.570  -8.986  24.057  1.00  0.00    -0.114 NA
ENDBRANCH  31  37
BRANCH  28  39
HETATM   39  C25 UNL     1      14.159  -9.092  21.098  1.00  0.00     0.204 C 
BRANCH  39  40
HETATM   40  O2  UNL     1      13.523  -8.512  19.999  1.00  0.00    -0.396 OA
ATOM     41  H2  UNL     1      13.446  -9.072  19.236  1.00  0.00     0.209 HD
ENDBRANCH  39  40
ENDBRANCH  28  39
ENDBRANCH  24  25
ENDBRANCH   3  24
TORSDOF 14
ENDMDL
MODEL 3
REMARK VINA RESULT: -7.675886012      2.319      8.317
REMARK  14 active torsions:
REMARK  status: ('A' for Active; 'I' for Inactive)
REMARK    1  A    between atoms: N1_5  and  C5_6 
REMARK    2  A    between atoms: C5_6  and  C6_7 
REMARK    3  A    between atoms: C6_7  and  C7_8 
REMARK    4  A    between atoms: C7_8  and  N2_9 
REMARK    5  A    between atoms: C12_14  and  C13_15 
REMARK    6  A    between atoms: C13_15  and  C14_16 
REMARK    7  A    between atoms: C14_16  and  N3_17 
REMARK       I    between atoms: N3_17  and  C15_19 
REMARK    8  A    between atoms: C15_19  and  C16_21 
REMARK    9  A    between atoms: C16_21  and  C17_22 
REMARK   10  A    between atoms: C21_26  and  N4_27 
REMARK   11  A    between atoms: N4_27  and  N5_29 
REMARK   12  A    between atoms: C22_32  and  C23_33 
REMARK   13  A    between atoms: C24_35  and  C25_36 
REMARK   14  A    between atoms: C25_36  and  O2_37 
ROOT
HETATM    1  N3  UNL     1      17.900 -13.192  21.092  1.00  0.00    -0.360 N 
ATOM      2  H3  UNL     1      17.235 -13.964  21.039  1.00  0.00     0.162 HD
HETATM    3  C15 UNL     1      17.665 -12.004  20.361  1.00  0.00     0.221 C 
HETATM    4  O1  UNL     1      18.496 -11.071  20.442  1.00  0.00    -0.273 OA
ENDROOT
BRANCH   1   5
HETATM    5  C14 UNL     1      19.086 -13.313  21.915  1.00  0.00     0.128 C 
BRANCH   5   6
HETATM    6  C13 UNL     1      18.788 -14.188  23.110  1.00  0.00     0.077 C 
BRANCH   6   7
HETATM    7  C12 UNL     1      19.581 -13.806  24.305  1.00  0.00     0.012 A 
HETATM    8  N2  UNL     1      19.571 -14.547  25.424  1.00  0.00    -0.360 N 
HETATM    9  C8  UNL     1      20.384 -14.220  26.433  1.00  0.00     0.091 A 
HETATM   10  C9  UNL     1      21.230 -13.143  26.360  1.00  0.00     0.017 A 
HETATM   11  C10 UNL     1      21.261 -12.368  25.236  1.00  0.00     0.003 A 
HETATM   12  C11 UNL     1      20.425 -12.699  24.182  1.00  0.00     0.025 A 
BRANCH   8  13
HETATM   13  C7  UNL     1      18.674 -15.631  25.628  1.00  0.00     0.130 C 
BRANCH  13  14
HETATM   14  C6  UNL     1      19.224 -16.878  26.205  1.00  0.00     0.040 C 
BRANCH  14  15
HETATM   15  C5  UNL     1      19.868 -17.857  25.291  1.00  0.00     0.130 C 
BRANCH  15  16
HETATM   16  N1  UNL     1      21.165 -17.401  24.810  1.00  0.00    -0.360 N 
HETATM   17  C4  UNL     1      22.173 -17.187  25.681  1.00  0.00     0.091 A 
HETATM   18  C3  UNL     1      23.420 -16.752  25.267  1.00  0.00     0.024 A 
HETATM   19  C2  UNL     1      23.666 -16.524  23.930  1.00  0.00    -0.059 A 
HETATM   20  C1  UNL     1      24.993 -16.055  23.437  1.00  0.00     0.048 C 
HETATM   21  C28 UNL     1      22.632 -16.743  23.048  1.00  0.00     0.031 A 
HETATM   22  C26 UNL     1      21.387 -17.184  23.521  1.00  0.00     0.007 A 
HETATM   23  C27 UNL     1      20.333 -17.398  22.522  1.00  0.00     0.068 C 
ENDBRANCH  15  16
ENDBRANCH  14  15
ENDBRANCH  13  14
ENDBRANCH   8  13
ENDBRANCH   6   7
ENDBRANCH   5   6
ENDBRANCH   1   5
BRANCH   3  24
HETATM   24  C16 UNL     1      16.430 -11.875  19.503  1.00  0.00     0.131 C 
BRANCH  24  25
HETATM   25  C17 UNL     1      15.259 -12.350  20.272  1.00  0.00    -0.006 C 
HETATM   26  C18 UNL     1      14.449 -11.579  20.935  1.00  0.00    -0.030 A 
HETATM   27  C19 UNL     1      14.700 -10.148  20.930  1.00  0.00     0.014 A 
HETATM   28  C24 UNL     1      13.284 -12.164  21.667  1.00  0.00    -0.011 A 
HETATM   29  C20 UNL     1      13.873  -9.358  21.590  1.00  0.00     0.033 A 
HETATM   30  C21 UNL     1      12.736  -9.879  22.311  1.00  0.00     0.059 A 
HETATM   31  C22 UNL     1      12.474 -11.363  22.319  1.00  0.00     0.014 A 
BRANCH  30  32
HETATM   32  N4  UNL     1      11.927  -9.109  22.950  1.00  0.00    -0.306 N 
ATOM     33  H4  UNL     1      10.973  -8.984  22.611  1.00  0.00     0.186 HD
BRANCH  32  34
HETATM   34  N5  UNL     1      12.346  -8.446  24.101  1.00  0.00    -0.345 N 
ATOM     35  H52 UNL     1      12.102  -8.838  25.011  1.00  0.00     0.176 HD
ATOM     36  H51 UNL     1      12.889  -7.585  24.032  1.00  0.00     0.176 HD
ENDBRANCH  32  34
ENDBRANCH  30  32
BRANCH  31  37
HETATM   37  C23 UNL     1      11.340 -11.787  23.149  1.00  0.00     0.114 C 
HETATM   38  N6  UNL     1      11.264 -11.471  24.505  1.00  0.00    -0.114 NA
ENDBRANCH  31  37
BRANCH  28  39
HETATM   39  C25 UNL     1      13.108 -13.603  21.512  1.00  0.00     0.204 C 
BRANCH  39  40
HETATM   40  O2  UNL     1      13.428 -14.365  22.638  1.00  0.00    -0.396 OA
ATOM     41  H2  UNL     1      12.915 -15.156  22.749  1.00  0.00     0.209 HD
ENDBRANCH  39  40
ENDBRANCH  28  39
ENDBRANCH  24  25
ENDBRANCH   3  24
TORSDOF 14
ENDMDL
MODEL 4
REMARK VINA RESULT: -7.664104393      2.324      8.239
REMARK  14 active torsions:
REMARK  status: ('A' for Active; 'I' for Inactive)
REMARK    1  A    between atoms: N1_5  and  C5_6 
REMARK    2  A    between atoms: C5_6  and  C6_7 
REMARK    3  A    between atoms: C6_7  and  C7_8 
REMARK    4  A    between atoms: C7_8  and  N2_9 
REMARK    5  A    between atoms: C12_14  and  C13_15 
REMARK    6  A    between atoms: C13_15  and  C14_16 
REMARK    7  A    between atoms: C14_16  and  N3_17 
REMARK       I    between atoms: N3_17  and  C15_19 
REMARK    8  A    between atoms: C15_19  and  C16_21 
REMARK    9  A    between atoms: C16_21  and  C17_22 
REMARK   10  A    between atoms: C21_26  and  N4_27 
REMARK   11  A    between atoms: N4_27  and  N5_29 
REMARK   12  A    between atoms: C22_32  and  C23_33 
REMARK   13  A    between atoms: C24_35  and  C25_36 
REMARK   14  A    between atoms: C25_36  and  O2_37 
ROOT
HETATM    1  N3  UNL     1      17.884 -13.158  21.165  1.00  0.00    -0.360 N 
ATOM      2  H3  UNL     1      17.216 -13.928  21.148  1.00  0.00     0.162 HD
HETATM    3  C15 UNL     1      17.660 -12.010  20.369  1.00  0.00     0.221 C 
HETATM    4  O1  UNL     1      18.495 -11.078  20.405  1.00  0.00    -0.273 OA
ENDROOT
BRANCH   1   5
HETATM    5  C14 UNL     1      19.063 -13.239  22.004  1.00  0.00     0.128 C 
BRANCH   5   6
HETATM    6  C13 UNL     1      18.802 -14.180  23.156  1.00  0.00     0.077 C 
BRANCH   6   7
HETATM    7  C12 UNL     1      19.589 -13.829  24.365  1.00  0.00     0.012 A 
HETATM    8  N2  UNL     1      19.573 -14.599  25.464  1.00  0.00    -0.360 N 
HETATM    9  C8  UNL     1      20.380 -14.298  26.486  1.00  0.00     0.091 A 
HETATM   10  C9  UNL     1      21.227 -13.221  26.445  1.00  0.00     0.017 A 
HETATM   11  C10 UNL     1      21.265 -12.417  25.341  1.00  0.00     0.003 A 
HETATM   12  C11 UNL     1      20.434 -12.720  24.274  1.00  0.00     0.025 A 
BRANCH   8  13
HETATM   13  C7  UNL     1      18.674 -15.687  25.636  1.00  0.00     0.130 C 
BRANCH  13  14
HETATM   14  C6  UNL     1      19.245 -17.051  25.663  1.00  0.00     0.040 C 
BRANCH  14  15
HETATM   15  C5  UNL     1      18.524 -18.136  24.947  1.00  0.00     0.130 C 
BRANCH  15  16
HETATM   16  N1  UNL     1      17.943 -17.684  23.691  1.00  0.00    -0.360 N 
HETATM   17  C4  UNL     1      16.664 -17.259  23.649  1.00  0.00     0.091 A 
HETATM   18  C3  UNL     1      16.072 -16.823  22.477  1.00  0.00     0.024 A 
HETATM   19  C2  UNL     1      16.791 -16.812  21.301  1.00  0.00    -0.059 A 
HETATM   20  C1  UNL     1      16.197 -16.351  20.014  1.00  0.00     0.048 C 
HETATM   21  C28 UNL     1      18.096 -17.248  21.350  1.00  0.00     0.031 A 
HETATM   22  C26 UNL     1      18.647 -17.680  22.566  1.00  0.00     0.007 A 
HETATM   23  C27 UNL     1      20.044 -18.128  22.542  1.00  0.00     0.068 C 
ENDBRANCH  15  16
ENDBRANCH  14  15
ENDBRANCH  13  14
ENDBRANCH   8  13
ENDBRANCH   6   7
ENDBRANCH   5   6
ENDBRANCH   1   5
BRANCH   3  24
HETATM   24  C16 UNL     1      16.433 -11.923  19.494  1.00  0.00     0.131 C 
BRANCH  24  25
HETATM   25  C17 UNL     1      15.259 -12.384  20.266  1.00  0.00    -0.006 C 
HETATM   26  C18 UNL     1      14.455 -11.601  20.923  1.00  0.00    -0.030 A 
HETATM   27  C19 UNL     1      14.716 -10.173  20.906  1.00  0.00     0.014 A 
HETATM   28  C24 UNL     1      13.285 -12.172  21.660  1.00  0.00    -0.011 A 
HETATM   29  C20 UNL     1      13.894  -9.371  21.559  1.00  0.00     0.033 A 
HETATM   30  C21 UNL     1      12.754  -9.878  22.284  1.00  0.00     0.059 A 
HETATM   31  C22 UNL     1      12.481 -11.360  22.305  1.00  0.00     0.014 A 
BRANCH  30  32
HETATM   32  N4  UNL     1      11.950  -9.097  22.917  1.00  0.00    -0.306 N 
ATOM     33  H4  UNL     1      10.997  -8.967  22.577  1.00  0.00     0.186 HD
BRANCH  32  34
HETATM   34  N5  UNL     1      12.373  -8.428  24.063  1.00  0.00    -0.345 N 
ATOM     35  H52 UNL     1      12.437  -8.947  24.940  1.00  0.00     0.176 HD
ATOM     36  H51 UNL     1      12.615  -7.438  24.024  1.00  0.00     0.176 HD
ENDBRANCH  32  34
ENDBRANCH  30  32
BRANCH  31  37
HETATM   37  C23 UNL     1      11.344 -11.769  23.139  1.00  0.00     0.114 C 
HETATM   38  N6  UNL     1      11.271 -11.441  24.492  1.00  0.00    -0.114 NA
ENDBRANCH  31  37
BRANCH  28  39
HETATM   39  C25 UNL     1      13.099 -13.611  21.517  1.00  0.00     0.204 C 
BRANCH  39  40
HETATM   40  O2  UNL     1      13.433 -14.367  22.643  1.00  0.00    -0.396 OA
ATOM     41  H2  UNL     1      12.970 -14.132  23.439  1.00  0.00     0.209 HD
ENDBRANCH  39  40
ENDBRANCH  28  39
ENDBRANCH  24  25
ENDBRANCH   3  24
TORSDOF 14
ENDMDL
MODEL 5
REMARK VINA RESULT: -7.604284626      2.329      8.391
REMARK  14 active torsions:
REMARK  status: ('A' for Active; 'I' for Inactive)
REMARK    1  A    between atoms: N1_5  and  C5_6 
REMARK    2  A    between atoms: C5_6  and  C6_7 
REMARK    3  A    between atoms: C6_7  and  C7_8 
REMARK    4  A    between atoms: C7_8  and  N2_9 
REMARK    5  A    between atoms: C12_14  and  C13_15 
REMARK    6  A    between atoms: C13_15  and  C14_16 
REMARK    7  A    between atoms: C14_16  and  N3_17 
REMARK       I    between atoms: N3_17  and  C15_19 
REMARK    8  A    between atoms: C15_19  and  C16_21 
REMARK    9  A    between atoms: C16_21  and  C17_22 
REMARK   10  A    between atoms: C21_26  and  N4_27 
REMARK   11  A    between atoms: N4_27  and  N5_29 
REMARK   12  A    between atoms: C22_32  and  C23_33 
REMARK   13  A    between atoms: C24_35  and  C25_36 
REMARK   14  A    between atoms: C25_36  and  O2_37 
ROOT
HETATM    1  N3  UNL     1      18.534 -13.228  20.820  1.00  0.00    -0.360 N 
ATOM      2  H3  UNL     1      18.167 -14.143  20.557  1.00  0.00     0.162 HD
HETATM    3  C15 UNL     1      17.907 -12.052  20.346  1.00  0.00     0.221 C 
HETATM    4  O1  UNL     1      18.375 -10.941  20.681  1.00  0.00    -0.273 OA
ENDROOT
BRANCH   1   5
HETATM    5  C14 UNL     1      19.697 -13.133  21.679  1.00  0.00     0.128 C 
BRANCH   5   6
HETATM    6  C13 UNL     1      19.780 -14.358  22.559  1.00  0.00     0.077 C 
BRANCH   6   7
HETATM    7  C12 UNL     1      20.159 -14.029  23.956  1.00  0.00     0.012 A 
HETATM    8  N2  UNL     1      20.124 -14.951  24.931  1.00  0.00    -0.360 N 
HETATM    9  C8  UNL     1      20.576 -14.634  26.147  1.00  0.00     0.091 A 
HETATM   10  C9  UNL     1      21.075 -13.389  26.432  1.00  0.00     0.017 A 
HETATM   11  C10 UNL     1      21.122 -12.429  25.461  1.00  0.00     0.003 A 
HETATM   12  C11 UNL     1      20.658 -12.746  24.195  1.00  0.00     0.025 A 
BRANCH   8  13
HETATM   13  C7  UNL     1      19.551 -16.240  24.759  1.00  0.00     0.130 C 
BRANCH  13  14
HETATM   14  C6  UNL     1      18.077 -16.351  24.818  1.00  0.00     0.040 C 
BRANCH  14  15
HETATM   15  C5  UNL     1      17.444 -17.625  24.388  1.00  0.00     0.130 C 
BRANCH  15  16
HETATM   16  N1  UNL     1      16.573 -17.452  23.234  1.00  0.00    -0.360 N 
HETATM   17  C4  UNL     1      16.886 -16.554  22.277  1.00  0.00     0.091 A 
HETATM   18  C3  UNL     1      16.086 -16.358  21.165  1.00  0.00     0.024 A 
HETATM   19  C2  UNL     1      14.928 -17.089  21.006  1.00  0.00    -0.059 A 
HETATM   20  C1  UNL     1      14.035 -16.912  19.826  1.00  0.00     0.048 C 
HETATM   21  C28 UNL     1      14.615 -18.003  21.987  1.00  0.00     0.031 A 
HETATM   22  C26 UNL     1      15.462 -18.163  23.095  1.00  0.00     0.007 A 
HETATM   23  C27 UNL     1      15.064 -19.157  24.098  1.00  0.00     0.068 C 
ENDBRANCH  15  16
ENDBRANCH  14  15
ENDBRANCH  13  14
ENDBRANCH   8  13
ENDBRANCH   6   7
ENDBRANCH   5   6
ENDBRANCH   1   5
BRANCH   3  24
HETATM   24  C16 UNL     1      16.695 -12.149  19.451  1.00  0.00     0.131 C 
BRANCH  24  25
HETATM   25  C17 UNL     1      15.536 -12.585  20.258  1.00  0.00    -0.006 C 
HETATM   26  C18 UNL     1      14.696 -11.780  20.841  1.00  0.00    -0.030 A 
HETATM   27  C19 UNL     1      14.901 -10.349  20.697  1.00  0.00     0.014 A 
HETATM   28  C24 UNL     1      13.546 -12.329  21.623  1.00  0.00    -0.011 A 
HETATM   29  C20 UNL     1      14.044  -9.527  21.274  1.00  0.00     0.033 A 
HETATM   30  C21 UNL     1      12.920 -10.012  22.038  1.00  0.00     0.059 A 
HETATM   31  C22 UNL     1      12.706 -11.496  22.190  1.00  0.00     0.014 A 
BRANCH  30  32
HETATM   32  N4  UNL     1      12.082  -9.211  22.597  1.00  0.00    -0.306 N 
ATOM     33  H4  UNL     1      11.152  -9.090  22.195  1.00  0.00     0.186 HD
BRANCH  32  34
HETATM   34  N5  UNL     1      12.438  -8.508  23.746  1.00  0.00    -0.345 N 
ATOM     35  H52 UNL     1      12.701  -9.032  24.581  1.00  0.00     0.176 HD
ATOM     36  H51 UNL     1      12.433  -7.488  23.749  1.00  0.00     0.176 HD
ENDBRANCH  32  34
ENDBRANCH  30  32
BRANCH  31  37
HETATM   37  C23 UNL     1      11.582 -11.875  23.054  1.00  0.00     0.114 C 
HETATM   38  N6  UNL     1      11.478 -11.417  24.367  1.00  0.00    -0.114 NA
ENDBRANCH  31  37
BRANCH  28  39
HETATM   39  C25 UNL     1      13.418 -13.782  21.608  1.00  0.00     0.204 C 
BRANCH  39  40
HETATM   40  O2  UNL     1      13.392 -14.388  22.866  1.00  0.00    -0.396 OA
ATOM     41  H2  UNL     1      14.192 -14.837  23.113  1.00  0.00     0.209 HD
ENDBRANCH  39  40
ENDBRANCH  28  39
ENDBRANCH  24  25
ENDBRANCH   3  24
TORSDOF 14
ENDMDL
