MODEL 1
REMARK VINA RESULT: -9.121883659      0.000      0.000
REMARK  11 active torsions:
REMARK  status: ('A' for Active; 'I' for Inactive)
REMARK    1  A    between atoms: N1_2  and  C3_4 
REMARK    2  A    between atoms: N1_2  and  C20_24 
REMARK    3  A    between atoms: C3_4  and  C4_5 
REMARK    4  A    between atoms: C4_5  and  C5_6 
REMARK    5  A    between atoms: N2_9  and  C8_10 
REMARK    6  A    between atoms: C8_10  and  C9_11 
REMARK    7  A    between atoms: C9_11  and  O1_12 
REMARK    8  A    between atoms: C10_14  and  C11_15 
REMARK    9  A    between atoms: C11_15  and  C12_16 
REMARK   10  A    between atoms: C12_16  and  C13_17 
REMARK   11  A    between atoms: C20_24  and  C21_25 
REMARK       I    between atoms: C21_25  and  N3_27 
ROOT
HETATM    1  C3  UNL     1      14.140 -16.173  20.905  1.00  0.00     0.241 C 
ENDROOT
BRANCH   1   2
HETATM    2  N1  UNL     1      12.920 -15.822  20.138  1.00  0.00    -0.066 N 
HETATM    3  C1  UNL     1      13.081 -16.349  18.791  1.00  0.00     0.272 C 
HETATM    4  C2  UNL     1      11.763 -16.419  20.748  1.00  0.00     0.272 C 
BRANCH   2   5
HETATM    5  C20 UNL     1      12.905 -14.400  20.082  1.00  0.00     0.339 C 
BRANCH   5   6
HETATM    6  C21 UNL     1      13.321 -13.655  21.261  1.00  0.00     0.249 C 
HETATM    7  O2  UNL     1      14.600 -13.437  21.325  1.00  0.00    -0.271 OA
HETATM    8  N3  UNL     1      12.583 -13.146  22.315  1.00  0.00    -0.306 N 
HETATM    9  C22 UNL     1      12.334 -11.964  22.683  1.00  0.00     0.192 A 
ATOM     10  H3  UNL     1      12.159 -13.861  22.906  1.00  0.00     0.170 HD
HETATM   11  N4  UNL     1      11.549 -11.848  23.800  1.00  0.00    -0.277 N 
HETATM   12  C24 UNL     1      12.746 -10.809  22.099  1.00  0.00     0.295 A 
HETATM   13  N5  UNL     1      11.187 -10.699  24.320  1.00  0.00    -0.250 N 
ATOM     14  H4  UNL     1      11.229 -12.703  24.254  1.00  0.00     0.189 HD
HETATM   15  C23 UNL     1      11.608  -9.570  23.724  1.00  0.00     0.341 A 
ATOM     16  H5  UNL     1      10.601 -10.664  25.153  1.00  0.00     0.192 HD
HETATM   17  O3  UNL     1      11.265  -8.471  24.215  1.00  0.00    -0.245 OA
HETATM   18  N6  UNL     1      12.379  -9.609  22.625  1.00  0.00    -0.271 N 
ATOM     19  H6  UNL     1      12.689  -8.742  22.187  1.00  0.00     0.174 HD
HETATM   20  O4  UNL     1      13.464 -10.854  21.074  1.00  0.00    -0.264 OA
ENDBRANCH   5   6
ENDBRANCH   2   5
ENDBRANCH   1   2
BRANCH   1  21
HETATM   21  C4  UNL     1      15.147 -16.691  19.923  1.00  0.00     0.066 C 
BRANCH  21  22
HETATM   22  C5  UNL     1      16.518 -16.721  20.487  1.00  0.00    -0.053 A 
HETATM   23  C6  UNL     1      17.133 -17.957  20.625  1.00  0.00     0.024 A 
HETATM   24  C7  UNL     1      18.401 -18.004  21.145  1.00  0.00     0.091 A 
HETATM   25  N2  UNL     1      19.079 -16.902  21.528  1.00  0.00    -0.358 N 
HETATM   26  C10 UNL     1      18.531 -15.699  21.418  1.00  0.00     0.012 A 
HETATM   27  C19 UNL     1      17.232 -15.624  20.887  1.00  0.00     0.032 A 
BRANCH  25  28
HETATM   28  C8  UNL     1      20.447 -17.046  21.990  1.00  0.00     0.154 C 
BRANCH  28  29
HETATM   29  C9  UNL     1      21.261 -17.863  20.983  1.00  0.00     0.184 C 
BRANCH  29  30
HETATM   30  O1  UNL     1      21.771 -16.960  20.052  1.00  0.00    -0.399 OA
ATOM     31  H1  UNL     1      21.937 -17.452  19.257  1.00  0.00     0.209 HD
ENDBRANCH  29  30
ENDBRANCH  28  29
ENDBRANCH  25  28
BRANCH  26  32
HETATM   32  C11 UNL     1      19.124 -14.417  21.874  1.00  0.00     0.062 C 
BRANCH  32  33
HETATM   33  C12 UNL     1      18.521 -13.873  23.136  1.00  0.00     0.044 C 
BRANCH  33  34
HETATM   34  C13 UNL     1      19.423 -13.779  24.290  1.00  0.00    -0.058 A 
HETATM   35  C14 UNL     1      19.317 -14.634  25.366  1.00  0.00     0.007 A 
HETATM   36  C15 UNL     1      20.165 -14.532  26.465  1.00  0.00     0.001 A 
HETATM   37  C16 UNL     1      21.149 -13.565  26.517  1.00  0.00     0.000 A 
HETATM   38  C17 UNL     1      21.259 -12.710  25.447  1.00  0.00     0.001 A 
HETATM   39  C18 UNL     1      20.424 -12.807  24.360  1.00  0.00     0.007 A 
ENDBRANCH  33  34
ENDBRANCH  32  33
ENDBRANCH  26  32
ENDBRANCH  21  22
ENDBRANCH   1  21
TORSDOF 11
ENDMDL
MODEL 2
REMARK VINA RESULT: -9.057653282      2.579      3.356
REMARK  11 active torsions:
REMARK  status: ('A' for Active; 'I' for Inactive)
REMARK    1  A    between atoms: N1_2  and  C3_4 
REMARK    2  A    between atoms: N1_2  and  C20_24 
REMARK    3  A    between atoms: C3_4  and  C4_5 
REMARK    4  A    between atoms: C4_5  and  C5_6 
REMARK    5  A    between atoms: N2_9  and  C8_10 
REMARK    6  A    between atoms: C8_10  and  C9_11 
REMARK    7  A    between atoms: C9_11  and  O1_12 
REMARK    8  A    between atoms: C10_14  and  C11_15 
REMARK    9  A    between atoms: C11_15  and  C12_16 
REMARK   10  A    between atoms: C12_16  and  C13_17 
REMARK   11  A    between atoms: C20_24  and  C21_25 
REMARK       I    between atoms: C21_25  and  N3_27 
ROOT
HETATM    1  C3  UNL     1      16.352 -14.517  20.437  1.00  0.00     0.241 C 
ENDROOT
BRANCH   1   2
HETATM    2  N1  UNL     1      15.985 -13.144  20.860  1.00  0.00    -0.066 N 
HETATM    3  C1  UNL     1      16.863 -12.773  21.960  1.00  0.00     0.272 C 
HETATM    4  C2  UNL     1      16.170 -12.224  19.771  1.00  0.00     0.272 C 
BRANCH   2   5
HETATM    5  C20 UNL     1      14.650 -13.242  21.344  1.00  0.00     0.339 C 
BRANCH   5   6
HETATM    6  C21 UNL     1      13.751 -12.116  21.134  1.00  0.00     0.249 C 
HETATM    7  O2  UNL     1      12.740 -12.384  20.364  1.00  0.00    -0.271 OA
HETATM    8  N3  UNL     1      13.799 -10.821  21.615  1.00  0.00    -0.306 N 
HETATM    9  C22 UNL     1      13.058 -10.186  22.417  1.00  0.00     0.192 A 
ATOM     10  H3  UNL     1      14.581 -10.274  21.255  1.00  0.00     0.170 HD
HETATM   11  N4  UNL     1      13.427  -8.889  22.660  1.00  0.00    -0.277 N 
HETATM   12  C24 UNL     1      11.954 -10.641  23.065  1.00  0.00     0.295 A 
HETATM   13  N5  UNL     1      12.777  -8.086  23.468  1.00  0.00    -0.250 N 
ATOM     14  H4  UNL     1      14.253  -8.527  22.185  1.00  0.00     0.189 HD
HETATM   15  C23 UNL     1      11.687  -8.560  24.096  1.00  0.00     0.341 A 
ATOM     16  H5  UNL     1      13.091  -7.127  23.617  1.00  0.00     0.192 HD
HETATM   17  O3  UNL     1      11.064  -7.799  24.869  1.00  0.00    -0.245 OA
HETATM   18  N6  UNL     1      11.268  -9.822  23.906  1.00  0.00    -0.271 N 
ATOM     19  H6  UNL     1      10.439 -10.164  24.391  1.00  0.00     0.174 HD
HETATM   20  O4  UNL     1      11.570 -11.820  22.882  1.00  0.00    -0.264 OA
ENDBRANCH   5   6
ENDBRANCH   2   5
ENDBRANCH   1   2
BRANCH   1  21
HETATM   21  C4  UNL     1      15.332 -15.448  21.020  1.00  0.00     0.066 C 
BRANCH  21  22
HETATM   22  C5  UNL     1      15.934 -16.422  21.962  1.00  0.00    -0.053 A 
HETATM   23  C6  UNL     1      15.231 -17.591  22.219  1.00  0.00     0.024 A 
HETATM   24  C7  UNL     1      15.773 -18.504  23.088  1.00  0.00     0.091 A 
HETATM   25  N2  UNL     1      16.959 -18.316  23.705  1.00  0.00    -0.358 N 
HETATM   26  C10 UNL     1      17.664 -17.214  23.493  1.00  0.00     0.012 A 
HETATM   27  C19 UNL     1      17.132 -16.263  22.606  1.00  0.00     0.032 A 
BRANCH  25  28
HETATM   28  C8  UNL     1      17.488 -19.376  24.543  1.00  0.00     0.154 C 
BRANCH  28  29
HETATM   29  C9  UNL     1      16.557 -19.622  25.734  1.00  0.00     0.184 C 
BRANCH  29  30
HETATM   30  O1  UNL     1      17.354 -19.600  26.877  1.00  0.00    -0.399 OA
ATOM     31  H1  UNL     1      16.829 -19.955  27.584  1.00  0.00     0.209 HD
ENDBRANCH  29  30
ENDBRANCH  28  29
ENDBRANCH  25  28
BRANCH  26  32
HETATM   32  C11 UNL     1      18.935 -16.840  24.163  1.00  0.00     0.062 C 
BRANCH  32  33
HETATM   33  C12 UNL     1      18.767 -15.919  25.336  1.00  0.00     0.044 C 
BRANCH  33  34
HETATM   34  C13 UNL     1      19.626 -14.729  25.346  1.00  0.00    -0.058 A 
HETATM   35  C14 UNL     1      20.306 -14.335  26.479  1.00  0.00     0.007 A 
HETATM   36  C15 UNL     1      21.108 -13.198  26.490  1.00  0.00     0.001 A 
HETATM   37  C16 UNL     1      21.252 -12.419  25.359  1.00  0.00     0.000 A 
HETATM   38  C17 UNL     1      20.577 -12.807  24.227  1.00  0.00     0.001 A 
HETATM   39  C18 UNL     1      19.784 -13.929  24.213  1.00  0.00     0.007 A 
ENDBRANCH  33  34
ENDBRANCH  32  33
ENDBRANCH  26  32
ENDBRANCH  21  22
ENDBRANCH   1  21
TORSDOF 11
ENDMDL
MODEL 3
REMARK VINA RESULT: -8.947679520      2.735      4.461
REMARK  11 active torsions:
REMARK  status: ('A' for Active; 'I' for Inactive)
REMARK    1  A    between atoms: N1_2  and  C3_4 
REMARK    2  A    between atoms: N1_2  and  C20_24 
REMARK    3  A    between atoms: C3_4  and  C4_5 
REMARK    4  A    between atoms: C4_5  and  C5_6 
REMARK    5  A    between atoms: N2_9  and  C8_10 
REMARK    6  A    between atoms: C8_10  and  C9_11 
REMARK    7  A    between atoms: C9_11  and  O1_12 
REMARK    8  A    between atoms: C10_14  and  C11_15 
REMARK    9  A    between atoms: C11_15  and  C12_16 
REMARK   10  A    between atoms: C12_16  and  C13_17 
REMARK   11  A    between atoms: C20_24  and  C21_25 
REMARK       I    between atoms: C21_25  and  N3_27 
ROOT
HETATM    1  C3  UNL     1      16.570 -17.771  20.342  1.00  0.00     0.241 C 
ENDROOT
BRANCH   1   2
HETATM    2  N1  UNL     1      16.027 -18.987  20.994  1.00  0.00    -0.066 N 
HETATM    3  C1  UNL     1      16.913 -20.095  20.666  1.00  0.00     0.272 C 
HETATM    4  C2  UNL     1      15.992 -18.811  22.421  1.00  0.00     0.272 C 
BRANCH   2   5
HETATM    5  C20 UNL     1      14.761 -19.210  20.384  1.00  0.00     0.339 C 
BRANCH   5   6
HETATM    6  C21 UNL     1      13.660 -18.321  20.728  1.00  0.00     0.249 C 
HETATM    7  O2  UNL     1      12.963 -18.713  21.752  1.00  0.00    -0.271 OA
HETATM    8  N3  UNL     1      13.239 -17.139  20.147  1.00  0.00    -0.306 N 
HETATM    9  C22 UNL     1      13.230 -15.946  20.561  1.00  0.00     0.192 A 
ATOM     10  H3  UNL     1      12.864 -17.252  19.205  1.00  0.00     0.170 HD
HETATM   11  N4  UNL     1      12.725 -15.021  19.686  1.00  0.00    -0.277 N 
HETATM   12  C24 UNL     1      13.669 -15.480  21.760  1.00  0.00     0.295 A 
HETATM   13  N5  UNL     1      12.645 -13.738  19.947  1.00  0.00    -0.250 N 
ATOM     14  H4  UNL     1      12.391 -15.349  18.780  1.00  0.00     0.189 HD
HETATM   15  C23 UNL     1      13.084 -13.303  21.140  1.00  0.00     0.341 A 
ATOM     16  H5  UNL     1      12.260 -13.088  19.262  1.00  0.00     0.192 HD
HETATM   17  O3  UNL     1      13.011 -12.080  21.395  1.00  0.00    -0.245 OA
HETATM   18  N6  UNL     1      13.593 -14.153  22.047  1.00  0.00    -0.271 N 
ATOM     19  H6  UNL     1      13.921 -13.804  22.947  1.00  0.00     0.174 HD
HETATM   20  O4  UNL     1      14.142 -16.280  22.600  1.00  0.00    -0.264 OA
ENDBRANCH   5   6
ENDBRANCH   2   5
ENDBRANCH   1   2
BRANCH   1  21
HETATM   21  C4  UNL     1      17.449 -17.085  21.344  1.00  0.00     0.066 C 
BRANCH  21  22
HETATM   22  C5  UNL     1      17.510 -15.619  21.128  1.00  0.00    -0.053 A 
HETATM   23  C6  UNL     1      16.562 -15.050  20.291  1.00  0.00     0.024 A 
HETATM   24  C7  UNL     1      16.603 -13.695  20.079  1.00  0.00     0.091 A 
HETATM   25  N2  UNL     1      17.525 -12.891  20.649  1.00  0.00    -0.358 N 
HETATM   26  C10 UNL     1      18.453 -13.390  21.453  1.00  0.00     0.012 A 
HETATM   27  C19 UNL     1      18.432 -14.776  21.687  1.00  0.00     0.032 A 
BRANCH  25  28
HETATM   28  C8  UNL     1      17.437 -11.459  20.429  1.00  0.00     0.154 C 
BRANCH  28  29
HETATM   29  C9  UNL     1      16.140 -11.116  19.693  1.00  0.00     0.184 C 
BRANCH  29  30
HETATM   30  O1  UNL     1      15.408 -10.281  20.535  1.00  0.00    -0.399 OA
ATOM     31  H1  UNL     1      14.589 -10.725  20.716  1.00  0.00     0.209 HD
ENDBRANCH  29  30
ENDBRANCH  28  29
ENDBRANCH  25  28
BRANCH  26  32
HETATM   32  C11 UNL     1      19.572 -12.641  22.078  1.00  0.00     0.062 C 
BRANCH  32  33
HETATM   33  C12 UNL     1      20.644 -13.511  22.668  1.00  0.00     0.044 C 
BRANCH  33  34
HETATM   34  C13 UNL     1      20.666 -13.597  24.133  1.00  0.00    -0.058 A 
HETATM   35  C14 UNL     1      20.135 -14.677  24.804  1.00  0.00     0.007 A 
HETATM   36  C15 UNL     1      20.145 -14.749  26.194  1.00  0.00     0.001 A 
HETATM   37  C16 UNL     1      20.690 -13.733  26.954  1.00  0.00     0.000 A 
HETATM   38  C17 UNL     1      21.221 -12.654  26.290  1.00  0.00     0.001 A 
HETATM   39  C18 UNL     1      21.213 -12.580  24.918  1.00  0.00     0.007 A 
ENDBRANCH  33  34
ENDBRANCH  32  33
ENDBRANCH  26  32
ENDBRANCH  21  22
ENDBRANCH   1  21
TORSDOF 11
ENDMDL
MODEL 4
REMARK VINA RESULT: -8.927385293      1.866      2.618
REMARK  11 active torsions:
REMARK  status: ('A' for Active; 'I' for Inactive)
REMARK    1  A    between atoms: N1_2  and  C3_4 
REMARK    2  A    between atoms: N1_2  and  C20_24 
REMARK    3  A    between atoms: C3_4  and  C4_5 
REMARK    4  A    between atoms: C4_5  and  C5_6 
REMARK    5  A    between atoms: N2_9  and  C8_10 
REMARK    6  A    between atoms: C8_10  and  C9_11 
REMARK    7  A    between atoms: C9_11  and  O1_12 
REMARK    8  A    between atoms: C10_14  and  C11_15 
REMARK    9  A    between atoms: C11_15  and  C12_16 
REMARK   10  A    between atoms: C12_16  and  C13_17 
REMARK   11  A    between atoms: C20_24  and  C21_25 
REMARK       I    between atoms: C21_25  and  N3_27 
ROOT
HETATM    1  C3  UNL     1      16.218 -14.526  20.276  1.00  0.00     0.241 C 
ENDROOT
BRANCH   1   2
HETATM    2  N1  UNL     1      15.926 -13.182  20.830  1.00  0.00    -0.066 N 
HETATM    3  C1  UNL     1      16.852 -12.949  21.929  1.00  0.00     0.272 C 
HETATM    4  C2  UNL     1      16.122 -12.177  19.821  1.00  0.00     0.272 C 
BRANCH   2   5
HETATM    5  C20 UNL     1      14.603 -13.266  21.348  1.00  0.00     0.339 C 
BRANCH   5   6
HETATM    6  C21 UNL     1      13.706 -12.138  21.144  1.00  0.00     0.249 C 
HETATM    7  O2  UNL     1      12.684 -12.405  20.386  1.00  0.00    -0.271 OA
HETATM    8  N3  UNL     1      13.763 -10.840  21.619  1.00  0.00    -0.306 N 
HETATM    9  C22 UNL     1      13.034 -10.200  22.427  1.00  0.00     0.192 A 
ATOM     10  H3  UNL     1      14.543 -10.298  21.247  1.00  0.00     0.170 HD
HETATM   11  N4  UNL     1      13.410  -8.903  22.660  1.00  0.00    -0.277 N 
HETATM   12  C24 UNL     1      11.936 -10.649  23.089  1.00  0.00     0.295 A 
HETATM   13  N5  UNL     1      12.773  -8.095  23.473  1.00  0.00    -0.250 N 
ATOM     14  H4  UNL     1      14.232  -8.546  22.173  1.00  0.00     0.189 HD
HETATM   15  C23 UNL     1      11.689  -8.563  24.116  1.00  0.00     0.341 A 
ATOM     16  H5  UNL     1      13.092  -7.137  23.613  1.00  0.00     0.192 HD
HETATM   17  O3  UNL     1      11.077  -7.796  24.892  1.00  0.00    -0.245 OA
HETATM   18  N6  UNL     1      11.263  -9.824  23.935  1.00  0.00    -0.271 N 
ATOM     19  H6  UNL     1      10.439 -10.161  24.432  1.00  0.00     0.174 HD
HETATM   20  O4  UNL     1      11.546 -11.827  22.916  1.00  0.00    -0.264 OA
ENDBRANCH   5   6
ENDBRANCH   2   5
ENDBRANCH   1   2
BRANCH   1  21
HETATM   21  C4  UNL     1      15.892 -15.526  21.343  1.00  0.00     0.066 C 
BRANCH  21  22
HETATM   22  C5  UNL     1      17.069 -16.344  21.726  1.00  0.00    -0.053 A 
HETATM   23  C6  UNL     1      17.578 -17.225  20.782  1.00  0.00     0.024 A 
HETATM   24  C7  UNL     1      18.666 -17.989  21.118  1.00  0.00     0.091 A 
HETATM   25  N2  UNL     1      19.265 -17.922  22.325  1.00  0.00    -0.358 N 
HETATM   26  C10 UNL     1      18.813 -17.098  23.260  1.00  0.00     0.012 A 
HETATM   27  C19 UNL     1      17.699 -16.303  22.941  1.00  0.00     0.032 A 
BRANCH  25  28
HETATM   28  C8  UNL     1      20.461 -18.711  22.559  1.00  0.00     0.154 C 
BRANCH  28  29
HETATM   29  C9  UNL     1      21.545 -18.339  21.544  1.00  0.00     0.184 C 
BRANCH  29  30
HETATM   30  O1  UNL     1      22.057 -17.104  21.940  1.00  0.00    -0.399 OA
ATOM     31  H1  UNL     1      22.792 -17.284  22.513  1.00  0.00     0.209 HD
ENDBRANCH  29  30
ENDBRANCH  28  29
ENDBRANCH  25  28
BRANCH  26  32
HETATM   32  C11 UNL     1      19.318 -16.982  24.651  1.00  0.00     0.062 C 
BRANCH  32  33
HETATM   33  C12 UNL     1      18.784 -15.799  25.405  1.00  0.00     0.044 C 
BRANCH  33  34
HETATM   34  C13 UNL     1      19.639 -14.606  25.417  1.00  0.00    -0.058 A 
HETATM   35  C14 UNL     1      19.765 -13.793  24.311  1.00  0.00     0.007 A 
HETATM   36  C15 UNL     1      20.588 -12.671  24.321  1.00  0.00     0.001 A 
HETATM   37  C16 UNL     1      21.313 -12.331  25.447  1.00  0.00     0.000 A 
HETATM   38  C17 UNL     1      21.191 -13.138  26.551  1.00  0.00     0.001 A 
HETATM   39  C18 UNL     1      20.380 -14.246  26.545  1.00  0.00     0.007 A 
ENDBRANCH  33  34
ENDBRANCH  32  33
ENDBRANCH  26  32
ENDBRANCH  21  22
ENDBRANCH   1  21
TORSDOF 11
ENDMDL
MODEL 5
REMARK VINA RESULT: -8.800248369      1.526      2.372
REMARK  11 active torsions:
REMARK  status: ('A' for Active; 'I' for Inactive)
REMARK    1  A    between atoms: N1_2  and  C3_4 
REMARK    2  A    between atoms: N1_2  and  C20_24 
REMARK    3  A    between atoms: C3_4  and  C4_5 
REMARK    4  A    between atoms: C4_5  and  C5_6 
REMARK    5  A    between atoms: N2_9  and  C8_10 
REMARK    6  A    between atoms: C8_10  and  C9_11 
REMARK    7  A    between atoms: C9_11  and  O1_12 
REMARK    8  A    between atoms: C10_14  and  C11_15 
REMARK    9  A    between atoms: C11_15  and  C12_16 
REMARK   10  A    between atoms: C12_16  and  C13_17 
REMARK   11  A    between atoms: C20_24  and  C21_25 
REMARK       I    between atoms: C21_25  and  N3_27 
ROOT
HETATM    1  C3  UNL     1      14.243 -16.126  19.690  1.00  0.00     0.241 C 
ENDROOT
BRANCH   1   2
HETATM    2  N1  UNL     1      12.876 -15.621  19.965  1.00  0.00    -0.066 N 
HETATM    3  C1  UNL     1      12.044 -15.960  18.820  1.00  0.00     0.272 C 
HETATM    4  C2  UNL     1      12.343 -16.248  21.144  1.00  0.00     0.272 C 
BRANCH   2   5
HETATM    5  C20 UNL     1      13.005 -14.205  20.042  1.00  0.00     0.339 C 
BRANCH   5   6
HETATM    6  C21 UNL     1      13.268 -13.603  21.342  1.00  0.00     0.249 C 
HETATM    7  O2  UNL     1      14.524 -13.597  21.676  1.00  0.00    -0.271 OA
HETATM    8  N3  UNL     1      12.409 -13.043  22.268  1.00  0.00    -0.306 N 
HETATM    9  C22 UNL     1      12.262 -11.858  22.681  1.00  0.00     0.192 A 
ATOM     10  H3  UNL     1      11.771 -13.713  22.699  1.00  0.00     0.170 HD
HETATM   11  N4  UNL     1      11.287 -11.680  23.627  1.00  0.00    -0.277 N 
HETATM   12  C24 UNL     1      12.950 -10.753  22.294  1.00  0.00     0.295 A 
HETATM   13  N5  UNL     1      10.994 -10.519  24.162  1.00  0.00    -0.250 N 
ATOM     14  H4  UNL     1      10.758 -12.497  23.932  1.00  0.00     0.189 HD
HETATM   15  C23 UNL     1      11.689  -9.441  23.762  1.00  0.00     0.341 A 
ATOM     16  H5  UNL     1      10.258 -10.437  24.863  1.00  0.00     0.192 HD
HETATM   17  O3  UNL     1      11.415  -8.330  24.270  1.00  0.00    -0.245 OA
HETATM   18  N6  UNL     1      12.660  -9.541  22.839  1.00  0.00    -0.271 N 
ATOM     19  H6  UNL     1      13.177  -8.712  22.548  1.00  0.00     0.174 HD
HETATM   20  O4  UNL     1      13.853 -10.856  21.431  1.00  0.00    -0.264 OA
ENDBRANCH   5   6
ENDBRANCH   2   5
ENDBRANCH   1   2
BRANCH   1  21
HETATM   21  C4  UNL     1      14.600 -17.066  20.802  1.00  0.00     0.066 C 
BRANCH  21  22
HETATM   22  C5  UNL     1      16.051 -17.047  21.110  1.00  0.00    -0.053 A 
HETATM   23  C6  UNL     1      16.861 -17.970  20.463  1.00  0.00     0.024 A 
HETATM   24  C7  UNL     1      18.205 -17.966  20.736  1.00  0.00     0.091 A 
HETATM   25  N2  UNL     1      18.775 -17.105  21.605  1.00  0.00    -0.358 N 
HETATM   26  C10 UNL     1      18.041 -16.208  22.248  1.00  0.00     0.012 A 
HETATM   27  C19 UNL     1      16.661 -16.190  21.986  1.00  0.00     0.032 A 
BRANCH  25  28
HETATM   28  C8  UNL     1      20.218 -17.124  21.765  1.00  0.00     0.154 C 
BRANCH  28  29
HETATM   29  C9  UNL     1      20.863 -17.940  20.642  1.00  0.00     0.184 C 
BRANCH  29  30
HETATM   30  O1  UNL     1      21.766 -17.094  20.000  1.00  0.00    -0.399 OA
ATOM     31  H1  UNL     1      22.636 -17.380  20.252  1.00  0.00     0.209 HD
ENDBRANCH  29  30
ENDBRANCH  28  29
ENDBRANCH  25  28
BRANCH  26  32
HETATM   32  C11 UNL     1      18.519 -15.261  23.287  1.00  0.00     0.062 C 
BRANCH  32  33
HETATM   33  C12 UNL     1      18.072 -13.843  23.082  1.00  0.00     0.044 C 
BRANCH  33  34
HETATM   34  C13 UNL     1      18.580 -13.178  21.877  1.00  0.00    -0.058 A 
HETATM   35  C14 UNL     1      19.922 -13.172  21.562  1.00  0.00     0.007 A 
HETATM   36  C15 UNL     1      20.403 -12.528  20.426  1.00  0.00     0.001 A 
HETATM   37  C16 UNL     1      19.546 -11.866  19.568  1.00  0.00     0.000 A 
HETATM   38  C17 UNL     1      18.208 -11.869  19.877  1.00  0.00     0.001 A 
HETATM   39  C18 UNL     1      17.730 -12.504  20.998  1.00  0.00     0.007 A 
ENDBRANCH  33  34
ENDBRANCH  32  33
ENDBRANCH  26  32
ENDBRANCH  21  22
ENDBRANCH   1  21
TORSDOF 11
ENDMDL
