MODEL 1
REMARK VINA RESULT: -8.117178709      0.000      0.000
REMARK  13 active torsions:
REMARK  status: ('A' for Active; 'I' for Inactive)
REMARK    1  A    between atoms: C2_3  and  C3_4 
REMARK    2  A    between atoms: C3_4  and  C4_5 
REMARK    3  A    between atoms: C4_5  and  C5_6 
REMARK    4  A    between atoms: C5_6  and  C6_7 
REMARK    5  A    between atoms: C6_7  and  C7_8 
REMARK    6  A    between atoms: N2_10  and  C9_11 
REMARK    7  A    between atoms: C9_11  and  C10_12 
REMARK    8  A    between atoms: C10_12  and  C11_13 
REMARK    9  A    between atoms: C11_13  and  O1_14 
REMARK   10  A    between atoms: O1_14  and  C12_15 
REMARK   11  A    between atoms: C12_15  and  C13_16 
REMARK       I    between atoms: C13_16  and  N3_18 
REMARK   12  A    between atoms: C15_23  and  O3_24 
REMARK   13  A    between atoms: C22_37  and  N9_38 
ROOT
HETATM    1  C7  UNL     1      19.664 -13.678  21.761  1.00  0.00     0.028 A 
HETATM    2  C8  UNL     1      19.816 -15.047  21.511  1.00  0.00     0.119 A 
HETATM    3  N2  UNL     1      19.272 -15.747  22.513  1.00  0.00    -0.321 N 
HETATM    4  C15 UNL     1      18.774 -14.886  23.400  1.00  0.00     0.223 A 
HETATM    5  N6  UNL     1      19.020 -13.633  22.929  1.00  0.00    -0.325 N 
ATOM      6  H6  UNL     1      18.747 -12.772  23.406  1.00  0.00     0.169 HD
ENDROOT
BRANCH   1   7
HETATM    7  C6  UNL     1      20.098 -12.589  20.868  1.00  0.00     0.058 C 
BRANCH   7   8
HETATM    8  C5  UNL     1      19.097 -12.155  19.848  1.00  0.00     0.006 C 
BRANCH   8   9
HETATM    9  C4  UNL     1      17.773 -11.804  20.399  1.00  0.00     0.006 C 
BRANCH   9  10
HETATM   10  C3  UNL     1      16.538 -12.293  19.748  1.00  0.00     0.059 C 
BRANCH  10  11
HETATM   11  C2  UNL     1      15.390 -12.635  20.580  1.00  0.00     0.042 A 
HETATM   12  N1  UNL     1      15.286 -13.950  20.941  1.00  0.00    -0.191 N 
HETATM   13  C1  UNL     1      16.194 -14.976  20.452  1.00  0.00     0.175 C 
HETATM   14  C22 UNL     1      14.296 -14.294  21.772  1.00  0.00     0.679 A 
HETATM   15  N8  UNL     1      13.414 -13.382  22.250  1.00  0.00    -0.176 N 
HETATM   16  C21 UNL     1      13.498 -12.093  21.905  1.00  0.00     0.135 A 
ATOM     17  H8  UNL     1      12.673 -13.685  22.882  1.00  0.00     0.186 HD
HETATM   18  C16 UNL     1      14.513 -11.677  21.039  1.00  0.00     0.032 A 
HETATM   19  N7  UNL     1      12.627 -11.189  22.337  1.00  0.00    -0.346 N 
HETATM   20  C17 UNL     1      14.571 -10.346  20.661  1.00  0.00     0.018 A 
HETATM   21  C18 UNL     1      13.654  -9.433  21.123  1.00  0.00     0.018 A 
HETATM   22  C19 UNL     1      12.666  -9.877  21.980  1.00  0.00     0.092 A 
HETATM   23  C20 UNL     1      11.579 -11.639  23.239  1.00  0.00     0.157 C 
BRANCH  14  24
HETATM   24  N9  UNL     1      14.185 -15.538  22.125  1.00  0.00    -0.234 N 
ATOM     25  H92 UNL     1      13.715 -16.198  21.505  1.00  0.00     0.174 HD
ATOM     26  H91 UNL     1      14.575 -15.827  23.022  1.00  0.00     0.174 HD
ENDBRANCH  14  24
ENDBRANCH  10  11
ENDBRANCH   9  10
ENDBRANCH   8   9
ENDBRANCH   7   8
ENDBRANCH   1   7
BRANCH   3  27
HETATM   27  C9  UNL     1      19.212 -17.205  22.653  1.00  0.00     0.134 C 
BRANCH  27  28
HETATM   28  C10 UNL     1      20.563 -17.800  22.919  1.00  0.00     0.046 C 
BRANCH  28  29
HETATM   29  C11 UNL     1      20.795 -17.689  24.426  1.00  0.00     0.169 C 
BRANCH  29  30
HETATM   30  O1  UNL     1      22.070 -17.253  24.693  1.00  0.00    -0.382 OA
BRANCH  30  31
HETATM   31  C12 UNL     1      22.533 -16.325  23.801  1.00  0.00     0.270 C 
BRANCH  31  32
HETATM   32  C13 UNL     1      22.370 -14.949  24.263  1.00  0.00     0.247 C 
HETATM   33  O2  UNL     1      22.674 -14.021  23.465  1.00  0.00    -0.271 OA
HETATM   34  N3  UNL     1      21.903 -14.621  25.541  1.00  0.00    -0.302 N 
HETATM   35  C14 UNL     1      21.380 -13.458  25.789  1.00  0.00     0.203 C 
ATOM     36  H3  UNL     1      21.974 -15.308  26.292  1.00  0.00     0.171 HD
HETATM   37  N4  UNL     1      21.257 -12.456  24.766  1.00  0.00    -0.066 NA
HETATM   38  N5  UNL     1      20.941 -13.229  27.111  1.00  0.00    -0.066 NA
ENDBRANCH  31  32
ENDBRANCH  30  31
ENDBRANCH  29  30
ENDBRANCH  28  29
ENDBRANCH  27  28
ENDBRANCH   3  27
BRANCH   4  39
HETATM   39  O3  UNL     1      18.130 -15.229  24.578  1.00  0.00    -0.332 OA
ATOM     40  H3  UNL     1      18.518 -15.204  25.446  1.00  0.00     0.221 HD
ENDBRANCH   4  39
TORSDOF 13
ENDMDL
MODEL 2
REMARK VINA RESULT: -7.911515912      1.189      1.592
REMARK  13 active torsions:
REMARK  status: ('A' for Active; 'I' for Inactive)
REMARK    1  A    between atoms: C2_3  and  C3_4 
REMARK    2  A    between atoms: C3_4  and  C4_5 
REMARK    3  A    between atoms: C4_5  and  C5_6 
REMARK    4  A    between atoms: C5_6  and  C6_7 
REMARK    5  A    between atoms: C6_7  and  C7_8 
REMARK    6  A    between atoms: N2_10  and  C9_11 
REMARK    7  A    between atoms: C9_11  and  C10_12 
REMARK    8  A    between atoms: C10_12  and  C11_13 
REMARK    9  A    between atoms: C11_13  and  O1_14 
REMARK   10  A    between atoms: O1_14  and  C12_15 
REMARK   11  A    between atoms: C12_15  and  C13_16 
REMARK       I    between atoms: C13_16  and  N3_18 
REMARK   12  A    between atoms: C15_23  and  O3_24 
REMARK   13  A    between atoms: C22_37  and  N9_38 
ROOT
HETATM    1  C7  UNL     1      19.837 -13.962  21.852  1.00  0.00     0.028 A 
HETATM    2  C8  UNL     1      18.947 -14.290  22.880  1.00  0.00     0.119 A 
HETATM    3  N2  UNL     1      19.096 -15.579  23.207  1.00  0.00    -0.321 N 
HETATM    4  C15 UNL     1      20.048 -16.097  22.431  1.00  0.00     0.223 A 
HETATM    5  N6  UNL     1      20.489 -15.103  21.614  1.00  0.00    -0.325 N 
ATOM      6  H6  UNL     1      21.222 -15.213  20.912  1.00  0.00     0.169 HD
ENDROOT
BRANCH   1   7
HETATM    7  C6  UNL     1      20.000 -12.627  21.251  1.00  0.00     0.058 C 
BRANCH   7   8
HETATM    8  C5  UNL     1      19.117 -12.333  20.083  1.00  0.00     0.006 C 
BRANCH   8   9
HETATM    9  C4  UNL     1      17.786 -11.801  20.440  1.00  0.00     0.006 C 
BRANCH   9  10
HETATM   10  C3  UNL     1      16.572 -12.315  19.772  1.00  0.00     0.059 C 
BRANCH  10  11
HETATM   11  C2  UNL     1      15.411 -12.659  20.585  1.00  0.00     0.042 A 
HETATM   12  N1  UNL     1      15.297 -13.977  20.934  1.00  0.00    -0.191 N 
HETATM   13  C1  UNL     1      16.207 -15.002  20.448  1.00  0.00     0.175 C 
HETATM   14  C22 UNL     1      14.295 -14.323  21.749  1.00  0.00     0.679 A 
HETATM   15  N8  UNL     1      13.410 -13.412  22.223  1.00  0.00    -0.176 N 
HETATM   16  C21 UNL     1      13.504 -12.120  21.891  1.00  0.00     0.135 A 
ATOM     17  H8  UNL     1      12.660 -13.717  22.843  1.00  0.00     0.186 HD
HETATM   18  C16 UNL     1      14.531 -11.701  21.041  1.00  0.00     0.032 A 
HETATM   19  N7  UNL     1      12.631 -11.217  22.319  1.00  0.00    -0.346 N 
HETATM   20  C17 UNL     1      14.600 -10.367  20.676  1.00  0.00     0.018 A 
HETATM   21  C18 UNL     1      13.681  -9.455  21.134  1.00  0.00     0.018 A 
HETATM   22  C19 UNL     1      12.680  -9.902  21.974  1.00  0.00     0.092 A 
HETATM   23  C20 UNL     1      11.570 -11.670  23.203  1.00  0.00     0.157 C 
BRANCH  14  24
HETATM   24  N9  UNL     1      14.175 -15.570  22.089  1.00  0.00    -0.234 N 
ATOM     25  H92 UNL     1      15.011 -16.126  22.268  1.00  0.00     0.174 HD
ATOM     26  H91 UNL     1      13.238 -15.966  22.168  1.00  0.00     0.174 HD
ENDBRANCH  14  24
ENDBRANCH  10  11
ENDBRANCH   9  10
ENDBRANCH   8   9
ENDBRANCH   7   8
ENDBRANCH   1   7
BRANCH   3  27
HETATM   27  C9  UNL     1      18.363 -16.331  24.230  1.00  0.00     0.134 C 
BRANCH  27  28
HETATM   28  C10 UNL     1      18.730 -15.894  25.617  1.00  0.00     0.046 C 
BRANCH  28  29
HETATM   29  C11 UNL     1      19.441 -17.080  26.270  1.00  0.00     0.169 C 
BRANCH  29  30
HETATM   30  O1  UNL     1      20.468 -17.530  25.477  1.00  0.00    -0.382 OA
BRANCH  30  31
HETATM   31  C12 UNL     1      21.711 -17.250  25.975  1.00  0.00     0.270 C 
BRANCH  31  32
HETATM   32  C13 UNL     1      22.338 -16.091  25.344  1.00  0.00     0.247 C 
HETATM   33  O2  UNL     1      23.319 -16.297  24.579  1.00  0.00    -0.271 OA
HETATM   34  N3  UNL     1      21.904 -14.777  25.555  1.00  0.00    -0.302 N 
HETATM   35  C14 UNL     1      22.175 -13.834  24.704  1.00  0.00     0.203 C 
ATOM     36  H3  UNL     1      21.365 -14.556  26.391  1.00  0.00     0.171 HD
HETATM   37  N4  UNL     1      22.932 -14.093  23.509  1.00  0.00    -0.066 NA
HETATM   38  N5  UNL     1      21.691 -12.543  25.012  1.00  0.00    -0.066 NA
ENDBRANCH  31  32
ENDBRANCH  30  31
ENDBRANCH  29  30
ENDBRANCH  28  29
ENDBRANCH  27  28
ENDBRANCH   3  27
BRANCH   4  39
HETATM   39  O3  UNL     1      20.488 -17.411  22.470  1.00  0.00    -0.332 OA
ATOM     40  H3  UNL     1      19.945 -18.178  22.331  1.00  0.00     0.221 HD
ENDBRANCH   4  39
TORSDOF 13
ENDMDL
MODEL 3
REMARK VINA RESULT: -7.890700736      1.957      3.709
REMARK  13 active torsions:
REMARK  status: ('A' for Active; 'I' for Inactive)
REMARK    1  A    between atoms: C2_3  and  C3_4 
REMARK    2  A    between atoms: C3_4  and  C4_5 
REMARK    3  A    between atoms: C4_5  and  C5_6 
REMARK    4  A    between atoms: C5_6  and  C6_7 
REMARK    5  A    between atoms: C6_7  and  C7_8 
REMARK    6  A    between atoms: N2_10  and  C9_11 
REMARK    7  A    between atoms: C9_11  and  C10_12 
REMARK    8  A    between atoms: C10_12  and  C11_13 
REMARK    9  A    between atoms: C11_13  and  O1_14 
REMARK   10  A    between atoms: O1_14  and  C12_15 
REMARK   11  A    between atoms: C12_15  and  C13_16 
REMARK       I    between atoms: C13_16  and  N3_18 
REMARK   12  A    between atoms: C15_23  and  O3_24 
REMARK   13  A    between atoms: C22_37  and  N9_38 
ROOT
HETATM    1  C7  UNL     1      20.228 -13.345  21.513  1.00  0.00     0.028 A 
HETATM    2  C8  UNL     1      20.490 -13.307  22.887  1.00  0.00     0.119 A 
HETATM    3  N2  UNL     1      20.470 -14.551  23.381  1.00  0.00    -0.321 N 
HETATM    4  C15 UNL     1      20.207 -15.391  22.380  1.00  0.00     0.223 A 
HETATM    5  N6  UNL     1      20.063 -14.644  21.251  1.00  0.00    -0.325 N 
ATOM      6  H6  UNL     1      19.857 -15.026  20.328  1.00  0.00     0.169 HD
ENDROOT
BRANCH   1   7
HETATM    7  C6  UNL     1      20.205 -12.181  20.610  1.00  0.00     0.058 C 
BRANCH   7   8
HETATM    8  C5  UNL     1      19.011 -12.078  19.720  1.00  0.00     0.006 C 
BRANCH   8   9
HETATM    9  C4  UNL     1      17.725 -11.938  20.433  1.00  0.00     0.006 C 
BRANCH   9  10
HETATM   10  C3  UNL     1      16.461 -12.346  19.783  1.00  0.00     0.059 C 
BRANCH  10  11
HETATM   11  C2  UNL     1      15.310 -12.668  20.619  1.00  0.00     0.042 A 
HETATM   12  N1  UNL     1      15.181 -13.983  20.974  1.00  0.00    -0.191 N 
HETATM   13  C1  UNL     1      16.065 -15.024  20.476  1.00  0.00     0.175 C 
HETATM   14  C22 UNL     1      14.188 -14.311  21.808  1.00  0.00     0.679 A 
HETATM   15  N8  UNL     1      13.327 -13.384  22.295  1.00  0.00    -0.176 N 
HETATM   16  C21 UNL     1      13.436 -12.095  21.957  1.00  0.00     0.135 A 
ATOM     17  H8  UNL     1      12.584 -13.675  22.930  1.00  0.00     0.186 HD
HETATM   18  C16 UNL     1      14.454 -11.695  21.087  1.00  0.00     0.032 A 
HETATM   19  N7  UNL     1      12.585 -11.176  22.397  1.00  0.00    -0.346 N 
HETATM   20  C17 UNL     1      14.538 -10.364  20.716  1.00  0.00     0.018 A 
HETATM   21  C18 UNL     1      13.642  -9.435  21.187  1.00  0.00     0.018 A 
HETATM   22  C19 UNL     1      12.650  -9.863  22.046  1.00  0.00     0.092 A 
HETATM   23  C20 UNL     1      11.533 -11.609  23.302  1.00  0.00     0.157 C 
BRANCH  14  24
HETATM   24  N9  UNL     1      14.054 -15.555  22.155  1.00  0.00    -0.234 N 
ATOM     25  H92 UNL     1      14.241 -15.831  23.119  1.00  0.00     0.174 HD
ATOM     26  H91 UNL     1      13.764 -16.230  21.448  1.00  0.00     0.174 HD
ENDBRANCH  14  24
ENDBRANCH  10  11
ENDBRANCH   9  10
ENDBRANCH   8   9
ENDBRANCH   7   8
ENDBRANCH   1   7
BRANCH   3  27
HETATM   27  C9  UNL     1      20.692 -14.963  24.769  1.00  0.00     0.134 C 
BRANCH  27  28
HETATM   28  C10 UNL     1      19.431 -14.910  25.580  1.00  0.00     0.046 C 
BRANCH  28  29
HETATM   29  C11 UNL     1      19.247 -16.302  26.184  1.00  0.00     0.169 C 
BRANCH  29  30
HETATM   30  O1  UNL     1      19.319 -17.270  25.213  1.00  0.00    -0.382 OA
BRANCH  30  31
HETATM   31  C12 UNL     1      18.367 -18.245  25.336  1.00  0.00     0.270 C 
BRANCH  31  32
HETATM   32  C13 UNL     1      17.213 -18.039  24.464  1.00  0.00     0.247 C 
HETATM   33  O2  UNL     1      17.339 -17.234  23.503  1.00  0.00    -0.271 OA
HETATM   34  N3  UNL     1      15.987 -18.687  24.653  1.00  0.00    -0.302 N 
HETATM   35  C14 UNL     1      15.140 -18.823  23.678  1.00  0.00     0.203 C 
ATOM     36  H3  UNL     1      15.754 -19.060  25.573  1.00  0.00     0.171 HD
HETATM   37  N4  UNL     1      15.420 -18.315  22.363  1.00  0.00    -0.066 NA
HETATM   38  N5  UNL     1      13.932 -19.491  23.976  1.00  0.00    -0.066 NA
ENDBRANCH  31  32
ENDBRANCH  30  31
ENDBRANCH  29  30
ENDBRANCH  28  29
ENDBRANCH  27  28
ENDBRANCH   3  27
BRANCH   4  39
HETATM   39  O3  UNL     1      20.104 -16.769  22.495  1.00  0.00    -0.332 OA
ATOM     40  H3  UNL     1      20.661 -17.401  22.055  1.00  0.00     0.221 HD
ENDBRANCH   4  39
TORSDOF 13
ENDMDL
MODEL 4
REMARK VINA RESULT: -7.874262929      1.163      2.756
REMARK  13 active torsions:
REMARK  status: ('A' for Active; 'I' for Inactive)
REMARK    1  A    between atoms: C2_3  and  C3_4 
REMARK    2  A    between atoms: C3_4  and  C4_5 
REMARK    3  A    between atoms: C4_5  and  C5_6 
REMARK    4  A    between atoms: C5_6  and  C6_7 
REMARK    5  A    between atoms: C6_7  and  C7_8 
REMARK    6  A    between atoms: N2_10  and  C9_11 
REMARK    7  A    between atoms: C9_11  and  C10_12 
REMARK    8  A    between atoms: C10_12  and  C11_13 
REMARK    9  A    between atoms: C11_13  and  O1_14 
REMARK   10  A    between atoms: O1_14  and  C12_15 
REMARK   11  A    between atoms: C12_15  and  C13_16 
REMARK       I    between atoms: C13_16  and  N3_18 
REMARK   12  A    between atoms: C15_23  and  O3_24 
REMARK   13  A    between atoms: C22_37  and  N9_38 
ROOT
HETATM    1  C7  UNL     1      19.591 -13.475  22.009  1.00  0.00     0.028 A 
HETATM    2  C8  UNL     1      20.466 -13.045  23.013  1.00  0.00     0.119 A 
HETATM    3  N2  UNL     1      20.021 -13.464  24.203  1.00  0.00    -0.321 N 
HETATM    4  C15 UNL     1      18.894 -14.148  24.009  1.00  0.00     0.223 A 
HETATM    5  N6  UNL     1      18.645 -14.147  22.670  1.00  0.00    -0.325 N 
ATOM      6  H6  UNL     1      17.844 -14.600  22.231  1.00  0.00     0.169 HD
ENDROOT
BRANCH   1   7
HETATM    7  C6  UNL     1      19.763 -13.245  20.564  1.00  0.00     0.058 C 
BRANCH   7   8
HETATM    8  C5  UNL     1      19.149 -11.992  20.032  1.00  0.00     0.006 C 
BRANCH   8   9
HETATM    9  C4  UNL     1      17.780 -11.726  20.518  1.00  0.00     0.006 C 
BRANCH   9  10
HETATM   10  C3  UNL     1      16.614 -12.332  19.839  1.00  0.00     0.059 C 
BRANCH  10  11
HETATM   11  C2  UNL     1      15.433 -12.664  20.627  1.00  0.00     0.042 A 
HETATM   12  N1  UNL     1      15.283 -13.986  20.947  1.00  0.00    -0.191 N 
HETATM   13  C1  UNL     1      16.176 -15.022  20.455  1.00  0.00     0.175 C 
HETATM   14  C22 UNL     1      14.259 -14.325  21.739  1.00  0.00     0.679 A 
HETATM   15  N8  UNL     1      13.388 -13.403  22.218  1.00  0.00    -0.176 N 
HETATM   16  C21 UNL     1      13.518 -12.107  21.914  1.00  0.00     0.135 A 
ATOM     17  H8  UNL     1      12.622 -13.703  22.820  1.00  0.00     0.186 HD
HETATM   18  C16 UNL     1      14.568 -11.695  21.089  1.00  0.00     0.032 A 
HETATM   19  N7  UNL     1      12.659 -11.192  22.346  1.00  0.00    -0.346 N 
HETATM   20  C17 UNL     1      14.674 -10.356  20.752  1.00  0.00     0.018 A 
HETATM   21  C18 UNL     1      13.769  -9.432  21.214  1.00  0.00     0.018 A 
HETATM   22  C19 UNL     1      12.745  -9.872  22.029  1.00  0.00     0.092 A 
HETATM   23  C20 UNL     1      11.574 -11.637  23.205  1.00  0.00     0.157 C 
BRANCH  14  24
HETATM   24  N9  UNL     1      14.105 -15.575  22.052  1.00  0.00    -0.234 N 
ATOM     25  H92 UNL     1      13.187 -16.010  21.953  1.00  0.00     0.174 HD
ATOM     26  H91 UNL     1      14.913 -16.096  22.393  1.00  0.00     0.174 HD
ENDBRANCH  14  24
ENDBRANCH  10  11
ENDBRANCH   9  10
ENDBRANCH   8   9
ENDBRANCH   7   8
ENDBRANCH   1   7
BRANCH   3  27
HETATM   27  C9  UNL     1      20.632 -13.234  25.515  1.00  0.00     0.134 C 
BRANCH  27  28
HETATM   28  C10 UNL     1      21.215 -14.491  26.091  1.00  0.00     0.046 C 
BRANCH  28  29
HETATM   29  C11 UNL     1      22.280 -14.965  25.102  1.00  0.00     0.169 C 
BRANCH  29  30
HETATM   30  O1  UNL     1      22.310 -16.336  25.036  1.00  0.00    -0.382 OA
BRANCH  30  31
HETATM   31  C12 UNL     1      21.073 -16.917  25.103  1.00  0.00     0.270 C 
BRANCH  31  32
HETATM   32  C13 UNL     1      20.508 -17.225  23.792  1.00  0.00     0.247 C 
HETATM   33  O2  UNL     1      19.287 -17.533  23.736  1.00  0.00    -0.271 OA
HETATM   34  N3  UNL     1      21.257 -17.197  22.609  1.00  0.00    -0.302 N 
HETATM   35  C14 UNL     1      20.684 -17.059  21.452  1.00  0.00     0.203 C 
ATOM     36  H3  UNL     1      22.272 -17.285  22.658  1.00  0.00     0.171 HD
HETATM   37  N4  UNL     1      19.257 -16.930  21.331  1.00  0.00    -0.066 NA
HETATM   38  N5  UNL     1      21.531 -17.045  20.323  1.00  0.00    -0.066 NA
ENDBRANCH  31  32
ENDBRANCH  30  31
ENDBRANCH  29  30
ENDBRANCH  28  29
ENDBRANCH  27  28
ENDBRANCH   3  27
BRANCH   4  39
HETATM   39  O3  UNL     1      18.133 -14.742  25.004  1.00  0.00    -0.332 OA
ATOM     40  H3  UNL     1      17.501 -15.440  24.872  1.00  0.00     0.221 HD
ENDBRANCH   4  39
TORSDOF 13
ENDMDL
MODEL 5
REMARK VINA RESULT: -7.831000929      1.507      2.129
REMARK  13 active torsions:
REMARK  status: ('A' for Active; 'I' for Inactive)
REMARK    1  A    between atoms: C2_3  and  C3_4 
REMARK    2  A    between atoms: C3_4  and  C4_5 
REMARK    3  A    between atoms: C4_5  and  C5_6 
REMARK    4  A    between atoms: C5_6  and  C6_7 
REMARK    5  A    between atoms: C6_7  and  C7_8 
REMARK    6  A    between atoms: N2_10  and  C9_11 
REMARK    7  A    between atoms: C9_11  and  C10_12 
REMARK    8  A    between atoms: C10_12  and  C11_13 
REMARK    9  A    between atoms: C11_13  and  O1_14 
REMARK   10  A    between atoms: O1_14  and  C12_15 
REMARK   11  A    between atoms: C12_15  and  C13_16 
REMARK       I    between atoms: C13_16  and  N3_18 
REMARK   12  A    between atoms: C15_23  and  O3_24 
REMARK   13  A    between atoms: C22_37  and  N9_38 
ROOT
HETATM    1  C7  UNL     1      19.827 -13.853  21.631  1.00  0.00     0.028 A 
HETATM    2  C8  UNL     1      19.055 -14.009  22.788  1.00  0.00     0.119 A 
HETATM    3  N2  UNL     1      19.031 -15.300  23.139  1.00  0.00    -0.321 N 
HETATM    4  C15 UNL     1      19.756 -15.985  22.255  1.00  0.00     0.223 A 
HETATM    5  N6  UNL     1      20.234 -15.092  21.345  1.00  0.00    -0.325 N 
ATOM      6  H6  UNL     1      20.825 -15.337  20.550  1.00  0.00     0.169 HD
ENDROOT
BRANCH   1   7
HETATM    7  C6  UNL     1      20.123 -12.574  20.963  1.00  0.00     0.058 C 
BRANCH   7   8
HETATM    8  C5  UNL     1      19.142 -12.150  19.919  1.00  0.00     0.006 C 
BRANCH   8   9
HETATM    9  C4  UNL     1      17.811 -11.781  20.442  1.00  0.00     0.006 C 
BRANCH   9  10
HETATM   10  C3  UNL     1      16.584 -12.269  19.777  1.00  0.00     0.059 C 
BRANCH  10  11
HETATM   11  C2  UNL     1      15.427 -12.611  20.595  1.00  0.00     0.042 A 
HETATM   12  N1  UNL     1      15.319 -13.927  20.953  1.00  0.00    -0.191 N 
HETATM   13  C1  UNL     1      16.231 -14.952  20.473  1.00  0.00     0.175 C 
HETATM   14  C22 UNL     1      14.319 -14.272  21.772  1.00  0.00     0.679 A 
HETATM   15  N8  UNL     1      13.431 -13.361  22.241  1.00  0.00    -0.176 N 
HETATM   16  C21 UNL     1      13.520 -12.071  21.900  1.00  0.00     0.135 A 
ATOM     17  H8  UNL     1      12.684 -13.664  22.865  1.00  0.00     0.186 HD
HETATM   18  C16 UNL     1      14.544 -11.654  21.046  1.00  0.00     0.032 A 
HETATM   19  N7  UNL     1      12.644 -11.168  22.323  1.00  0.00    -0.346 N 
HETATM   20  C17 UNL     1      14.607 -10.322  20.670  1.00  0.00     0.018 A 
HETATM   21  C18 UNL     1      13.685  -9.410  21.123  1.00  0.00     0.018 A 
HETATM   22  C19 UNL     1      12.688  -9.855  21.969  1.00  0.00     0.092 A 
HETATM   23  C20 UNL     1      11.586 -11.618  23.213  1.00  0.00     0.157 C 
BRANCH  14  24
HETATM   24  N9  UNL     1      14.204 -15.517  22.122  1.00  0.00    -0.234 N 
ATOM     25  H92 UNL     1      14.241 -15.768  23.110  1.00  0.00     0.174 HD
ATOM     26  H91 UNL     1      14.080 -16.219  21.392  1.00  0.00     0.174 HD
ENDBRANCH  14  24
ENDBRANCH  10  11
ENDBRANCH   9  10
ENDBRANCH   8   9
ENDBRANCH   7   8
ENDBRANCH   1   7
BRANCH   3  27
HETATM   27  C9  UNL     1      18.341 -15.901  24.284  1.00  0.00     0.134 C 
BRANCH  27  28
HETATM   28  C10 UNL     1      19.295 -16.284  25.376  1.00  0.00     0.046 C 
BRANCH  28  29
HETATM   29  C11 UNL     1      19.586 -15.006  26.164  1.00  0.00     0.169 C 
BRANCH  29  30
HETATM   30  O1  UNL     1      20.936 -14.848  26.359  1.00  0.00    -0.382 OA
BRANCH  30  31
HETATM   31  C12 UNL     1      21.513 -13.947  25.506  1.00  0.00     0.270 C 
BRANCH  31  32
HETATM   32  C13 UNL     1      22.424 -14.563  24.546  1.00  0.00     0.247 C 
HETATM   33  O2  UNL     1      22.517 -14.038  23.403  1.00  0.00    -0.271 OA
HETATM   34  N3  UNL     1      23.187 -15.701  24.835  1.00  0.00    -0.302 N 
HETATM   35  C14 UNL     1      24.261 -15.981  24.161  1.00  0.00     0.203 C 
ATOM     36  H3  UNL     1      22.893 -16.322  25.589  1.00  0.00     0.171 HD
HETATM   37  N4  UNL     1      24.717 -15.138  23.089  1.00  0.00    -0.066 NA
HETATM   38  N5  UNL     1      24.956 -17.153  24.533  1.00  0.00    -0.066 NA
ENDBRANCH  31  32
ENDBRANCH  30  31
ENDBRANCH  29  30
ENDBRANCH  28  29
ENDBRANCH  27  28
ENDBRANCH   3  27
BRANCH   4  39
HETATM   39  O3  UNL     1      19.969 -17.354  22.280  1.00  0.00    -0.332 OA
ATOM     40  H3  UNL     1      19.348 -18.014  21.990  1.00  0.00     0.221 HD
ENDBRANCH   4  39
TORSDOF 13
ENDMDL
