MODEL 1
REMARK VINA RESULT: -6.666504838      0.000      0.000
REMARK  14 active torsions:
REMARK  status: ('A' for Active; 'I' for Inactive)
REMARK    1  A    between atoms: N1_2  and  C2_4 
REMARK    2  A    between atoms: C2_4  and  N2_6 
REMARK    3  A    between atoms: C3_8  and  C4_9 
REMARK    4  A    between atoms: C3_8  and  N4_16 
REMARK    5  A    between atoms: C4_9  and  C5_10 
REMARK    6  A    between atoms: C5_10  and  C6_11 
REMARK    7  A    between atoms: C6_11  and  N3_12 
REMARK    8  A    between atoms: N4_16  and  C10_18 
REMARK    9  A    between atoms: C10_18  and  C11_19 
REMARK   10  A    between atoms: C10_18  and  C13_31 
REMARK       I    between atoms: C11_19  and  N5_21 
REMARK   11  A    between atoms: C12_23  and  N6_24 
REMARK   12  A    between atoms: N6_24  and  N7_26 
REMARK   13  A    between atoms: C15_33  and  S2_34 
REMARK   14  A    between atoms: S2_34  and  N9_37 
ROOT
HETATM    1  C10 UNL     1      17.708 -13.324  20.974  1.00  0.00     0.205 C 
ENDROOT
BRANCH   1   2
HETATM    2  N4  UNL     1      18.869 -14.166  20.846  1.00  0.00    -0.363 N 
ATOM      3  H4  UNL     1      18.908 -14.745  20.006  1.00  0.00     0.162 HD
BRANCH   2   4
HETATM    4  C3  UNL     1      19.951 -14.293  21.726  1.00  0.00     0.080 C 
HETATM    5  N2  UNL     1      20.365 -15.455  22.161  1.00  0.00    -0.323 N 
ATOM      6  H2  UNL     1      21.165 -15.460  22.794  1.00  0.00     0.169 HD
BRANCH   5   7
HETATM    7  C2  UNL     1      19.800 -16.696  21.831  1.00  0.00     0.172 C 
HETATM    8  S1  UNL     1      18.593 -17.395  22.679  1.00  0.00    -0.041 SA
BRANCH   7   9
HETATM    9  N1  UNL     1      20.314 -17.375  20.700  1.00  0.00    -0.371 N 
HETATM   10  C1  UNL     1      21.715 -17.760  20.612  1.00  0.00     0.148 C 
ATOM     11  H1  UNL     1      19.686 -17.601  19.928  1.00  0.00     0.161 HD
ENDBRANCH   7   9
ENDBRANCH   5   7
BRANCH   4  12
HETATM   12  C4  UNL     1      20.686 -13.099  22.193  1.00  0.00     0.078 C 
BRANCH  12  13
HETATM   13  C5  UNL     1      20.216 -12.801  23.593  1.00  0.00     0.035 C 
BRANCH  13  14
HETATM   14  C6  UNL     1      21.169 -13.077  24.683  1.00  0.00     0.236 C 
BRANCH  14  15
HETATM   15  N3  UNL     1      20.917 -14.092  25.612  1.00  0.00    -0.079 N 
HETATM   16  C7  UNL     1      21.739 -15.249  25.575  1.00  0.00     0.271 C 
HETATM   17  C8  UNL     1      21.014 -13.531  26.965  1.00  0.00     0.271 C 
HETATM   18  C9  UNL     1      19.512 -14.535  25.521  1.00  0.00     0.271 C 
ENDBRANCH  14  15
ENDBRANCH  13  14
ENDBRANCH  12  13
ENDBRANCH   4  12
ENDBRANCH   2   4
ENDBRANCH   1   2
BRANCH   1  19
HETATM   19  C11 UNL     1      17.809 -12.173  20.069  1.00  0.00     0.249 C 
HETATM   20  O1  UNL     1      18.800 -11.377  20.217  1.00  0.00    -0.270 OA
HETATM   21  N5  UNL     1      16.920 -11.828  19.033  1.00  0.00    -0.320 N 
HETATM   22  C12 UNL     1      15.970 -10.960  19.175  1.00  0.00     0.201 C 
ATOM     23  H5  UNL     1      17.029 -12.284  18.127  1.00  0.00     0.169 HD
BRANCH  22  24
HETATM   24  N6  UNL     1      15.748 -10.279  20.403  1.00  0.00    -0.282 N 
ATOM     25  H6  UNL     1      16.462 -10.347  21.128  1.00  0.00     0.189 HD
BRANCH  24  26
HETATM   26  N7  UNL     1      14.607  -9.524  20.670  1.00  0.00    -0.248 N 
HETATM   27  N8  UNL     1      13.574  -9.641  19.920  1.00  0.00    -0.331 N 
ATOM     28  H82 UNL     1      13.603 -10.290  19.134  1.00  0.00     0.178 HD
ATOM     29  H81 UNL     1      12.739  -9.088  20.116  1.00  0.00     0.178 HD
ATOM     30  H7  UNL     1      14.594  -8.880  21.460  1.00  0.00     0.207 HD
ENDBRANCH  24  26
ENDBRANCH  22  24
ENDBRANCH   1  19
BRANCH   1  31
HETATM   31  C13 UNL     1      16.421 -14.035  21.002  1.00  0.00    -0.040 C 
HETATM   32  C14 UNL     1      16.367 -15.433  20.408  1.00  0.00     0.047 C 
HETATM   33  C15 UNL     1      15.289 -13.573  21.470  1.00  0.00     0.136 C 
BRANCH  33  34
HETATM   34  S2  UNL     1      13.760 -14.423  21.507  1.00  0.00     0.248 S 
HETATM   35  O2  UNL     1      13.781 -15.686  22.268  1.00  0.00    -0.201 OA
HETATM   36  O3  UNL     1      12.690 -13.545  22.155  1.00  0.00    -0.201 OA
BRANCH  34  37
HETATM   37  N9  UNL     1      13.167 -14.751  19.923  1.00  0.00    -0.321 N 
HETATM   38  C16 UNL     1      12.369 -15.952  19.983  1.00  0.00     0.159 C 
ATOM     39  H9  UNL     1      13.347 -14.194  19.088  1.00  0.00     0.171 HD
ENDBRANCH  34  37
ENDBRANCH  33  34
ENDBRANCH   1  31
TORSDOF 14
ENDMDL
MODEL 2
REMARK VINA RESULT: -6.586919144      2.624      6.516
REMARK  14 active torsions:
REMARK  status: ('A' for Active; 'I' for Inactive)
REMARK    1  A    between atoms: N1_2  and  C2_4 
REMARK    2  A    between atoms: C2_4  and  N2_6 
REMARK    3  A    between atoms: C3_8  and  C4_9 
REMARK    4  A    between atoms: C3_8  and  N4_16 
REMARK    5  A    between atoms: C4_9  and  C5_10 
REMARK    6  A    between atoms: C5_10  and  C6_11 
REMARK    7  A    between atoms: C6_11  and  N3_12 
REMARK    8  A    between atoms: N4_16  and  C10_18 
REMARK    9  A    between atoms: C10_18  and  C11_19 
REMARK   10  A    between atoms: C10_18  and  C13_31 
REMARK       I    between atoms: C11_19  and  N5_21 
REMARK   11  A    between atoms: C12_23  and  N6_24 
REMARK   12  A    between atoms: N6_24  and  N7_26 
REMARK   13  A    between atoms: C15_33  and  S2_34 
REMARK   14  A    between atoms: S2_34  and  N9_37 
ROOT
HETATM    1  C10 UNL     1      17.723 -13.399  20.999  1.00  0.00     0.205 C 
ENDROOT
BRANCH   1   2
HETATM    2  N4  UNL     1      16.505 -13.439  21.765  1.00  0.00    -0.363 N 
ATOM      3  H4  UNL     1      16.474 -12.829  22.583  1.00  0.00     0.162 HD
BRANCH   2   4
HETATM    4  C3  UNL     1      15.357 -14.207  21.532  1.00  0.00     0.080 C 
HETATM    5  N2  UNL     1      15.347 -15.508  21.668  1.00  0.00    -0.323 N 
ATOM      6  H2  UNL     1      14.468 -15.991  21.486  1.00  0.00     0.169 HD
BRANCH   5   7
HETATM    7  C2  UNL     1      16.446 -16.295  22.043  1.00  0.00     0.172 C 
HETATM    8  S1  UNL     1      17.290 -17.225  21.001  1.00  0.00    -0.041 SA
BRANCH   7   9
HETATM    9  N1  UNL     1      16.836 -16.279  23.404  1.00  0.00    -0.371 N 
HETATM   10  C1  UNL     1      17.972 -17.053  23.882  1.00  0.00     0.148 C 
ATOM     11  H1  UNL     1      16.307 -15.711  24.066  1.00  0.00     0.161 HD
ENDBRANCH   7   9
ENDBRANCH   5   7
BRANCH   4  12
HETATM   12  C4  UNL     1      14.089 -13.563  21.129  1.00  0.00     0.078 C 
BRANCH  12  13
HETATM   13  C5  UNL     1      13.029 -14.634  21.104  1.00  0.00     0.035 C 
BRANCH  13  14
HETATM   14  C6  UNL     1      12.437 -14.946  19.791  1.00  0.00     0.236 C 
BRANCH  14  15
HETATM   15  N3  UNL     1      12.281 -16.272  19.374  1.00  0.00    -0.079 N 
HETATM   16  C7  UNL     1      13.440 -16.982  18.961  1.00  0.00     0.271 C 
HETATM   17  C8  UNL     1      11.662 -17.041  20.459  1.00  0.00     0.271 C 
HETATM   18  C9  UNL     1      11.290 -16.354  18.283  1.00  0.00     0.271 C 
ENDBRANCH  14  15
ENDBRANCH  13  14
ENDBRANCH  12  13
ENDBRANCH   4  12
ENDBRANCH   2   4
ENDBRANCH   1   2
BRANCH   1  19
HETATM   19  C11 UNL     1      17.756 -12.199  20.154  1.00  0.00     0.249 C 
HETATM   20  O1  UNL     1      18.690 -11.348  20.355  1.00  0.00    -0.270 OA
HETATM   21  N5  UNL     1      16.857 -11.863  19.123  1.00  0.00    -0.320 N 
HETATM   22  C12 UNL     1      15.850 -11.068  19.295  1.00  0.00     0.201 C 
ATOM     23  H5  UNL     1      17.007 -12.264  18.198  1.00  0.00     0.169 HD
BRANCH  22  24
HETATM   24  N6  UNL     1      15.569 -10.467  20.552  1.00  0.00    -0.282 N 
ATOM     25  H6  UNL     1      16.114 -10.764  21.361  1.00  0.00     0.189 HD
BRANCH  24  26
HETATM   26  N7  UNL     1      14.588  -9.494  20.739  1.00  0.00    -0.248 N 
HETATM   27  N8  UNL     1      13.516  -9.526  20.038  1.00  0.00    -0.331 N 
ATOM     28  H82 UNL     1      13.395 -10.269  19.350  1.00  0.00     0.178 HD
ATOM     29  H81 UNL     1      12.798  -8.813  20.175  1.00  0.00     0.178 HD
ATOM     30  H7  UNL     1      14.724  -8.758  21.432  1.00  0.00     0.207 HD
ENDBRANCH  24  26
ENDBRANCH  22  24
ENDBRANCH   1  19
BRANCH   1  31
HETATM   31  C13 UNL     1      18.946 -13.714  21.754  1.00  0.00    -0.040 C 
HETATM   32  C14 UNL     1      19.964 -14.640  21.108  1.00  0.00     0.047 C 
HETATM   33  C15 UNL     1      19.244 -13.293  22.957  1.00  0.00     0.136 C 
BRANCH  33  34
HETATM   34  S2  UNL     1      20.701 -13.664  23.852  1.00  0.00     0.248 S 
HETATM   35  O2  UNL     1      20.729 -15.015  24.442  1.00  0.00    -0.201 OA
HETATM   36  O3  UNL     1      21.918 -13.568  22.932  1.00  0.00    -0.201 OA
BRANCH  34  37
HETATM   37  N9  UNL     1      20.998 -12.516  25.103  1.00  0.00    -0.321 N 
HETATM   38  C16 UNL     1      21.046 -13.225  26.358  1.00  0.00     0.159 C 
ATOM     39  H9  UNL     1      21.119 -11.510  24.978  1.00  0.00     0.171 HD
ENDBRANCH  34  37
ENDBRANCH  33  34
ENDBRANCH   1  31
TORSDOF 14
ENDMDL
MODEL 3
REMARK VINA RESULT: -6.565201308      2.642      4.672
REMARK  14 active torsions:
REMARK  status: ('A' for Active; 'I' for Inactive)
REMARK    1  A    between atoms: N1_2  and  C2_4 
REMARK    2  A    between atoms: C2_4  and  N2_6 
REMARK    3  A    between atoms: C3_8  and  C4_9 
REMARK    4  A    between atoms: C3_8  and  N4_16 
REMARK    5  A    between atoms: C4_9  and  C5_10 
REMARK    6  A    between atoms: C5_10  and  C6_11 
REMARK    7  A    between atoms: C6_11  and  N3_12 
REMARK    8  A    between atoms: N4_16  and  C10_18 
REMARK    9  A    between atoms: C10_18  and  C11_19 
REMARK   10  A    between atoms: C10_18  and  C13_31 
REMARK       I    between atoms: C11_19  and  N5_21 
REMARK   11  A    between atoms: C12_23  and  N6_24 
REMARK   12  A    between atoms: N6_24  and  N7_26 
REMARK   13  A    between atoms: C15_33  and  S2_34 
REMARK   14  A    between atoms: S2_34  and  N9_37 
ROOT
HETATM    1  C10 UNL     1      14.605 -13.463  21.085  1.00  0.00     0.205 C 
ENDROOT
BRANCH   1   2
HETATM    2  N4  UNL     1      15.767 -13.883  21.826  1.00  0.00    -0.363 N 
ATOM      3  H4  UNL     1      15.651 -13.940  22.838  1.00  0.00     0.162 HD
BRANCH   2   4
HETATM    4  C3  UNL     1      17.034 -14.223  21.335  1.00  0.00     0.080 C 
HETATM    5  N2  UNL     1      17.491 -15.448  21.371  1.00  0.00    -0.323 N 
ATOM      6  H2  UNL     1      18.421 -15.611  20.986  1.00  0.00     0.169 HD
BRANCH   5   7
HETATM    7  C2  UNL     1      16.810 -16.555  21.896  1.00  0.00     0.172 C 
HETATM    8  S1  UNL     1      16.955 -17.057  23.442  1.00  0.00    -0.041 SA
BRANCH   7   9
HETATM    9  N1  UNL     1      15.953 -17.275  21.028  1.00  0.00    -0.371 N 
HETATM   10  C1  UNL     1      16.463 -17.966  19.852  1.00  0.00     0.148 C 
ATOM     11  H1  UNL     1      14.954 -17.312  21.232  1.00  0.00     0.161 HD
ENDBRANCH   7   9
ENDBRANCH   5   7
BRANCH   4  12
HETATM   12  C4  UNL     1      17.910 -13.195  20.737  1.00  0.00     0.078 C 
BRANCH  12  13
HETATM   13  C5  UNL     1      19.327 -13.529  21.127  1.00  0.00     0.035 C 
BRANCH  13  14
HETATM   14  C6  UNL     1      19.798 -13.002  22.419  1.00  0.00     0.236 C 
BRANCH  14  15
HETATM   15  N3  UNL     1      20.180 -13.869  23.449  1.00  0.00    -0.079 N 
HETATM   16  C7  UNL     1      20.619 -15.172  23.094  1.00  0.00     0.271 C 
HETATM   17  C8  UNL     1      21.257 -13.242  24.222  1.00  0.00     0.271 C 
HETATM   18  C9  UNL     1      19.088 -14.013  24.430  1.00  0.00     0.271 C 
ENDBRANCH  14  15
ENDBRANCH  13  14
ENDBRANCH  12  13
ENDBRANCH   4  12
ENDBRANCH   2   4
ENDBRANCH   1   2
BRANCH   1  19
HETATM   19  C11 UNL     1      13.529 -14.453  21.217  1.00  0.00     0.249 C 
HETATM   20  O1  UNL     1      13.614 -15.310  22.164  1.00  0.00    -0.270 OA
HETATM   21  N5  UNL     1      12.388 -14.578  20.402  1.00  0.00    -0.320 N 
HETATM   22  C12 UNL     1      12.312 -15.410  19.413  1.00  0.00     0.201 C 
ATOM     23  H5  UNL     1      11.582 -13.985  20.600  1.00  0.00     0.169 HD
BRANCH  22  24
HETATM   24  N6  UNL     1      13.389 -16.272  19.069  1.00  0.00    -0.282 N 
ATOM     25  H6  UNL     1      14.174 -16.344  19.715  1.00  0.00     0.189 HD
BRANCH  24  26
HETATM   26  N7  UNL     1      13.429 -17.023  17.895  1.00  0.00    -0.248 N 
HETATM   27  N8  UNL     1      12.750 -16.650  16.874  1.00  0.00    -0.331 N 
ATOM     28  H82 UNL     1      12.187 -15.802  16.937  1.00  0.00     0.178 HD
ATOM     29  H81 UNL     1      12.779 -17.200  16.015  1.00  0.00     0.178 HD
ATOM     30  H7  UNL     1      13.998 -17.869  17.849  1.00  0.00     0.207 HD
ENDBRANCH  24  26
ENDBRANCH  22  24
ENDBRANCH   1  19
BRANCH   1  31
HETATM   31  C13 UNL     1      14.233 -12.050  21.257  1.00  0.00    -0.040 C 
HETATM   32  C14 UNL     1      14.986 -11.011  20.443  1.00  0.00     0.047 C 
HETATM   33  C15 UNL     1      13.321 -11.583  22.071  1.00  0.00     0.136 C 
BRANCH  33  34
HETATM   34  S2  UNL     1      12.875  -9.902  22.271  1.00  0.00     0.248 S 
HETATM   35  O2  UNL     1      14.012  -8.963  22.262  1.00  0.00    -0.201 OA
HETATM   36  O3  UNL     1      11.948  -9.469  21.136  1.00  0.00    -0.201 OA
BRANCH  34  37
HETATM   37  N9  UNL     1      11.966  -9.644  23.712  1.00  0.00    -0.321 N 
HETATM   38  C16 UNL     1      11.478 -10.923  24.168  1.00  0.00     0.159 C 
ATOM     39  H9  UNL     1      11.801  -8.745  24.164  1.00  0.00     0.171 HD
ENDBRANCH  34  37
ENDBRANCH  33  34
ENDBRANCH   1  31
TORSDOF 14
ENDMDL
MODEL 4
REMARK VINA RESULT: -6.558051365      1.050      1.584
REMARK  14 active torsions:
REMARK  status: ('A' for Active; 'I' for Inactive)
REMARK    1  A    between atoms: N1_2  and  C2_4 
REMARK    2  A    between atoms: C2_4  and  N2_6 
REMARK    3  A    between atoms: C3_8  and  C4_9 
REMARK    4  A    between atoms: C3_8  and  N4_16 
REMARK    5  A    between atoms: C4_9  and  C5_10 
REMARK    6  A    between atoms: C5_10  and  C6_11 
REMARK    7  A    between atoms: C6_11  and  N3_12 
REMARK    8  A    between atoms: N4_16  and  C10_18 
REMARK    9  A    between atoms: C10_18  and  C11_19 
REMARK   10  A    between atoms: C10_18  and  C13_31 
REMARK       I    between atoms: C11_19  and  N5_21 
REMARK   11  A    between atoms: C12_23  and  N6_24 
REMARK   12  A    between atoms: N6_24  and  N7_26 
REMARK   13  A    between atoms: C15_33  and  S2_34 
REMARK   14  A    between atoms: S2_34  and  N9_37 
ROOT
HETATM    1  C10 UNL     1      17.538 -13.368  21.120  1.00  0.00     0.205 C 
ENDROOT
BRANCH   1   2
HETATM    2  N4  UNL     1      18.658 -14.271  21.052  1.00  0.00    -0.363 N 
ATOM      3  H4  UNL     1      18.779 -14.763  20.166  1.00  0.00     0.162 HD
BRANCH   2   4
HETATM    4  C3  UNL     1      19.603 -14.559  22.045  1.00  0.00     0.080 C 
HETATM    5  N2  UNL     1      19.554 -15.655  22.758  1.00  0.00    -0.323 N 
ATOM      6  H2  UNL     1      20.285 -15.792  23.456  1.00  0.00     0.169 HD
BRANCH   5   7
HETATM    7  C2  UNL     1      18.580 -16.658  22.643  1.00  0.00     0.172 C 
HETATM    8  S1  UNL     1      18.707 -17.931  21.630  1.00  0.00    -0.041 SA
BRANCH   7   9
HETATM    9  N1  UNL     1      17.423 -16.550  23.452  1.00  0.00    -0.371 N 
HETATM   10  C1  UNL     1      16.563 -17.696  23.711  1.00  0.00     0.148 C 
ATOM     11  H1  UNL     1      17.186 -15.647  23.863  1.00  0.00     0.161 HD
ENDBRANCH   7   9
ENDBRANCH   5   7
BRANCH   4  12
HETATM   12  C4  UNL     1      20.715 -13.626  22.321  1.00  0.00     0.078 C 
BRANCH  12  13
HETATM   13  C5  UNL     1      20.401 -12.922  23.616  1.00  0.00     0.035 C 
BRANCH  13  14
HETATM   14  C6  UNL     1      21.269 -13.236  24.765  1.00  0.00     0.236 C 
BRANCH  14  15
HETATM   15  N3  UNL     1      20.794 -14.010  25.829  1.00  0.00    -0.079 N 
HETATM   16  C7  UNL     1      19.449 -14.462  25.776  1.00  0.00     0.271 C 
HETATM   17  C8  UNL     1      21.647 -15.195  25.972  1.00  0.00     0.271 C 
HETATM   18  C9  UNL     1      20.978 -13.294  27.107  1.00  0.00     0.271 C 
ENDBRANCH  14  15
ENDBRANCH  13  14
ENDBRANCH  12  13
ENDBRANCH   4  12
ENDBRANCH   2   4
ENDBRANCH   1   2
BRANCH   1  19
HETATM   19  C11 UNL     1      17.744 -12.228  20.218  1.00  0.00     0.249 C 
HETATM   20  O1  UNL     1      18.753 -11.469  20.430  1.00  0.00    -0.270 OA
HETATM   21  N5  UNL     1      16.941 -11.859  19.122  1.00  0.00    -0.320 N 
HETATM   22  C12 UNL     1      16.018 -10.955  19.194  1.00  0.00     0.201 C 
ATOM     23  H5  UNL     1      17.095 -12.325  18.228  1.00  0.00     0.169 HD
BRANCH  22  24
HETATM   24  N6  UNL     1      15.738 -10.257  20.400  1.00  0.00    -0.282 N 
ATOM     25  H6  UNL     1      16.429 -10.294  21.150  1.00  0.00     0.189 HD
BRANCH  24  26
HETATM   26  N7  UNL     1      14.571  -9.525  20.614  1.00  0.00    -0.248 N 
HETATM   27  N8  UNL     1      13.487  -9.863  20.020  1.00  0.00    -0.331 N 
ATOM     28  H82 UNL     1      13.496 -10.669  19.395  1.00  0.00     0.178 HD
ATOM     29  H81 UNL     1      12.634  -9.327  20.177  1.00  0.00     0.178 HD
ATOM     30  H7  UNL     1      14.580  -8.722  21.243  1.00  0.00     0.207 HD
ENDBRANCH  24  26
ENDBRANCH  22  24
ENDBRANCH   1  19
BRANCH   1  31
HETATM   31  C13 UNL     1      16.216 -14.011  21.086  1.00  0.00    -0.040 C 
HETATM   32  C14 UNL     1      16.101 -15.368  20.410  1.00  0.00     0.047 C 
HETATM   33  C15 UNL     1      15.101 -13.518  21.562  1.00  0.00     0.136 C 
BRANCH  33  34
HETATM   34  S2  UNL     1      13.529 -14.287  21.525  1.00  0.00     0.248 S 
HETATM   35  O2  UNL     1      13.454 -15.558  22.268  1.00  0.00    -0.201 OA
HETATM   36  O3  UNL     1      12.481 -13.362  22.142  1.00  0.00    -0.201 OA
BRANCH  34  37
HETATM   37  N9  UNL     1      12.986 -14.563  19.913  1.00  0.00    -0.321 N 
HETATM   38  C16 UNL     1      12.461 -15.905  19.842  1.00  0.00     0.159 C 
ATOM     39  H9  UNL     1      13.027 -13.895  19.143  1.00  0.00     0.171 HD
ENDBRANCH  34  37
ENDBRANCH  33  34
ENDBRANCH   1  31
TORSDOF 14
ENDMDL
MODEL 5
REMARK VINA RESULT: -6.536707988      2.867      7.418
REMARK  14 active torsions:
REMARK  status: ('A' for Active; 'I' for Inactive)
REMARK    1  A    between atoms: N1_2  and  C2_4 
REMARK    2  A    between atoms: C2_4  and  N2_6 
REMARK    3  A    between atoms: C3_8  and  C4_9 
REMARK    4  A    between atoms: C3_8  and  N4_16 
REMARK    5  A    between atoms: C4_9  and  C5_10 
REMARK    6  A    between atoms: C5_10  and  C6_11 
REMARK    7  A    between atoms: C6_11  and  N3_12 
REMARK    8  A    between atoms: N4_16  and  C10_18 
REMARK    9  A    between atoms: C10_18  and  C11_19 
REMARK   10  A    between atoms: C10_18  and  C13_31 
REMARK       I    between atoms: C11_19  and  N5_21 
REMARK   11  A    between atoms: C12_23  and  N6_24 
REMARK   12  A    between atoms: N6_24  and  N7_26 
REMARK   13  A    between atoms: C15_33  and  S2_34 
REMARK   14  A    between atoms: S2_34  and  N9_37 
ROOT
HETATM    1  C10 UNL     1      15.738 -12.894  20.463  1.00  0.00     0.205 C 
ENDROOT
BRANCH   1   2
HETATM    2  N4  UNL     1      14.593 -12.482  21.233  1.00  0.00    -0.363 N 
ATOM      3  H4  UNL     1      14.793 -11.925  22.065  1.00  0.00     0.162 HD
BRANCH   2   4
HETATM    4  C3  UNL     1      13.240 -12.748  20.988  1.00  0.00     0.080 C 
HETATM    5  N2  UNL     1      12.285 -11.958  21.407  1.00  0.00    -0.323 N 
ATOM      6  H2  UNL     1      11.326 -12.221  21.179  1.00  0.00     0.169 HD
BRANCH   5   7
HETATM    7  C2  UNL     1      12.470 -10.780  22.145  1.00  0.00     0.172 C 
HETATM    8  S1  UNL     1      13.408  -9.540  21.650  1.00  0.00    -0.041 SA
BRANCH   7   9
HETATM    9  N1  UNL     1      11.805 -10.670  23.391  1.00  0.00    -0.371 N 
HETATM   10  C1  UNL     1      11.574  -9.379  24.023  1.00  0.00     0.148 C 
ATOM     11  H1  UNL     1      11.480 -11.517  23.858  1.00  0.00     0.161 HD
ENDBRANCH   7   9
ENDBRANCH   5   7
BRANCH   4  12
HETATM   12  C4  UNL     1      12.835 -13.945  20.221  1.00  0.00     0.078 C 
BRANCH  12  13
HETATM   13  C5  UNL     1      12.883 -15.120  21.163  1.00  0.00     0.035 C 
BRANCH  13  14
HETATM   14  C6  UNL     1      12.214 -16.354  20.714  1.00  0.00     0.236 C 
BRANCH  14  15
HETATM   15  N3  UNL     1      12.945 -17.530  20.513  1.00  0.00    -0.079 N 
HETATM   16  C7  UNL     1      13.950 -17.860  21.460  1.00  0.00     0.271 C 
HETATM   17  C8  UNL     1      12.013 -18.662  20.453  1.00  0.00     0.271 C 
HETATM   18  C9  UNL     1      13.569 -17.524  19.176  1.00  0.00     0.271 C 
ENDBRANCH  14  15
ENDBRANCH  13  14
ENDBRANCH  12  13
ENDBRANCH   4  12
ENDBRANCH   2   4
ENDBRANCH   1   2
BRANCH   1  19
HETATM   19  C11 UNL     1      16.552 -11.730  20.095  1.00  0.00     0.249 C 
HETATM   20  O1  UNL     1      16.415 -11.248  18.918  1.00  0.00    -0.270 OA
HETATM   21  N5  UNL     1      17.495 -11.064  20.903  1.00  0.00    -0.320 N 
HETATM   22  C12 UNL     1      18.765 -11.304  20.852  1.00  0.00     0.201 C 
ATOM     23  H5  UNL     1      17.160 -10.360  21.560  1.00  0.00     0.169 HD
BRANCH  22  24
HETATM   24  N6  UNL     1      19.315 -12.270  19.965  1.00  0.00    -0.282 N 
ATOM     25  H6  UNL     1      19.094 -12.195  18.973  1.00  0.00     0.189 HD
BRANCH  24  26
HETATM   26  N7  UNL     1      20.141 -13.314  20.380  1.00  0.00    -0.248 N 
HETATM   27  N8  UNL     1      20.657 -13.293  21.553  1.00  0.00    -0.331 N 
ATOM     28  H82 UNL     1      20.454 -12.507  22.169  1.00  0.00     0.178 HD
ATOM     29  H81 UNL     1      21.261 -14.058  21.856  1.00  0.00     0.178 HD
ATOM     30  H7  UNL     1      20.333 -14.094  19.751  1.00  0.00     0.207 HD
ENDBRANCH  24  26
ENDBRANCH  22  24
ENDBRANCH   1  19
BRANCH   1  31
HETATM   31  C13 UNL     1      16.455 -14.066  20.990  1.00  0.00    -0.040 C 
HETATM   32  C14 UNL     1      16.498 -15.319  20.131  1.00  0.00     0.047 C 
HETATM   33  C15 UNL     1      17.049 -14.154  22.153  1.00  0.00     0.136 C 
BRANCH  33  34
HETATM   34  S2  UNL     1      17.906 -15.547  22.775  1.00  0.00     0.248 S 
HETATM   35  O2  UNL     1      17.178 -16.822  22.640  1.00  0.00    -0.201 OA
HETATM   36  O3  UNL     1      19.229 -15.722  22.031  1.00  0.00    -0.201 OA
BRANCH  34  37
HETATM   37  N9  UNL     1      18.349 -15.344  24.429  1.00  0.00    -0.321 N 
HETATM   38  C16 UNL     1      19.016 -14.071  24.560  1.00  0.00     0.159 C 
ATOM     39  H9  UNL     1      18.171 -16.007  25.183  1.00  0.00     0.171 HD
ENDBRANCH  34  37
ENDBRANCH  33  34
ENDBRANCH   1  31
TORSDOF 14
ENDMDL
