MODEL 1
REMARK VINA RESULT: -8.107538371      0.000      0.000
REMARK  8 active torsions:
REMARK  status: ('A' for Active; 'I' for Inactive)
REMARK    1  A    between atoms: N1_1  and  N2_4 
REMARK    2  A    between atoms: C1_6  and  N3_7 
REMARK    3  A    between atoms: C1_6  and  C2_13 
REMARK    4  A    between atoms: N3_7  and  N4_9 
REMARK    5  A    between atoms: N4_9  and  N5_10 
REMARK    6  A    between atoms: C2_13  and  N6_14 
REMARK    7  A    between atoms: C2_13  and  C3_18 
REMARK    8  A    between atoms: C5_23  and  C6_24 
ROOT
HETATM    1  C2  UNL     1      49.196  31.793  16.669  1.00  0.00     0.290 C 
ENDROOT
BRANCH   1   2
HETATM    2  C1  UNL     1      50.587  31.680  16.252  1.00  0.00     0.144 C 
HETATM    3  N2  UNL     1      51.438  32.583  16.558  1.00  0.00    -0.293 N 
ATOM      4  H2  UNL     1      51.100  33.398  17.070  1.00  0.00     0.187 HD
BRANCH   3   5
HETATM    5  N1  UNL     1      52.789  32.535  16.247  1.00  0.00    -0.344 N 
ATOM      6  H12 UNL     1      53.117  31.696  15.769  1.00  0.00     0.176 HD
ATOM      7  H11 UNL     1      53.461  33.272  16.459  1.00  0.00     0.176 HD
ENDBRANCH   3   5
BRANCH   2   8
HETATM    8  N3  UNL     1      51.049  30.551  15.547  1.00  0.00    -0.270 N 
ATOM      9  H3  UNL     1      50.958  30.499  14.532  1.00  0.00     0.185 HD
BRANCH   8  10
HETATM   10  N4  UNL     1      51.634  29.504  16.264  1.00  0.00    -0.029 NA
BRANCH  10  11
HETATM   11  N5  UNL     1      52.800  29.037  15.637  1.00  0.00    -0.329 N 
ATOM     12  H52 UNL     1      52.806  28.276  14.958  1.00  0.00     0.174 HD
ATOM     13  H51 UNL     1      53.624  29.551  15.948  1.00  0.00     0.174 HD
ENDBRANCH  10  11
ENDBRANCH   8  10
ENDBRANCH   2   8
ENDBRANCH   1   2
BRANCH   1  14
HETATM   14  N6  UNL     1      49.031  32.926  17.626  1.00  0.00    -0.064 N 
ATOM     15  H63 UNL     1      48.067  33.014  17.947  1.00  0.00     0.275 HD
ATOM     16  H62 UNL     1      49.473  32.732  18.524  1.00  0.00     0.275 HD
ATOM     17  H61 UNL     1      49.374  33.793  17.213  1.00  0.00     0.275 HD
ENDBRANCH   1  14
BRANCH   1  18
HETATM   18  C3  UNL     1      48.162  31.901  15.653  1.00  0.00     0.036 A 
HETATM   19  C4  UNL     1      48.493  32.309  14.343  1.00  0.00     0.179 A 
HETATM   20  O1  UNL     1      47.383  32.377  13.663  1.00  0.00    -0.249 OA
HETATM   21  N7  UNL     1      46.383  32.060  14.379  1.00  0.00    -0.257 N 
HETATM   22  C5  UNL     1      46.812  31.747  15.646  1.00  0.00     0.111 A 
ATOM     23  H7  UNL     1      45.413  32.040  14.063  1.00  0.00     0.195 HD
BRANCH  22  24
HETATM   24  C6  UNL     1      45.973  31.314  16.728  1.00  0.00     0.160 A 
HETATM   25  N8  UNL     1      45.085  31.971  17.437  1.00  0.00    -0.283 N 
HETATM   26  C7  UNL     1      44.569  31.157  18.368  1.00  0.00     0.388 A 
ATOM     27  H8  UNL     1      44.827  32.949  17.300  1.00  0.00     0.172 HD
HETATM   28  O2  UNL     1      43.695  31.430  19.227  1.00  0.00    -0.236 OA
HETATM   29  O3  UNL     1      45.168  30.007  18.196  1.00  0.00    -0.179 OA
HETATM   30  N9  UNL     1      46.012  30.064  17.227  1.00  0.00    -0.238 N 
ATOM     31  H9  UNL     1      46.603  29.301  16.896  1.00  0.00     0.197 HD
ENDBRANCH  22  24
ENDBRANCH   1  18
TORSDOF 8
ENDMDL
MODEL 2
REMARK VINA RESULT: -8.051080513      1.681      2.323
REMARK  8 active torsions:
REMARK  status: ('A' for Active; 'I' for Inactive)
REMARK    1  A    between atoms: N1_1  and  N2_4 
REMARK    2  A    between atoms: C1_6  and  N3_7 
REMARK    3  A    between atoms: C1_6  and  C2_13 
REMARK    4  A    between atoms: N3_7  and  N4_9 
REMARK    5  A    between atoms: N4_9  and  N5_10 
REMARK    6  A    between atoms: C2_13  and  N6_14 
REMARK    7  A    between atoms: C2_13  and  C3_18 
REMARK    8  A    between atoms: C5_23  and  C6_24 
ROOT
HETATM    1  C2  UNL     1      49.303  32.124  15.781  1.00  0.00     0.290 C 
ENDROOT
BRANCH   1   2
HETATM    2  C1  UNL     1      49.588  32.309  17.198  1.00  0.00     0.144 C 
HETATM    3  N2  UNL     1      49.139  33.326  17.829  1.00  0.00    -0.293 N 
ATOM      4  H2  UNL     1      48.610  34.017  17.297  1.00  0.00     0.187 HD
BRANCH   3   5
HETATM    5  N1  UNL     1      49.320  33.559  19.184  1.00  0.00    -0.344 N 
ATOM      6  H12 UNL     1      49.367  32.737  19.785  1.00  0.00     0.176 HD
ATOM      7  H11 UNL     1      49.406  34.481  19.609  1.00  0.00     0.176 HD
ENDBRANCH   3   5
BRANCH   2   8
HETATM    8  N3  UNL     1      50.319  31.351  17.927  1.00  0.00    -0.270 N 
ATOM      9  H3  UNL     1      49.863  30.511  18.285  1.00  0.00     0.185 HD
BRANCH   8  10
HETATM   10  N4  UNL     1      51.680  31.572  18.151  1.00  0.00    -0.029 NA
BRANCH  10  11
HETATM   11  N5  UNL     1      52.472  30.597  17.522  1.00  0.00    -0.329 N 
ATOM     12  H52 UNL     1      52.111  29.944  16.828  1.00  0.00     0.174 HD
ATOM     13  H51 UNL     1      53.438  30.631  17.849  1.00  0.00     0.174 HD
ENDBRANCH  10  11
ENDBRANCH   8  10
ENDBRANCH   2   8
ENDBRANCH   1   2
BRANCH   1  14
HETATM   14  N6  UNL     1      50.573  32.052  15.000  1.00  0.00    -0.064 N 
ATOM     15  H63 UNL     1      51.388  31.975  15.608  1.00  0.00     0.275 HD
ATOM     16  H62 UNL     1      50.666  31.163  14.509  1.00  0.00     0.275 HD
ATOM     17  H61 UNL     1      50.645  32.847  14.365  1.00  0.00     0.275 HD
ENDBRANCH   1  14
BRANCH   1  18
HETATM   18  C3  UNL     1      48.453  31.019  15.372  1.00  0.00     0.036 A 
HETATM   19  C4  UNL     1      48.872  30.140  14.350  1.00  0.00     0.179 A 
HETATM   20  O1  UNL     1      47.905  29.290  14.145  1.00  0.00    -0.249 OA
HETATM   21  N7  UNL     1      46.919  29.518  14.912  1.00  0.00    -0.257 N 
HETATM   22  C5  UNL     1      47.206  30.598  15.712  1.00  0.00     0.111 A 
ATOM     23  H7  UNL     1      46.051  28.983  14.932  1.00  0.00     0.195 HD
BRANCH  22  24
HETATM   24  C6  UNL     1      46.345  31.137  16.726  1.00  0.00     0.160 A 
HETATM   25  N8  UNL     1      45.388  30.571  17.425  1.00  0.00    -0.283 N 
HETATM   26  C7  UNL     1      44.833  31.481  18.237  1.00  0.00     0.388 A 
ATOM     27  H8  UNL     1      45.110  29.591  17.359  1.00  0.00     0.172 HD
HETATM   28  O2  UNL     1      43.892  31.310  19.050  1.00  0.00    -0.236 OA
HETATM   29  O3  UNL     1      45.478  32.595  18.007  1.00  0.00    -0.179 OA
HETATM   30  N9  UNL     1      46.388  32.427  17.111  1.00  0.00    -0.238 N 
ATOM     31  H9  UNL     1      47.025  33.141  16.758  1.00  0.00     0.197 HD
ENDBRANCH  22  24
ENDBRANCH   1  18
TORSDOF 8
ENDMDL
MODEL 3
REMARK VINA RESULT: -7.902475350      1.688      2.812
REMARK  8 active torsions:
REMARK  status: ('A' for Active; 'I' for Inactive)
REMARK    1  A    between atoms: N1_1  and  N2_4 
REMARK    2  A    between atoms: C1_6  and  N3_7 
REMARK    3  A    between atoms: C1_6  and  C2_13 
REMARK    4  A    between atoms: N3_7  and  N4_9 
REMARK    5  A    between atoms: N4_9  and  N5_10 
REMARK    6  A    between atoms: C2_13  and  N6_14 
REMARK    7  A    between atoms: C2_13  and  C3_18 
REMARK    8  A    between atoms: C5_23  and  C6_24 
ROOT
HETATM    1  C2  UNL     1      49.409  31.826  15.787  1.00  0.00     0.290 C 
ENDROOT
BRANCH   1   2
HETATM    2  C1  UNL     1      50.265  31.540  16.930  1.00  0.00     0.144 C 
HETATM    3  N2  UNL     1      51.244  30.724  16.827  1.00  0.00    -0.293 N 
ATOM      4  H2  UNL     1      51.378  30.256  15.930  1.00  0.00     0.187 HD
BRANCH   3   5
HETATM    5  N1  UNL     1      52.138  30.429  17.845  1.00  0.00    -0.344 N 
ATOM      6  H12 UNL     1      51.818  29.771  18.556  1.00  0.00     0.176 HD
ATOM      7  H11 UNL     1      53.076  30.820  17.927  1.00  0.00     0.176 HD
ENDBRANCH   3   5
BRANCH   2   8
HETATM    8  N3  UNL     1      50.077  32.191  18.165  1.00  0.00    -0.270 N 
ATOM      9  H3  UNL     1      50.391  31.758  19.034  1.00  0.00     0.185 HD
BRANCH   8  10
HETATM   10  N4  UNL     1      49.452  33.441  18.177  1.00  0.00    -0.029 NA
BRANCH  10  11
HETATM   11  N5  UNL     1      49.123  33.841  19.482  1.00  0.00    -0.329 N 
ATOM     12  H52 UNL     1      49.481  33.380  20.317  1.00  0.00     0.174 HD
ATOM     13  H51 UNL     1      48.490  34.641  19.480  1.00  0.00     0.174 HD
ENDBRANCH  10  11
ENDBRANCH   8  10
ENDBRANCH   2   8
ENDBRANCH   1   2
BRANCH   1  14
HETATM   14  N6  UNL     1      50.231  32.236  14.611  1.00  0.00    -0.064 N 
ATOM     15  H63 UNL     1      50.365  33.246  14.575  1.00  0.00     0.275 HD
ATOM     16  H62 UNL     1      51.206  31.957  14.713  1.00  0.00     0.275 HD
ATOM     17  H61 UNL     1      49.821  31.877  13.748  1.00  0.00     0.275 HD
ENDBRANCH   1  14
BRANCH   1  18
HETATM   18  C3  UNL     1      48.458  30.817  15.349  1.00  0.00     0.036 A 
HETATM   19  C4  UNL     1      48.791  29.937  14.297  1.00  0.00     0.179 A 
HETATM   20  O1  UNL     1      47.748  29.187  14.072  1.00  0.00    -0.249 OA
HETATM   21  N7  UNL     1      46.791  29.479  14.854  1.00  0.00    -0.257 N 
HETATM   22  C5  UNL     1      47.180  30.502  15.685  1.00  0.00     0.111 A 
ATOM     23  H7  UNL     1      45.877  29.026  14.863  1.00  0.00     0.195 HD
BRANCH  22  24
HETATM   24  C6  UNL     1      46.377  31.084  16.723  1.00  0.00     0.160 A 
HETATM   25  N8  UNL     1      45.350  30.600  17.382  1.00  0.00    -0.283 N 
HETATM   26  C7  UNL     1      44.898  31.525  18.241  1.00  0.00     0.388 A 
ATOM     27  H8  UNL     1      44.956  29.667  17.259  1.00  0.00     0.172 HD
HETATM   28  O2  UNL     1      43.932  31.424  19.037  1.00  0.00    -0.236 OA
HETATM   29  O3  UNL     1      45.676  32.563  18.079  1.00  0.00    -0.179 OA
HETATM   30  N9  UNL     1      46.570  32.336  17.181  1.00  0.00    -0.238 N 
ATOM     31  H9  UNL     1      47.294  32.985  16.873  1.00  0.00     0.197 HD
ENDBRANCH  22  24
ENDBRANCH   1  18
TORSDOF 8
ENDMDL
MODEL 4
REMARK VINA RESULT: -7.853679594      1.321      2.078
REMARK  8 active torsions:
REMARK  status: ('A' for Active; 'I' for Inactive)
REMARK    1  A    between atoms: N1_1  and  N2_4 
REMARK    2  A    between atoms: C1_6  and  N3_7 
REMARK    3  A    between atoms: C1_6  and  C2_13 
REMARK    4  A    between atoms: N3_7  and  N4_9 
REMARK    5  A    between atoms: N4_9  and  N5_10 
REMARK    6  A    between atoms: C2_13  and  N6_14 
REMARK    7  A    between atoms: C2_13  and  C3_18 
REMARK    8  A    between atoms: C5_23  and  C6_24 
ROOT
HETATM    1  C2  UNL     1      49.698  31.443  16.132  1.00  0.00     0.290 C 
ENDROOT
BRANCH   1   2
HETATM    2  C1  UNL     1      51.058  31.009  15.842  1.00  0.00     0.144 C 
HETATM    3  N2  UNL     1      51.380  29.774  15.915  1.00  0.00    -0.293 N 
ATOM      4  H2  UNL     1      50.663  29.115  16.219  1.00  0.00     0.187 HD
BRANCH   3   5
HETATM    5  N1  UNL     1      52.634  29.264  15.612  1.00  0.00    -0.344 N 
ATOM      6  H12 UNL     1      53.185  29.786  14.930  1.00  0.00     0.176 HD
ATOM      7  H11 UNL     1      53.032  28.418  16.018  1.00  0.00     0.176 HD
ENDBRANCH   3   5
BRANCH   2   8
HETATM    8  N3  UNL     1      52.043  31.923  15.422  1.00  0.00    -0.270 N 
ATOM      9  H3  UNL     1      52.126  32.182  14.439  1.00  0.00     0.185 HD
BRANCH   8  10
HETATM   10  N4  UNL     1      52.905  32.469  16.378  1.00  0.00    -0.029 NA
BRANCH  10  11
HETATM   11  N5  UNL     1      54.198  32.652  15.862  1.00  0.00    -0.329 N 
ATOM     12  H52 UNL     1      55.035  32.681  16.444  1.00  0.00     0.174 HD
ATOM     13  H51 UNL     1      54.186  32.751  14.848  1.00  0.00     0.174 HD
ENDBRANCH  10  11
ENDBRANCH   8  10
ENDBRANCH   2   8
ENDBRANCH   1   2
BRANCH   1  14
HETATM   14  N6  UNL     1      49.628  32.933  16.184  1.00  0.00    -0.064 N 
ATOM     15  H63 UNL     1      50.316  33.323  16.827  1.00  0.00     0.275 HD
ATOM     16  H62 UNL     1      49.966  33.359  15.322  1.00  0.00     0.275 HD
ATOM     17  H61 UNL     1      48.681  33.236  16.412  1.00  0.00     0.275 HD
ENDBRANCH   1  14
BRANCH   1  18
HETATM   18  C3  UNL     1      48.611  30.964  15.294  1.00  0.00     0.036 A 
HETATM   19  C4  UNL     1      48.882  30.435  14.014  1.00  0.00     0.179 A 
HETATM   20  O1  UNL     1      47.737  30.142  13.463  1.00  0.00    -0.249 OA
HETATM   21  N7  UNL     1      46.768  30.419  14.236  1.00  0.00    -0.257 N 
HETATM   22  C5  UNL     1      47.258  30.940  15.409  1.00  0.00     0.111 A 
ATOM     23  H7  UNL     1      45.781  30.276  14.020  1.00  0.00     0.195 HD
BRANCH  22  24
HETATM   24  C6  UNL     1      46.466  31.345  16.536  1.00  0.00     0.160 A 
HETATM   25  N8  UNL     1      45.505  30.719  17.176  1.00  0.00    -0.283 N 
HETATM   26  C7  UNL     1      45.032  31.508  18.150  1.00  0.00     0.388 A 
ATOM     27  H8  UNL     1      45.171  29.778  16.963  1.00  0.00     0.172 HD
HETATM   28  O2  UNL     1      44.114  31.251  18.967  1.00  0.00    -0.236 OA
HETATM   29  O3  UNL     1      45.730  32.611  18.076  1.00  0.00    -0.179 OA
HETATM   30  N9  UNL     1      46.595  32.550  17.125  1.00  0.00    -0.238 N 
ATOM     31  H9  UNL     1      47.257  33.280  16.864  1.00  0.00     0.197 HD
ENDBRANCH  22  24
ENDBRANCH   1  18
TORSDOF 8
ENDMDL
MODEL 5
REMARK VINA RESULT: -7.688177664      0.921      1.087
REMARK  8 active torsions:
REMARK  status: ('A' for Active; 'I' for Inactive)
REMARK    1  A    between atoms: N1_1  and  N2_4 
REMARK    2  A    between atoms: C1_6  and  N3_7 
REMARK    3  A    between atoms: C1_6  and  C2_13 
REMARK    4  A    between atoms: N3_7  and  N4_9 
REMARK    5  A    between atoms: N4_9  and  N5_10 
REMARK    6  A    between atoms: C2_13  and  N6_14 
REMARK    7  A    between atoms: C2_13  and  C3_18 
REMARK    8  A    between atoms: C5_23  and  C6_24 
ROOT
HETATM    1  C2  UNL     1      49.349  31.875  16.898  1.00  0.00     0.290 C 
ENDROOT
BRANCH   1   2
HETATM    2  C1  UNL     1      50.780  31.803  16.632  1.00  0.00     0.144 C 
HETATM    3  N2  UNL     1      51.226  31.841  15.435  1.00  0.00    -0.293 N 
ATOM      4  H2  UNL     1      50.544  31.885  14.677  1.00  0.00     0.187 HD
BRANCH   3   5
HETATM    5  N1  UNL     1      52.569  31.827  15.091  1.00  0.00    -0.344 N 
ATOM      6  H12 UNL     1      53.229  31.617  15.839  1.00  0.00     0.176 HD
ATOM      7  H11 UNL     1      52.931  32.009  14.155  1.00  0.00     0.176 HD
ENDBRANCH   3   5
BRANCH   2   8
HETATM    8  N3  UNL     1      51.716  31.743  17.682  1.00  0.00    -0.270 N 
ATOM      9  H3  UNL     1      52.310  32.545  17.895  1.00  0.00     0.185 HD
BRANCH   8  10
HETATM   10  N4  UNL     1      51.815  30.565  18.428  1.00  0.00    -0.029 NA
BRANCH  10  11
HETATM   11  N5  UNL     1      52.526  29.573  17.735  1.00  0.00    -0.329 N 
ATOM     12  H52 UNL     1      52.618  29.555  16.719  1.00  0.00     0.174 HD
ATOM     13  H51 UNL     1      52.930  28.887  18.372  1.00  0.00     0.174 HD
ENDBRANCH  10  11
ENDBRANCH   8  10
ENDBRANCH   2   8
ENDBRANCH   1   2
BRANCH   1  14
HETATM   14  N6  UNL     1      49.025  33.109  17.671  1.00  0.00    -0.064 N 
ATOM     15  H63 UNL     1      49.719  33.841  17.526  1.00  0.00     0.275 HD
ATOM     16  H62 UNL     1      48.212  33.593  17.291  1.00  0.00     0.275 HD
ATOM     17  H61 UNL     1      48.907  32.888  18.660  1.00  0.00     0.275 HD
ENDBRANCH   1  14
BRANCH   1  18
HETATM   18  C3  UNL     1      48.420  31.778  15.784  1.00  0.00     0.036 A 
HETATM   19  C4  UNL     1      48.858  32.041  14.468  1.00  0.00     0.179 A 
HETATM   20  O1  UNL     1      47.821  31.942  13.685  1.00  0.00    -0.249 OA
HETATM   21  N7  UNL     1      46.774  31.646  14.339  1.00  0.00    -0.257 N 
HETATM   22  C5  UNL     1      47.089  31.527  15.672  1.00  0.00     0.111 A 
ATOM     23  H7  UNL     1      45.844  31.516  13.939  1.00  0.00     0.195 HD
BRANCH  22  24
HETATM   24  C6  UNL     1      46.171  31.175  16.718  1.00  0.00     0.160 A 
HETATM   25  N8  UNL     1      45.309  31.908  17.382  1.00  0.00    -0.283 N 
HETATM   26  C7  UNL     1      44.689  31.147  18.295  1.00  0.00     0.388 A 
ATOM     27  H8  UNL     1      45.137  32.902  17.227  1.00  0.00     0.172 HD
HETATM   28  O2  UNL     1      43.803  31.499  19.112  1.00  0.00    -0.236 OA
HETATM   29  O3  UNL     1      45.200  29.951  18.158  1.00  0.00    -0.179 OA
HETATM   30  N9  UNL     1      46.087  29.930  17.226  1.00  0.00    -0.238 N 
ATOM     31  H9  UNL     1      46.628  29.119  16.928  1.00  0.00     0.197 HD
ENDBRANCH  22  24
ENDBRANCH   1  18
TORSDOF 8
ENDMDL
