MODEL 1
REMARK VINA RESULT: -8.438778221      0.000      0.000
REMARK  6 active torsions:
REMARK  status: ('A' for Active; 'I' for Inactive)
REMARK    1  A    between atoms: C2_3  and  N2_4 
REMARK    2  A    between atoms: C2_3  and  C4_9 
REMARK    3  A    between atoms: N2_4  and  O1_5 
REMARK    4  A    between atoms: O1_5  and  C3_6 
REMARK    5  A    between atoms: C5_12  and  C6_13 
REMARK       I    between atoms: C6_13  and  N5_15 
REMARK    6  A    between atoms: N5_15  and  N6_17 
ROOT
HETATM    1  N1  UNL     1      52.200  29.541  17.472  1.00  0.00    -0.195 NA
HETATM    2  C1  UNL     1      51.704  30.581  17.307  1.00  0.00     0.091 C 
HETATM    3  C2  UNL     1      51.093  31.882  17.100  1.00  0.00     0.281 C 
ENDROOT
BRANCH   3   4
HETATM    4  N2  UNL     1      50.738  32.512  18.380  1.00  0.00    -0.062 NA
BRANCH   4   5
HETATM    5  O1  UNL     1      49.971  33.625  18.135  1.00  0.00    -0.190 OA
BRANCH   5   6
HETATM    6  C3  UNL     1      49.044  34.015  19.088  1.00  0.00     0.391 C 
HETATM    7  N3  UNL     1      49.441  34.847  20.154  1.00  0.00    -0.031 NA
HETATM    8  O2  UNL     1      47.863  33.610  18.971  1.00  0.00    -0.241 OA
ENDBRANCH   5   6
ENDBRANCH   4   5
ENDBRANCH   3   4
BRANCH   3   9
HETATM    9  C4  UNL     1      49.884  31.722  16.253  1.00  0.00     0.135 A 
HETATM   10  N4  UNL     1      48.689  31.458  16.806  1.00  0.00    -0.324 N 
HETATM   11  C5  UNL     1      47.547  31.300  16.097  1.00  0.00     0.192 A 
ATOM     12  H4  UNL     1      48.640  31.372  17.822  1.00  0.00     0.169 HD
HETATM   13  N7  UNL     1      47.604  31.413  14.760  1.00  0.00    -0.171 N 
HETATM   14  C7  UNL     1      48.796  31.681  14.158  1.00  0.00     0.679 A 
ATOM     15  H7  UNL     1      46.760  31.299  14.200  1.00  0.00     0.186 HD
HETATM   16  N8  UNL     1      48.810  31.782  12.881  1.00  0.00    -0.234 N 
HETATM   17  N9  UNL     1      49.907  31.830  14.912  1.00  0.00    -0.178 N 
ATOM     18  H82 UNL     1      47.971  31.669  12.312  1.00  0.00     0.174 HD
ATOM     19  H81 UNL     1      49.703  31.982  12.430  1.00  0.00     0.174 HD
ATOM     20  H9  UNL     1      50.793  32.032  14.449  1.00  0.00     0.185 HD
BRANCH  11  21
HETATM   21  C6  UNL     1      46.281  31.016  16.732  1.00  0.00     0.304 C 
HETATM   22  O3  UNL     1      45.770  29.858  16.541  1.00  0.00    -0.263 OA
HETATM   23  N5  UNL     1      45.562  31.912  17.550  1.00  0.00    -0.270 N 
ATOM     24  H5  UNL     1      45.938  32.844  17.726  1.00  0.00     0.189 HD
BRANCH  23  25
HETATM   25  N6  UNL     1      44.329  31.540  18.129  1.00  0.00    -0.342 N 
ATOM     26  H62 UNL     1      44.257  30.627  18.578  1.00  0.00     0.176 HD
ATOM     27  H61 UNL     1      43.524  32.167  18.102  1.00  0.00     0.176 HD
ENDBRANCH  23  25
ENDBRANCH  11  21
ENDBRANCH   3   9
TORSDOF 6
ENDMDL
MODEL 2
REMARK VINA RESULT: -7.704097444      1.995      3.038
REMARK  6 active torsions:
REMARK  status: ('A' for Active; 'I' for Inactive)
REMARK    1  A    between atoms: C2_3  and  N2_4 
REMARK    2  A    between atoms: C2_3  and  C4_9 
REMARK    3  A    between atoms: N2_4  and  O1_5 
REMARK    4  A    between atoms: O1_5  and  C3_6 
REMARK    5  A    between atoms: C5_12  and  C6_13 
REMARK       I    between atoms: C6_13  and  N5_15 
REMARK    6  A    between atoms: N5_15  and  N6_17 
ROOT
HETATM    1  N1  UNL     1      53.183  32.330  15.567  1.00  0.00    -0.195 NA
HETATM    2  C1  UNL     1      52.239  32.300  16.249  1.00  0.00     0.091 C 
HETATM    3  C2  UNL     1      51.066  32.269  17.103  1.00  0.00     0.281 C 
ENDROOT
BRANCH   3   4
HETATM    4  N2  UNL     1      51.201  31.252  18.156  1.00  0.00    -0.062 NA
BRANCH   4   5
HETATM    5  O1  UNL     1      52.399  30.599  17.996  1.00  0.00    -0.190 OA
BRANCH   5   6
HETATM    6  C3  UNL     1      52.385  29.286  17.552  1.00  0.00     0.391 C 
HETATM    7  N3  UNL     1      52.912  28.968  16.284  1.00  0.00    -0.031 NA
HETATM    8  O2  UNL     1      51.895  28.409  18.302  1.00  0.00    -0.241 OA
ENDBRANCH   5   6
ENDBRANCH   4   5
ENDBRANCH   3   4
BRANCH   3   9
HETATM    9  C4  UNL     1      49.866  31.992  16.271  1.00  0.00     0.135 A 
HETATM   10  N4  UNL     1      48.686  31.704  16.845  1.00  0.00    -0.324 N 
HETATM   11  C5  UNL     1      47.554  31.441  16.151  1.00  0.00     0.192 A 
ATOM     12  H4  UNL     1      48.641  31.683  17.864  1.00  0.00     0.169 HD
HETATM   13  N7  UNL     1      47.606  31.468  14.810  1.00  0.00    -0.171 N 
HETATM   14  C7  UNL     1      48.783  31.755  14.187  1.00  0.00     0.679 A 
ATOM     15  H7  UNL     1      46.769  31.273  14.261  1.00  0.00     0.186 HD
HETATM   16  N8  UNL     1      48.792  31.772  12.906  1.00  0.00    -0.234 N 
HETATM   17  N9  UNL     1      49.885  32.011  14.926  1.00  0.00    -0.178 N 
ATOM     18  H82 UNL     1      47.959  31.579  12.349  1.00  0.00     0.174 HD
ATOM     19  H81 UNL     1      49.674  31.987  12.440  1.00  0.00     0.174 HD
ATOM     20  H9  UNL     1      50.759  32.227  14.448  1.00  0.00     0.185 HD
BRANCH  11  21
HETATM   21  C6  UNL     1      46.305  31.135  16.808  1.00  0.00     0.304 C 
HETATM   22  O3  UNL     1      45.843  29.949  16.679  1.00  0.00    -0.263 OA
HETATM   23  N5  UNL     1      45.551  32.040  17.584  1.00  0.00    -0.270 N 
ATOM     24  H5  UNL     1      45.887  32.995  17.710  1.00  0.00     0.189 HD
BRANCH  23  25
HETATM   25  N6  UNL     1      44.337  31.646  18.188  1.00  0.00    -0.342 N 
ATOM     26  H62 UNL     1      43.966  32.212  18.952  1.00  0.00     0.176 HD
ATOM     27  H61 UNL     1      43.838  30.813  17.872  1.00  0.00     0.176 HD
ENDBRANCH  23  25
ENDBRANCH  11  21
ENDBRANCH   3   9
TORSDOF 6
ENDMDL
MODEL 3
REMARK VINA RESULT: -7.607421876      2.247      5.760
REMARK  6 active torsions:
REMARK  status: ('A' for Active; 'I' for Inactive)
REMARK    1  A    between atoms: C2_3  and  N2_4 
REMARK    2  A    between atoms: C2_3  and  C4_9 
REMARK    3  A    between atoms: N2_4  and  O1_5 
REMARK    4  A    between atoms: O1_5  and  C3_6 
REMARK    5  A    between atoms: C5_12  and  C6_13 
REMARK       I    between atoms: C6_13  and  N5_15 
REMARK    6  A    between atoms: N5_15  and  N6_17 
ROOT
HETATM    1  N1  UNL     1      46.517  32.598  13.893  1.00  0.00    -0.195 NA
HETATM    2  C1  UNL     1      47.087  31.809  14.531  1.00  0.00     0.091 C 
HETATM    3  C2  UNL     1      47.796  30.818  15.321  1.00  0.00     0.281 C 
ENDROOT
BRANCH   3   4
HETATM    4  N2  UNL     1      46.874  30.068  16.186  1.00  0.00    -0.062 NA
BRANCH   4   5
HETATM    5  O1  UNL     1      46.084  30.955  16.876  1.00  0.00    -0.190 OA
BRANCH   5   6
HETATM    6  C3  UNL     1      45.181  30.458  17.802  1.00  0.00     0.391 C 
HETATM    7  N3  UNL     1      44.664  29.155  17.650  1.00  0.00    -0.031 NA
HETATM    8  O2  UNL     1      44.844  31.194  18.759  1.00  0.00    -0.241 OA
ENDBRANCH   5   6
ENDBRANCH   4   5
ENDBRANCH   3   4
BRANCH   3   9
HETATM    9  C4  UNL     1      48.830  31.500  16.142  1.00  0.00     0.135 A 
HETATM   10  N4  UNL     1      50.135  31.347  15.866  1.00  0.00    -0.324 N 
HETATM   11  C5  UNL     1      51.130  31.936  16.569  1.00  0.00     0.192 A 
ATOM     12  H4  UNL     1      50.392  30.750  15.079  1.00  0.00     0.169 HD
HETATM   13  N7  UNL     1      50.800  32.723  17.605  1.00  0.00    -0.171 N 
HETATM   14  C7  UNL     1      49.488  32.907  17.920  1.00  0.00     0.679 A 
ATOM     15  H7  UNL     1      51.528  33.180  18.154  1.00  0.00     0.186 HD
HETATM   16  N8  UNL     1      49.213  33.665  18.915  1.00  0.00    -0.234 N 
HETATM   17  N9  UNL     1      48.533  32.295  17.185  1.00  0.00    -0.178 N 
ATOM     18  H82 UNL     1      49.934  34.127  19.469  1.00  0.00     0.174 HD
ATOM     19  H81 UNL     1      48.230  33.802  19.151  1.00  0.00     0.174 HD
ATOM     20  H9  UNL     1      47.553  32.442  17.430  1.00  0.00     0.185 HD
BRANCH  11  21
HETATM   21  C6  UNL     1      52.523  31.743  16.239  1.00  0.00     0.304 C 
HETATM   22  O3  UNL     1      52.942  30.540  16.118  1.00  0.00    -0.263 OA
HETATM   23  N5  UNL     1      53.462  32.776  16.037  1.00  0.00    -0.270 N 
ATOM     24  H5  UNL     1      53.165  33.748  16.124  1.00  0.00     0.189 HD
BRANCH  23  25
HETATM   25  N6  UNL     1      54.806  32.486  15.716  1.00  0.00    -0.342 N 
ATOM     26  H62 UNL     1      54.996  31.885  14.913  1.00  0.00     0.176 HD
ATOM     27  H61 UNL     1      55.573  32.867  16.270  1.00  0.00     0.176 HD
ENDBRANCH  23  25
ENDBRANCH  11  21
ENDBRANCH   3   9
TORSDOF 6
ENDMDL
MODEL 4
REMARK VINA RESULT: -7.549975984      1.780      4.859
REMARK  6 active torsions:
REMARK  status: ('A' for Active; 'I' for Inactive)
REMARK    1  A    between atoms: C2_3  and  N2_4 
REMARK    2  A    between atoms: C2_3  and  C4_9 
REMARK    3  A    between atoms: N2_4  and  O1_5 
REMARK    4  A    between atoms: O1_5  and  C3_6 
REMARK    5  A    between atoms: C5_12  and  C6_13 
REMARK       I    between atoms: C6_13  and  N5_15 
REMARK    6  A    between atoms: N5_15  and  N6_17 
ROOT
HETATM    1  N1  UNL     1      46.512  32.642  13.870  1.00  0.00    -0.195 NA
HETATM    2  C1  UNL     1      47.345  31.868  14.118  1.00  0.00     0.091 C 
HETATM    3  C2  UNL     1      48.385  30.900  14.421  1.00  0.00     0.281 C 
ENDROOT
BRANCH   3   4
HETATM    4  N2  UNL     1      47.809  29.626  14.874  1.00  0.00    -0.062 NA
BRANCH   4   5
HETATM    5  O1  UNL     1      46.489  29.821  15.199  1.00  0.00    -0.190 OA
BRANCH   5   6
HETATM    6  C3  UNL     1      46.117  29.763  16.532  1.00  0.00     0.391 C 
HETATM    7  N3  UNL     1      45.705  28.537  17.094  1.00  0.00    -0.031 NA
HETATM    8  O2  UNL     1      46.158  30.818  17.208  1.00  0.00    -0.241 OA
ENDBRANCH   5   6
ENDBRANCH   4   5
ENDBRANCH   3   4
BRANCH   3   9
HETATM    9  C4  UNL     1      49.282  31.460  15.465  1.00  0.00     0.135 A 
HETATM   10  N4  UNL     1      48.783  32.179  16.483  1.00  0.00    -0.324 N 
HETATM   11  C5  UNL     1      49.538  32.718  17.468  1.00  0.00     0.192 A 
ATOM     12  H4  UNL     1      47.773  32.326  16.517  1.00  0.00     0.169 HD
HETATM   13  N7  UNL     1      50.867  32.528  17.431  1.00  0.00    -0.171 N 
HETATM   14  C7  UNL     1      51.415  31.805  16.415  1.00  0.00     0.679 A 
ATOM     15  H7  UNL     1      51.462  32.923  18.159  1.00  0.00     0.186 HD
HETATM   16  N8  UNL     1      52.686  31.644  16.414  1.00  0.00    -0.234 N 
HETATM   17  N9  UNL     1      50.616  31.287  15.456  1.00  0.00    -0.178 N 
ATOM     18  H82 UNL     1      53.289  32.035  17.139  1.00  0.00     0.174 HD
ATOM     19  H81 UNL     1      53.096  31.103  15.653  1.00  0.00     0.174 HD
ATOM     20  H9  UNL     1      51.038  30.746  14.702  1.00  0.00     0.185 HD
BRANCH  11  21
HETATM   21  C6  UNL     1      48.961  33.486  18.547  1.00  0.00     0.304 C 
HETATM   22  O3  UNL     1      47.684  33.524  18.629  1.00  0.00    -0.263 OA
HETATM   23  N5  UNL     1      49.692  34.198  19.520  1.00  0.00    -0.270 N 
ATOM     24  H5  UNL     1      50.711  34.191  19.488  1.00  0.00     0.189 HD
BRANCH  23  25
HETATM   25  N6  UNL     1      49.034  34.922  20.540  1.00  0.00    -0.342 N 
ATOM     26  H62 UNL     1      48.410  34.417  21.170  1.00  0.00     0.176 HD
ATOM     27  H61 UNL     1      49.177  35.926  20.648  1.00  0.00     0.176 HD
ENDBRANCH  23  25
ENDBRANCH  11  21
ENDBRANCH   3   9
TORSDOF 6
ENDMDL
MODEL 5
REMARK VINA RESULT: -7.312713880      1.971      5.845
REMARK  6 active torsions:
REMARK  status: ('A' for Active; 'I' for Inactive)
REMARK    1  A    between atoms: C2_3  and  N2_4 
REMARK    2  A    between atoms: C2_3  and  C4_9 
REMARK    3  A    between atoms: N2_4  and  O1_5 
REMARK    4  A    between atoms: O1_5  and  C3_6 
REMARK    5  A    between atoms: C5_12  and  C6_13 
REMARK       I    between atoms: C6_13  and  N5_15 
REMARK    6  A    between atoms: N5_15  and  N6_17 
ROOT
HETATM    1  N1  UNL     1      45.056  30.542  18.111  1.00  0.00    -0.195 NA
HETATM    2  C1  UNL     1      45.631  31.313  17.456  1.00  0.00     0.091 C 
HETATM    3  C2  UNL     1      46.342  32.278  16.638  1.00  0.00     0.281 C 
ENDROOT
BRANCH   3   4
HETATM    4  N2  UNL     1      46.622  31.737  15.300  1.00  0.00    -0.062 NA
BRANCH   4   5
HETATM    5  O1  UNL     1      46.997  30.420  15.418  1.00  0.00    -0.190 OA
BRANCH   5   6
HETATM    6  C3  UNL     1      47.821  29.875  14.448  1.00  0.00     0.391 C 
HETATM    7  N3  UNL     1      49.221  29.986  14.572  1.00  0.00    -0.031 NA
HETATM    8  O2  UNL     1      47.290  29.291  13.474  1.00  0.00    -0.241 OA
ENDBRANCH   5   6
ENDBRANCH   4   5
ENDBRANCH   3   4
BRANCH   3   9
HETATM    9  C4  UNL     1      47.610  32.653  17.317  1.00  0.00     0.135 A 
HETATM   10  N4  UNL     1      48.792  32.221  16.849  1.00  0.00    -0.324 N 
HETATM   11  C5  UNL     1      49.984  32.521  17.415  1.00  0.00     0.192 A 
ATOM     12  H4  UNL     1      48.791  31.631  16.016  1.00  0.00     0.169 HD
HETATM   13  N7  UNL     1      49.993  33.297  18.511  1.00  0.00    -0.171 N 
HETATM   14  C7  UNL     1      48.816  33.757  19.019  1.00  0.00     0.679 A 
ATOM     15  H7  UNL     1      50.875  33.540  18.959  1.00  0.00     0.186 HD
HETATM   16  N8  UNL     1      48.865  34.495  20.065  1.00  0.00    -0.234 N 
HETATM   17  N9  UNL     1      47.652  33.428  18.415  1.00  0.00    -0.178 N 
ATOM     18  H82 UNL     1      49.744  34.744  20.521  1.00  0.00     0.174 HD
ATOM     19  H81 UNL     1      47.983  34.840  20.446  1.00  0.00     0.174 HD
ATOM     20  H9  UNL     1      46.778  33.781  18.804  1.00  0.00     0.185 HD
BRANCH  11  21
HETATM   21  C6  UNL     1      51.234  32.035  16.879  1.00  0.00     0.304 C 
HETATM   22  O3  UNL     1      52.174  31.780  17.708  1.00  0.00    -0.263 OA
HETATM   23  N5  UNL     1      51.501  31.816  15.512  1.00  0.00    -0.270 N 
ATOM     24  H5  UNL     1      50.776  32.007  14.821  1.00  0.00     0.189 HD
BRANCH  23  25
HETATM   25  N6  UNL     1      52.759  31.336  15.084  1.00  0.00    -0.342 N 
ATOM     26  H62 UNL     1      53.588  31.596  15.620  1.00  0.00     0.176 HD
ATOM     27  H61 UNL     1      52.843  30.742  14.258  1.00  0.00     0.176 HD
ENDBRANCH  23  25
ENDBRANCH  11  21
ENDBRANCH   3   9
TORSDOF 6
ENDMDL
