MODEL 1
REMARK VINA RESULT: -8.817897625      0.000      0.000
REMARK  5 active torsions:
REMARK  status: ('A' for Active; 'I' for Inactive)
REMARK    1  A    between atoms: N1_2  and  N2_3 
REMARK       I    between atoms: N1_2  and  C6_26 
REMARK    2  A    between atoms: N2_3  and  N3_5 
REMARK    3  A    between atoms: N3_5  and  C2_7 
REMARK    4  A    between atoms: C5_16  and  N7_17 
REMARK       I    between atoms: C6_26  and  N11_28 
REMARK    5  A    between atoms: N11_28  and  N12_30 
ROOT
HETATM    1  C2  UNL     1      48.792  32.287  16.415  1.00  0.00     0.155 A 
HETATM    2  C3  UNL     1      50.013  31.847  16.708  1.00  0.00     0.102 A 
HETATM    3  C4  UNL     1      50.582  32.193  17.910  1.00  0.00     0.155 A 
HETATM    4  N4  UNL     1      51.838  31.713  18.157  1.00  0.00    -0.269 N 
ATOM      5  H4  UNL     1      52.308  31.938  19.034  1.00  0.00     0.190 HD
HETATM    6  N5  UNL     1      52.434  30.966  17.271  1.00  0.00    -0.239 N 
ATOM      7  H5  UNL     1      53.370  30.628  17.493  1.00  0.00     0.208 HD
HETATM    8  N6  UNL     1      51.926  30.617  16.121  1.00  0.00    -0.270 N 
ATOM      9  H6  UNL     1      52.464  30.027  15.486  1.00  0.00     0.190 HD
HETATM   10  C5  UNL     1      50.671  31.041  15.764  1.00  0.00     0.132 A 
HETATM   11  N8  UNL     1      50.004  32.937  18.804  1.00  0.00    -0.269 N 
ATOM     12  H8  UNL     1      50.494  33.151  19.673  1.00  0.00     0.190 HD
HETATM   13  N9  UNL     1      48.728  33.446  18.593  1.00  0.00    -0.239 N 
ATOM     14  H9  UNL     1      48.259  34.031  19.284  1.00  0.00     0.208 HD
HETATM   15  N10 UNL     1      48.125  33.106  17.372  1.00  0.00    -0.269 N 
ATOM     16  H10 UNL     1      47.188  33.453  17.165  1.00  0.00     0.190 HD
ENDROOT
BRANCH   1  17
HETATM   17  N3  UNL     1      48.192  31.941  15.183  1.00  0.00    -0.269 N 
ATOM     18  H3  UNL     1      48.698  32.073  14.307  1.00  0.00     0.190 HD
BRANCH  17  19
HETATM   19  N2  UNL     1      46.999  31.458  15.181  1.00  0.00    -0.235 N 
ATOM     20  H2  UNL     1      46.213  32.089  15.019  1.00  0.00     0.208 HD
BRANCH  19  21
HETATM   21  N1  UNL     1      46.742  30.116  15.390  1.00  0.00    -0.231 N 
HETATM   22  C1  UNL     1      47.216  29.164  14.435  1.00  0.00     0.184 C 
HETATM   23  C6  UNL     1      46.022  29.730  16.544  1.00  0.00     0.355 C 
HETATM   24  O1  UNL     1      45.795  28.507  16.723  1.00  0.00    -0.244 OA
HETATM   25  N11 UNL     1      45.559  30.686  17.488  1.00  0.00    -0.257 N 
ATOM     26  H11 UNL     1      45.744  31.679  17.343  1.00  0.00     0.191 HD
BRANCH  25  27
HETATM   27  N12 UNL     1      44.859  30.268  18.600  1.00  0.00    -0.341 N 
ATOM     28 2H12 UNL     1      43.999  30.753  18.857  1.00  0.00     0.177 HD
ATOM     29 1H12 UNL     1      45.205  29.482  19.151  1.00  0.00     0.177 HD
ENDBRANCH  25  27
ENDBRANCH  19  21
ENDBRANCH  17  19
ENDBRANCH   1  17
BRANCH  10  30
HETATM   30  N7  UNL     1      50.185  30.725  14.711  1.00  0.00    -0.384 N 
ATOM     31  H72 UNL     1      49.210  30.430  14.648  1.00  0.00     0.157 HD
ATOM     32  H71 UNL     1      50.699  30.735  13.830  1.00  0.00     0.157 HD
ENDBRANCH  10  30
TORSDOF 5
ENDMDL
MODEL 2
REMARK VINA RESULT: -8.267880569      2.307      4.664
REMARK  5 active torsions:
REMARK  status: ('A' for Active; 'I' for Inactive)
REMARK    1  A    between atoms: N1_2  and  N2_3 
REMARK       I    between atoms: N1_2  and  C6_26 
REMARK    2  A    between atoms: N2_3  and  N3_5 
REMARK    3  A    between atoms: N3_5  and  C2_7 
REMARK    4  A    between atoms: C5_16  and  N7_17 
REMARK       I    between atoms: C6_26  and  N11_28 
REMARK    5  A    between atoms: N11_28  and  N12_30 
ROOT
HETATM    1  C2  UNL     1      48.580  32.369  16.351  1.00  0.00     0.155 A 
HETATM    2  C3  UNL     1      47.973  31.327  15.788  1.00  0.00     0.102 A 
HETATM    3  C4  UNL     1      46.684  31.020  16.154  1.00  0.00     0.155 A 
HETATM    4  N4  UNL     1      46.112  29.939  15.543  1.00  0.00    -0.269 N 
ATOM      5  H4  UNL     1      45.157  29.667  15.776  1.00  0.00     0.190 HD
HETATM    6  N5  UNL     1      46.789  29.257  14.662  1.00  0.00    -0.239 N 
ATOM      7  H5  UNL     1      46.326  28.457  14.230  1.00  0.00     0.208 HD
HETATM    8  N6  UNL     1      48.012  29.517  14.290  1.00  0.00    -0.270 N 
ATOM      9  H6  UNL     1      48.466  28.930  13.592  1.00  0.00     0.190 HD
HETATM   10  C5  UNL     1      48.687  30.579  14.837  1.00  0.00     0.132 A 
HETATM   11  N8  UNL     1      45.996  31.688  17.029  1.00  0.00    -0.269 N 
ATOM     12  H8  UNL     1      45.043  31.396  17.248  1.00  0.00     0.190 HD
HETATM   13  N9  UNL     1      46.539  32.793  17.673  1.00  0.00    -0.239 N 
ATOM     14  H9  UNL     1      46.014  33.329  18.363  1.00  0.00     0.208 HD
HETATM   15  N10 UNL     1      47.856  33.126  17.317  1.00  0.00    -0.269 N 
ATOM     16  H10 UNL     1      48.304  33.929  17.760  1.00  0.00     0.190 HD
ENDROOT
BRANCH   1  17
HETATM   17  N3  UNL     1      49.905  32.697  15.988  1.00  0.00    -0.269 N 
ATOM     18  H3  UNL     1      50.148  32.857  15.010  1.00  0.00     0.190 HD
BRANCH  17  19
HETATM   19  N2  UNL     1      50.802  32.793  16.906  1.00  0.00    -0.235 N 
ATOM     20  H2  UNL     1      50.720  33.538  17.598  1.00  0.00     0.208 HD
BRANCH  19  21
HETATM   21  N1  UNL     1      51.873  31.921  16.990  1.00  0.00    -0.231 N 
HETATM   22  C1  UNL     1      53.022  32.157  16.175  1.00  0.00     0.184 C 
HETATM   23  C6  UNL     1      51.795  30.827  17.882  1.00  0.00     0.355 C 
HETATM   24  O1  UNL     1      52.773  30.042  17.949  1.00  0.00    -0.244 OA
HETATM   25  N11 UNL     1      50.646  30.605  18.690  1.00  0.00    -0.257 N 
ATOM     26  H11 UNL     1      49.852  31.243  18.636  1.00  0.00     0.191 HD
BRANCH  25  27
HETATM   27  N12 UNL     1      50.610  29.524  19.546  1.00  0.00    -0.341 N 
ATOM     28 2H12 UNL     1      49.730  29.025  19.678  1.00  0.00     0.177 HD
ATOM     29 1H12 UNL     1      51.458  29.238  20.037  1.00  0.00     0.177 HD
ENDBRANCH  25  27
ENDBRANCH  19  21
ENDBRANCH  17  19
ENDBRANCH   1  17
BRANCH  10  30
HETATM   30  N7  UNL     1      49.813  30.837  14.503  1.00  0.00    -0.384 N 
ATOM     31  H72 UNL     1      50.203  31.769  14.640  1.00  0.00     0.157 HD
ATOM     32  H71 UNL     1      50.441  30.156  14.074  1.00  0.00     0.157 HD
ENDBRANCH  10  30
TORSDOF 5
ENDMDL
MODEL 3
REMARK VINA RESULT: -8.027098751      2.343      5.193
REMARK  5 active torsions:
REMARK  status: ('A' for Active; 'I' for Inactive)
REMARK    1  A    between atoms: N1_2  and  N2_3 
REMARK       I    between atoms: N1_2  and  C6_26 
REMARK    2  A    between atoms: N2_3  and  N3_5 
REMARK    3  A    between atoms: N3_5  and  C2_7 
REMARK    4  A    between atoms: C5_16  and  N7_17 
REMARK       I    between atoms: C6_26  and  N11_28 
REMARK    5  A    between atoms: N11_28  and  N12_30 
ROOT
HETATM    1  C2  UNL     1      48.218  32.490  16.509  1.00  0.00     0.155 A 
HETATM    2  C3  UNL     1      47.821  31.416  15.831  1.00  0.00     0.102 A 
HETATM    3  C4  UNL     1      46.577  30.885  16.079  1.00  0.00     0.155 A 
HETATM    4  N4  UNL     1      46.224  29.781  15.353  1.00  0.00    -0.269 N 
ATOM      5  H4  UNL     1      45.312  29.347  15.496  1.00  0.00     0.190 HD
HETATM    6  N5  UNL     1      47.054  29.286  14.479  1.00  0.00    -0.239 N 
ATOM      7  H5  UNL     1      46.752  28.462  13.959  1.00  0.00     0.208 HD
HETATM    8  N6  UNL     1      48.240  29.761  14.217  1.00  0.00    -0.270 N 
ATOM      9  H6  UNL     1      48.825  29.309  13.515  1.00  0.00     0.190 HD
HETATM   10  C5  UNL     1      48.702  30.867  14.885  1.00  0.00     0.132 A 
HETATM   11  N8  UNL     1      45.739  31.365  16.946  1.00  0.00    -0.269 N 
ATOM     12  H8  UNL     1      44.833  30.913  17.073  1.00  0.00     0.190 HD
HETATM   13  N9  UNL     1      46.058  32.485  17.704  1.00  0.00    -0.239 N 
ATOM     14  H9  UNL     1      45.412  32.876  18.390  1.00  0.00     0.208 HD
HETATM   15  N10 UNL     1      47.324  33.046  17.470  1.00  0.00    -0.269 N 
ATOM     16  H10 UNL     1      47.610  33.870  18.000  1.00  0.00     0.190 HD
ENDROOT
BRANCH   1  17
HETATM   17  N3  UNL     1      49.493  33.048  16.268  1.00  0.00    -0.269 N 
ATOM     18  H3  UNL     1      49.730  33.416  15.346  1.00  0.00     0.190 HD
BRANCH  17  19
HETATM   19  N2  UNL     1      50.352  33.086  17.226  1.00  0.00    -0.235 N 
ATOM     20  H2  UNL     1      50.497  33.966  17.722  1.00  0.00     0.208 HD
BRANCH  19  21
HETATM   21  N1  UNL     1      51.086  31.978  17.607  1.00  0.00    -0.231 N 
HETATM   22  C1  UNL     1      50.507  31.046  18.523  1.00  0.00     0.184 C 
HETATM   23  C6  UNL     1      52.385  31.803  17.077  1.00  0.00     0.355 C 
HETATM   24  O1  UNL     1      53.043  30.794  17.432  1.00  0.00    -0.244 OA
HETATM   25  N11 UNL     1      52.949  32.736  16.165  1.00  0.00    -0.257 N 
ATOM     26  H11 UNL     1      52.415  33.557  15.877  1.00  0.00     0.191 HD
BRANCH  25  27
HETATM   27  N12 UNL     1      54.221  32.530  15.672  1.00  0.00    -0.341 N 
ATOM     28 2H12 UNL     1      54.887  31.993  16.227  1.00  0.00     0.177 HD
ATOM     29 1H12 UNL     1      54.480  32.914  14.763  1.00  0.00     0.177 HD
ENDBRANCH  25  27
ENDBRANCH  19  21
ENDBRANCH  17  19
ENDBRANCH   1  17
BRANCH  10  30
HETATM   30  N7  UNL     1      49.791  31.322  14.653  1.00  0.00    -0.384 N 
ATOM     31  H72 UNL     1      49.953  31.910  13.835  1.00  0.00     0.157 HD
ATOM     32  H71 UNL     1      50.604  31.159  15.246  1.00  0.00     0.157 HD
ENDBRANCH  10  30
TORSDOF 5
ENDMDL
MODEL 4
REMARK VINA RESULT: -7.916442189      2.055      4.887
REMARK  5 active torsions:
REMARK  status: ('A' for Active; 'I' for Inactive)
REMARK    1  A    between atoms: N1_2  and  N2_3 
REMARK       I    between atoms: N1_2  and  C6_26 
REMARK    2  A    between atoms: N2_3  and  N3_5 
REMARK    3  A    between atoms: N3_5  and  C2_7 
REMARK    4  A    between atoms: C5_16  and  N7_17 
REMARK       I    between atoms: C6_26  and  N11_28 
REMARK    5  A    between atoms: N11_28  and  N12_30 
ROOT
HETATM    1  C2  UNL     1      48.532  32.298  16.192  1.00  0.00     0.155 A 
HETATM    2  C3  UNL     1      47.864  31.244  15.730  1.00  0.00     0.102 A 
HETATM    3  C4  UNL     1      46.601  30.985  16.209  1.00  0.00     0.155 A 
HETATM    4  N4  UNL     1      45.963  29.888  15.699  1.00  0.00    -0.269 N 
ATOM      5  H4  UNL     1      45.025  29.650  16.018  1.00  0.00     0.190 HD
HETATM    6  N5  UNL     1      46.557  29.149  14.804  1.00  0.00    -0.239 N 
ATOM      7  H5  UNL     1      46.047  28.340  14.450  1.00  0.00     0.208 HD
HETATM    8  N6  UNL     1      47.751  29.362  14.327  1.00  0.00    -0.270 N 
ATOM      9  H6  UNL     1      48.139  28.731  13.627  1.00  0.00     0.190 HD
HETATM   10  C5  UNL     1      48.487  30.434  14.766  1.00  0.00     0.132 A 
HETATM   11  N8  UNL     1      45.996  31.709  17.100  1.00  0.00    -0.269 N 
ATOM     12  H8  UNL     1      45.058  31.451  17.405  1.00  0.00     0.190 HD
HETATM   13  N9  UNL     1      46.609  32.832  17.644  1.00  0.00    -0.239 N 
ATOM     14  H9  UNL     1      46.149  33.413  18.344  1.00  0.00     0.208 HD
HETATM   15  N10 UNL     1      47.900  33.118  17.171  1.00  0.00    -0.269 N 
ATOM     16  H10 UNL     1      48.396  33.930  17.537  1.00  0.00     0.190 HD
ENDROOT
BRANCH   1  17
HETATM   17  N3  UNL     1      49.831  32.578  15.711  1.00  0.00    -0.269 N 
ATOM     18  H3  UNL     1      50.009  32.641  14.709  1.00  0.00     0.190 HD
BRANCH  17  19
HETATM   19  N2  UNL     1      50.787  32.753  16.555  1.00  0.00    -0.235 N 
ATOM     20  H2  UNL     1      51.389  33.571  16.455  1.00  0.00     0.208 HD
BRANCH  19  21
HETATM   21  N1  UNL     1      51.030  31.871  17.593  1.00  0.00    -0.231 N 
HETATM   22  C1  UNL     1      50.551  32.194  18.900  1.00  0.00     0.184 C 
HETATM   23  C6  UNL     1      51.742  30.680  17.325  1.00  0.00     0.355 C 
HETATM   24  O1  UNL     1      51.957  29.888  18.276  1.00  0.00    -0.244 OA
HETATM   25  N11 UNL     1      52.211  30.370  16.020  1.00  0.00    -0.257 N 
ATOM     26  H11 UNL     1      52.036  31.013  15.247  1.00  0.00     0.191 HD
BRANCH  25  27
HETATM   27  N12 UNL     1      52.903  29.197  15.801  1.00  0.00    -0.341 N 
ATOM     28 2H12 UNL     1      52.719  28.393  16.401  1.00  0.00     0.177 HD
ATOM     29 1H12 UNL     1      53.588  29.146  15.046  1.00  0.00     0.177 HD
ENDBRANCH  25  27
ENDBRANCH  19  21
ENDBRANCH  17  19
ENDBRANCH   1  17
BRANCH  10  30
HETATM   30  N7  UNL     1      49.588  30.650  14.333  1.00  0.00    -0.384 N 
ATOM     31  H72 UNL     1      50.415  30.546  14.922  1.00  0.00     0.157 HD
ATOM     32  H71 UNL     1      49.766  30.939  13.371  1.00  0.00     0.157 HD
ENDBRANCH  10  30
TORSDOF 5
ENDMDL
MODEL 5
REMARK VINA RESULT: -7.876933561      0.818      2.578
REMARK  5 active torsions:
REMARK  status: ('A' for Active; 'I' for Inactive)
REMARK    1  A    between atoms: N1_2  and  N2_3 
REMARK       I    between atoms: N1_2  and  C6_26 
REMARK    2  A    between atoms: N2_3  and  N3_5 
REMARK    3  A    between atoms: N3_5  and  C2_7 
REMARK    4  A    between atoms: C5_16  and  N7_17 
REMARK       I    between atoms: C6_26  and  N11_28 
REMARK    5  A    between atoms: N11_28  and  N12_30 
ROOT
HETATM    1  C2  UNL     1      48.617  32.003  15.557  1.00  0.00     0.155 A 
HETATM    2  C3  UNL     1      49.118  32.365  16.735  1.00  0.00     0.102 A 
HETATM    3  C4  UNL     1      50.419  32.045  17.041  1.00  0.00     0.155 A 
HETATM    4  N4  UNL     1      50.879  32.442  18.266  1.00  0.00    -0.269 N 
ATOM      5  H4  UNL     1      51.837  32.232  18.545  1.00  0.00     0.190 HD
HETATM    6  N5  UNL     1      50.090  33.091  19.077  1.00  0.00    -0.239 N 
ATOM      7  H5  UNL     1      50.472  33.368  19.981  1.00  0.00     0.208 HD
HETATM    8  N6  UNL     1      48.852  33.411  18.822  1.00  0.00    -0.270 N 
ATOM      9  H6  UNL     1      48.306  33.921  19.516  1.00  0.00     0.190 HD
HETATM   10  C5  UNL     1      48.283  33.064  17.623  1.00  0.00     0.132 A 
HETATM   11  N8  UNL     1      51.218  31.399  16.247  1.00  0.00    -0.269 N 
ATOM     12  H8  UNL     1      52.172  31.198  16.547  1.00  0.00     0.190 HD
HETATM   13  N9  UNL     1      50.791  30.978  14.993  1.00  0.00    -0.239 N 
ATOM     14  H9  UNL     1      51.404  30.470  14.356  1.00  0.00     0.208 HD
HETATM   15  N10 UNL     1      49.464  31.292  14.657  1.00  0.00    -0.269 N 
ATOM     16  H10 UNL     1      49.099  31.006  13.749  1.00  0.00     0.190 HD
ENDROOT
BRANCH   1  17
HETATM   17  N3  UNL     1      47.281  32.323  15.226  1.00  0.00    -0.269 N 
ATOM     18  H3  UNL     1      46.936  33.277  15.336  1.00  0.00     0.190 HD
BRANCH  17  19
HETATM   19  N2  UNL     1      46.505  31.396  14.786  1.00  0.00    -0.235 N 
ATOM     20  H2  UNL     1      45.808  31.633  14.080  1.00  0.00     0.208 HD
BRANCH  19  21
HETATM   21  N1  UNL     1      46.582  30.090  15.234  1.00  0.00    -0.231 N 
HETATM   22  C1  UNL     1      47.204  29.109  14.402  1.00  0.00     0.184 C 
HETATM   23  C6  UNL     1      46.044  29.770  16.501  1.00  0.00     0.355 C 
HETATM   24  O1  UNL     1      46.118  28.580  16.897  1.00  0.00    -0.244 OA
HETATM   25  N11 UNL     1      45.430  30.756  17.320  1.00  0.00    -0.257 N 
ATOM     26  H11 UNL     1      45.369  31.723  16.999  1.00  0.00     0.191 HD
BRANCH  25  27
HETATM   27  N12 UNL     1      44.916  30.402  18.551  1.00  0.00    -0.341 N 
ATOM     28 2H12 UNL     1      45.477  29.821  19.174  1.00  0.00     0.177 HD
ATOM     29 1H12 UNL     1      43.986  30.723  18.822  1.00  0.00     0.177 HD
ENDBRANCH  25  27
ENDBRANCH  19  21
ENDBRANCH  17  19
ENDBRANCH   1  17
BRANCH  10  30
HETATM   30  N7  UNL     1      47.145  33.356  17.369  1.00  0.00    -0.384 N 
ATOM     31  H72 UNL     1      46.424  32.640  17.280  1.00  0.00     0.157 HD
ATOM     32  H71 UNL     1      46.829  34.317  17.234  1.00  0.00     0.157 HD
ENDBRANCH  10  30
TORSDOF 5
ENDMDL
