MODEL 1
REMARK VINA RESULT: -4.639475450      0.000      0.000
REMARK  4 active torsions:
REMARK  status: ('A' for Active; 'I' for Inactive)
REMARK    1  A    between atoms: O1_2  and  N1_3 
REMARK    2  A    between atoms: N1_3  and  C2_4 
REMARK    3  A    between atoms: C2_4  and  O2_5 
REMARK    4  A    between atoms: C2_4  and  C3_8 
ROOT
HETATM    1  C2  UNL     1      14.826  -1.403  29.307  1.00  0.00     0.330 C 
HETATM    2  F1  UNL     1      13.835  -2.355  29.304  1.00  0.00    -0.186 F 
ENDROOT
BRANCH   1   3
HETATM    3  N1  UNL     1      14.750  -0.640  30.514  1.00  0.00    -0.025 NA
BRANCH   3   4
HETATM    4  O1  UNL     1      13.533  -0.743  31.103  1.00  0.00    -0.286 OA
HETATM    5  C1  UNL     1      13.602  -1.542  32.258  1.00  0.00     0.231 C 
ENDBRANCH   3   4
ENDBRANCH   1   3
BRANCH   1   6
HETATM    6  O2  UNL     1      14.561  -0.539  28.241  1.00  0.00    -0.345 OA
ATOM      7  H2  UNL     1      13.826  -0.895  27.756  1.00  0.00     0.215 HD
ENDBRANCH   1   6
BRANCH   1   8
HETATM    8  C3  UNL     1      16.161  -2.100  29.144  1.00  0.00     0.232 A 
HETATM    9  C4  UNL     1      16.152  -3.551  28.908  1.00  0.00     0.208 A 
HETATM   10  O3  UNL     1      16.262  -2.697  27.800  1.00  0.00    -0.374 OA
ENDBRANCH   1   8
TORSDOF 4
ENDMDL
MODEL 2
REMARK VINA RESULT: -4.489939757      1.477      3.567
REMARK  4 active torsions:
REMARK  status: ('A' for Active; 'I' for Inactive)
REMARK    1  A    between atoms: O1_2  and  N1_3 
REMARK    2  A    between atoms: N1_3  and  C2_4 
REMARK    3  A    between atoms: C2_4  and  O2_5 
REMARK    4  A    between atoms: C2_4  and  C3_8 
ROOT
HETATM    1  C2  UNL     1      14.881  -1.559  29.126  1.00  0.00     0.330 C 
HETATM    2  F1  UNL     1      15.992  -1.289  29.888  1.00  0.00    -0.186 F 
ENDROOT
BRANCH   1   3
HETATM    3  N1  UNL     1      15.138  -2.696  28.296  1.00  0.00    -0.025 NA
BRANCH   3   4
HETATM    4  O1  UNL     1      16.463  -2.867  28.067  1.00  0.00    -0.286 OA
HETATM    5  C1  UNL     1      16.862  -4.177  28.391  1.00  0.00     0.231 C 
ENDBRANCH   3   4
ENDBRANCH   1   3
BRANCH   1   6
HETATM    6  O2  UNL     1      14.686  -0.458  28.288  1.00  0.00    -0.345 OA
ATOM      7  H2  UNL     1      14.371   0.261  28.825  1.00  0.00     0.215 HD
ENDBRANCH   1   6
BRANCH   1   8
HETATM    8  C3  UNL     1      13.702  -1.773  30.054  1.00  0.00     0.232 A 
HETATM    9  C4  UNL     1      13.931  -1.622  31.498  1.00  0.00     0.208 A 
HETATM   10  O3  UNL     1      13.404  -0.531  30.790  1.00  0.00    -0.374 OA
ENDBRANCH   1   8
TORSDOF 4
ENDMDL
MODEL 3
REMARK VINA RESULT: -4.285216592      1.581      3.507
REMARK  4 active torsions:
REMARK  status: ('A' for Active; 'I' for Inactive)
REMARK    1  A    between atoms: O1_2  and  N1_3 
REMARK    2  A    between atoms: N1_3  and  C2_4 
REMARK    3  A    between atoms: C2_4  and  O2_5 
REMARK    4  A    between atoms: C2_4  and  C3_8 
ROOT
HETATM    1  C2  UNL     1      14.454  -0.978  29.900  1.00  0.00     0.330 C 
HETATM    2  F1  UNL     1      15.551  -1.084  30.721  1.00  0.00    -0.186 F 
ENDROOT
BRANCH   1   3
HETATM    3  N1  UNL     1      14.784  -1.472  28.598  1.00  0.00    -0.025 NA
BRANCH   3   4
HETATM    4  O1  UNL     1      14.788  -2.826  28.557  1.00  0.00    -0.286 OA
HETATM    5  C1  UNL     1      16.102  -3.321  28.461  1.00  0.00     0.231 C 
ENDBRANCH   3   4
ENDBRANCH   1   3
BRANCH   1   6
HETATM    6  O2  UNL     1      14.171   0.385  29.776  1.00  0.00    -0.345 OA
ATOM      7  H2  UNL     1      13.350   0.551  30.223  1.00  0.00     0.215 HD
ENDBRANCH   1   6
BRANCH   1   8
HETATM    8  C3  UNL     1      13.305  -1.733  30.533  1.00  0.00     0.232 A 
HETATM    9  C4  UNL     1      13.416  -2.083  31.957  1.00  0.00     0.208 A 
HETATM   10  O3  UNL     1      12.699  -0.928  31.609  1.00  0.00    -0.374 OA
ENDBRANCH   1   8
TORSDOF 4
ENDMDL
MODEL 4
REMARK VINA RESULT: -4.281722585      1.770      2.199
REMARK  4 active torsions:
REMARK  status: ('A' for Active; 'I' for Inactive)
REMARK    1  A    between atoms: O1_2  and  N1_3 
REMARK    2  A    between atoms: N1_3  and  C2_4 
REMARK    3  A    between atoms: C2_4  and  O2_5 
REMARK    4  A    between atoms: C2_4  and  C3_8 
ROOT
HETATM    1  C2  UNL     1      14.370  -1.283  29.990  1.00  0.00     0.330 C 
HETATM    2  F1  UNL     1      14.368  -1.653  31.313  1.00  0.00    -0.186 F 
ENDROOT
BRANCH   1   3
HETATM    3  N1  UNL     1      14.215   0.137  29.893  1.00  0.00    -0.025 NA
BRANCH   3   4
HETATM    4  O1  UNL     1      13.685   0.508  28.703  1.00  0.00    -0.286 OA
HETATM    5  C1  UNL     1      12.982   1.721  28.825  1.00  0.00     0.231 C 
ENDBRANCH   3   4
ENDBRANCH   1   3
BRANCH   1   6
HETATM    6  O2  UNL     1      13.247  -1.872  29.403  1.00  0.00    -0.345 OA
ATOM      7  H2  UNL     1      13.544  -2.621  28.900  1.00  0.00     0.215 HD
ENDBRANCH   1   6
BRANCH   1   8
HETATM    8  C3  UNL     1      15.655  -1.771  29.356  1.00  0.00     0.232 A 
HETATM    9  C4  UNL     1      15.731  -3.186  28.965  1.00  0.00     0.208 A 
HETATM   10  O3  UNL     1      15.398  -2.241  27.983  1.00  0.00    -0.374 OA
ENDBRANCH   1   8
TORSDOF 4
ENDMDL
MODEL 5
REMARK VINA RESULT: -4.251712726      2.480      3.831
REMARK  4 active torsions:
REMARK  status: ('A' for Active; 'I' for Inactive)
REMARK    1  A    between atoms: O1_2  and  N1_3 
REMARK    2  A    between atoms: N1_3  and  C2_4 
REMARK    3  A    between atoms: C2_4  and  O2_5 
REMARK    4  A    between atoms: C2_4  and  C3_8 
ROOT
HETATM    1  C2  UNL     1      16.143  -2.832  28.671  1.00  0.00     0.330 C 
HETATM    2  F1  UNL     1      17.073  -1.853  28.923  1.00  0.00    -0.186 F 
ENDROOT
BRANCH   1   3
HETATM    3  N1  UNL     1      16.807  -4.091  28.521  1.00  0.00    -0.025 NA
BRANCH   3   4
HETATM    4  O1  UNL     1      16.257  -5.050  29.306  1.00  0.00    -0.286 OA
HETATM    5  C1  UNL     1      16.601  -6.333  28.843  1.00  0.00     0.231 C 
ENDBRANCH   3   4
ENDBRANCH   1   3
BRANCH   1   6
HETATM    6  O2  UNL     1      15.545  -2.520  27.447  1.00  0.00    -0.345 OA
ATOM      7  H2  UNL     1      16.121  -1.917  26.991  1.00  0.00     0.215 HD
ENDBRANCH   1   6
BRANCH   1   8
HETATM    8  C3  UNL     1      15.135  -2.839  29.802  1.00  0.00     0.232 A 
HETATM    9  C4  UNL     1      14.845  -1.561  30.469  1.00  0.00     0.208 A 
HETATM   10  O3  UNL     1      13.977  -1.994  29.455  1.00  0.00    -0.374 OA
ENDBRANCH   1   8
TORSDOF 4
ENDMDL
