MODEL 1
REMARK VINA RESULT: -4.320287013      0.000      0.000
REMARK  5 active torsions:
REMARK  status: ('A' for Active; 'I' for Inactive)
REMARK    1  A    between atoms: C2_2  and  N1_3 
REMARK    2  A    between atoms: C2_2  and  C3_8 
REMARK    3  A    between atoms: C3_8  and  N2_9 
REMARK    4  A    between atoms: N2_9  and  C4_12 
REMARK    5  A    between atoms: C5_16  and  N4_17 
ROOT
HETATM    1  N2  UNL     1      12.008  -9.332  23.203  1.00  0.00    -0.037 N 
ATOM      2  H21 UNL     1      12.631  -8.775  22.619  1.00  0.00     0.280 HD
ATOM      3  H22 UNL     1      11.214  -9.420  22.568  1.00  0.00     0.280 HD
ENDROOT
BRANCH   1   4
HETATM    4  C3  UNL     1      11.634  -8.604  24.394  1.00  0.00     0.308 C 
BRANCH   4   5
HETATM    5  C2  UNL     1      12.538  -7.471  24.741  1.00  0.00     0.283 C 
HETATM    6  C1  UNL     1      12.834  -7.411  26.237  1.00  0.00     0.086 C 
HETATM    7  F1  UNL     1      13.737  -7.618  24.088  1.00  0.00    -0.210 F 
BRANCH   5   8
HETATM    8  N1  UNL     1      12.009  -6.175  24.365  1.00  0.00    -0.041 N 
ATOM      9  H13 UNL     1      11.091  -5.985  24.766  1.00  0.00     0.278 HD
ATOM     10  H12 UNL     1      12.503  -5.397  24.802  1.00  0.00     0.278 HD
ATOM     11  H11 UNL     1      12.019  -6.136  23.347  1.00  0.00     0.278 HD
ENDBRANCH   5   8
ENDBRANCH   4   5
ENDBRANCH   1   4
BRANCH   1  12
HETATM   12  C4  UNL     1      12.581 -10.611  23.478  1.00  0.00     0.442 A 
HETATM   13  N3  UNL     1      13.521 -11.020  22.414  1.00  0.00    -0.009 N 
HETATM   14  C5  UNL     1      13.919 -10.924  23.789  1.00  0.00     0.440 A 
ATOM     15  H32 UNL     1      13.546 -11.736  21.688  1.00  0.00     0.282 HD
ATOM     16  H31 UNL     1      13.842 -10.635  21.526  1.00  0.00     0.282 HD
BRANCH  14  17
HETATM   17  N4  UNL     1      15.061 -11.110  24.602  1.00  0.00    -0.046 N 
ATOM     18  H43 UNL     1      15.752 -10.968  23.866  1.00  0.00     0.276 HD
ATOM     19  H42 UNL     1      14.970 -10.242  25.131  1.00  0.00     0.276 HD
ATOM     20  H41 UNL     1      15.684 -11.582  25.258  1.00  0.00     0.276 HD
ENDBRANCH  14  17
ENDBRANCH   1  12
TORSDOF 5
ENDMDL
MODEL 2
REMARK VINA RESULT: -4.282645946      2.719      3.904
REMARK  5 active torsions:
REMARK  status: ('A' for Active; 'I' for Inactive)
REMARK    1  A    between atoms: C2_2  and  N1_3 
REMARK    2  A    between atoms: C2_2  and  C3_8 
REMARK    3  A    between atoms: C3_8  and  N2_9 
REMARK    4  A    between atoms: N2_9  and  C4_12 
REMARK    5  A    between atoms: C5_16  and  N4_17 
ROOT
HETATM    1  N2  UNL     1      11.059  -8.862  24.000  1.00  0.00    -0.037 N 
ATOM      2  H21 UNL     1      10.783  -8.263  23.222  1.00  0.00     0.280 HD
ATOM      3  H22 UNL     1      11.173  -9.745  23.501  1.00  0.00     0.280 HD
ENDROOT
BRANCH   1   4
HETATM    4  C3  UNL     1       9.998  -8.958  24.976  1.00  0.00     0.308 C 
BRANCH   4   5
HETATM    5  C2  UNL     1       8.912  -7.949  24.817  1.00  0.00     0.283 C 
HETATM    6  C1  UNL     1       8.056  -7.826  26.074  1.00  0.00     0.086 C 
HETATM    7  F1  UNL     1       9.460  -6.715  24.566  1.00  0.00    -0.210 F 
BRANCH   5   8
HETATM    8  N1  UNL     1       8.010  -8.242  23.721  1.00  0.00    -0.041 N 
ATOM      9  H13 UNL     1       8.430  -8.829  23.001  1.00  0.00     0.278 HD
ATOM     10  H12 UNL     1       7.255  -8.876  23.981  1.00  0.00     0.278 HD
ATOM     11  H11 UNL     1       7.677  -7.346  23.365  1.00  0.00     0.278 HD
ENDBRANCH   5   8
ENDBRANCH   4   5
ENDBRANCH   1   4
BRANCH   1  12
HETATM   12  C4  UNL     1      12.302  -8.431  24.554  1.00  0.00     0.442 A 
HETATM   13  N3  UNL     1      12.890  -7.328  23.766  1.00  0.00    -0.009 N 
HETATM   14  C5  UNL     1      12.608  -7.200  25.168  1.00  0.00     0.440 A 
ATOM     15  H32 UNL     1      13.703  -7.204  23.164  1.00  0.00     0.282 HD
ATOM     16  H31 UNL     1      12.647  -6.818  22.917  1.00  0.00     0.282 HD
BRANCH  14  17
HETATM   17  N4  UNL     1      12.711  -6.250  26.211  1.00  0.00    -0.046 N 
ATOM     18  H43 UNL     1      12.263  -5.481  25.713  1.00  0.00     0.276 HD
ATOM     19  H42 UNL     1      12.021  -6.680  26.828  1.00  0.00     0.276 HD
ATOM     20  H41 UNL     1      13.165  -5.680  26.924  1.00  0.00     0.276 HD
ENDBRANCH  14  17
ENDBRANCH   1  12
TORSDOF 5
ENDMDL
MODEL 3
REMARK VINA RESULT: -4.282080305      3.598      5.039
REMARK  5 active torsions:
REMARK  status: ('A' for Active; 'I' for Inactive)
REMARK    1  A    between atoms: C2_2  and  N1_3 
REMARK    2  A    between atoms: C2_2  and  C3_8 
REMARK    3  A    between atoms: C3_8  and  N2_9 
REMARK    4  A    between atoms: N2_9  and  C4_12 
REMARK    5  A    between atoms: C5_16  and  N4_17 
ROOT
HETATM    1  N2  UNL     1      15.506  -9.439  27.066  1.00  0.00    -0.037 N 
ATOM      2  H21 UNL     1      16.305  -9.543  26.440  1.00  0.00     0.280 HD
ATOM      3  H22 UNL     1      15.351 -10.419  27.307  1.00  0.00     0.280 HD
ENDROOT
BRANCH   1   4
HETATM    4  C3  UNL     1      14.368  -8.899  26.359  1.00  0.00     0.308 C 
BRANCH   4   5
HETATM    5  C2  UNL     1      14.522  -8.846  24.877  1.00  0.00     0.283 C 
HETATM    6  C1  UNL     1      14.041 -10.128  24.204  1.00  0.00     0.086 C 
HETATM    7  F1  UNL     1      13.778  -7.809  24.370  1.00  0.00    -0.210 F 
BRANCH   5   8
HETATM    8  N1  UNL     1      15.890  -8.633  24.448  1.00  0.00    -0.041 N 
ATOM      9  H13 UNL     1      16.504  -8.325  25.202  1.00  0.00     0.278 HD
ATOM     10  H12 UNL     1      16.381  -9.500  24.228  1.00  0.00     0.278 HD
ATOM     11  H11 UNL     1      15.857  -7.981  23.665  1.00  0.00     0.278 HD
ENDBRANCH   5   8
ENDBRANCH   4   5
ENDBRANCH   1   4
BRANCH   1  12
HETATM   12  C4  UNL     1      15.865  -8.684  28.223  1.00  0.00     0.442 A 
HETATM   13  N3  UNL     1      17.252  -8.971  28.645  1.00  0.00    -0.009 N 
HETATM   14  C5  UNL     1      16.807  -7.643  28.333  1.00  0.00     0.440 A 
ATOM     15  H32 UNL     1      17.702  -9.431  29.437  1.00  0.00     0.282 HD
ATOM     16  H31 UNL     1      18.003  -9.588  28.336  1.00  0.00     0.282 HD
BRANCH  14  17
HETATM   17  N4  UNL     1      17.303  -6.319  28.280  1.00  0.00    -0.046 N 
ATOM     18  H43 UNL     1      16.492  -5.909  27.817  1.00  0.00     0.276 HD
ATOM     19  H42 UNL     1      17.235  -6.128  29.280  1.00  0.00     0.276 HD
ATOM     20  H41 UNL     1      17.955  -5.565  28.062  1.00  0.00     0.276 HD
ENDBRANCH  14  17
ENDBRANCH   1  12
TORSDOF 5
ENDMDL
MODEL 4
REMARK VINA RESULT: -4.267309256      2.709      3.115
REMARK  5 active torsions:
REMARK  status: ('A' for Active; 'I' for Inactive)
REMARK    1  A    between atoms: C2_2  and  N1_3 
REMARK    2  A    between atoms: C2_2  and  C3_8 
REMARK    3  A    between atoms: C3_8  and  N2_9 
REMARK    4  A    between atoms: N2_9  and  C4_12 
REMARK    5  A    between atoms: C5_16  and  N4_17 
ROOT
HETATM    1  N2  UNL     1      11.212  -8.614  23.926  1.00  0.00    -0.037 N 
ATOM      2  H21 UNL     1      11.891  -7.946  23.563  1.00  0.00     0.280 HD
ATOM      3  H22 UNL     1      10.627  -8.728  23.098  1.00  0.00     0.280 HD
ENDROOT
BRANCH   1   4
HETATM    4  C3  UNL     1      10.455  -8.037  25.013  1.00  0.00     0.308 C 
BRANCH   4   5
HETATM    5  C2  UNL     1       8.975  -8.164  24.878  1.00  0.00     0.283 C 
HETATM    6  C1  UNL     1       8.255  -7.905  26.199  1.00  0.00     0.086 C 
HETATM    7  F1  UNL     1       8.513  -7.247  23.968  1.00  0.00    -0.210 F 
BRANCH   5   8
HETATM    8  N1  UNL     1       8.549  -9.470  24.416  1.00  0.00    -0.041 N 
ATOM      9  H13 UNL     1       8.712 -10.210  25.098  1.00  0.00     0.278 HD
ATOM     10  H12 UNL     1       7.535  -9.566  24.361  1.00  0.00     0.278 HD
ATOM     11  H11 UNL     1       9.016  -9.635  23.524  1.00  0.00     0.278 HD
ENDBRANCH   5   8
ENDBRANCH   4   5
ENDBRANCH   1   4
BRANCH   1  12
HETATM   12  C4  UNL     1      11.848  -9.845  24.270  1.00  0.00     0.442 A 
HETATM   13  N3  UNL     1      11.721 -10.839  23.184  1.00  0.00    -0.009 N 
HETATM   14  C5  UNL     1      12.996 -10.429  23.698  1.00  0.00     0.440 A 
ATOM     15  H32 UNL     1      11.231 -11.724  23.047  1.00  0.00     0.282 HD
ATOM     16  H31 UNL     1      11.273 -10.877  22.268  1.00  0.00     0.282 HD
BRANCH  14  17
HETATM   17  N4  UNL     1      14.374 -10.678  23.501  1.00  0.00    -0.046 N 
ATOM     18  H43 UNL     1      14.432 -10.278  22.565  1.00  0.00     0.276 HD
ATOM     19  H42 UNL     1      14.715  -9.985  24.169  1.00  0.00     0.276 HD
ATOM     20  H41 UNL     1      15.236 -11.222  23.450  1.00  0.00     0.276 HD
ENDBRANCH  14  17
ENDBRANCH   1  12
TORSDOF 5
ENDMDL
MODEL 5
REMARK VINA RESULT: -4.262441471      3.877      4.767
REMARK  5 active torsions:
REMARK  status: ('A' for Active; 'I' for Inactive)
REMARK    1  A    between atoms: C2_2  and  N1_3 
REMARK    2  A    between atoms: C2_2  and  C3_8 
REMARK    3  A    between atoms: C3_8  and  N2_9 
REMARK    4  A    between atoms: N2_9  and  C4_12 
REMARK    5  A    between atoms: C5_16  and  N4_17 
ROOT
HETATM    1  N2  UNL     1      15.594  -9.140  27.123  1.00  0.00    -0.037 N 
ATOM      2  H21 UNL     1      15.494 -10.086  27.489  1.00  0.00     0.280 HD
ATOM      3  H22 UNL     1      16.594  -9.140  26.924  1.00  0.00     0.280 HD
ENDROOT
BRANCH   1   4
HETATM    4  C3  UNL     1      15.274  -8.162  28.138  1.00  0.00     0.308 C 
BRANCH   4   5
HETATM    5  C2  UNL     1      16.447  -7.420  28.682  1.00  0.00     0.283 C 
HETATM    6  C1  UNL     1      16.094  -5.985  29.059  1.00  0.00     0.086 C 
HETATM    7  F1  UNL     1      16.906  -8.045  29.815  1.00  0.00    -0.210 F 
BRANCH   5   8
HETATM    8  N1  UNL     1      17.562  -7.350  27.758  1.00  0.00    -0.041 N 
ATOM      9  H13 UNL     1      18.001  -6.431  27.728  1.00  0.00     0.278 HD
ATOM     10  H12 UNL     1      18.379  -7.873  28.074  1.00  0.00     0.278 HD
ATOM     11  H11 UNL     1      17.214  -7.660  26.851  1.00  0.00     0.278 HD
ENDBRANCH   5   8
ENDBRANCH   4   5
ENDBRANCH   1   4
BRANCH   1  12
HETATM   12  C4  UNL     1      14.838  -8.978  25.923  1.00  0.00     0.442 A 
HETATM   13  N3  UNL     1      15.717  -8.718  24.764  1.00  0.00    -0.009 N 
HETATM   14  C5  UNL     1      14.798  -9.819  24.793  1.00  0.00     0.440 A 
ATOM     15  H32 UNL     1      15.905  -7.930  24.143  1.00  0.00     0.282 HD
ATOM     16  H31 UNL     1      16.719  -8.598  24.611  1.00  0.00     0.282 HD
BRANCH  14  17
HETATM   17  N4  UNL     1      14.376 -10.900  23.984  1.00  0.00    -0.046 N 
ATOM     18  H43 UNL     1      15.305 -11.175  23.664  1.00  0.00     0.276 HD
ATOM     19  H42 UNL     1      14.102 -11.517  24.748  1.00  0.00     0.276 HD
ATOM     20  H41 UNL     1      13.853 -11.380  23.252  1.00  0.00     0.276 HD
ENDBRANCH  14  17
ENDBRANCH   1  12
TORSDOF 5
ENDMDL
