MODEL 1
REMARK VINA RESULT: -4.380733211      0.000      0.000
REMARK  3 active torsions:
REMARK  status: ('A' for Active; 'I' for Inactive)
REMARK    1  A    between atoms: N1_2  and  C2_5 
REMARK    2  A    between atoms: C2_5  and  N2_6 
REMARK    3  A    between atoms: N3_8  and  N4_9 
ROOT
HETATM    1  N2  UNL     1      15.950  -3.558  28.300  1.00  0.00    -0.166 NA
HETATM    2  C3  UNL     1      15.675  -4.501  29.340  1.00  0.00     0.281 C 
HETATM    3  N3  UNL     1      16.701  -5.276  28.699  1.00  0.00    -0.194 N 
HETATM    4  N6  UNL     1      17.253  -4.086  28.248  1.00  0.00    -0.024 NA
ENDROOT
BRANCH   1   5
HETATM    5  C2  UNL     1      15.880  -2.163  28.664  1.00  0.00     0.344 C 
BRANCH   5   6
HETATM    6  N1  UNL     1      15.277  -2.132  30.008  1.00  0.00    -0.066 N 
HETATM    7  C1  UNL     1      14.316  -1.041  30.104  1.00  0.00     0.268 C 
ATOM      8  H12 UNL     1      15.984  -2.082  30.741  1.00  0.00     0.278 HD
ATOM      9  H11 UNL     1      14.860  -3.028  30.260  1.00  0.00     0.278 HD
ENDBRANCH   5   6
ENDBRANCH   1   5
BRANCH   3  10
HETATM   10  N4  UNL     1      17.050  -6.601  28.552  1.00  0.00    -0.233 N 
HETATM   11  N5  UNL     1      17.601  -7.093  27.522  1.00  0.00    -0.330 N 
ATOM     12  H52 UNL     1      17.794  -6.448  26.756  1.00  0.00     0.178 HD
ATOM     13  H51 UNL     1      17.860  -8.074  27.412  1.00  0.00     0.178 HD
ATOM     14  H4  UNL     1      16.850  -7.232  29.328  1.00  0.00     0.209 HD
ENDBRANCH   3  10
TORSDOF 3
ENDMDL
MODEL 2
REMARK VINA RESULT: -4.368316499      6.743      7.628
REMARK  3 active torsions:
REMARK  status: ('A' for Active; 'I' for Inactive)
REMARK    1  A    between atoms: N1_2  and  C2_5 
REMARK    2  A    between atoms: C2_5  and  N2_6 
REMARK    3  A    between atoms: N3_8  and  N4_9 
ROOT
HETATM    1  N2  UNL     1      11.734  -8.194  24.393  1.00  0.00    -0.166 NA
HETATM    2  C3  UNL     1      12.597  -8.907  25.283  1.00  0.00     0.281 C 
HETATM    3  N3  UNL     1      13.631  -8.472  24.385  1.00  0.00    -0.194 N 
HETATM    4  N6  UNL     1      12.835  -7.379  24.074  1.00  0.00    -0.024 NA
ENDROOT
BRANCH   1   5
HETATM    5  C2  UNL     1      10.624  -7.497  24.997  1.00  0.00     0.344 C 
BRANCH   5   6
HETATM    6  N1  UNL     1       9.425  -7.952  24.273  1.00  0.00    -0.066 N 
HETATM    7  C1  UNL     1       8.869  -9.137  24.912  1.00  0.00     0.268 C 
ATOM      8  H12 UNL     1       9.614  -8.107  23.283  1.00  0.00     0.278 HD
ATOM      9  H11 UNL     1       8.731  -7.210  24.180  1.00  0.00     0.278 HD
ENDBRANCH   5   6
ENDBRANCH   1   5
BRANCH   3  10
HETATM   10  N4  UNL     1      14.875  -8.890  23.966  1.00  0.00    -0.233 N 
HETATM   11  N5  UNL     1      15.975  -8.488  24.451  1.00  0.00    -0.330 N 
ATOM     12  H52 UNL     1      15.917  -7.805  25.206  1.00  0.00     0.178 HD
ATOM     13  H51 UNL     1      16.896  -8.798  24.141  1.00  0.00     0.178 HD
ATOM     14  H4  UNL     1      14.914  -9.574  23.209  1.00  0.00     0.209 HD
ENDBRANCH   3  10
TORSDOF 3
ENDMDL
MODEL 3
REMARK VINA RESULT: -4.224564645      8.192      8.759
REMARK  3 active torsions:
REMARK  status: ('A' for Active; 'I' for Inactive)
REMARK    1  A    between atoms: N1_2  and  C2_5 
REMARK    2  A    between atoms: C2_5  and  N2_6 
REMARK    3  A    between atoms: N3_8  and  N4_9 
ROOT
HETATM    1  N2  UNL     1      11.044  -8.974  24.167  1.00  0.00    -0.166 NA
HETATM    2  C3  UNL     1      11.705 -10.140  24.667  1.00  0.00     0.281 C 
HETATM    3  N3  UNL     1      12.301 -10.177  23.360  1.00  0.00    -0.194 N 
HETATM    4  N6  UNL     1      12.137  -8.801  23.299  1.00  0.00    -0.024 NA
ENDROOT
BRANCH   1   5
HETATM    5  C2  UNL     1      10.845  -7.898  25.107  1.00  0.00     0.344 C 
BRANCH   5   6
HETATM    6  N1  UNL     1       9.582  -7.250  24.710  1.00  0.00    -0.066 N 
HETATM    7  C1  UNL     1       8.498  -8.222  24.701  1.00  0.00     0.268 C 
ATOM      8  H12 UNL     1       9.668  -6.766  23.817  1.00  0.00     0.278 HD
ATOM      9  H11 UNL     1       9.366  -6.444  25.298  1.00  0.00     0.278 HD
ENDBRANCH   5   6
ENDBRANCH   1   5
BRANCH   3  10
HETATM   10  N4  UNL     1      12.823 -11.111  22.492  1.00  0.00    -0.233 N 
HETATM   11  N5  UNL     1      14.019 -11.119  22.072  1.00  0.00    -0.330 N 
ATOM     12  H52 UNL     1      14.625 -10.373  22.411  1.00  0.00     0.178 HD
ATOM     13  H51 UNL     1      14.406 -11.810  21.429  1.00  0.00     0.178 HD
ATOM     14  H4  UNL     1      12.201 -11.850  22.162  1.00  0.00     0.209 HD
ENDBRANCH   3  10
TORSDOF 3
ENDMDL
MODEL 4
REMARK VINA RESULT: -4.205098306      7.200      8.003
REMARK  3 active torsions:
REMARK  status: ('A' for Active; 'I' for Inactive)
REMARK    1  A    between atoms: N1_2  and  C2_5 
REMARK    2  A    between atoms: C2_5  and  N2_6 
REMARK    3  A    between atoms: N3_8  and  N4_9 
ROOT
HETATM    1  N2  UNL     1      10.740  -8.364  24.281  1.00  0.00    -0.166 NA
HETATM    2  C3  UNL     1      10.989  -9.656  24.841  1.00  0.00     0.281 C 
HETATM    3  N3  UNL     1      11.752  -9.862  23.641  1.00  0.00    -0.194 N 
HETATM    4  N6  UNL     1      11.963  -8.491  23.597  1.00  0.00    -0.024 NA
ENDROOT
BRANCH   1   5
HETATM    5  C2  UNL     1      10.682  -7.262  25.211  1.00  0.00     0.344 C 
BRANCH   5   6
HETATM    6  N1  UNL     1      12.036  -6.680  25.224  1.00  0.00    -0.066 N 
HETATM    7  C1  UNL     1      12.551  -6.632  26.585  1.00  0.00     0.268 C 
ATOM      8  H12 UNL     1      12.060  -5.765  24.775  1.00  0.00     0.278 HD
ATOM      9  H11 UNL     1      12.669  -7.173  24.595  1.00  0.00     0.278 HD
ENDBRANCH   5   6
ENDBRANCH   1   5
BRANCH   3  10
HETATM   10  N4  UNL     1      12.144 -10.909  22.836  1.00  0.00    -0.233 N 
HETATM   11  N5  UNL     1      13.333 -11.119  22.449  1.00  0.00    -0.330 N 
ATOM     12  H52 UNL     1      14.039 -10.455  22.767  1.00  0.00     0.178 HD
ATOM     13  H51 UNL     1      13.623 -11.894  21.853  1.00  0.00     0.178 HD
ATOM     14  H4  UNL     1      11.424 -11.563  22.527  1.00  0.00     0.209 HD
ENDBRANCH   3  10
TORSDOF 3
ENDMDL
MODEL 5
REMARK VINA RESULT: -4.073434988      6.360      7.152
REMARK  3 active torsions:
REMARK  status: ('A' for Active; 'I' for Inactive)
REMARK    1  A    between atoms: N1_2  and  C2_5 
REMARK    2  A    between atoms: C2_5  and  N2_6 
REMARK    3  A    between atoms: N3_8  and  N4_9 
ROOT
HETATM    1  N2  UNL     1      11.497  -8.387  24.071  1.00  0.00    -0.166 NA
HETATM    2  C3  UNL     1      12.261  -9.349  24.804  1.00  0.00     0.281 C 
HETATM    3  N3  UNL     1      13.388  -8.653  24.248  1.00  0.00    -0.194 N 
HETATM    4  N6  UNL     1      12.595  -7.516  24.188  1.00  0.00    -0.024 NA
ENDROOT
BRANCH   1   5
HETATM    5  C2  UNL     1      10.286  -7.917  24.700  1.00  0.00     0.344 C 
BRANCH   5   6
HETATM    6  N1  UNL     1      10.683  -6.748  25.505  1.00  0.00    -0.066 N 
HETATM    7  C1  UNL     1      10.201  -6.890  26.872  1.00  0.00     0.268 C 
ATOM      8  H12 UNL     1      10.375  -5.873  25.082  1.00  0.00     0.278 HD
ATOM      9  H11 UNL     1      11.689  -6.586  25.471  1.00  0.00     0.278 HD
ENDBRANCH   5   6
ENDBRANCH   1   5
BRANCH   3  10
HETATM   10  N4  UNL     1      14.694  -8.919  23.900  1.00  0.00    -0.233 N 
HETATM   11  N5  UNL     1      15.706  -8.599  24.593  1.00  0.00    -0.330 N 
ATOM     12  H52 UNL     1      15.523  -8.109  25.468  1.00  0.00     0.178 HD
ATOM     13  H51 UNL     1      16.674  -8.796  24.336  1.00  0.00     0.178 HD
ATOM     14  H4  UNL     1      14.859  -9.410  23.021  1.00  0.00     0.209 HD
ENDBRANCH   3  10
TORSDOF 3
ENDMDL
