MODEL 1
REMARK VINA RESULT: -7.551086489      0.000      0.000
REMARK  8 active torsions:
REMARK  status: ('A' for Active; 'I' for Inactive)
REMARK    1  A    between atoms: C2_2  and  C3_3 
REMARK    2  A    between atoms: C4_5  and  N1_6 
REMARK    3  A    between atoms: C6_8  and  C7_9 
REMARK    4  A    between atoms: C9_12  and  C10_13 
REMARK    5  A    between atoms: C10_13  and  O2_14 
REMARK    6  A    between atoms: C11_16  and  C12_17 
REMARK    7  A    between atoms: C15_27  and  O3_28 
REMARK    8  A    between atoms: C15_27  and  C16_30 
ROOT
HETATM    1  N1  UNL     1       6.516  25.489  25.132  1.00  0.00    -0.229 N 
HETATM    2  C5  UNL     1       5.738  25.561  26.240  1.00  0.00     0.147 A 
HETATM    3  C6  UNL     1       5.866  26.809  26.812  1.00  0.00     0.049 A 
HETATM    4  N3  UNL     1       6.734  27.470  26.017  1.00  0.00    -0.288 N 
ATOM      5  H3  UNL     1       7.053  28.429  26.152  1.00  0.00     0.188 HD
HETATM    6  N4  UNL     1       7.103  26.661  25.029  1.00  0.00    -0.234 N 
ATOM      7  H4  UNL     1       7.757  26.916  24.288  1.00  0.00     0.209 HD
ENDROOT
BRANCH   1   8
HETATM    8  C4  UNL     1       6.687  24.397  24.247  1.00  0.00     0.168 C 
HETATM    9  O1  UNL     1       5.920  24.339  23.097  1.00  0.00    -0.303 OA
HETATM   10  C3  UNL     1       6.006  23.245  22.208  1.00  0.00     0.271 C 
HETATM   11  O4  UNL     1       7.208  22.595  22.252  1.00  0.00    -0.321 OA
HETATM   12  C15 UNL     1       7.683  22.317  23.513  1.00  0.00     0.195 C 
HETATM   13  C14 UNL     1       7.553  23.424  24.471  1.00  0.00     0.099 C 
BRANCH  10  14
HETATM   14  C2  UNL     1       5.868  23.835  20.797  1.00  0.00     0.057 C 
HETATM   15  C1  UNL     1       6.357  22.825  19.764  1.00  0.00     0.010 C 
ENDBRANCH  10  14
BRANCH  12  16
HETATM   16  O3  UNL     1       7.039  21.183  24.056  1.00  0.00    -0.361 OA
ATOM     17  H3  UNL     1       7.033  20.500  23.396  1.00  0.00     0.213 HD
ENDBRANCH  12  16
BRANCH  12  18
HETATM   18  C16 UNL     1       9.145  21.906  23.348  1.00  0.00     0.009 C 
HETATM   19  C17 UNL     1       9.604  22.046  21.923  1.00  0.00     0.020 C 
HETATM   20  C18 UNL     1       9.999  22.705  24.275  1.00  0.00     0.020 C 
HETATM   21  C19 UNL     1       9.220  20.436  23.773  1.00  0.00     0.020 C 
ENDBRANCH  12  18
ENDBRANCH   1   8
BRANCH   3  22
HETATM   22  C7  UNL     1       5.191  27.337  28.050  1.00  0.00     0.048 C 
HETATM   23  C8  UNL     1       5.191  26.238  29.053  1.00  0.00     0.085 C 
HETATM   24  S1  UNL     1       4.515  26.944  30.608  1.00  0.00    -0.161 SA
HETATM   25  C9  UNL     1       3.226  28.106  30.082  1.00  0.00     0.079 C 
HETATM   26  C11 UNL     1       2.793  27.844  28.661  1.00  0.00     0.040 C 
HETATM   27  C13 UNL     1       3.888  27.891  27.665  1.00  0.00     0.022 C 
BRANCH  25  28
HETATM   28  C10 UNL     1       3.654  29.541  30.296  1.00  0.00     0.179 C 
BRANCH  28  29
HETATM   29  O2  UNL     1       4.903  29.608  30.911  1.00  0.00    -0.400 OA
ATOM     30  H2  UNL     1       4.817  29.724  31.849  1.00  0.00     0.209 HD
ENDBRANCH  28  29
ENDBRANCH  25  28
BRANCH  26  31
HETATM   31  C12 UNL     1       1.977  26.611  28.587  1.00  0.00     0.058 C 
HETATM   32  N2  UNL     1       1.536  26.208  27.471  1.00  0.00    -0.411 N 
ATOM     33  H22 UNL     1       1.751  26.745  26.631  1.00  0.00     0.155 HD
ATOM     34  H21 UNL     1       0.974  25.358  27.420  1.00  0.00     0.155 HD
ENDBRANCH  26  31
ENDBRANCH   3  22
TORSDOF 8
ENDMDL
MODEL 2
REMARK VINA RESULT: -7.490318793      3.324      8.679
REMARK  8 active torsions:
REMARK  status: ('A' for Active; 'I' for Inactive)
REMARK    1  A    between atoms: C2_2  and  C3_3 
REMARK    2  A    between atoms: C4_5  and  N1_6 
REMARK    3  A    between atoms: C6_8  and  C7_9 
REMARK    4  A    between atoms: C9_12  and  C10_13 
REMARK    5  A    between atoms: C10_13  and  O2_14 
REMARK    6  A    between atoms: C11_16  and  C12_17 
REMARK    7  A    between atoms: C15_27  and  O3_28 
REMARK    8  A    between atoms: C15_27  and  C16_30 
ROOT
HETATM    1  N1  UNL     1       6.199  24.902  25.436  1.00  0.00    -0.229 N 
HETATM    2  C5  UNL     1       6.225  24.132  24.321  1.00  0.00     0.147 A 
HETATM    3  C6  UNL     1       7.430  23.466  24.250  1.00  0.00     0.049 A 
HETATM    4  N3  UNL     1       8.111  23.858  25.348  1.00  0.00    -0.288 N 
ATOM      5  H3  UNL     1       9.048  23.552  25.608  1.00  0.00     0.188 HD
HETATM    6  N4  UNL     1       7.355  24.711  26.032  1.00  0.00    -0.234 N 
ATOM      7  H4  UNL     1       7.636  25.159  26.905  1.00  0.00     0.209 HD
ENDROOT
BRANCH   1   8
HETATM    8  C4  UNL     1       5.161  25.748  25.897  1.00  0.00     0.168 C 
HETATM    9  O1  UNL     1       4.034  25.916  25.112  1.00  0.00    -0.303 OA
HETATM   10  C3  UNL     1       2.994  26.793  25.492  1.00  0.00     0.271 C 
HETATM   11  O4  UNL     1       2.915  26.996  26.843  1.00  0.00    -0.321 OA
HETATM   12  C15 UNL     1       4.110  27.256  27.472  1.00  0.00     0.195 C 
HETATM   13  C14 UNL     1       5.221  26.391  27.050  1.00  0.00     0.099 C 
BRANCH  10  14
HETATM   14  C2  UNL     1       1.687  26.109  25.065  1.00  0.00     0.057 C 
HETATM   15  C1  UNL     1       0.593  26.401  26.087  1.00  0.00     0.010 C 
ENDBRANCH  10  14
BRANCH  12  16
HETATM   16  O3  UNL     1       4.498  28.600  27.281  1.00  0.00    -0.361 OA
ATOM     17  H3  UNL     1       4.134  29.119  27.989  1.00  0.00     0.213 HD
ENDBRANCH  12  16
BRANCH  12  18
HETATM   18  C16 UNL     1       3.851  27.122  28.971  1.00  0.00     0.009 C 
HETATM   19  C17 UNL     1       3.678  28.464  29.627  1.00  0.00     0.020 C 
HETATM   20  C18 UNL     1       2.662  26.249  29.199  1.00  0.00     0.020 C 
HETATM   21  C19 UNL     1       5.083  26.419  29.550  1.00  0.00     0.020 C 
ENDBRANCH  12  18
ENDBRANCH   1   8
BRANCH   3  22
HETATM   22  C7  UNL     1       7.900  22.505  23.189  1.00  0.00     0.048 C 
HETATM   23  C8  UNL     1       6.686  21.920  22.558  1.00  0.00     0.085 C 
HETATM   24  S1  UNL     1       7.269  20.879  21.162  1.00  0.00    -0.161 SA
HETATM   25  C9  UNL     1       8.815  20.131  21.741  1.00  0.00     0.079 C 
HETATM   26  C11 UNL     1       8.937  20.203  23.242  1.00  0.00     0.040 C 
HETATM   27  C13 UNL     1       8.852  21.572  23.801  1.00  0.00     0.022 C 
BRANCH  25  28
HETATM   28  C10 UNL     1      10.015  20.727  21.039  1.00  0.00     0.179 C 
BRANCH  28  29
HETATM   29  O2  UNL     1       9.877  20.653  19.654  1.00  0.00    -0.400 OA
ATOM     30  H2  UNL     1      10.367  19.921  19.299  1.00  0.00     0.209 HD
ENDBRANCH  28  29
ENDBRANCH  25  28
BRANCH  26  31
HETATM   31  C12 UNL     1       8.011  19.242  23.884  1.00  0.00     0.058 C 
HETATM   32  N2  UNL     1       8.411  18.518  24.842  1.00  0.00    -0.411 N 
ATOM     33  H22 UNL     1       9.376  18.609  25.160  1.00  0.00     0.155 HD
ATOM     34  H21 UNL     1       7.773  17.856  25.285  1.00  0.00     0.155 HD
ENDBRANCH  26  31
ENDBRANCH   3  22
TORSDOF 8
ENDMDL
MODEL 3
REMARK VINA RESULT: -7.392739728      6.804      8.549
REMARK  8 active torsions:
REMARK  status: ('A' for Active; 'I' for Inactive)
REMARK    1  A    between atoms: C2_2  and  C3_3 
REMARK    2  A    between atoms: C4_5  and  N1_6 
REMARK    3  A    between atoms: C6_8  and  C7_9 
REMARK    4  A    between atoms: C9_12  and  C10_13 
REMARK    5  A    between atoms: C10_13  and  O2_14 
REMARK    6  A    between atoms: C11_16  and  C12_17 
REMARK    7  A    between atoms: C15_27  and  O3_28 
REMARK    8  A    between atoms: C15_27  and  C16_30 
ROOT
HETATM    1  N1  UNL     1       4.685  19.490  20.528  1.00  0.00    -0.229 N 
HETATM    2  C5  UNL     1       3.720  20.419  20.739  1.00  0.00     0.147 A 
HETATM    3  C6  UNL     1       2.565  20.039  20.092  1.00  0.00     0.049 A 
HETATM    4  N3  UNL     1       2.868  18.866  19.497  1.00  0.00    -0.288 N 
ATOM      5  H3  UNL     1       2.233  18.304  18.930  1.00  0.00     0.188 HD
HETATM    6  N4  UNL     1       4.133  18.566  19.772  1.00  0.00    -0.234 N 
ATOM      7  H4  UNL     1       4.613  17.728  19.441  1.00  0.00     0.209 HD
ENDROOT
BRANCH   1   8
HETATM    8  C4  UNL     1       6.019  19.482  21.004  1.00  0.00     0.168 C 
HETATM    9  O1  UNL     1       7.008  18.920  20.217  1.00  0.00    -0.303 OA
HETATM   10  C3  UNL     1       8.345  18.831  20.665  1.00  0.00     0.271 C 
HETATM   11  O4  UNL     1       8.675  19.778  21.595  1.00  0.00    -0.321 OA
HETATM   12  C15 UNL     1       7.765  19.949  22.612  1.00  0.00     0.195 C 
HETATM   13  C14 UNL     1       6.363  19.989  22.175  1.00  0.00     0.099 C 
BRANCH  10  14
HETATM   14  C2  UNL     1       9.222  19.090  19.431  1.00  0.00     0.057 C 
HETATM   15  C1  UNL     1      10.131  20.288  19.686  1.00  0.00     0.010 C 
ENDBRANCH  10  14
BRANCH  12  16
HETATM   16  O3  UNL     1       7.898  18.933  23.584  1.00  0.00    -0.361 OA
ATOM     17  H3  UNL     1       8.799  18.922  23.883  1.00  0.00     0.213 HD
ENDBRANCH  12  16
BRANCH  12  18
HETATM   18  C16 UNL     1       8.152  21.242  23.329  1.00  0.00     0.009 C 
HETATM   19  C17 UNL     1       7.232  21.535  24.481  1.00  0.00     0.020 C 
HETATM   20  C18 UNL     1       9.574  21.162  23.776  1.00  0.00     0.020 C 
HETATM   21  C19 UNL     1       8.039  22.354  22.281  1.00  0.00     0.020 C 
ENDBRANCH  12  18
ENDBRANCH   1   8
BRANCH   3  22
HETATM   22  C7  UNL     1       1.243  20.760  20.049  1.00  0.00     0.048 C 
HETATM   23  C8  UNL     1       0.845  20.863  18.620  1.00  0.00     0.085 C 
HETATM   24  S1  UNL     1      -0.839  21.595  18.593  1.00  0.00    -0.161 SA
HETATM   25  C9  UNL     1      -0.854  22.801  19.947  1.00  0.00     0.079 C 
HETATM   26  C11 UNL     1       0.544  23.164  20.380  1.00  0.00     0.040 C 
HETATM   27  C13 UNL     1       1.377  22.013  20.800  1.00  0.00     0.022 C 
BRANCH  25  28
HETATM   28  C10 UNL     1      -1.707  22.326  21.102  1.00  0.00     0.179 C 
BRANCH  28  29
HETATM   29  O2  UNL     1      -2.183  21.035  20.879  1.00  0.00    -0.400 OA
ATOM     30  H2  UNL     1      -2.670  20.715  21.628  1.00  0.00     0.209 HD
ENDBRANCH  28  29
ENDBRANCH  25  28
BRANCH  26  31
HETATM   31  C12 UNL     1       1.193  24.027  19.367  1.00  0.00     0.058 C 
HETATM   32  N2  UNL     1       2.456  24.066  19.281  1.00  0.00    -0.411 N 
ATOM     33  H22 UNL     1       3.012  23.497  19.919  1.00  0.00     0.155 HD
ATOM     34  H21 UNL     1       2.903  24.661  18.583  1.00  0.00     0.155 HD
ENDBRANCH  26  31
ENDBRANCH   3  22
TORSDOF 8
ENDMDL
MODEL 4
REMARK VINA RESULT: -7.361807389      6.584      7.606
REMARK  8 active torsions:
REMARK  status: ('A' for Active; 'I' for Inactive)
REMARK    1  A    between atoms: C2_2  and  C3_3 
REMARK    2  A    between atoms: C4_5  and  N1_6 
REMARK    3  A    between atoms: C6_8  and  C7_9 
REMARK    4  A    between atoms: C9_12  and  C10_13 
REMARK    5  A    between atoms: C10_13  and  O2_14 
REMARK    6  A    between atoms: C11_16  and  C12_17 
REMARK    7  A    between atoms: C15_27  and  O3_28 
REMARK    8  A    between atoms: C15_27  and  C16_30 
ROOT
HETATM    1  N1  UNL     1       4.956  21.005  20.454  1.00  0.00    -0.229 N 
HETATM    2  C5  UNL     1       3.740  21.123  21.042  1.00  0.00     0.147 A 
HETATM    3  C6  UNL     1       2.902  21.850  20.225  1.00  0.00     0.049 A 
HETATM    4  N3  UNL     1       3.649  22.156  19.143  1.00  0.00    -0.288 N 
ATOM      5  H3  UNL     1       3.335  22.692  18.334  1.00  0.00     0.188 HD
HETATM    6  N4  UNL     1       4.864  21.642  19.307  1.00  0.00    -0.234 N 
ATOM      7  H4  UNL     1       5.624  21.731  18.633  1.00  0.00     0.209 HD
ENDROOT
BRANCH   1   8
HETATM    8  C4  UNL     1       6.109  20.343  20.942  1.00  0.00     0.168 C 
HETATM    9  O1  UNL     1       6.966  19.736  20.040  1.00  0.00    -0.303 OA
HETATM   10  C3  UNL     1       8.099  19.012  20.473  1.00  0.00     0.271 C 
HETATM   11  O4  UNL     1       8.571  19.410  21.694  1.00  0.00    -0.321 OA
HETATM   12  C15 UNL     1       7.618  19.574  22.671  1.00  0.00     0.195 C 
HETATM   13  C14 UNL     1       6.405  20.277  22.228  1.00  0.00     0.099 C 
BRANCH  10  14
HETATM   14  C2  UNL     1       9.204  19.304  19.448  1.00  0.00     0.057 C 
HETATM   15  C1  UNL     1      10.058  20.473  19.928  1.00  0.00     0.010 C 
ENDBRANCH  10  14
BRANCH  12  16
HETATM   16  O3  UNL     1       7.233  18.328  23.215  1.00  0.00    -0.361 OA
ATOM     17  H3  UNL     1       6.411  18.445  23.676  1.00  0.00     0.213 HD
ENDBRANCH  12  16
BRANCH  12  18
HETATM   18  C16 UNL     1       8.294  20.320  23.819  1.00  0.00     0.009 C 
HETATM   19  C17 UNL     1       9.579  20.966  23.381  1.00  0.00     0.020 C 
HETATM   20  C18 UNL     1       7.349  21.324  24.391  1.00  0.00     0.020 C 
HETATM   21  C19 UNL     1       8.585  19.267  24.893  1.00  0.00     0.020 C 
ENDBRANCH  12  18
ENDBRANCH   1   8
BRANCH   3  22
HETATM   22  C7  UNL     1       1.465  22.227  20.468  1.00  0.00     0.048 C 
HETATM   23  C8  UNL     1       0.899  22.665  19.163  1.00  0.00     0.085 C 
HETATM   24  S1  UNL     1      -0.892  22.964  19.440  1.00  0.00    -0.161 SA
HETATM   25  C9  UNL     1      -1.004  23.667  21.107  1.00  0.00     0.079 C 
HETATM   26  C11 UNL     1       0.329  24.193  21.577  1.00  0.00     0.040 C 
HETATM   27  C13 UNL     1       1.422  23.191  21.573  1.00  0.00     0.022 C 
BRANCH  25  28
HETATM   28  C10 UNL     1      -1.609  22.683  22.083  1.00  0.00     0.179 C 
BRANCH  28  29
HETATM   29  O2  UNL     1      -1.873  21.461  21.467  1.00  0.00    -0.400 OA
ATOM     30  H2  UNL     1      -1.093  21.106  21.060  1.00  0.00     0.209 HD
ENDBRANCH  28  29
ENDBRANCH  25  28
BRANCH  26  31
HETATM   31  C12 UNL     1       0.672  25.446  20.867  1.00  0.00     0.058 C 
HETATM   32  N2  UNL     1       1.841  25.924  20.951  1.00  0.00    -0.411 N 
ATOM     33  H22 UNL     1       2.536  25.434  21.514  1.00  0.00     0.155 HD
ATOM     34  H21 UNL     1       2.077  26.787  20.461  1.00  0.00     0.155 HD
ENDBRANCH  26  31
ENDBRANCH   3  22
TORSDOF 8
ENDMDL
MODEL 5
REMARK VINA RESULT: -7.278983192      1.213      1.354
REMARK  8 active torsions:
REMARK  status: ('A' for Active; 'I' for Inactive)
REMARK    1  A    between atoms: C2_2  and  C3_3 
REMARK    2  A    between atoms: C4_5  and  N1_6 
REMARK    3  A    between atoms: C6_8  and  C7_9 
REMARK    4  A    between atoms: C9_12  and  C10_13 
REMARK    5  A    between atoms: C10_13  and  O2_14 
REMARK    6  A    between atoms: C11_16  and  C12_17 
REMARK    7  A    between atoms: C15_27  and  O3_28 
REMARK    8  A    between atoms: C15_27  and  C16_30 
ROOT
HETATM    1  N1  UNL     1       6.731  24.504  25.194  1.00  0.00    -0.229 N 
HETATM    2  C5  UNL     1       5.728  25.281  25.672  1.00  0.00     0.147 A 
HETATM    3  C6  UNL     1       6.166  25.961  26.788  1.00  0.00     0.049 A 
HETATM    4  N3  UNL     1       7.447  25.570  26.955  1.00  0.00    -0.288 N 
ATOM      5  H3  UNL     1       8.075  25.886  27.694  1.00  0.00     0.188 HD
HETATM    6  N4  UNL     1       7.754  24.705  25.994  1.00  0.00    -0.234 N 
ATOM      7  H4  UNL     1       8.664  24.255  25.891  1.00  0.00     0.209 HD
ENDROOT
BRANCH   1   8
HETATM    8  C4  UNL     1       6.716  23.643  24.069  1.00  0.00     0.168 C 
HETATM    9  O1  UNL     1       5.940  23.981  22.975  1.00  0.00    -0.303 OA
HETATM   10  C3  UNL     1       5.841  23.131  21.851  1.00  0.00     0.271 C 
HETATM   11  O4  UNL     1       6.923  22.312  21.686  1.00  0.00    -0.321 OA
HETATM   12  C15 UNL     1       7.357  21.670  22.822  1.00  0.00     0.195 C 
HETATM   13  C14 UNL     1       7.415  22.522  24.018  1.00  0.00     0.099 C 
BRANCH  10  14
HETATM   14  C2  UNL     1       5.788  24.056  20.626  1.00  0.00     0.057 C 
HETATM   15  C1  UNL     1       6.321  23.321  19.401  1.00  0.00     0.010 C 
ENDBRANCH  10  14
BRANCH  12  16
HETATM   16  O3  UNL     1       6.542  20.553  23.113  1.00  0.00    -0.361 OA
ATOM     17  H3  UNL     1       7.075  19.770  23.043  1.00  0.00     0.213 HD
ENDBRANCH  12  16
BRANCH  12  18
HETATM   18  C16 UNL     1       8.732  21.089  22.497  1.00  0.00     0.009 C 
HETATM   19  C17 UNL     1       8.624  19.806  21.722  1.00  0.00     0.020 C 
HETATM   20  C18 UNL     1       9.543  22.103  21.760  1.00  0.00     0.020 C 
HETATM   21  C19 UNL     1       9.406  20.823  23.846  1.00  0.00     0.020 C 
ENDBRANCH  12  18
ENDBRANCH   1   8
BRANCH   3  22
HETATM   22  C7  UNL     1       5.398  26.934  27.644  1.00  0.00     0.048 C 
HETATM   23  C8  UNL     1       5.299  26.338  29.004  1.00  0.00     0.085 C 
HETATM   24  S1  UNL     1       4.507  27.602  30.076  1.00  0.00    -0.161 SA
HETATM   25  C9  UNL     1       3.283  28.422  29.019  1.00  0.00     0.079 C 
HETATM   26  C11 UNL     1       2.965  27.596  27.798  1.00  0.00     0.040 C 
HETATM   27  C13 UNL     1       4.141  27.256  26.961  1.00  0.00     0.022 C 
BRANCH  25  28
HETATM   28  C10 UNL     1       3.712  29.828  28.664  1.00  0.00     0.179 C 
BRANCH  28  29
HETATM   29  O2  UNL     1       2.636  30.712  28.719  1.00  0.00    -0.400 OA
ATOM     30  H2  UNL     1       2.886  31.533  29.125  1.00  0.00     0.209 HD
ENDBRANCH  28  29
ENDBRANCH  25  28
BRANCH  26  31
HETATM   31  C12 UNL     1       2.141  26.423  28.165  1.00  0.00     0.058 C 
HETATM   32  N2  UNL     1       0.923  26.370  27.824  1.00  0.00    -0.411 N 
ATOM     33  H22 UNL     1       0.524  27.146  27.296  1.00  0.00     0.155 HD
ATOM     34  H21 UNL     1       0.355  25.561  28.077  1.00  0.00     0.155 HD
ENDBRANCH  26  31
ENDBRANCH   3  22
TORSDOF 8
ENDMDL
