MODEL 1
REMARK VINA RESULT: -8.770157060      0.000      0.000
REMARK  6 active torsions:
REMARK  status: ('A' for Active; 'I' for Inactive)
REMARK    1  A    between atoms: C5_7  and  C6_8 
REMARK    2  A    between atoms: C6_8  and  N2_9 
REMARK    3  A    between atoms: C7_15  and  C8_16 
REMARK    4  A    between atoms: C10_18  and  C11_19 
REMARK    5  A    between atoms: C11_19  and  C12_23 
REMARK    6  A    between atoms: C14_25  and  C15_26 
ROOT
HETATM    1  N1  UNL     1       1.256  26.405  25.831  1.00  0.00    -0.197 NA
HETATM    2  C1  UNL     1       1.559  25.770  24.905  1.00  0.00     0.068 C 
HETATM    3  C2  UNL     1       1.920  24.962  23.723  1.00  0.00     0.145 C 
HETATM    4  C3  UNL     1       0.647  24.751  22.930  1.00  0.00     0.189 C 
HETATM    5  O1  UNL     1       0.711  25.450  21.723  1.00  0.00    -0.388 OA
HETATM    6  C4  UNL     1       1.224  24.592  20.766  1.00  0.00     0.194 C 
HETATM    7  C5  UNL     1       2.540  24.058  21.264  1.00  0.00     0.126 C 
HETATM    8  N3  UNL     1       3.417  25.060  21.780  1.00  0.00    -0.402 N 
ATOM      9  H3  UNL     1       4.320  25.271  21.356  1.00  0.00     0.154 HD
HETATM   10  C7  UNL     1       2.932  25.746  22.936  1.00  0.00     0.156 C 
ENDROOT
BRANCH  10  11
HETATM   11  C8  UNL     1       4.090  26.038  23.820  1.00  0.00     0.102 A 
HETATM   12  C9  UNL     1       4.928  25.129  24.446  1.00  0.00     0.071 A 
HETATM   13  C10 UNL     1       5.867  25.839  25.169  1.00  0.00     0.086 A 
HETATM   14  N6  UNL     1       5.558  27.134  24.950  1.00  0.00    -0.259 N 
HETATM   15  O3  UNL     1       4.535  27.216  24.174  1.00  0.00    -0.240 OA
ATOM     16  H6  UNL     1       6.061  27.930  25.342  1.00  0.00     0.195 HD
BRANCH  13  17
HETATM   17  C11 UNL     1       6.945  25.351  25.983  1.00  0.00     0.083 C 
HETATM   18  N4  UNL     1       7.048  25.739  27.208  1.00  0.00    -0.395 N 
ATOM     19  H42 UNL     1       6.361  26.391  27.587  1.00  0.00     0.156 HD
ATOM     20  H41 UNL     1       7.813  25.393  27.786  1.00  0.00     0.156 HD
BRANCH  17  21
HETATM   21  C12 UNL     1       7.926  24.419  25.442  1.00  0.00     0.085 A 
HETATM   22  C13 UNL     1       7.724  23.532  24.378  1.00  0.00     0.069 A 
HETATM   23  C14 UNL     1       8.901  22.842  24.199  1.00  0.00     0.083 A 
HETATM   24  O2  UNL     1       9.730  23.296  25.095  1.00  0.00    -0.241 OA
HETATM   25  N5  UNL     1       9.194  24.209  25.830  1.00  0.00    -0.259 N 
ATOM     26  H5  UNL     1       9.663  24.698  26.592  1.00  0.00     0.195 HD
BRANCH  23  27
HETATM   27  C15 UNL     1       9.141  21.798  23.177  1.00  0.00     0.045 C 
HETATM   28  C16 UNL     1       7.900  21.738  22.305  1.00  0.00     0.011 C 
HETATM   29  C17 UNL     1       8.001  20.506  21.431  1.00  0.00     0.001 C 
HETATM   30  C18 UNL     1       9.426  20.038  21.281  1.00  0.00     0.000 C 
HETATM   31  C19 UNL     1      10.401  21.180  21.174  1.00  0.00     0.001 C 
HETATM   32  C20 UNL     1      10.294  22.171  22.283  1.00  0.00     0.011 C 
ENDBRANCH  23  27
ENDBRANCH  17  21
ENDBRANCH  13  17
ENDBRANCH  10  11
BRANCH   7  33
HETATM   33  C6  UNL     1       3.239  23.433  20.051  1.00  0.00     0.256 C 
BRANCH  33  34
HETATM   34  N2  UNL     1       4.450  24.146  19.730  1.00  0.00    -0.077 N 
ATOM     35  H23 UNL     1       4.712  24.795  20.472  1.00  0.00     0.274 HD
ATOM     36  H22 UNL     1       5.267  23.535  19.762  1.00  0.00     0.274 HD
ATOM     37  H21 UNL     1       4.367  24.618  18.829  1.00  0.00     0.274 HD
ENDBRANCH  33  34
ENDBRANCH   7  33
TORSDOF 6
ENDMDL
MODEL 2
REMARK VINA RESULT: -8.632709335      0.839      1.215
REMARK  6 active torsions:
REMARK  status: ('A' for Active; 'I' for Inactive)
REMARK    1  A    between atoms: C5_7  and  C6_8 
REMARK    2  A    between atoms: C6_8  and  N2_9 
REMARK    3  A    between atoms: C7_15  and  C8_16 
REMARK    4  A    between atoms: C10_18  and  C11_19 
REMARK    5  A    between atoms: C11_19  and  C12_23 
REMARK    6  A    between atoms: C14_25  and  C15_26 
ROOT
HETATM    1  N1  UNL     1       1.175  26.386  25.941  1.00  0.00    -0.197 NA
HETATM    2  C1  UNL     1       1.409  25.781  24.976  1.00  0.00     0.068 C 
HETATM    3  C2  UNL     1       1.683  25.013  23.745  1.00  0.00     0.145 C 
HETATM    4  C3  UNL     1       0.366  24.879  23.009  1.00  0.00     0.189 C 
HETATM    5  O1  UNL     1       0.397  25.626  21.830  1.00  0.00    -0.388 OA
HETATM    6  C4  UNL     1       0.832  24.793  20.814  1.00  0.00     0.194 C 
HETATM    7  C5  UNL     1       2.151  24.195  21.223  1.00  0.00     0.126 C 
HETATM    8  N3  UNL     1       3.087  25.144  21.735  1.00  0.00    -0.402 N 
ATOM      9  H3  UNL     1       3.976  25.342  21.276  1.00  0.00     0.154 HD
HETATM   10  C7  UNL     1       2.683  25.795  22.942  1.00  0.00     0.156 C 
ENDROOT
BRANCH  10  11
HETATM   11  C8  UNL     1       3.893  26.010  23.778  1.00  0.00     0.102 A 
HETATM   12  C9  UNL     1       4.791  25.056  24.229  1.00  0.00     0.071 A 
HETATM   13  C10 UNL     1       5.762  25.700  24.972  1.00  0.00     0.086 A 
HETATM   14  N6  UNL     1       5.411  27.002  24.938  1.00  0.00    -0.259 N 
HETATM   15  O3  UNL     1       4.335  27.149  24.246  1.00  0.00    -0.240 OA
ATOM     16  H6  UNL     1       5.922  27.758  25.393  1.00  0.00     0.195 HD
BRANCH  13  17
HETATM   17  C11 UNL     1       6.903  25.148  25.647  1.00  0.00     0.083 C 
HETATM   18  N4  UNL     1       7.267  25.627  26.787  1.00  0.00    -0.395 N 
ATOM     19  H42 UNL     1       6.739  26.397  27.197  1.00  0.00     0.156 HD
ATOM     20  H41 UNL     1       8.077  25.235  27.266  1.00  0.00     0.156 HD
BRANCH  17  21
HETATM   21  C12 UNL     1       7.656  24.047  25.060  1.00  0.00     0.085 A 
HETATM   22  C13 UNL     1       7.171  23.112  24.138  1.00  0.00     0.069 A 
HETATM   23  C14 UNL     1       8.207  22.253  23.850  1.00  0.00     0.083 A 
HETATM   24  O2  UNL     1       9.224  22.659  24.555  1.00  0.00    -0.241 OA
HETATM   25  N5  UNL     1       8.935  23.695  25.265  1.00  0.00    -0.259 N 
ATOM     26  H5  UNL     1       9.582  24.175  25.891  1.00  0.00     0.195 HD
BRANCH  23  27
HETATM   27  C15 UNL     1       8.140  21.105  22.917  1.00  0.00     0.045 C 
HETATM   28  C16 UNL     1       9.513  20.966  22.285  1.00  0.00     0.011 C 
HETATM   29  C17 UNL     1       9.402  19.987  21.137  1.00  0.00     0.001 C 
HETATM   30  C18 UNL     1       8.206  19.081  21.282  1.00  0.00     0.000 C 
HETATM   31  C19 UNL     1       7.959  18.675  22.710  1.00  0.00     0.001 C 
HETATM   32  C20 UNL     1       7.859  19.823  23.657  1.00  0.00     0.011 C 
ENDBRANCH  23  27
ENDBRANCH  17  21
ENDBRANCH  13  17
ENDBRANCH  10  11
BRANCH   7  33
HETATM   33  C6  UNL     1       2.768  23.599  19.952  1.00  0.00     0.256 C 
BRANCH  33  34
HETATM   34  N2  UNL     1       4.113  24.081  19.757  1.00  0.00    -0.077 N 
ATOM     35  H23 UNL     1       4.217  24.551  18.857  1.00  0.00     0.274 HD
ATOM     36  H22 UNL     1       4.322  24.870  20.369  1.00  0.00     0.274 HD
ATOM     37  H21 UNL     1       4.789  23.327  19.868  1.00  0.00     0.274 HD
ENDBRANCH  33  34
ENDBRANCH   7  33
TORSDOF 6
ENDMDL
MODEL 3
REMARK VINA RESULT: -8.485859941      1.685      2.274
REMARK  6 active torsions:
REMARK  status: ('A' for Active; 'I' for Inactive)
REMARK    1  A    between atoms: C5_7  and  C6_8 
REMARK    2  A    between atoms: C6_8  and  N2_9 
REMARK    3  A    between atoms: C7_15  and  C8_16 
REMARK    4  A    between atoms: C10_18  and  C11_19 
REMARK    5  A    between atoms: C11_19  and  C12_23 
REMARK    6  A    between atoms: C14_25  and  C15_26 
ROOT
HETATM    1  N1  UNL     1       2.654  27.207  27.948  1.00  0.00    -0.197 NA
HETATM    2  C1  UNL     1       2.341  26.649  26.977  1.00  0.00     0.068 C 
HETATM    3  C2  UNL     1       1.920  25.944  25.750  1.00  0.00     0.145 C 
HETATM    4  C3  UNL     1       0.419  26.114  25.639  1.00  0.00     0.189 C 
HETATM    5  O1  UNL     1       0.108  26.935  24.553  1.00  0.00    -0.388 OA
HETATM    6  C4  UNL     1      -0.094  26.120  23.453  1.00  0.00     0.194 C 
HETATM    7  C5  UNL     1       1.126  25.258  23.270  1.00  0.00     0.126 C 
HETATM    8  N3  UNL     1       2.360  25.974  23.335  1.00  0.00    -0.402 N 
ATOM      9  H3  UNL     1       2.998  26.041  22.542  1.00  0.00     0.154 HD
HETATM   10  C7  UNL     1       2.632  26.590  24.595  1.00  0.00     0.156 C 
ENDROOT
BRANCH  10  11
HETATM   11  C8  UNL     1       4.096  26.511  24.842  1.00  0.00     0.102 A 
HETATM   12  C9  UNL     1       4.873  25.371  24.969  1.00  0.00     0.071 A 
HETATM   13  C10 UNL     1       6.178  25.764  25.191  1.00  0.00     0.086 A 
HETATM   14  N6  UNL     1       6.133  27.113  25.189  1.00  0.00    -0.259 N 
HETATM   15  O3  UNL     1       4.926  27.512  24.987  1.00  0.00    -0.240 OA
ATOM     16  H6  UNL     1       6.937  27.726  25.327  1.00  0.00     0.195 HD
BRANCH  13  17
HETATM   17  C11 UNL     1       7.349  24.957  25.387  1.00  0.00     0.083 C 
HETATM   18  N4  UNL     1       8.345  25.424  26.058  1.00  0.00    -0.395 N 
ATOM     19  H42 UNL     1       8.291  26.367  26.443  1.00  0.00     0.156 HD
ATOM     20  H41 UNL     1       9.177  24.851  26.197  1.00  0.00     0.156 HD
BRANCH  17  21
HETATM   21  C12 UNL     1       7.426  23.609  24.837  1.00  0.00     0.085 A 
HETATM   22  C13 UNL     1       7.810  23.268  23.535  1.00  0.00     0.069 A 
HETATM   23  C14 UNL     1       7.741  21.897  23.439  1.00  0.00     0.083 A 
HETATM   24  O2  UNL     1       7.345  21.469  24.604  1.00  0.00    -0.241 OA
HETATM   25  N5  UNL     1       7.154  22.438  25.434  1.00  0.00    -0.259 N 
ATOM     26  H5  UNL     1       6.842  22.329  26.398  1.00  0.00     0.195 HD
BRANCH  23  27
HETATM   27  C15 UNL     1       8.062  21.101  22.233  1.00  0.00     0.045 C 
HETATM   28  C16 UNL     1       9.565  21.181  22.035  1.00  0.00     0.011 C 
HETATM   29  C17 UNL     1       9.888  20.611  20.671  1.00  0.00     0.001 C 
HETATM   30  C18 UNL     1       8.801  19.695  20.171  1.00  0.00     0.000 C 
HETATM   31  C19 UNL     1       8.202  18.857  21.269  1.00  0.00     0.001 C 
HETATM   32  C20 UNL     1       7.717  19.649  22.437  1.00  0.00     0.011 C 
ENDBRANCH  23  27
ENDBRANCH  17  21
ENDBRANCH  13  17
ENDBRANCH  10  11
BRANCH   7  33
HETATM   33  C6  UNL     1       1.028  24.662  21.861  1.00  0.00     0.256 C 
BRANCH  33  34
HETATM   34  N2  UNL     1       1.410  25.631  20.864  1.00  0.00    -0.077 N 
ATOM     35  H23 UNL     1       2.018  25.221  20.155  1.00  0.00     0.274 HD
ATOM     36  H22 UNL     1       0.624  25.887  20.266  1.00  0.00     0.274 HD
ATOM     37  H21 UNL     1       1.836  26.451  21.297  1.00  0.00     0.274 HD
ENDBRANCH  33  34
ENDBRANCH   7  33
TORSDOF 6
ENDMDL
MODEL 4
REMARK VINA RESULT: -8.465295115      1.292      3.004
REMARK  6 active torsions:
REMARK  status: ('A' for Active; 'I' for Inactive)
REMARK    1  A    between atoms: C5_7  and  C6_8 
REMARK    2  A    between atoms: C6_8  and  N2_9 
REMARK    3  A    between atoms: C7_15  and  C8_16 
REMARK    4  A    between atoms: C10_18  and  C11_19 
REMARK    5  A    between atoms: C11_19  and  C12_23 
REMARK    6  A    between atoms: C14_25  and  C15_26 
ROOT
HETATM    1  N1  UNL     1       5.182  24.145  21.019  1.00  0.00    -0.197 NA
HETATM    2  C1  UNL     1       4.373  24.640  21.691  1.00  0.00     0.068 C 
HETATM    3  C2  UNL     1       3.328  25.261  22.530  1.00  0.00     0.145 C 
HETATM    4  C3  UNL     1       1.994  24.888  21.916  1.00  0.00     0.189 C 
HETATM    5  O1  UNL     1       1.305  24.016  22.760  1.00  0.00    -0.388 OA
HETATM    6  C4  UNL     1       0.497  24.778  23.586  1.00  0.00     0.194 C 
HETATM    7  C5  UNL     1       1.359  25.793  24.287  1.00  0.00     0.126 C 
HETATM    8  N3  UNL     1       2.551  25.251  24.858  1.00  0.00    -0.402 N 
ATOM      9  H3  UNL     1       2.731  25.257  25.862  1.00  0.00     0.154 HD
HETATM   10  C7  UNL     1       3.471  24.698  23.915  1.00  0.00     0.156 C 
ENDROOT
BRANCH  10  11
HETATM   11  C8  UNL     1       4.849  24.978  24.396  1.00  0.00     0.102 A 
HETATM   12  C9  UNL     1       5.839  24.060  24.709  1.00  0.00     0.071 A 
HETATM   13  C10 UNL     1       6.959  24.760  25.114  1.00  0.00     0.086 A 
HETATM   14  N6  UNL     1       6.600  26.058  25.028  1.00  0.00    -0.259 N 
HETATM   15  O3  UNL     1       5.385  26.151  24.614  1.00  0.00    -0.240 OA
ATOM     16  H6  UNL     1       7.203  26.848  25.258  1.00  0.00     0.195 HD
BRANCH  13  17
HETATM   17  C11 UNL     1       8.237  24.261  25.539  1.00  0.00     0.083 C 
HETATM   18  N4  UNL     1       8.725  24.634  26.672  1.00  0.00    -0.395 N 
ATOM     19  H42 UNL     1       8.197  25.283  27.256  1.00  0.00     0.156 HD
ATOM     20  H41 UNL     1       9.633  24.280  26.974  1.00  0.00     0.156 HD
BRANCH  17  21
HETATM   21  C12 UNL     1       8.990  23.334  24.705  1.00  0.00     0.085 A 
HETATM   22  C13 UNL     1       8.484  22.584  23.637  1.00  0.00     0.069 A 
HETATM   23  C14 UNL     1       9.529  21.845  23.131  1.00  0.00     0.083 A 
HETATM   24  O2  UNL     1      10.571  22.144  23.853  1.00  0.00    -0.241 OA
HETATM   25  N5  UNL     1      10.290  23.003  24.772  1.00  0.00    -0.259 N 
ATOM     26  H5  UNL     1      10.955  23.375  25.449  1.00  0.00     0.195 HD
BRANCH  23  27
HETATM   27  C15 UNL     1       9.447  20.906  21.989  1.00  0.00     0.045 C 
HETATM   28  C16 UNL     1       8.066  21.069  21.379  1.00  0.00     0.011 C 
HETATM   29  C17 UNL     1       7.855  19.941  20.392  1.00  0.00     0.001 C 
HETATM   30  C18 UNL     1       9.160  19.355  19.919  1.00  0.00     0.000 C 
HETATM   31  C19 UNL     1      10.226  20.400  19.727  1.00  0.00     0.001 C 
HETATM   32  C20 UNL     1      10.449  21.263  20.923  1.00  0.00     0.011 C 
ENDBRANCH  23  27
ENDBRANCH  17  21
ENDBRANCH  13  17
ENDBRANCH  10  11
BRANCH   7  33
HETATM   33  C6  UNL     1       0.519  26.347  25.445  1.00  0.00     0.256 C 
BRANCH  33  34
HETATM   34  N2  UNL     1       1.204  26.180  26.703  1.00  0.00    -0.077 N 
ATOM     35  H23 UNL     1       1.308  25.196  26.947  1.00  0.00     0.274 HD
ATOM     36  H22 UNL     1       2.191  26.428  26.630  1.00  0.00     0.274 HD
ATOM     37  H21 UNL     1       0.738  26.705  27.443  1.00  0.00     0.274 HD
ENDBRANCH  33  34
ENDBRANCH   7  33
TORSDOF 6
ENDMDL
MODEL 5
REMARK VINA RESULT: -8.385552494      1.729      2.352
REMARK  6 active torsions:
REMARK  status: ('A' for Active; 'I' for Inactive)
REMARK    1  A    between atoms: C5_7  and  C6_8 
REMARK    2  A    between atoms: C6_8  and  N2_9 
REMARK    3  A    between atoms: C7_15  and  C8_16 
REMARK    4  A    between atoms: C10_18  and  C11_19 
REMARK    5  A    between atoms: C11_19  and  C12_23 
REMARK    6  A    between atoms: C14_25  and  C15_26 
ROOT
HETATM    1  N1  UNL     1       3.759  28.096  27.575  1.00  0.00    -0.197 NA
HETATM    2  C1  UNL     1       3.386  27.208  26.924  1.00  0.00     0.068 C 
HETATM    3  C2  UNL     1       2.889  26.087  26.100  1.00  0.00     0.145 C 
HETATM    4  C3  UNL     1       1.395  26.283  25.948  1.00  0.00     0.189 C 
HETATM    5  O1  UNL     1       1.086  26.603  24.624  1.00  0.00    -0.388 OA
HETATM    6  C4  UNL     1       0.806  25.421  23.960  1.00  0.00     0.194 C 
HETATM    7  C5  UNL     1       1.977  24.491  24.133  1.00  0.00     0.126 C 
HETATM    8  N3  UNL     1       3.245  25.098  23.882  1.00  0.00    -0.402 N 
ATOM      9  H3  UNL     1       3.857  24.796  23.124  1.00  0.00     0.154 HD
HETATM   10  C7  UNL     1       3.590  26.160  24.774  1.00  0.00     0.156 C 
ENDROOT
BRANCH  10  11
HETATM   11  C8  UNL     1       5.056  26.104  25.013  1.00  0.00     0.102 A 
HETATM   12  C9  UNL     1       5.814  25.001  25.373  1.00  0.00     0.071 A 
HETATM   13  C10 UNL     1       7.130  25.405  25.489  1.00  0.00     0.086 A 
HETATM   14  N6  UNL     1       7.110  26.722  25.196  1.00  0.00    -0.259 N 
HETATM   15  O3  UNL     1       5.907  27.094  24.928  1.00  0.00    -0.240 OA
ATOM     16  H6  UNL     1       7.927  27.333  25.189  1.00  0.00     0.195 HD
BRANCH  13  17
HETATM   17  C11 UNL     1       8.289  24.633  25.839  1.00  0.00     0.083 C 
HETATM   18  N4  UNL     1       8.832  24.783  26.999  1.00  0.00    -0.395 N 
ATOM     19  H42 UNL     1       8.431  25.451  27.657  1.00  0.00     0.156 HD
ATOM     20  H41 UNL     1       9.655  24.235  27.247  1.00  0.00     0.156 HD
BRANCH  17  21
HETATM   21  C12 UNL     1       8.861  23.678  24.899  1.00  0.00     0.085 A 
HETATM   22  C13 UNL     1       8.153  22.913  23.965  1.00  0.00     0.069 A 
HETATM   23  C14 UNL     1       9.075  22.148  23.287  1.00  0.00     0.083 A 
HETATM   24  O2  UNL     1      10.238  22.447  23.791  1.00  0.00    -0.241 OA
HETATM   25  N5  UNL     1      10.146  23.330  24.726  1.00  0.00    -0.259 N 
ATOM     26  H5  UNL     1      10.932  23.706  25.256  1.00  0.00     0.195 HD
BRANCH  23  27
HETATM   27  C15 UNL     1       8.767  21.187  22.204  1.00  0.00     0.045 C 
HETATM   28  C16 UNL     1      10.045  20.989  21.409  1.00  0.00     0.011 C 
HETATM   29  C17 UNL     1       9.698  20.233  20.145  1.00  0.00     0.001 C 
HETATM   30  C18 UNL     1       8.407  19.468  20.283  1.00  0.00     0.000 C 
HETATM   31  C19 UNL     1       8.238  18.864  21.652  1.00  0.00     0.001 C 
HETATM   32  C20 UNL     1       8.382  19.844  22.767  1.00  0.00     0.011 C 
ENDBRANCH  23  27
ENDBRANCH  17  21
ENDBRANCH  13  17
ENDBRANCH  10  11
BRANCH   7  33
HETATM   33  C6  UNL     1       1.800  23.376  23.096  1.00  0.00     0.256 C 
BRANCH  33  34
HETATM   34  N2  UNL     1       2.818  23.454  22.077  1.00  0.00    -0.077 N 
ATOM     35  H23 UNL     1       2.964  24.414  21.765  1.00  0.00     0.274 HD
ATOM     36  H22 UNL     1       3.747  23.272  22.458  1.00  0.00     0.274 HD
ATOM     37  H21 UNL     1       2.602  22.833  21.298  1.00  0.00     0.274 HD
ENDBRANCH  33  34
ENDBRANCH   7  33
TORSDOF 6
ENDMDL
