MODEL 1
REMARK VINA RESULT: -7.970129584      0.000      0.000
REMARK  7 active torsions:
REMARK  status: ('A' for Active; 'I' for Inactive)
REMARK    1  A    between atoms: N1_3  and  N2_5 
REMARK    2  A    between atoms: C3_6  and  C4_7 
REMARK    3  A    between atoms: C7_10  and  O1_11 
REMARK    4  A    between atoms: N3_13  and  C8_14 
REMARK    5  A    between atoms: C8_14  and  C9_15 
REMARK    6  A    between atoms: C9_15  and  C10_16 
REMARK    7  A    between atoms: N4_20  and  O3_21 
ROOT
HETATM    1  C4  UNL     1       5.817  23.331  24.231  1.00  0.00     0.088 A 
HETATM    2  C5  UNL     1       7.103  22.821  24.202  1.00  0.00    -0.005 A 
HETATM    3  C6  UNL     1       8.138  23.531  24.736  1.00  0.00     0.115 A 
HETATM    4  C7  UNL     1       7.850  24.766  25.300  1.00  0.00     0.175 A 
HETATM    5  N3  UNL     1       6.615  25.285  25.342  1.00  0.00    -0.292 N 
HETATM    6  C12 UNL     1       5.618  24.554  24.805  1.00  0.00     0.264 A 
HETATM    7  O2  UNL     1       4.440  24.993  24.817  1.00  0.00    -0.267 OA
HETATM    8  N4  UNL     1       9.437  23.001  24.698  1.00  0.00    -0.256 N 
HETATM    9  C13 UNL     1       9.822  22.061  23.702  1.00  0.00     0.165 C 
HETATM   10  C14 UNL     1       8.706  21.518  22.885  1.00  0.00    -0.025 C 
HETATM   11  C15 UNL     1       9.040  20.083  22.490  1.00  0.00     0.017 C 
HETATM   12  C16 UNL     1       8.556  22.304  21.598  1.00  0.00     0.017 C 
HETATM   13  C17 UNL     1       7.382  21.496  23.596  1.00  0.00     0.052 C 
ENDROOT
BRANCH   1  14
HETATM   14  C3  UNL     1       4.749  22.529  23.646  1.00  0.00     0.161 A 
HETATM   15  N2  UNL     1       4.309  22.714  22.391  1.00  0.00    -0.211 N 
HETATM   16  C18 UNL     1       3.328  21.828  22.152  1.00  0.00     0.214 A 
HETATM   17  N6  UNL     1       3.192  21.114  23.282  1.00  0.00    -0.273 N 
HETATM   18  S1  UNL     1       2.462  21.641  20.768  1.00  0.00    -0.037 SA
HETATM   19  N5  UNL     1       4.046  21.528  24.193  1.00  0.00    -0.281 N 
ATOM     20  H6  UNL     1       2.521  20.357  23.415  1.00  0.00     0.189 HD
ATOM     21  H5  UNL     1       4.152  21.158  25.138  1.00  0.00     0.188 HD
BRANCH  15  22
HETATM   22  N1  UNL     1       4.769  23.667  21.447  1.00  0.00    -0.305 N 
HETATM   23  C2  UNL     1       5.589  23.336  20.512  1.00  0.00     0.076 C 
HETATM   24  C1  UNL     1       6.107  24.266  19.503  1.00  0.00     0.056 C 
ATOM     25  H1  UNL     1       4.444  24.632  21.511  1.00  0.00     0.186 HD
ENDBRANCH  15  22
ENDBRANCH   1  14
BRANCH   5  26
HETATM   26  C8  UNL     1       6.321  26.577  25.933  1.00  0.00     0.134 C 
BRANCH  26  27
HETATM   27  C9  UNL     1       6.192  26.431  27.442  1.00  0.00     0.020 C 
BRANCH  27  28
HETATM   28  C10 UNL     1       4.764  26.839  27.784  1.00  0.00    -0.003 C 
HETATM   29  C11 UNL     1       4.494  26.435  29.203  1.00  0.00     0.005 C 
ENDBRANCH  27  28
ENDBRANCH  26  27
ENDBRANCH   5  26
BRANCH   4  30
HETATM   30  O1  UNL     1       8.914  25.481  25.843  1.00  0.00    -0.344 OA
ATOM     31  H1  UNL     1       9.085  26.345  25.485  1.00  0.00     0.219 HD
ENDBRANCH   4  30
BRANCH   8  32
HETATM   32  O3  UNL     1      10.329  23.400  25.626  1.00  0.00    -0.287 OA
ATOM     33  H3  UNL     1      10.914  24.119  25.420  1.00  0.00     0.244 HD
ENDBRANCH   8  32
TORSDOF 7
ENDMDL
MODEL 2
REMARK VINA RESULT: -7.922960957      1.099      1.196
REMARK  7 active torsions:
REMARK  status: ('A' for Active; 'I' for Inactive)
REMARK    1  A    between atoms: N1_3  and  N2_5 
REMARK    2  A    between atoms: C3_6  and  C4_7 
REMARK    3  A    between atoms: C7_10  and  O1_11 
REMARK    4  A    between atoms: N3_13  and  C8_14 
REMARK    5  A    between atoms: C8_14  and  C9_15 
REMARK    6  A    between atoms: C9_15  and  C10_16 
REMARK    7  A    between atoms: N4_20  and  O3_21 
ROOT
HETATM    1  C4  UNL     1       5.231  23.442  24.021  1.00  0.00     0.088 A 
HETATM    2  C5  UNL     1       6.542  23.153  24.357  1.00  0.00    -0.005 A 
HETATM    3  C6  UNL     1       7.361  24.130  24.843  1.00  0.00     0.115 A 
HETATM    4  C7  UNL     1       6.831  25.405  24.983  1.00  0.00     0.175 A 
HETATM    5  N3  UNL     1       5.566  25.714  24.666  1.00  0.00    -0.292 N 
HETATM    6  C12 UNL     1       4.787  24.723  24.190  1.00  0.00     0.264 A 
HETATM    7  O2  UNL     1       3.593  24.957  23.876  1.00  0.00    -0.267 OA
HETATM    8  N4  UNL     1       8.688  23.821  25.178  1.00  0.00    -0.256 N 
HETATM    9  C13 UNL     1       9.371  22.734  24.563  1.00  0.00     0.165 C 
HETATM   10  C14 UNL     1       8.515  21.833  23.750  1.00  0.00    -0.025 C 
HETATM   11  C15 UNL     1       9.075  20.417  23.833  1.00  0.00     0.017 C 
HETATM   12  C16 UNL     1       8.553  22.235  22.289  1.00  0.00     0.017 C 
HETATM   13  C17 UNL     1       7.081  21.780  24.200  1.00  0.00     0.052 C 
ENDROOT
BRANCH   1  14
HETATM   14  C3  UNL     1       4.401  22.360  23.507  1.00  0.00     0.161 A 
HETATM   15  N2  UNL     1       4.468  21.938  22.234  1.00  0.00    -0.211 N 
HETATM   16  C18 UNL     1       3.585  20.938  22.073  1.00  0.00     0.214 A 
HETATM   17  N6  UNL     1       2.993  20.772  23.268  1.00  0.00    -0.273 N 
HETATM   18  S1  UNL     1       3.278  20.082  20.704  1.00  0.00    -0.037 SA
HETATM   19  N5  UNL     1       3.478  21.627  24.144  1.00  0.00    -0.281 N 
ATOM     20  H6  UNL     1       2.270  20.081  23.468  1.00  0.00     0.189 HD
ATOM     21  H5  UNL     1       3.203  21.714  25.123  1.00  0.00     0.188 HD
BRANCH  15  22
HETATM   22  N1  UNL     1       5.308  22.432  21.205  1.00  0.00    -0.305 N 
HETATM   23  C2  UNL     1       5.061  23.553  20.623  1.00  0.00     0.076 C 
HETATM   24  C1  UNL     1       5.884  24.125  19.552  1.00  0.00     0.056 C 
ATOM     25  H1  UNL     1       6.123  21.889  20.921  1.00  0.00     0.186 HD
ENDBRANCH  15  22
ENDBRANCH   1  14
BRANCH   5  26
HETATM   26  C8  UNL     1       5.019  27.050  24.815  1.00  0.00     0.134 C 
BRANCH  26  27
HETATM   27  C9  UNL     1       4.103  27.094  26.029  1.00  0.00     0.020 C 
BRANCH  27  28
HETATM   28  C10 UNL     1       4.920  27.723  27.151  1.00  0.00    -0.003 C 
HETATM   29  C11 UNL     1       5.235  26.652  28.153  1.00  0.00     0.005 C 
ENDBRANCH  27  28
ENDBRANCH  26  27
ENDBRANCH   5  26
BRANCH   4  30
HETATM   30  O1  UNL     1       7.676  26.394  25.481  1.00  0.00    -0.344 OA
ATOM     31  H1  UNL     1       7.833  26.399  26.418  1.00  0.00     0.219 HD
ENDBRANCH   4  30
BRANCH   8  32
HETATM   32  O3  UNL     1       9.319  24.577  26.098  1.00  0.00    -0.287 OA
ATOM     33  H3  UNL     1       9.502  25.486  25.896  1.00  0.00     0.244 HD
ENDBRANCH   8  32
TORSDOF 7
ENDMDL
MODEL 3
REMARK VINA RESULT: -7.583481602      1.958      5.298
REMARK  7 active torsions:
REMARK  status: ('A' for Active; 'I' for Inactive)
REMARK    1  A    between atoms: N1_3  and  N2_5 
REMARK    2  A    between atoms: C3_6  and  C4_7 
REMARK    3  A    between atoms: C7_10  and  O1_11 
REMARK    4  A    between atoms: N3_13  and  C8_14 
REMARK    5  A    between atoms: C8_14  and  C9_15 
REMARK    6  A    between atoms: C9_15  and  C10_16 
REMARK    7  A    between atoms: N4_20  and  O3_21 
ROOT
HETATM    1  C4  UNL     1       5.734  23.441  22.589  1.00  0.00     0.088 A 
HETATM    2  C5  UNL     1       5.687  24.412  23.572  1.00  0.00    -0.005 A 
HETATM    3  C6  UNL     1       6.456  24.295  24.694  1.00  0.00     0.115 A 
HETATM    4  C7  UNL     1       7.272  23.178  24.803  1.00  0.00     0.175 A 
HETATM    5  N3  UNL     1       7.338  22.222  23.866  1.00  0.00    -0.292 N 
HETATM    6  C12 UNL     1       6.564  22.372  22.772  1.00  0.00     0.264 A 
HETATM    7  O2  UNL     1       6.586  21.505  21.863  1.00  0.00    -0.267 OA
HETATM    8  N4  UNL     1       6.396  25.288  25.683  1.00  0.00    -0.256 N 
HETATM    9  C13 UNL     1       5.239  26.100  25.847  1.00  0.00     0.165 C 
HETATM   10  C14 UNL     1       4.230  25.982  24.763  1.00  0.00    -0.025 C 
HETATM   11  C15 UNL     1       3.534  27.327  24.592  1.00  0.00     0.017 C 
HETATM   12  C16 UNL     1       3.159  24.977  25.138  1.00  0.00     0.017 C 
HETATM   13  C17 UNL     1       4.808  25.598  23.429  1.00  0.00     0.052 C 
ENDROOT
BRANCH   1  14
HETATM   14  C3  UNL     1       4.892  23.617  21.412  1.00  0.00     0.161 A 
HETATM   15  N2  UNL     1       3.604  23.238  21.379  1.00  0.00    -0.211 N 
HETATM   16  C18 UNL     1       3.107  23.531  20.166  1.00  0.00     0.214 A 
HETATM   17  N6  UNL     1       4.118  24.089  19.478  1.00  0.00    -0.273 N 
HETATM   18  S1  UNL     1       1.580  23.269  19.617  1.00  0.00    -0.037 SA
HETATM   19  N5  UNL     1       5.203  24.147  20.221  1.00  0.00    -0.281 N 
ATOM     20  H6  UNL     1       4.053  24.422  18.516  1.00  0.00     0.189 HD
ATOM     21  H5  UNL     1       6.109  24.523  19.942  1.00  0.00     0.188 HD
BRANCH  15  22
HETATM   22  N1  UNL     1       2.857  22.631  22.420  1.00  0.00    -0.305 N 
HETATM   23  C2  UNL     1       2.923  21.363  22.636  1.00  0.00     0.076 C 
HETATM   24  C1  UNL     1       2.180  20.667  23.691  1.00  0.00     0.056 C 
ATOM     25  H1  UNL     1       2.257  23.208  23.008  1.00  0.00     0.186 HD
ENDBRANCH  15  22
ENDBRANCH   1  14
BRANCH   5  26
HETATM   26  C8  UNL     1       8.194  21.056  23.987  1.00  0.00     0.134 C 
BRANCH  26  27
HETATM   27  C9  UNL     1       9.581  21.385  23.457  1.00  0.00     0.020 C 
BRANCH  27  28
HETATM   28  C10 UNL     1       9.717  20.636  22.137  1.00  0.00    -0.003 C 
HETATM   29  C11 UNL     1      10.421  21.534  21.164  1.00  0.00     0.005 C 
ENDBRANCH  27  28
ENDBRANCH  26  27
ENDBRANCH   5  26
BRANCH   4  30
HETATM   30  O1  UNL     1       8.052  23.070  25.951  1.00  0.00    -0.344 OA
ATOM     31  H1  UNL     1       8.988  22.955  25.831  1.00  0.00     0.219 HD
ENDBRANCH   4  30
BRANCH   8  32
HETATM   32  O3  UNL     1       7.460  25.466  26.491  1.00  0.00    -0.287 OA
ATOM     33  H3  UNL     1       8.266  25.803  26.119  1.00  0.00     0.244 HD
ENDBRANCH   8  32
TORSDOF 7
ENDMDL
MODEL 4
REMARK VINA RESULT: -7.434532782      3.354      6.762
REMARK  7 active torsions:
REMARK  status: ('A' for Active; 'I' for Inactive)
REMARK    1  A    between atoms: N1_3  and  N2_5 
REMARK    2  A    between atoms: C3_6  and  C4_7 
REMARK    3  A    between atoms: C7_10  and  O1_11 
REMARK    4  A    between atoms: N3_13  and  C8_14 
REMARK    5  A    between atoms: C8_14  and  C9_15 
REMARK    6  A    between atoms: C9_15  and  C10_16 
REMARK    7  A    between atoms: N4_20  and  O3_21 
ROOT
HETATM    1  C4  UNL     1       4.938  22.701  21.239  1.00  0.00     0.088 A 
HETATM    2  C5  UNL     1       3.958  21.754  20.998  1.00  0.00    -0.005 A 
HETATM    3  C6  UNL     1       4.293  20.525  20.509  1.00  0.00     0.115 A 
HETATM    4  C7  UNL     1       5.636  20.271  20.266  1.00  0.00     0.175 A 
HETATM    5  N3  UNL     1       6.605  21.169  20.490  1.00  0.00    -0.292 N 
HETATM    6  C12 UNL     1       6.236  22.371  20.974  1.00  0.00     0.264 A 
HETATM    7  O2  UNL     1       7.105  23.251  21.201  1.00  0.00    -0.267 OA
HETATM    8  N4  UNL     1       3.288  19.576  20.270  1.00  0.00    -0.256 N 
HETATM    9  C13 UNL     1       1.948  19.971  19.997  1.00  0.00     0.165 C 
HETATM   10  C14 UNL     1       1.658  21.410  20.226  1.00  0.00    -0.025 C 
HETATM   11  C15 UNL     1       0.212  21.553  20.686  1.00  0.00     0.017 C 
HETATM   12  C16 UNL     1       1.788  22.192  18.934  1.00  0.00     0.017 C 
HETATM   13  C17 UNL     1       2.531  22.052  21.269  1.00  0.00     0.052 C 
ENDROOT
BRANCH   1  14
HETATM   14  C3  UNL     1       4.524  23.997  21.762  1.00  0.00     0.161 A 
HETATM   15  N2  UNL     1       4.696  24.349  23.046  1.00  0.00    -0.211 N 
HETATM   16  C18 UNL     1       4.215  25.591  23.213  1.00  0.00     0.214 A 
HETATM   17  N6  UNL     1       3.754  25.974  22.010  1.00  0.00    -0.273 N 
HETATM   18  S1  UNL     1       4.186  26.479  24.596  1.00  0.00    -0.037 SA
HETATM   19  N5  UNL     1       3.935  25.018  21.123  1.00  0.00    -0.281 N 
ATOM     20  H6  UNL     1       3.325  26.878  21.811  1.00  0.00     0.189 HD
ATOM     21  H5  UNL     1       3.677  25.049  20.137  1.00  0.00     0.188 HD
BRANCH  15  22
HETATM   22  N1  UNL     1       5.279  23.575  24.081  1.00  0.00    -0.305 N 
HETATM   23  C2  UNL     1       6.515  23.724  24.409  1.00  0.00     0.076 C 
HETATM   24  C1  UNL     1       7.185  22.960  25.467  1.00  0.00     0.056 C 
ATOM     25  H1  UNL     1       4.709  22.889  24.575  1.00  0.00     0.186 HD
ENDBRANCH  15  22
ENDBRANCH   1  14
BRANCH   5  26
HETATM   26  C8  UNL     1       8.007  20.896  20.234  1.00  0.00     0.134 C 
BRANCH  26  27
HETATM   27  C9  UNL     1       8.650  20.313  21.484  1.00  0.00     0.020 C 
BRANCH  27  28
HETATM   28  C10 UNL     1      10.012  20.984  21.610  1.00  0.00    -0.003 C 
HETATM   29  C11 UNL     1      10.048  21.718  22.917  1.00  0.00     0.005 C 
ENDBRANCH  27  28
ENDBRANCH  26  27
ENDBRANCH   5  26
BRANCH   4  30
HETATM   30  O1  UNL     1       5.965  19.013  19.768  1.00  0.00    -0.344 OA
ATOM     31  H1  UNL     1       6.345  18.391  20.377  1.00  0.00     0.219 HD
ENDBRANCH   4  30
BRANCH   8  32
HETATM   32  O3  UNL     1       3.609  18.268  20.296  1.00  0.00    -0.287 OA
ATOM     33  H3  UNL     1       3.370  17.722  19.556  1.00  0.00     0.244 HD
ENDBRANCH   8  32
TORSDOF 7
ENDMDL
MODEL 5
REMARK VINA RESULT: -7.391155780      2.153      3.239
REMARK  7 active torsions:
REMARK  status: ('A' for Active; 'I' for Inactive)
REMARK    1  A    between atoms: N1_3  and  N2_5 
REMARK    2  A    between atoms: C3_6  and  C4_7 
REMARK    3  A    between atoms: C7_10  and  O1_11 
REMARK    4  A    between atoms: N3_13  and  C8_14 
REMARK    5  A    between atoms: C8_14  and  C9_15 
REMARK    6  A    between atoms: C9_15  and  C10_16 
REMARK    7  A    between atoms: N4_20  and  O3_21 
ROOT
HETATM    1  C4  UNL     1       4.365  25.078  23.207  1.00  0.00     0.088 A 
HETATM    2  C5  UNL     1       5.252  24.084  22.835  1.00  0.00    -0.005 A 
HETATM    3  C6  UNL     1       6.443  23.944  23.485  1.00  0.00     0.115 A 
HETATM    4  C7  UNL     1       6.721  24.828  24.519  1.00  0.00     0.175 A 
HETATM    5  N3  UNL     1       5.880  25.799  24.902  1.00  0.00    -0.292 N 
HETATM    6  C12 UNL     1       4.714  25.906  24.236  1.00  0.00     0.264 A 
HETATM    7  O2  UNL     1       3.888  26.800  24.553  1.00  0.00    -0.267 OA
HETATM    8  N4  UNL     1       7.333  22.932  23.095  1.00  0.00    -0.256 N 
HETATM    9  C13 UNL     1       7.323  22.409  21.772  1.00  0.00     0.165 C 
HETATM   10  C14 UNL     1       6.167  22.830  20.939  1.00  0.00    -0.025 C 
HETATM   11  C15 UNL     1       5.819  21.701  19.975  1.00  0.00     0.017 C 
HETATM   12  C16 UNL     1       6.531  24.034  20.092  1.00  0.00     0.017 C 
HETATM   13  C17 UNL     1       4.928  23.152  21.728  1.00  0.00     0.052 C 
ENDROOT
BRANCH   1  14
HETATM   14  C3  UNL     1       3.107  25.181  22.478  1.00  0.00     0.161 A 
HETATM   15  N2  UNL     1       2.075  24.349  22.691  1.00  0.00    -0.211 N 
HETATM   16  C18 UNL     1       1.071  24.699  21.871  1.00  0.00     0.214 A 
HETATM   17  N6  UNL     1       1.521  25.752  21.166  1.00  0.00    -0.273 N 
HETATM   18  S1  UNL     1      -0.410  23.998  21.740  1.00  0.00    -0.037 SA
HETATM   19  N5  UNL     1       2.751  26.053  21.524  1.00  0.00    -0.281 N 
ATOM     20  H6  UNL     1       0.985  26.248  20.454  1.00  0.00     0.189 HD
ATOM     21  H5  UNL     1       3.325  26.807  21.147  1.00  0.00     0.188 HD
BRANCH  15  22
HETATM   22  N1  UNL     1       2.011  23.273  23.612  1.00  0.00    -0.305 N 
HETATM   23  C2  UNL     1       2.272  22.066  23.247  1.00  0.00     0.076 C 
HETATM   24  C1  UNL     1       2.226  20.906  24.143  1.00  0.00     0.056 C 
ATOM     25  H1  UNL     1       1.754  23.458  24.582  1.00  0.00     0.186 HD
ENDBRANCH  15  22
ENDBRANCH   1  14
BRANCH   5  26
HETATM   26  C8  UNL     1       6.178  26.719  25.984  1.00  0.00     0.134 C 
BRANCH  26  27
HETATM   27  C9  UNL     1       5.943  26.030  27.319  1.00  0.00     0.020 C 
BRANCH  27  28
HETATM   28  C10 UNL     1       5.206  27.039  28.191  1.00  0.00    -0.003 C 
HETATM   29  C11 UNL     1       4.973  26.410  29.532  1.00  0.00     0.005 C 
ENDBRANCH  27  28
ENDBRANCH  26  27
ENDBRANCH   5  26
BRANCH   4  30
HETATM   30  O1  UNL     1       7.939  24.675  25.177  1.00  0.00    -0.344 OA
ATOM     31  H1  UNL     1       8.038  23.914  25.737  1.00  0.00     0.219 HD
ENDBRANCH   4  30
BRANCH   8  32
HETATM   32  O3  UNL     1       8.214  22.458  23.998  1.00  0.00    -0.287 OA
ATOM     33  H3  UNL     1       9.142  22.511  23.804  1.00  0.00     0.244 HD
ENDBRANCH   8  32
TORSDOF 7
ENDMDL
