MODEL 1
REMARK VINA RESULT: -7.857014327      0.000      0.000
REMARK  8 active torsions:
REMARK  status: ('A' for Active; 'I' for Inactive)
REMARK    1  A    between atoms: N1_1  and  N2_4 
REMARK    2  A    between atoms: N2_4  and  N3_5 
REMARK    3  A    between atoms: N3_5  and  C1_7 
REMARK    4  A    between atoms: C3_13  and  C4_14 
REMARK    5  A    between atoms: C5_17  and  C6_18 
REMARK    6  A    between atoms: C9_21  and  C10_22 
REMARK    7  A    between atoms: C10_22  and  O1_23 
REMARK    8  A    between atoms: C12_28  and  C13_29 
ROOT
HETATM    1  C1  UNL     1       9.999  22.808  24.285  1.00  0.00     0.738 A 
HETATM    2  N4  UNL     1      10.217  23.747  25.221  1.00  0.00    -0.017 N 
ATOM      3  H4  UNL     1      11.126  23.995  25.612  1.00  0.00     0.203 HD
HETATM    4  C2  UNL     1       9.034  24.311  25.562  1.00  0.00     0.719 A 
HETATM    5  N5  UNL     1       8.435  25.226  26.339  1.00  0.00    -0.183 N 
ATOM      6  H5  UNL     1       8.890  25.845  27.010  1.00  0.00     0.184 HD
HETATM    7  C3  UNL     1       7.095  25.167  26.057  1.00  0.00     0.126 A 
HETATM    8  C12 UNL     1       6.896  24.202  25.100  1.00  0.00     0.088 A 
HETATM    9  N8  UNL     1       8.114  23.681  24.804  1.00  0.00    -0.073 N 
HETATM   10  N9  UNL     1       8.676  22.776  24.031  1.00  0.00    -0.108 N 
ATOM     11  H9  UNL     1       8.200  22.166  23.366  1.00  0.00     0.207 HD
ENDROOT
BRANCH   7  12
HETATM   12  C4  UNL     1       6.162  26.061  26.725  1.00  0.00     0.177 A 
HETATM   13  N6  UNL     1       5.855  26.134  28.033  1.00  0.00    -0.334 N 
HETATM   14  C5  UNL     1       4.942  27.105  28.230  1.00  0.00     0.063 A 
ATOM     15  H6  UNL     1       6.253  25.544  28.765  1.00  0.00     0.168 HD
HETATM   16  C11 UNL     1       4.699  27.629  26.977  1.00  0.00     0.172 A 
HETATM   17  O3  UNL     1       5.443  26.975  26.150  1.00  0.00    -0.302 OA
BRANCH  14  18
HETATM   18  C6  UNL     1       4.320  27.548  29.502  1.00  0.00     0.173 C 
HETATM   19  C7  UNL     1       3.620  26.376  30.129  1.00  0.00     0.041 C 
HETATM   20  C8  UNL     1       4.376  26.174  31.418  1.00  0.00     0.037 C 
HETATM   21  C9  UNL     1       4.952  27.581  31.635  1.00  0.00     0.146 C 
HETATM   22  O2  UNL     1       5.359  27.914  30.350  1.00  0.00    -0.372 OA
BRANCH  21  23
HETATM   23  C10 UNL     1       3.823  28.439  32.124  1.00  0.00     0.196 C 
BRANCH  23  24
HETATM   24  O1  UNL     1       3.371  27.906  33.340  1.00  0.00    -0.398 OA
ATOM     25  H1  UNL     1       2.597  28.391  33.603  1.00  0.00     0.209 HD
ENDBRANCH  23  24
ENDBRANCH  21  23
ENDBRANCH  14  18
ENDBRANCH   7  12
BRANCH   8  26
HETATM   26  C13 UNL     1       5.594  23.806  24.550  1.00  0.00     0.044 C 
HETATM   27  C14 UNL     1       5.378  24.290  23.135  1.00  0.00     0.038 C 
HETATM   28  C15 UNL     1       5.605  23.184  22.136  1.00  0.00     0.233 C 
HETATM   29  N7  UNL     1       4.432  22.292  22.226  1.00  0.00    -0.075 N 
HETATM   30  C16 UNL     1       4.218  22.033  23.616  1.00  0.00     0.233 C 
ATOM     31  H72 UNL     1       3.607  22.664  21.755  1.00  0.00     0.277 HD
ATOM     32  H71 UNL     1       4.527  21.444  21.668  1.00  0.00     0.277 HD
HETATM   33  C17 UNL     1       5.475  22.275  24.463  1.00  0.00     0.038 C 
ENDBRANCH   8  26
BRANCH   1  34
HETATM   34  N3  UNL     1      10.984  21.970  23.651  1.00  0.00    -0.044 N 
ATOM     35  H3  UNL     1      11.838  21.670  24.122  1.00  0.00     0.223 HD
BRANCH  34  36
HETATM   36  N2  UNL     1      10.711  21.642  22.485  1.00  0.00    -0.229 NA
BRANCH  36  37
HETATM   37  N1  UNL     1      10.565  21.481  21.273  1.00  0.00    -0.260 N 
ATOM     38  H12 UNL     1      11.539  21.761  21.145  1.00  0.00     0.193 HD
ATOM     39  H11 UNL     1      10.278  21.302  20.310  1.00  0.00     0.193 HD
ENDBRANCH  36  37
ENDBRANCH  34  36
ENDBRANCH   1  34
TORSDOF 8
ENDMDL
MODEL 2
REMARK VINA RESULT: -7.767156461      3.627      6.755
REMARK  8 active torsions:
REMARK  status: ('A' for Active; 'I' for Inactive)
REMARK    1  A    between atoms: N1_1  and  N2_4 
REMARK    2  A    between atoms: N2_4  and  N3_5 
REMARK    3  A    between atoms: N3_5  and  C1_7 
REMARK    4  A    between atoms: C3_13  and  C4_14 
REMARK    5  A    between atoms: C5_17  and  C6_18 
REMARK    6  A    between atoms: C9_21  and  C10_22 
REMARK    7  A    between atoms: C10_22  and  O1_23 
REMARK    8  A    between atoms: C12_28  and  C13_29 
ROOT
HETATM    1  C1  UNL     1       3.158  18.174  19.891  1.00  0.00     0.738 A 
HETATM    2  N4  UNL     1       2.210  19.044  20.276  1.00  0.00    -0.017 N 
ATOM      3  H4  UNL     1       1.204  18.910  20.172  1.00  0.00     0.203 HD
HETATM    4  C2  UNL     1       2.807  20.129  20.826  1.00  0.00     0.719 A 
HETATM    5  N5  UNL     1       2.602  21.325  21.398  1.00  0.00    -0.183 N 
ATOM      6  H5  UNL     1       1.700  21.767  21.577  1.00  0.00     0.184 HD
HETATM    7  C3  UNL     1       3.839  21.837  21.694  1.00  0.00     0.126 A 
HETATM    8  C12 UNL     1       4.790  20.932  21.291  1.00  0.00     0.088 A 
HETATM    9  N8  UNL     1       4.129  19.875  20.754  1.00  0.00    -0.073 N 
HETATM   10  N9  UNL     1       4.358  18.706  20.196  1.00  0.00    -0.108 N 
ATOM     11  H9  UNL     1       5.271  18.283  20.026  1.00  0.00     0.207 HD
ENDROOT
BRANCH   7  12
HETATM   12  C4  UNL     1       3.962  23.129  22.352  1.00  0.00     0.177 A 
HETATM   13  N6  UNL     1       4.352  23.399  23.612  1.00  0.00    -0.334 N 
HETATM   14  C5  UNL     1       4.327  24.730  23.817  1.00  0.00     0.063 A 
ATOM     15  H6  UNL     1       4.625  22.702  24.305  1.00  0.00     0.168 HD
HETATM   16  C11 UNL     1       3.902  25.271  22.621  1.00  0.00     0.172 A 
HETATM   17  O3  UNL     1       3.709  24.281  21.814  1.00  0.00    -0.302 OA
BRANCH  14  18
HETATM   18  C6  UNL     1       4.684  25.486  25.042  1.00  0.00     0.173 C 
HETATM   19  C7  UNL     1       6.110  25.175  25.399  1.00  0.00     0.041 C 
HETATM   20  C8  UNL     1       6.798  26.510  25.257  1.00  0.00     0.037 C 
HETATM   21  C9  UNL     1       5.612  27.465  25.458  1.00  0.00     0.146 C 
HETATM   22  O2  UNL     1       4.622  26.835  24.715  1.00  0.00    -0.372 OA
BRANCH  21  23
HETATM   23  C10 UNL     1       5.311  27.479  26.926  1.00  0.00     0.196 C 
BRANCH  23  24
HETATM   24  O1  UNL     1       4.420  28.533  27.175  1.00  0.00    -0.398 OA
ATOM     25  H1  UNL     1       4.873  29.180  27.704  1.00  0.00     0.209 HD
ENDBRANCH  23  24
ENDBRANCH  21  23
ENDBRANCH  14  18
ENDBRANCH   7  12
BRANCH   8  26
HETATM   26  C13 UNL     1       6.241  21.121  21.400  1.00  0.00     0.044 C 
HETATM   27  C14 UNL     1       6.876  20.234  22.446  1.00  0.00     0.038 C 
HETATM   28  C15 UNL     1       7.554  19.042  21.817  1.00  0.00     0.233 C 
HETATM   29  N7  UNL     1       8.796  19.547  21.199  1.00  0.00    -0.075 N 
HETATM   30  C16 UNL     1       8.439  20.708  20.444  1.00  0.00     0.233 C 
ATOM     31  H72 UNL     1       9.541  19.721  21.875  1.00  0.00     0.277 HD
ATOM     32  H71 UNL     1       9.286  18.843  20.647  1.00  0.00     0.277 HD
HETATM   33  C17 UNL     1       6.946  20.743  20.086  1.00  0.00     0.038 C 
ENDBRANCH   8  26
BRANCH   1  34
HETATM   34  N3  UNL     1       2.957  16.895  19.260  1.00  0.00    -0.044 N 
ATOM     35  H3  UNL     1       2.310  16.196  19.626  1.00  0.00     0.223 HD
BRANCH  34  36
HETATM   36  N2  UNL     1       3.633  16.711  18.235  1.00  0.00    -0.229 NA
BRANCH  36  37
HETATM   37  N1  UNL     1       4.113  16.515  17.118  1.00  0.00    -0.260 N 
ATOM     38  H12 UNL     1       4.203  17.525  17.008  1.00  0.00     0.193 HD
ATOM     39  H11 UNL     1       4.489  16.180  16.231  1.00  0.00     0.193 HD
ENDBRANCH  36  37
ENDBRANCH  34  36
ENDBRANCH   1  34
TORSDOF 8
ENDMDL
MODEL 3
REMARK VINA RESULT: -7.720858716      3.383      8.285
REMARK  8 active torsions:
REMARK  status: ('A' for Active; 'I' for Inactive)
REMARK    1  A    between atoms: N1_1  and  N2_4 
REMARK    2  A    between atoms: N2_4  and  N3_5 
REMARK    3  A    between atoms: N3_5  and  C1_7 
REMARK    4  A    between atoms: C3_13  and  C4_14 
REMARK    5  A    between atoms: C5_17  and  C6_18 
REMARK    6  A    between atoms: C9_21  and  C10_22 
REMARK    7  A    between atoms: C10_22  and  O1_23 
REMARK    8  A    between atoms: C12_28  and  C13_29 
ROOT
HETATM    1  C1  UNL     1       3.932  27.668  27.838  1.00  0.00     0.738 A 
HETATM    2  N4  UNL     1       5.134  27.369  28.356  1.00  0.00    -0.017 N 
ATOM      3  H4  UNL     1       5.481  27.676  29.265  1.00  0.00     0.203 HD
HETATM    4  C2  UNL     1       5.812  26.594  27.477  1.00  0.00     0.719 A 
HETATM    5  N5  UNL     1       6.958  25.935  27.247  1.00  0.00    -0.183 N 
ATOM      6  H5  UNL     1       7.763  25.879  27.871  1.00  0.00     0.184 HD
HETATM    7  C3  UNL     1       6.837  25.353  26.011  1.00  0.00     0.126 A 
HETATM    8  C12 UNL     1       5.602  25.671  25.501  1.00  0.00     0.088 A 
HETATM    9  N8  UNL     1       4.978  26.443  26.427  1.00  0.00    -0.073 N 
HETATM   10  N9  UNL     1       3.846  27.081  26.628  1.00  0.00    -0.108 N 
ATOM     11  H9  UNL     1       3.052  27.124  25.988  1.00  0.00     0.207 HD
ENDROOT
BRANCH   7  12
HETATM   12  C4  UNL     1       7.915  24.537  25.473  1.00  0.00     0.177 A 
HETATM   13  N6  UNL     1       7.867  23.621  24.488  1.00  0.00    -0.334 N 
HETATM   14  C5  UNL     1       9.093  23.095  24.300  1.00  0.00     0.063 A 
ATOM     15  H6  UNL     1       7.030  23.364  23.964  1.00  0.00     0.168 HD
HETATM   16  C11 UNL     1       9.903  23.733  25.217  1.00  0.00     0.172 A 
HETATM   17  O3  UNL     1       9.151  24.558  25.865  1.00  0.00    -0.302 OA
BRANCH  14  18
HETATM   18  C6  UNL     1       9.519  22.066  23.321  1.00  0.00     0.173 C 
HETATM   19  C7  UNL     1       9.308  20.709  23.930  1.00  0.00     0.041 C 
HETATM   20  C8  UNL     1       8.270  20.086  23.030  1.00  0.00     0.037 C 
HETATM   21  C9  UNL     1       8.500  20.882  21.737  1.00  0.00     0.146 C 
HETATM   22  O2  UNL     1       8.664  22.170  22.231  1.00  0.00    -0.372 OA
BRANCH  21  23
HETATM   23  C10 UNL     1       9.750  20.340  21.111  1.00  0.00     0.196 C 
BRANCH  23  24
HETATM   24  O1  UNL     1       9.748  20.704  19.757  1.00  0.00    -0.398 OA
ATOM     25  H1  UNL     1       9.837  19.911  19.240  1.00  0.00     0.209 HD
ENDBRANCH  23  24
ENDBRANCH  21  23
ENDBRANCH  14  18
ENDBRANCH   7  12
BRANCH   8  26
HETATM   26  C13 UNL     1       5.098  25.270  24.183  1.00  0.00     0.044 C 
HETATM   27  C14 UNL     1       4.199  24.057  24.239  1.00  0.00     0.038 C 
HETATM   28  C15 UNL     1       2.744  24.447  24.151  1.00  0.00     0.233 C 
HETATM   29  N7  UNL     1       2.496  24.819  22.744  1.00  0.00    -0.075 N 
HETATM   30  C16 UNL     1       3.549  25.707  22.361  1.00  0.00     0.233 C 
ATOM     31  H72 UNL     1       2.405  24.013  22.125  1.00  0.00     0.277 HD
ATOM     32  H71 UNL     1       1.566  25.206  22.589  1.00  0.00     0.277 HD
HETATM   33  C17 UNL     1       4.226  26.376  23.565  1.00  0.00     0.038 C 
ENDBRANCH   8  26
BRANCH   1  34
HETATM   34  N3  UNL     1       2.901  28.470  28.444  1.00  0.00    -0.044 N 
ATOM     35  H3  UNL     1       1.977  28.101  28.671  1.00  0.00     0.223 HD
BRANCH  34  36
HETATM   36  N2  UNL     1       3.225  29.648  28.668  1.00  0.00    -0.229 NA
BRANCH  36  37
HETATM   37  N1  UNL     1       3.727  30.730  28.971  1.00  0.00    -0.260 N 
ATOM     38  H12 UNL     1       4.435  30.573  28.252  1.00  0.00     0.193 HD
ATOM     39  H11 UNL     1       4.012  31.637  29.341  1.00  0.00     0.193 HD
ENDBRANCH  36  37
ENDBRANCH  34  36
ENDBRANCH   1  34
TORSDOF 8
ENDMDL
MODEL 4
REMARK VINA RESULT: -7.680436801      3.678      8.398
REMARK  8 active torsions:
REMARK  status: ('A' for Active; 'I' for Inactive)
REMARK    1  A    between atoms: N1_1  and  N2_4 
REMARK    2  A    between atoms: N2_4  and  N3_5 
REMARK    3  A    between atoms: N3_5  and  C1_7 
REMARK    4  A    between atoms: C3_13  and  C4_14 
REMARK    5  A    between atoms: C5_17  and  C6_18 
REMARK    6  A    between atoms: C9_21  and  C10_22 
REMARK    7  A    between atoms: C10_22  and  O1_23 
REMARK    8  A    between atoms: C12_28  and  C13_29 
ROOT
HETATM    1  C1  UNL     1       4.914  27.517  27.410  1.00  0.00     0.738 A 
HETATM    2  N4  UNL     1       6.101  27.017  27.791  1.00  0.00    -0.017 N 
ATOM      3  H4  UNL     1       6.616  27.285  28.630  1.00  0.00     0.203 HD
HETATM    4  C2  UNL     1       6.503  26.099  26.880  1.00  0.00     0.719 A 
HETATM    5  N5  UNL     1       7.470  25.231  26.548  1.00  0.00    -0.183 N 
ATOM      6  H5  UNL     1       8.328  25.047  27.068  1.00  0.00     0.184 HD
HETATM    7  C3  UNL     1       7.082  24.639  25.373  1.00  0.00     0.126 A 
HETATM    8  C12 UNL     1       5.868  25.165  25.004  1.00  0.00     0.088 A 
HETATM    9  N8  UNL     1       5.523  26.071  25.954  1.00  0.00    -0.073 N 
HETATM   10  N9  UNL     1       4.562  26.916  26.257  1.00  0.00    -0.108 N 
ATOM     11  H9  UNL     1       3.710  27.084  25.720  1.00  0.00     0.207 HD
ENDROOT
BRANCH   7  12
HETATM   12  C4  UNL     1       7.913  23.619  24.753  1.00  0.00     0.177 A 
HETATM   13  N6  UNL     1       7.546  22.620  23.928  1.00  0.00    -0.334 N 
HETATM   14  C5  UNL     1       8.630  21.900  23.580  1.00  0.00     0.063 A 
ATOM     15  H6  UNL     1       6.593  22.437  23.614  1.00  0.00     0.168 HD
HETATM   16  C11 UNL     1       9.687  22.502  24.231  1.00  0.00     0.172 A 
HETATM   17  O3  UNL     1       9.196  23.496  24.894  1.00  0.00    -0.302 OA
BRANCH  14  18
HETATM   18  C6  UNL     1       8.710  20.719  22.686  1.00  0.00     0.173 C 
HETATM   19  C7  UNL     1       8.216  19.515  23.435  1.00  0.00     0.041 C 
HETATM   20  C8  UNL     1       6.990  19.106  22.657  1.00  0.00     0.037 C 
HETATM   21  C9  UNL     1       7.311  19.710  21.282  1.00  0.00     0.146 C 
HETATM   22  O2  UNL     1       7.827  20.949  21.638  1.00  0.00    -0.372 OA
BRANCH  21  23
HETATM   23  C10 UNL     1       8.334  18.818  20.646  1.00  0.00     0.196 C 
BRANCH  23  24
HETATM   24  O1  UNL     1       7.857  18.445  19.381  1.00  0.00    -0.398 OA
ATOM     25  H1  UNL     1       8.346  17.681  19.097  1.00  0.00     0.209 HD
ENDBRANCH  23  24
ENDBRANCH  21  23
ENDBRANCH  14  18
ENDBRANCH   7  12
BRANCH   8  26
HETATM   26  C13 UNL     1       5.128  24.819  23.785  1.00  0.00     0.044 C 
HETATM   27  C14 UNL     1       4.083  23.751  24.011  1.00  0.00     0.038 C 
HETATM   28  C15 UNL     1       2.701  24.348  24.113  1.00  0.00     0.233 C 
HETATM   29  N7  UNL     1       2.309  24.728  22.742  1.00  0.00    -0.075 N 
HETATM   30  C16 UNL     1       3.411  25.447  22.182  1.00  0.00     0.233 C 
ATOM     31  H72 UNL     1       2.016  23.934  22.172  1.00  0.00     0.277 HD
ATOM     32  H71 UNL     1       1.430  25.245  22.703  1.00  0.00     0.277 HD
HETATM   33  C17 UNL     1       4.341  26.030  23.255  1.00  0.00     0.038 C 
ENDBRANCH   8  26
BRANCH   1  34
HETATM   34  N3  UNL     1       4.134  28.518  28.093  1.00  0.00    -0.044 N 
ATOM     35  H3  UNL     1       4.538  29.391  28.436  1.00  0.00     0.223 HD
BRANCH  34  36
HETATM   36  N2  UNL     1       2.934  28.236  28.230  1.00  0.00    -0.229 NA
BRANCH  36  37
HETATM   37  N1  UNL     1       1.793  27.921  28.572  1.00  0.00    -0.260 N 
ATOM     38  H12 UNL     1       2.108  26.953  28.638  1.00  0.00     0.193 HD
ATOM     39  H11 UNL     1       0.812  27.834  28.838  1.00  0.00     0.193 HD
ENDBRANCH  36  37
ENDBRANCH  34  36
ENDBRANCH   1  34
TORSDOF 8
ENDMDL
MODEL 5
REMARK VINA RESULT: -7.402939162      3.603      6.585
REMARK  8 active torsions:
REMARK  status: ('A' for Active; 'I' for Inactive)
REMARK    1  A    between atoms: N1_1  and  N2_4 
REMARK    2  A    between atoms: N2_4  and  N3_5 
REMARK    3  A    between atoms: N3_5  and  C1_7 
REMARK    4  A    between atoms: C3_13  and  C4_14 
REMARK    5  A    between atoms: C5_17  and  C6_18 
REMARK    6  A    between atoms: C9_21  and  C10_22 
REMARK    7  A    between atoms: C10_22  and  O1_23 
REMARK    8  A    between atoms: C12_28  and  C13_29 
ROOT
HETATM    1  C1  UNL     1       3.487  18.675  20.124  1.00  0.00     0.738 A 
HETATM    2  N4  UNL     1       2.881  19.467  21.024  1.00  0.00    -0.017 N 
ATOM      3  H4  UNL     1       1.873  19.552  21.155  1.00  0.00     0.203 HD
HETATM    4  C2  UNL     1       3.826  20.135  21.728  1.00  0.00     0.719 A 
HETATM    5  N5  UNL     1       4.042  21.027  22.706  1.00  0.00    -0.183 N 
ATOM      6  H5  UNL     1       3.332  21.506  23.261  1.00  0.00     0.184 HD
HETATM    7  C3  UNL     1       5.401  21.171  22.815  1.00  0.00     0.126 A 
HETATM    8  C12 UNL     1       5.999  20.353  21.887  1.00  0.00     0.088 A 
HETATM    9  N8  UNL     1       5.002  19.716  21.221  1.00  0.00    -0.073 N 
HETATM   10  N9  UNL     1       4.818  18.839  20.258  1.00  0.00    -0.108 N 
ATOM     11  H9  UNL     1       5.544  18.372  19.715  1.00  0.00     0.207 HD
ENDROOT
BRANCH   7  12
HETATM   12  C4  UNL     1       5.969  22.062  23.815  1.00  0.00     0.177 A 
HETATM   13  N6  UNL     1       5.512  23.255  24.237  1.00  0.00    -0.334 N 
HETATM   14  C5  UNL     1       6.339  23.749  25.179  1.00  0.00     0.063 A 
ATOM     15  H6  UNL     1       4.667  23.716  23.896  1.00  0.00     0.168 HD
HETATM   16  C11 UNL     1       7.332  22.802  25.318  1.00  0.00     0.172 A 
HETATM   17  O3  UNL     1       7.052  21.847  24.495  1.00  0.00    -0.302 OA
BRANCH  14  18
HETATM   18  C6  UNL     1       6.231  25.023  25.931  1.00  0.00     0.173 C 
HETATM   19  C7  UNL     1       7.376  25.912  25.537  1.00  0.00     0.041 C 
HETATM   20  C8  UNL     1       6.691  27.086  24.885  1.00  0.00     0.037 C 
HETATM   21  C9  UNL     1       5.304  27.008  25.541  1.00  0.00     0.146 C 
HETATM   22  O2  UNL     1       5.060  25.641  25.508  1.00  0.00    -0.372 OA
BRANCH  21  23
HETATM   23  C10 UNL     1       5.456  27.534  26.937  1.00  0.00     0.196 C 
BRANCH  23  24
HETATM   24  O1  UNL     1       4.421  28.451  27.168  1.00  0.00    -0.398 OA
ATOM     25  H1  UNL     1       4.792  29.205  27.612  1.00  0.00     0.209 HD
ENDBRANCH  23  24
ENDBRANCH  21  23
ENDBRANCH  14  18
ENDBRANCH   7  12
BRANCH   8  26
HETATM   26  C13 UNL     1       7.444  20.242  21.659  1.00  0.00     0.044 C 
HETATM   27  C14 UNL     1       7.874  18.848  21.265  1.00  0.00     0.038 C 
HETATM   28  C15 UNL     1       8.110  18.746  19.778  1.00  0.00     0.233 C 
HETATM   29  N7  UNL     1       9.387  19.436  19.510  1.00  0.00    -0.075 N 
HETATM   30  C16 UNL     1       9.327  20.693  20.188  1.00  0.00     0.233 C 
ATOM     31  H72 UNL     1      10.205  18.881  19.763  1.00  0.00     0.277 HD
ATOM     32  H71 UNL     1       9.595  19.524  18.515  1.00  0.00     0.277 HD
HETATM   33  C17 UNL     1       7.887  21.134  20.487  1.00  0.00     0.038 C 
ENDBRANCH   8  26
BRANCH   1  34
HETATM   34  N3  UNL     1       2.853  17.797  19.174  1.00  0.00    -0.044 N 
ATOM     35  H3  UNL     1       1.839  17.706  19.100  1.00  0.00     0.223 HD
BRANCH  34  36
HETATM   36  N2  UNL     1       3.638  17.162  18.452  1.00  0.00    -0.229 NA
BRANCH  36  37
HETATM   37  N1  UNL     1       4.257  16.536  17.591  1.00  0.00    -0.260 N 
ATOM     38  H12 UNL     1       3.865  17.164  16.889  1.00  0.00     0.193 HD
ATOM     39  H11 UNL     1       4.829  15.919  17.014  1.00  0.00     0.193 HD
ENDBRANCH  36  37
ENDBRANCH  34  36
ENDBRANCH   1  34
TORSDOF 8
ENDMDL
