MODEL 1
REMARK VINA RESULT: -7.508901085      0.000      0.000
REMARK  7 active torsions:
REMARK  status: ('A' for Active; 'I' for Inactive)
REMARK    1  A    between atoms: C2_2  and  C4_4 
REMARK    2  A    between atoms: C4_4  and  N1_5 
REMARK    3  A    between atoms: C4_4  and  C5_9 
REMARK    4  A    between atoms: C6_15  and  C7_16 
REMARK       I    between atoms: C7_16  and  N4_18 
REMARK    5  A    between atoms: N4_18  and  C8_20 
REMARK    6  A    between atoms: C9_25  and  S2_26 
REMARK    7  A    between atoms: S2_26  and  C10_27 
ROOT
HETATM    1  C7  UNL     1       1.403  23.145  20.622  1.00  0.00     0.280 C 
HETATM    2  O1  UNL     1       0.976  24.010  19.857  1.00  0.00    -0.266 OA
HETATM    3  N4  UNL     1       1.876  21.903  20.122  1.00  0.00    -0.153 N 
ATOM      4  H4  UNL     1       1.201  21.229  19.760  1.00  0.00     0.187 HD
ENDROOT
BRANCH   1   5
HETATM    5  C6  UNL     1       1.433  23.377  22.072  1.00  0.00     0.117 A 
HETATM    6  C5  UNL     1       2.404  23.947  22.868  1.00  0.00     0.081 A 
HETATM    7  N2  UNL     1       2.149  24.006  24.139  1.00  0.00    -0.295 N 
HETATM    8  N3  UNL     1       1.035  23.547  24.612  1.00  0.00    -0.269 N 
ATOM      9  H2  UNL     1       2.835  24.418  24.771  1.00  0.00     0.187 HD
HETATM   10  S1  UNL     1       0.237  22.979  23.250  1.00  0.00     0.009 SA
ATOM     11  H3  UNL     1       0.718  23.534  25.581  1.00  0.00     0.195 HD
BRANCH   6  12
HETATM   12  C4  UNL     1       3.687  24.498  22.268  1.00  0.00     0.239 C 
BRANCH  12  13
HETATM   13  C2  UNL     1       4.804  24.195  23.229  1.00  0.00     0.014 C 
HETATM   14  C1  UNL     1       5.243  25.452  23.975  1.00  0.00     0.012 C 
HETATM   15  C3  UNL     1       6.030  23.674  22.513  1.00  0.00     0.012 C 
ENDBRANCH  12  13
BRANCH  12  16
HETATM   16  N1  UNL     1       3.497  25.935  22.120  1.00  0.00    -0.069 N 
ATOM     17  H13 UNL     1       3.419  26.398  23.025  1.00  0.00     0.275 HD
ATOM     18  H12 UNL     1       4.345  26.392  21.784  1.00  0.00     0.275 HD
ATOM     19  H11 UNL     1       2.697  26.140  21.521  1.00  0.00     0.275 HD
ENDBRANCH  12  16
ENDBRANCH   6  12
ENDBRANCH   1   5
BRANCH   3  20
HETATM   20  C8  UNL     1       3.140  21.593  20.107  1.00  0.00     0.703 A 
HETATM   21  N5  UNL     1       4.097  22.070  19.288  1.00  0.00    -0.130 N 
HETATM   22  N6  UNL     1       5.218  21.472  19.644  1.00  0.00    -0.265 N 
ATOM     23  H5  UNL     1       3.979  22.755  18.542  1.00  0.00     0.205 HD
HETATM   24  C9  UNL     1       5.017  20.630  20.661  1.00  0.00     0.176 A 
ATOM     25  H6  UNL     1       6.123  21.633  19.200  1.00  0.00     0.189 HD
HETATM   26  N7  UNL     1       3.686  20.705  20.960  1.00  0.00    -0.163 N 
HETATM   27  C16 UNL     1       2.988  19.980  21.988  1.00  0.00     0.177 C 
BRANCH  24  28
HETATM   28  S2  UNL     1       6.196  19.592  21.503  1.00  0.00    -0.087 SA
BRANCH  28  29
HETATM   29  C10 UNL     1       7.750  20.507  21.627  1.00  0.00     0.055 C 
HETATM   30  C11 UNL     1       8.625  19.973  22.745  1.00  0.00     0.015 C 
HETATM   31  C12 UNL     1       9.589  21.078  23.124  1.00  0.00     0.001 C 
HETATM   32  C13 UNL     1      10.254  21.561  21.869  1.00  0.00     0.000 C 
HETATM   33  C14 UNL     1       9.990  20.682  20.684  1.00  0.00     0.001 C 
HETATM   34  C15 UNL     1       8.542  20.499  20.363  1.00  0.00     0.015 C 
ENDBRANCH  28  29
ENDBRANCH  24  28
ENDBRANCH   3  20
TORSDOF 7
ENDMDL
MODEL 2
REMARK VINA RESULT: -7.408360765      3.558      4.866
REMARK  7 active torsions:
REMARK  status: ('A' for Active; 'I' for Inactive)
REMARK    1  A    between atoms: C2_2  and  C4_4 
REMARK    2  A    between atoms: C4_4  and  N1_5 
REMARK    3  A    between atoms: C4_4  and  C5_9 
REMARK    4  A    between atoms: C6_15  and  C7_16 
REMARK       I    between atoms: C7_16  and  N4_18 
REMARK    5  A    between atoms: N4_18  and  C8_20 
REMARK    6  A    between atoms: C9_25  and  S2_26 
REMARK    7  A    between atoms: S2_26  and  C10_27 
ROOT
HETATM    1  C7  UNL     1       4.082  27.051  24.807  1.00  0.00     0.280 C 
HETATM    2  O1  UNL     1       4.568  28.148  25.086  1.00  0.00    -0.266 OA
HETATM    3  N4  UNL     1       4.715  26.193  23.870  1.00  0.00    -0.153 N 
ATOM      4  H4  UNL     1       4.688  26.440  22.881  1.00  0.00     0.187 HD
ENDROOT
BRANCH   1   5
HETATM    5  C6  UNL     1       2.833  26.605  25.438  1.00  0.00     0.117 A 
HETATM    6  C5  UNL     1       2.399  26.715  26.743  1.00  0.00     0.081 A 
HETATM    7  N2  UNL     1       1.236  26.206  27.010  1.00  0.00    -0.295 N 
HETATM    8  N3  UNL     1       0.537  25.629  26.086  1.00  0.00    -0.269 N 
ATOM      9  H2  UNL     1       0.868  26.262  27.960  1.00  0.00     0.187 HD
HETATM   10  S1  UNL     1       1.506  25.768  24.722  1.00  0.00     0.009 SA
ATOM     11  H3  UNL     1      -0.381  25.194  26.166  1.00  0.00     0.195 HD
BRANCH   6  12
HETATM   12  C4  UNL     1       3.239  27.425  27.792  1.00  0.00     0.239 C 
BRANCH  12  13
HETATM   13  C2  UNL     1       4.076  26.383  28.482  1.00  0.00     0.014 C 
HETATM   14  C1  UNL     1       3.731  26.295  29.966  1.00  0.00     0.012 C 
HETATM   15  C3  UNL     1       5.550  26.713  28.406  1.00  0.00     0.012 C 
ENDBRANCH  12  13
BRANCH  12  16
HETATM   16  N1  UNL     1       2.308  28.051  28.721  1.00  0.00    -0.069 N 
ATOM     17  H13 UNL     1       1.953  27.382  29.404  1.00  0.00     0.275 HD
ATOM     18  H12 UNL     1       2.787  28.686  29.360  1.00  0.00     0.275 HD
ATOM     19  H11 UNL     1       1.551  28.518  28.224  1.00  0.00     0.275 HD
ENDBRANCH  12  16
ENDBRANCH   6  12
ENDBRANCH   1   5
BRANCH   3  20
HETATM   20  C8  UNL     1       5.330  25.103  24.228  1.00  0.00     0.703 A 
HETATM   21  N5  UNL     1       5.966  24.858  25.389  1.00  0.00    -0.130 N 
HETATM   22  N6  UNL     1       6.432  23.626  25.302  1.00  0.00    -0.265 N 
ATOM     23  H5  UNL     1       6.068  25.496  26.179  1.00  0.00     0.205 HD
HETATM   24  C9  UNL     1       6.118  23.072  24.128  1.00  0.00     0.176 A 
ATOM     25  H6  UNL     1       6.963  23.158  26.036  1.00  0.00     0.189 HD
HETATM   26  N7  UNL     1       5.412  24.015  23.437  1.00  0.00    -0.163 N 
HETATM   27  C16 UNL     1       4.856  23.885  22.117  1.00  0.00     0.177 C 
BRANCH  24  28
HETATM   28  S2  UNL     1       6.508  21.441  23.522  1.00  0.00    -0.087 SA
BRANCH  28  29
HETATM   29  C10 UNL     1       8.051  21.553  22.587  1.00  0.00     0.055 C 
HETATM   30  C11 UNL     1       9.250  21.194  23.443  1.00  0.00     0.015 C 
HETATM   31  C12 UNL     1      10.467  21.818  22.791  1.00  0.00     0.001 C 
HETATM   32  C13 UNL     1      10.476  21.410  21.348  1.00  0.00     0.000 C 
HETATM   33  C14 UNL     1       9.478  20.339  21.029  1.00  0.00     0.001 C 
HETATM   34  C15 UNL     1       8.067  20.691  21.369  1.00  0.00     0.015 C 
ENDBRANCH  28  29
ENDBRANCH  24  28
ENDBRANCH   3  20
TORSDOF 7
ENDMDL
MODEL 3
REMARK VINA RESULT: -7.356524608      2.453      3.218
REMARK  7 active torsions:
REMARK  status: ('A' for Active; 'I' for Inactive)
REMARK    1  A    between atoms: C2_2  and  C4_4 
REMARK    2  A    between atoms: C4_4  and  N1_5 
REMARK    3  A    between atoms: C4_4  and  C5_9 
REMARK    4  A    between atoms: C6_15  and  C7_16 
REMARK       I    between atoms: C7_16  and  N4_18 
REMARK    5  A    between atoms: N4_18  and  C8_20 
REMARK    6  A    between atoms: C9_25  and  S2_26 
REMARK    7  A    between atoms: S2_26  and  C10_27 
ROOT
HETATM    1  C7  UNL     1       3.604  25.429  22.930  1.00  0.00     0.280 C 
HETATM    2  O1  UNL     1       4.060  26.153  22.044  1.00  0.00    -0.266 OA
HETATM    3  N4  UNL     1       3.087  24.143  22.621  1.00  0.00    -0.153 N 
ATOM      4  H4  UNL     1       2.197  24.075  22.128  1.00  0.00     0.187 HD
ENDROOT
BRANCH   1   5
HETATM    5  C6  UNL     1       3.583  25.879  24.327  1.00  0.00     0.117 A 
HETATM    6  C5  UNL     1       4.616  26.094  25.215  1.00  0.00     0.081 A 
HETATM    7  N2  UNL     1       4.283  26.486  26.407  1.00  0.00    -0.295 N 
HETATM    8  N3  UNL     1       3.039  26.659  26.723  1.00  0.00    -0.269 N 
ATOM      9  H2  UNL     1       5.009  26.659  27.101  1.00  0.00     0.187 HD
HETATM   10  S1  UNL     1       2.220  26.268  25.311  1.00  0.00     0.009 SA
ATOM     11  H3  UNL     1       2.651  26.961  27.616  1.00  0.00     0.195 HD
BRANCH   6  12
HETATM   12  C4  UNL     1       6.064  25.905  24.795  1.00  0.00     0.239 C 
BRANCH  12  13
HETATM   13  C2  UNL     1       6.547  24.615  25.402  1.00  0.00     0.014 C 
HETATM   14  C1  UNL     1       7.650  24.870  26.425  1.00  0.00     0.012 C 
HETATM   15  C3  UNL     1       7.138  23.695  24.357  1.00  0.00     0.012 C 
ENDBRANCH  12  13
BRANCH  12  16
HETATM   16  N1  UNL     1       6.806  27.043  25.321  1.00  0.00    -0.069 N 
ATOM     17  H13 UNL     1       6.715  27.114  26.334  1.00  0.00     0.275 HD
ATOM     18  H12 UNL     1       7.813  26.892  25.265  1.00  0.00     0.275 HD
ATOM     19  H11 UNL     1       6.529  27.908  24.857  1.00  0.00     0.275 HD
ENDBRANCH  12  16
ENDBRANCH   6  12
ENDBRANCH   1   5
BRANCH   3  20
HETATM   20  C8  UNL     1       3.709  23.046  22.945  1.00  0.00     0.703 A 
HETATM   21  N5  UNL     1       3.670  22.393  24.122  1.00  0.00    -0.130 N 
HETATM   22  N6  UNL     1       4.452  21.338  23.985  1.00  0.00    -0.265 N 
ATOM     23  H5  UNL     1       3.142  22.659  24.953  1.00  0.00     0.205 HD
HETATM   24  C9  UNL     1       4.991  21.291  22.764  1.00  0.00     0.176 A 
ATOM     25  H6  UNL     1       4.622  20.649  24.717  1.00  0.00     0.189 HD
HETATM   26  N7  UNL     1       4.517  22.383  22.095  1.00  0.00    -0.163 N 
HETATM   27  C16 UNL     1       4.815  22.765  20.741  1.00  0.00     0.177 C 
BRANCH  24  28
HETATM   28  S2  UNL     1       6.106  20.079  22.081  1.00  0.00    -0.087 SA
BRANCH  28  29
HETATM   29  C10 UNL     1       7.749  20.827  21.994  1.00  0.00     0.055 C 
HETATM   30  C11 UNL     1       8.679  20.256  23.048  1.00  0.00     0.015 C 
HETATM   31  C12 UNL     1       9.785  21.269  23.262  1.00  0.00     0.001 C 
HETATM   32  C13 UNL     1      10.359  21.615  21.920  1.00  0.00     0.000 C 
HETATM   33  C14 UNL     1       9.883  20.714  20.822  1.00  0.00     0.001 C 
HETATM   34  C15 UNL     1       8.398  20.671  20.659  1.00  0.00     0.015 C 
ENDBRANCH  28  29
ENDBRANCH  24  28
ENDBRANCH   3  20
TORSDOF 7
ENDMDL
MODEL 4
REMARK VINA RESULT: -7.257581487      1.726      2.279
REMARK  7 active torsions:
REMARK  status: ('A' for Active; 'I' for Inactive)
REMARK    1  A    between atoms: C2_2  and  C4_4 
REMARK    2  A    between atoms: C4_4  and  N1_5 
REMARK    3  A    between atoms: C4_4  and  C5_9 
REMARK    4  A    between atoms: C6_15  and  C7_16 
REMARK       I    between atoms: C7_16  and  N4_18 
REMARK    5  A    between atoms: N4_18  and  C8_20 
REMARK    6  A    between atoms: C9_25  and  S2_26 
REMARK    7  A    between atoms: S2_26  and  C10_27 
ROOT
HETATM    1  C7  UNL     1       1.441  22.434  21.768  1.00  0.00     0.280 C 
HETATM    2  O1  UNL     1       0.569  22.435  20.898  1.00  0.00    -0.266 OA
HETATM    3  N4  UNL     1       1.845  21.222  22.389  1.00  0.00    -0.153 N 
ATOM      4  H4  UNL     1       1.209  20.771  23.046  1.00  0.00     0.187 HD
ENDROOT
BRANCH   1   5
HETATM    5  C6  UNL     1       2.084  23.687  22.184  1.00  0.00     0.117 A 
HETATM    6  C5  UNL     1       3.264  24.269  21.770  1.00  0.00     0.081 A 
HETATM    7  N2  UNL     1       3.585  25.391  22.337  1.00  0.00    -0.295 N 
HETATM    8  N3  UNL     1       2.822  25.918  23.241  1.00  0.00    -0.269 N 
ATOM      9  H2  UNL     1       4.447  25.864  22.066  1.00  0.00     0.187 HD
HETATM   10  S1  UNL     1       1.551  24.829  23.362  1.00  0.00     0.009 SA
ATOM     11  H3  UNL     1       2.961  26.787  23.757  1.00  0.00     0.195 HD
BRANCH   6  12
HETATM   12  C4  UNL     1       4.116  23.631  20.686  1.00  0.00     0.239 C 
BRANCH  12  13
HETATM   13  C2  UNL     1       5.489  24.241  20.771  1.00  0.00     0.014 C 
HETATM   14  C1  UNL     1       6.186  24.214  19.414  1.00  0.00     0.012 C 
HETATM   15  C3  UNL     1       6.380  23.475  21.724  1.00  0.00     0.012 C 
ENDBRANCH  12  13
BRANCH  12  16
HETATM   16  N1  UNL     1       3.480  23.945  19.413  1.00  0.00    -0.069 N 
ATOM     17  H13 UNL     1       2.665  23.354  19.245  1.00  0.00     0.275 HD
ATOM     18  H12 UNL     1       3.012  24.851  19.441  1.00  0.00     0.275 HD
ATOM     19  H11 UNL     1       4.148  23.890  18.645  1.00  0.00     0.275 HD
ENDBRANCH  12  16
ENDBRANCH   6  12
ENDBRANCH   1   5
BRANCH   3  20
HETATM   20  C8  UNL     1       2.998  20.667  22.150  1.00  0.00     0.703 A 
HETATM   21  N5  UNL     1       3.336  19.887  21.105  1.00  0.00    -0.130 N 
HETATM   22  N6  UNL     1       4.602  19.559  21.285  1.00  0.00    -0.265 N 
ATOM     23  H5  UNL     1       2.736  19.606  20.330  1.00  0.00     0.205 HD
HETATM   24  C9  UNL     1       5.088  20.099  22.406  1.00  0.00     0.176 A 
ATOM     25  H6  UNL     1       5.140  18.970  20.650  1.00  0.00     0.189 HD
HETATM   26  N7  UNL     1       4.062  20.809  22.962  1.00  0.00    -0.163 N 
HETATM   27  C16 UNL     1       4.099  21.570  24.183  1.00  0.00     0.177 C 
BRANCH  24  28
HETATM   28  S2  UNL     1       6.727  19.963  23.093  1.00  0.00    -0.087 SA
BRANCH  28  29
HETATM   29  C10 UNL     1       7.910  20.356  21.785  1.00  0.00     0.055 C 
HETATM   30  C11 UNL     1       9.324  20.463  22.324  1.00  0.00     0.015 C 
HETATM   31  C12 UNL     1      10.116  21.295  21.337  1.00  0.00     0.001 C 
HETATM   32  C13 UNL     1       9.918  20.704  19.972  1.00  0.00     0.000 C 
HETATM   33  C14 UNL     1       9.241  19.368  19.998  1.00  0.00     0.001 C 
HETATM   34  C15 UNL     1       7.905  19.367  20.668  1.00  0.00     0.015 C 
ENDBRANCH  28  29
ENDBRANCH  24  28
ENDBRANCH   3  20
TORSDOF 7
ENDMDL
MODEL 5
REMARK VINA RESULT: -7.253496825      1.408      2.072
REMARK  7 active torsions:
REMARK  status: ('A' for Active; 'I' for Inactive)
REMARK    1  A    between atoms: C2_2  and  C4_4 
REMARK    2  A    between atoms: C4_4  and  N1_5 
REMARK    3  A    between atoms: C4_4  and  C5_9 
REMARK    4  A    between atoms: C6_15  and  C7_16 
REMARK       I    between atoms: C7_16  and  N4_18 
REMARK    5  A    between atoms: N4_18  and  C8_20 
REMARK    6  A    between atoms: C9_25  and  S2_26 
REMARK    7  A    between atoms: S2_26  and  C10_27 
ROOT
HETATM    1  C7  UNL     1       2.603  22.688  21.427  1.00  0.00     0.280 C 
HETATM    2  O1  UNL     1       2.699  23.320  20.375  1.00  0.00    -0.266 OA
HETATM    3  N4  UNL     1       3.065  21.348  21.514  1.00  0.00    -0.153 N 
ATOM      4  H4  UNL     1       2.537  20.614  21.042  1.00  0.00     0.187 HD
ENDROOT
BRANCH   1   5
HETATM    5  C6  UNL     1       2.008  23.306  22.619  1.00  0.00     0.117 A 
HETATM    6  C5  UNL     1       2.477  24.314  23.435  1.00  0.00     0.081 A 
HETATM    7  N2  UNL     1       1.722  24.645  24.437  1.00  0.00    -0.295 N 
HETATM    8  N3  UNL     1       0.593  24.047  24.642  1.00  0.00    -0.269 N 
ATOM      9  H2  UNL     1       2.023  25.386  25.071  1.00  0.00     0.187 HD
HETATM   10  S1  UNL     1       0.510  22.933  23.389  1.00  0.00     0.009 SA
ATOM     11  H3  UNL     1      -0.084  24.212  25.385  1.00  0.00     0.195 HD
BRANCH   6  12
HETATM   12  C4  UNL     1       3.796  25.009  23.143  1.00  0.00     0.239 C 
BRANCH  12  13
HETATM   13  C2  UNL     1       4.302  25.582  24.439  1.00  0.00     0.014 C 
HETATM   14  C1  UNL     1       4.417  27.102  24.360  1.00  0.00     0.012 C 
HETATM   15  C3  UNL     1       5.684  25.067  24.775  1.00  0.00     0.012 C 
ENDBRANCH  12  13
BRANCH  12  16
HETATM   16  N1  UNL     1       3.512  26.063  22.179  1.00  0.00    -0.069 N 
ATOM     17  H13 UNL     1       3.163  25.682  21.299  1.00  0.00     0.275 HD
ATOM     18  H12 UNL     1       2.692  26.607  22.449  1.00  0.00     0.275 HD
ATOM     19  H11 UNL     1       4.327  26.658  22.033  1.00  0.00     0.275 HD
ENDBRANCH  12  16
ENDBRANCH   6  12
ENDBRANCH   1   5
BRANCH   3  20
HETATM   20  C8  UNL     1       4.139  21.022  22.173  1.00  0.00     0.703 A 
HETATM   21  N5  UNL     1       4.597  21.559  23.321  1.00  0.00    -0.130 N 
HETATM   22  N6  UNL     1       5.710  20.913  23.612  1.00  0.00    -0.265 N 
ATOM     23  H5  UNL     1       4.169  22.314  23.857  1.00  0.00     0.205 HD
HETATM   24  C9  UNL     1       5.983  19.982  22.694  1.00  0.00     0.176 A 
ATOM     25  H6  UNL     1       6.287  21.100  24.432  1.00  0.00     0.189 HD
HETATM   26  N7  UNL     1       4.979  20.049  21.771  1.00  0.00    -0.163 N 
HETATM   27  C16 UNL     1       4.833  19.241  20.590  1.00  0.00     0.177 C 
BRANCH  24  28
HETATM   28  S2  UNL     1       7.359  18.849  22.626  1.00  0.00    -0.087 SA
BRANCH  28  29
HETATM   29  C10 UNL     1       8.819  19.782  22.114  1.00  0.00     0.055 C 
HETATM   30  C11 UNL     1       8.597  20.484  20.788  1.00  0.00     0.015 C 
HETATM   31  C12 UNL     1       9.963  20.759  20.194  1.00  0.00     0.001 C 
HETATM   32  C13 UNL     1      10.787  21.455  21.236  1.00  0.00     0.000 C 
HETATM   33  C14 UNL     1       9.988  21.898  22.424  1.00  0.00     0.001 C 
HETATM   34  C15 UNL     1       9.252  20.799  23.117  1.00  0.00     0.015 C 
ENDBRANCH  28  29
ENDBRANCH  24  28
ENDBRANCH   3  20
TORSDOF 7
ENDMDL
