MODEL 1
REMARK VINA RESULT: -9.517652561      0.000      0.000
REMARK  10 active torsions:
REMARK  status: ('A' for Active; 'I' for Inactive)
REMARK    1  A    between atoms: C3_3  and  O1_4 
REMARK    2  A    between atoms: O1_4  and  C4_5 
REMARK    3  A    between atoms: C4_5  and  C5_6 
REMARK    4  A    between atoms: C5_6  and  O2_7 
REMARK    5  A    between atoms: O2_7  and  C6_8 
REMARK    6  A    between atoms: C9_11  and  O3_12 
REMARK    7  A    between atoms: C19_27  and  O8_28 
REMARK    8  A    between atoms: O8_28  and  C20_29 
REMARK    9  A    between atoms: C20_29  and  C21_31 
REMARK   10  A    between atoms: C24_34  and  O10_35 
ROOT
HETATM    1  C1  UNL     1       4.899  22.253  18.791  1.00  0.00     0.049 C 
HETATM    2  C2  UNL     1       3.857  21.869  19.765  1.00  0.00    -0.016 C 
HETATM    3  C3  UNL     1       3.463  20.619  19.907  1.00  0.00     0.185 C 
HETATM    4  O4  UNL     1       2.465  20.311  20.854  1.00  0.00    -0.296 OA
HETATM    5  C12 UNL     1       2.247  21.118  21.998  1.00  0.00     0.302 C 
HETATM    6  O5  UNL     1       0.959  21.665  21.835  1.00  0.00    -0.326 OA
HETATM    7  C13 UNL     1       0.838  21.999  20.497  1.00  0.00     0.296 C 
HETATM    8  O6  UNL     1      -0.392  22.679  20.330  1.00  0.00    -0.323 OA
HETATM    9  C14 UNL     1      -0.160  23.943  20.847  1.00  0.00     0.160 C 
HETATM   10  C15 UNL     1      -0.795  25.026  19.981  1.00  0.00     0.078 C 
HETATM   11  C16 UNL     1      -0.770  23.994  22.220  1.00  0.00     0.078 C 
HETATM   12  O7  UNL     1       1.207  24.175  20.842  1.00  0.00    -0.345 OA
HETATM   13  C17 UNL     1       1.787  23.124  20.142  1.00  0.00     0.191 C 
HETATM   14  C18 UNL     1       3.197  22.880  20.631  1.00  0.00     0.087 C 
HETATM   15  C19 UNL     1       3.208  22.287  22.024  1.00  0.00     0.199 C 
ENDROOT
BRANCH   3  16
HETATM   16  O1  UNL     1       3.976  19.588  19.180  1.00  0.00    -0.328 OA
BRANCH  16  17
HETATM   17  C4  UNL     1       4.927  18.649  19.623  1.00  0.00     0.204 C 
BRANCH  17  18
HETATM   18  C5  UNL     1       6.260  18.794  18.983  1.00  0.00     0.202 C 
BRANCH  18  19
HETATM   19  O2  UNL     1       7.298  18.564  19.847  1.00  0.00    -0.349 OA
BRANCH  19  20
HETATM   20  C6  UNL     1       8.010  19.336  20.695  1.00  0.00     0.069 A 
HETATM   21  C7  UNL     1       7.835  19.378  22.057  1.00  0.00     0.039 A 
HETATM   22  C8  UNL     1       8.616  20.214  22.865  1.00  0.00     0.039 A 
HETATM   23  C9  UNL     1       9.582  21.023  22.357  1.00  0.00     0.065 A 
HETATM   24  C10 UNL     1       9.771  20.992  20.993  1.00  0.00     0.039 A 
HETATM   25  C11 UNL     1       9.022  20.187  20.191  1.00  0.00     0.039 A 
BRANCH  23  26
HETATM   26  O3  UNL     1      10.338  21.838  23.183  1.00  0.00    -0.361 OA
ATOM     27  H3  UNL     1      11.203  21.574  23.473  1.00  0.00     0.217 HD
ENDBRANCH  23  26
ENDBRANCH  19  20
ENDBRANCH  18  19
ENDBRANCH  17  18
ENDBRANCH  16  17
ENDBRANCH   3  16
BRANCH  15  28
HETATM   28  O8  UNL     1       2.897  23.201  23.025  1.00  0.00    -0.306 OA
BRANCH  28  29
HETATM   29  C20 UNL     1       3.698  24.273  23.374  1.00  0.00     0.293 C 
HETATM   30  O9  UNL     1       3.173  25.415  23.263  1.00  0.00    -0.259 OA
BRANCH  29  31
HETATM   31  C21 UNL     1       5.076  24.108  23.848  1.00  0.00     0.039 A 
HETATM   32  C22 UNL     1       5.626  22.874  24.099  1.00  0.00     0.020 A 
HETATM   33  C23 UNL     1       6.931  22.720  24.548  1.00  0.00     0.037 A 
HETATM   34  C24 UNL     1       7.735  23.818  24.763  1.00  0.00     0.065 A 
HETATM   35  C25 UNL     1       7.192  25.058  24.514  1.00  0.00     0.037 A 
HETATM   36  C26 UNL     1       5.886  25.201  24.065  1.00  0.00     0.020 A 
BRANCH  34  37
HETATM   37  O10 UNL     1       9.043  23.647  25.214  1.00  0.00    -0.361 OA
ATOM     38  H10 UNL     1       9.469  24.337  25.710  1.00  0.00     0.217 HD
ENDBRANCH  34  37
ENDBRANCH  29  31
ENDBRANCH  28  29
ENDBRANCH  15  28
TORSDOF 10
ENDMDL
MODEL 2
REMARK VINA RESULT: -9.189302245      1.876      2.498
REMARK  10 active torsions:
REMARK  status: ('A' for Active; 'I' for Inactive)
REMARK    1  A    between atoms: C3_3  and  O1_4 
REMARK    2  A    between atoms: O1_4  and  C4_5 
REMARK    3  A    between atoms: C4_5  and  C5_6 
REMARK    4  A    between atoms: C5_6  and  O2_7 
REMARK    5  A    between atoms: O2_7  and  C6_8 
REMARK    6  A    between atoms: C9_11  and  O3_12 
REMARK    7  A    between atoms: C19_27  and  O8_28 
REMARK    8  A    between atoms: O8_28  and  C20_29 
REMARK    9  A    between atoms: C20_29  and  C21_31 
REMARK   10  A    between atoms: C24_34  and  O10_35 
ROOT
HETATM    1  C1  UNL     1       5.984  23.011  19.057  1.00  0.00     0.049 C 
HETATM    2  C2  UNL     1       5.254  22.253  20.094  1.00  0.00    -0.016 C 
HETATM    3  C3  UNL     1       5.076  20.949  20.008  1.00  0.00     0.185 C 
HETATM    4  O4  UNL     1       4.372  20.278  21.028  1.00  0.00    -0.296 OA
HETATM    5  C12 UNL     1       4.314  20.782  22.351  1.00  0.00     0.302 C 
HETATM    6  O5  UNL     1       2.961  21.105  22.573  1.00  0.00    -0.326 OA
HETATM    7  C13 UNL     1       2.493  21.675  21.402  1.00  0.00     0.296 C 
HETATM    8  O6  UNL     1       1.176  22.138  21.640  1.00  0.00    -0.323 OA
HETATM    9  C14 UNL     1       1.346  23.291  22.388  1.00  0.00     0.160 C 
HETATM   10  C15 UNL     1       0.389  24.392  21.943  1.00  0.00     0.078 C 
HETATM   11  C16 UNL     1       1.065  22.949  23.825  1.00  0.00     0.078 C 
HETATM   12  O7  UNL     1       2.631  23.766  22.176  1.00  0.00    -0.345 OA
HETATM   13  C17 UNL     1       3.174  23.003  21.149  1.00  0.00     0.191 C 
HETATM   14  C18 UNL     1       4.678  22.929  21.285  1.00  0.00     0.087 C 
HETATM   15  C19 UNL     1       5.087  22.078  22.468  1.00  0.00     0.199 C 
ENDROOT
BRANCH   3  16
HETATM   16  O1  UNL     1       5.545  20.199  18.972  1.00  0.00    -0.328 OA
BRANCH  16  17
HETATM   17  C4  UNL     1       5.920  18.844  19.029  1.00  0.00     0.204 C 
BRANCH  17  18
HETATM   18  C5  UNL     1       7.385  18.620  18.926  1.00  0.00     0.202 C 
BRANCH  18  19
HETATM   19  O2  UNL     1       8.003  18.542  20.147  1.00  0.00    -0.349 OA
BRANCH  19  20
HETATM   20  C6  UNL     1       8.415  19.450  21.056  1.00  0.00     0.069 A 
HETATM   21  C7  UNL     1       7.896  19.587  22.321  1.00  0.00     0.039 A 
HETATM   22  C8  UNL     1       8.380  20.563  23.203  1.00  0.00     0.039 A 
HETATM   23  C9  UNL     1       9.379  21.420  22.865  1.00  0.00     0.065 A 
HETATM   24  C10 UNL     1       9.911  21.294  21.601  1.00  0.00     0.039 A 
HETATM   25  C11 UNL     1       9.454  20.354  20.729  1.00  0.00     0.039 A 
BRANCH  23  26
HETATM   26  O3  UNL     1       9.835  22.373  23.760  1.00  0.00    -0.361 OA
ATOM     27  H3  UNL     1       9.480  23.254  23.760  1.00  0.00     0.217 HD
ENDBRANCH  23  26
ENDBRANCH  19  20
ENDBRANCH  18  19
ENDBRANCH  17  18
ENDBRANCH  16  17
ENDBRANCH   3  16
BRANCH  15  28
HETATM   28  O8  UNL     1       4.892  22.697  23.698  1.00  0.00    -0.306 OA
BRANCH  28  29
HETATM   29  C20 UNL     1       5.677  23.727  24.183  1.00  0.00     0.293 C 
HETATM   30  O9  UNL     1       6.886  23.720  23.822  1.00  0.00    -0.259 OA
BRANCH  29  31
HETATM   31  C21 UNL     1       5.150  24.773  25.066  1.00  0.00     0.039 A 
HETATM   32  C22 UNL     1       5.645  24.989  26.330  1.00  0.00     0.020 A 
HETATM   33  C23 UNL     1       5.144  25.979  27.164  1.00  0.00     0.037 A 
HETATM   34  C24 UNL     1       4.113  26.794  26.749  1.00  0.00     0.065 A 
HETATM   35  C25 UNL     1       3.610  26.583  25.485  1.00  0.00     0.037 A 
HETATM   36  C26 UNL     1       4.119  25.591  24.658  1.00  0.00     0.020 A 
BRANCH  34  37
HETATM   37  O10 UNL     1       3.621  27.784  27.599  1.00  0.00    -0.361 OA
ATOM     38  H10 UNL     1       4.138  28.561  27.773  1.00  0.00     0.217 HD
ENDBRANCH  34  37
ENDBRANCH  29  31
ENDBRANCH  28  29
ENDBRANCH  15  28
TORSDOF 10
ENDMDL
MODEL 3
REMARK VINA RESULT: -9.040066898      1.655      2.451
REMARK  10 active torsions:
REMARK  status: ('A' for Active; 'I' for Inactive)
REMARK    1  A    between atoms: C3_3  and  O1_4 
REMARK    2  A    between atoms: O1_4  and  C4_5 
REMARK    3  A    between atoms: C4_5  and  C5_6 
REMARK    4  A    between atoms: C5_6  and  O2_7 
REMARK    5  A    between atoms: O2_7  and  C6_8 
REMARK    6  A    between atoms: C9_11  and  O3_12 
REMARK    7  A    between atoms: C19_27  and  O8_28 
REMARK    8  A    between atoms: O8_28  and  C20_29 
REMARK    9  A    between atoms: C20_29  and  C21_31 
REMARK   10  A    between atoms: C24_34  and  O10_35 
ROOT
HETATM    1  C1  UNL     1       6.049  23.025  18.372  1.00  0.00     0.049 C 
HETATM    2  C2  UNL     1       5.300  22.215  19.353  1.00  0.00    -0.016 C 
HETATM    3  C3  UNL     1       5.606  20.955  19.595  1.00  0.00     0.185 C 
HETATM    4  O4  UNL     1       4.856  20.230  20.544  1.00  0.00    -0.296 OA
HETATM    5  C12 UNL     1       4.180  20.873  21.609  1.00  0.00     0.302 C 
HETATM    6  O5  UNL     1       2.808  20.653  21.372  1.00  0.00    -0.326 OA
HETATM    7  C13 UNL     1       2.615  20.790  20.008  1.00  0.00     0.296 C 
HETATM    8  O6  UNL     1       1.224  20.713  19.757  1.00  0.00    -0.323 OA
HETATM    9  C14 UNL     1       0.732  21.941  20.168  1.00  0.00     0.160 C 
HETATM   10  C15 UNL     1      -0.318  22.474  19.199  1.00  0.00     0.078 C 
HETATM   11  C16 UNL     1       0.100  21.750  21.518  1.00  0.00     0.078 C 
HETATM   12  O7  UNL     1       1.775  22.853  20.171  1.00  0.00    -0.345 OA
HETATM   13  C17 UNL     1       2.860  22.220  19.578  1.00  0.00     0.191 C 
HETATM   14  C18 UNL     1       4.158  22.782  20.114  1.00  0.00     0.087 C 
HETATM   15  C19 UNL     1       4.388  22.371  21.553  1.00  0.00     0.199 C 
ENDROOT
BRANCH   3  16
HETATM   16  O1  UNL     1       6.625  20.302  18.970  1.00  0.00    -0.328 OA
BRANCH  16  17
HETATM   17  C4  UNL     1       7.246  19.117  19.406  1.00  0.00     0.204 C 
BRANCH  17  18
HETATM   18  C5  UNL     1       8.539  19.335  20.105  1.00  0.00     0.202 C 
BRANCH  18  19
HETATM   19  O2  UNL     1       8.395  19.514  21.457  1.00  0.00    -0.349 OA
BRANCH  19  20
HETATM   20  C6  UNL     1       8.608  20.545  22.301  1.00  0.00     0.069 A 
HETATM   21  C7  UNL     1       9.803  21.207  22.448  1.00  0.00     0.039 A 
HETATM   22  C8  UNL     1       9.940  22.267  23.354  1.00  0.00     0.039 A 
HETATM   23  C9  UNL     1       8.911  22.698  24.132  1.00  0.00     0.065 A 
HETATM   24  C10 UNL     1       7.707  22.045  23.995  1.00  0.00     0.039 A 
HETATM   25  C11 UNL     1       7.555  21.013  23.121  1.00  0.00     0.039 A 
BRANCH  23  26
HETATM   26  O3  UNL     1       9.079  23.749  25.018  1.00  0.00    -0.361 OA
ATOM     27  H3  UNL     1       8.831  24.634  24.780  1.00  0.00     0.217 HD
ENDBRANCH  23  26
ENDBRANCH  19  20
ENDBRANCH  18  19
ENDBRANCH  17  18
ENDBRANCH  16  17
ENDBRANCH   3  16
BRANCH  15  28
HETATM   28  O8  UNL     1       3.585  23.047  22.465  1.00  0.00    -0.306 OA
BRANCH  28  29
HETATM   29  C20 UNL     1       3.705  24.393  22.758  1.00  0.00     0.293 C 
HETATM   30  O9  UNL     1       3.324  25.192  21.858  1.00  0.00    -0.259 OA
BRANCH  29  31
HETATM   31  C21 UNL     1       4.241  24.880  24.034  1.00  0.00     0.039 A 
HETATM   32  C22 UNL     1       5.409  24.397  24.574  1.00  0.00     0.020 A 
HETATM   33  C23 UNL     1       5.914  24.857  25.782  1.00  0.00     0.037 A 
HETATM   34  C24 UNL     1       5.251  25.832  26.497  1.00  0.00     0.065 A 
HETATM   35  C25 UNL     1       4.080  26.320  25.963  1.00  0.00     0.037 A 
HETATM   36  C26 UNL     1       3.583  25.853  24.754  1.00  0.00     0.020 A 
BRANCH  34  37
HETATM   37  O10 UNL     1       5.771  26.284  27.709  1.00  0.00    -0.361 OA
ATOM     38  H10 UNL     1       6.637  26.673  27.738  1.00  0.00     0.217 HD
ENDBRANCH  34  37
ENDBRANCH  29  31
ENDBRANCH  28  29
ENDBRANCH  15  28
TORSDOF 10
ENDMDL
MODEL 4
REMARK VINA RESULT: -8.978681653      2.025      2.575
REMARK  10 active torsions:
REMARK  status: ('A' for Active; 'I' for Inactive)
REMARK    1  A    between atoms: C3_3  and  O1_4 
REMARK    2  A    between atoms: O1_4  and  C4_5 
REMARK    3  A    between atoms: C4_5  and  C5_6 
REMARK    4  A    between atoms: C5_6  and  O2_7 
REMARK    5  A    between atoms: O2_7  and  C6_8 
REMARK    6  A    between atoms: C9_11  and  O3_12 
REMARK    7  A    between atoms: C19_27  and  O8_28 
REMARK    8  A    between atoms: O8_28  and  C20_29 
REMARK    9  A    between atoms: C20_29  and  C21_31 
REMARK   10  A    between atoms: C24_34  and  O10_35 
ROOT
HETATM    1  C1  UNL     1       5.711  22.993  19.376  1.00  0.00     0.049 C 
HETATM    2  C2  UNL     1       4.762  22.568  20.424  1.00  0.00    -0.016 C 
HETATM    3  C3  UNL     1       4.747  21.335  20.893  1.00  0.00     0.185 C 
HETATM    4  O4  UNL     1       3.819  20.986  21.895  1.00  0.00    -0.296 OA
HETATM    5  C12 UNL     1       3.289  21.949  22.789  1.00  0.00     0.302 C 
HETATM    6  O5  UNL     1       1.912  22.016  22.498  1.00  0.00    -0.326 OA
HETATM    7  C13 UNL     1       1.795  21.949  21.120  1.00  0.00     0.296 C 
HETATM    8  O6  UNL     1       0.434  22.155  20.790  1.00  0.00    -0.323 OA
HETATM    9  C14 UNL     1       0.242  23.517  20.955  1.00  0.00     0.160 C 
HETATM   10  C15 UNL     1      -0.621  24.099  19.841  1.00  0.00     0.078 C 
HETATM   11  C16 UNL     1      -0.454  23.723  22.271  1.00  0.00     0.078 C 
HETATM   12  O7  UNL     1       1.475  24.147  20.879  1.00  0.00    -0.345 OA
HETATM   13  C17 UNL     1       2.390  23.182  20.475  1.00  0.00     0.191 C 
HETATM   14  C18 UNL     1       3.770  23.513  21.000  1.00  0.00     0.087 C 
HETATM   15  C19 UNL     1       3.855  23.322  22.499  1.00  0.00     0.199 C 
ENDROOT
BRANCH   3  16
HETATM   16  O1  UNL     1       5.595  20.362  20.458  1.00  0.00    -0.328 OA
BRANCH  16  17
HETATM   17  C4  UNL     1       5.649  19.036  20.924  1.00  0.00     0.204 C 
BRANCH  17  18
HETATM   18  C5  UNL     1       6.761  18.776  21.875  1.00  0.00     0.202 C 
BRANCH  18  19
HETATM   19  O2  UNL     1       7.677  19.794  21.921  1.00  0.00    -0.349 OA
BRANCH  19  20
HETATM   20  C6  UNL     1       7.917  20.811  22.775  1.00  0.00     0.069 A 
HETATM   21  C7  UNL     1       6.974  21.400  23.583  1.00  0.00     0.039 A 
HETATM   22  C8  UNL     1       7.309  22.457  24.439  1.00  0.00     0.039 A 
HETATM   23  C9  UNL     1       8.570  22.956  24.522  1.00  0.00     0.065 A 
HETATM   24  C10 UNL     1       9.527  22.376  23.719  1.00  0.00     0.039 A 
HETATM   25  C11 UNL     1       9.222  21.349  22.880  1.00  0.00     0.039 A 
BRANCH  23  26
HETATM   26  O3  UNL     1       8.868  24.002  25.379  1.00  0.00    -0.361 OA
ATOM     27  H3  UNL     1       8.441  24.845  25.290  1.00  0.00     0.217 HD
ENDBRANCH  23  26
ENDBRANCH  19  20
ENDBRANCH  18  19
ENDBRANCH  17  18
ENDBRANCH  16  17
ENDBRANCH   3  16
BRANCH  15  28
HETATM   28  O8  UNL     1       3.214  24.319  23.228  1.00  0.00    -0.306 OA
BRANCH  28  29
HETATM   29  C20 UNL     1       3.854  25.419  23.769  1.00  0.00     0.293 C 
HETATM   30  O9  UNL     1       4.183  26.325  22.955  1.00  0.00    -0.259 OA
BRANCH  29  31
HETATM   31  C21 UNL     1       4.139  25.541  25.202  1.00  0.00     0.039 A 
HETATM   32  C22 UNL     1       3.192  25.951  26.111  1.00  0.00     0.020 A 
HETATM   33  C23 UNL     1       3.464  26.066  27.467  1.00  0.00     0.037 A 
HETATM   34  C24 UNL     1       4.717  25.770  27.961  1.00  0.00     0.065 A 
HETATM   35  C25 UNL     1       5.671  25.359  27.058  1.00  0.00     0.037 A 
HETATM   36  C26 UNL     1       5.388  25.247  25.703  1.00  0.00     0.020 A 
BRANCH  34  37
HETATM   37  O10 UNL     1       4.975  25.891  29.325  1.00  0.00    -0.361 OA
ATOM     38  H10 UNL     1       5.496  25.233  29.771  1.00  0.00     0.217 HD
ENDBRANCH  34  37
ENDBRANCH  29  31
ENDBRANCH  28  29
ENDBRANCH  15  28
TORSDOF 10
ENDMDL
MODEL 5
REMARK VINA RESULT: -8.973221065      2.034      2.654
REMARK  10 active torsions:
REMARK  status: ('A' for Active; 'I' for Inactive)
REMARK    1  A    between atoms: C3_3  and  O1_4 
REMARK    2  A    between atoms: O1_4  and  C4_5 
REMARK    3  A    between atoms: C4_5  and  C5_6 
REMARK    4  A    between atoms: C5_6  and  O2_7 
REMARK    5  A    between atoms: O2_7  and  C6_8 
REMARK    6  A    between atoms: C9_11  and  O3_12 
REMARK    7  A    between atoms: C19_27  and  O8_28 
REMARK    8  A    between atoms: O8_28  and  C20_29 
REMARK    9  A    between atoms: C20_29  and  C21_31 
REMARK   10  A    between atoms: C24_34  and  O10_35 
ROOT
HETATM    1  C1  UNL     1       5.693  23.025  19.318  1.00  0.00     0.049 C 
HETATM    2  C2  UNL     1       4.768  22.599  20.388  1.00  0.00    -0.016 C 
HETATM    3  C3  UNL     1       4.788  21.375  20.879  1.00  0.00     0.185 C 
HETATM    4  O4  UNL     1       3.881  21.025  21.901  1.00  0.00    -0.296 OA
HETATM    5  C12 UNL     1       3.343  21.992  22.785  1.00  0.00     0.302 C 
HETATM    6  O5  UNL     1       1.961  22.024  22.512  1.00  0.00    -0.326 OA
HETATM    7  C13 UNL     1       1.826  21.928  21.138  1.00  0.00     0.296 C 
HETATM    8  O6  UNL     1       0.456  22.099  20.824  1.00  0.00    -0.323 OA
HETATM    9  C14 UNL     1       0.237  23.459  20.967  1.00  0.00     0.160 C 
HETATM   10  C15 UNL     1      -0.655  24.001  19.854  1.00  0.00     0.078 C 
HETATM   11  C16 UNL     1      -0.445  23.675  22.289  1.00  0.00     0.078 C 
HETATM   12  O7  UNL     1       1.454  24.114  20.861  1.00  0.00    -0.345 OA
HETATM   13  C17 UNL     1       2.385  23.162  20.462  1.00  0.00     0.191 C 
HETATM   14  C18 UNL     1       3.764  23.532  20.960  1.00  0.00     0.087 C 
HETATM   15  C19 UNL     1       3.875  23.372  22.462  1.00  0.00     0.199 C 
ENDROOT
BRANCH   3  16
HETATM   16  O1  UNL     1       5.650  20.413  20.450  1.00  0.00    -0.328 OA
BRANCH  16  17
HETATM   17  C4  UNL     1       5.699  19.079  20.897  1.00  0.00     0.204 C 
BRANCH  17  18
HETATM   18  C5  UNL     1       6.757  18.821  21.908  1.00  0.00     0.202 C 
BRANCH  18  19
HETATM   19  O2  UNL     1       7.731  19.786  21.925  1.00  0.00    -0.349 OA
BRANCH  19  20
HETATM   20  C6  UNL     1       8.011  20.832  22.731  1.00  0.00     0.069 A 
HETATM   21  C7  UNL     1       9.249  21.412  22.865  1.00  0.00     0.039 A 
HETATM   22  C8  UNL     1       9.454  22.494  23.731  1.00  0.00     0.039 A 
HETATM   23  C9  UNL     1       8.453  23.028  24.480  1.00  0.00     0.065 A 
HETATM   24  C10 UNL     1       7.206  22.457  24.356  1.00  0.00     0.039 A 
HETATM   25  C11 UNL     1       6.987  21.405  23.521  1.00  0.00     0.039 A 
BRANCH  23  26
HETATM   26  O3  UNL     1       8.688  24.098  25.327  1.00  0.00    -0.361 OA
ATOM     27  H3  UNL     1       8.113  24.853  25.333  1.00  0.00     0.217 HD
ENDBRANCH  23  26
ENDBRANCH  19  20
ENDBRANCH  18  19
ENDBRANCH  17  18
ENDBRANCH  16  17
ENDBRANCH   3  16
BRANCH  15  28
HETATM   28  O8  UNL     1       3.222  24.368  23.181  1.00  0.00    -0.306 OA
BRANCH  28  29
HETATM   29  C20 UNL     1       3.858  25.451  23.760  1.00  0.00     0.293 C 
HETATM   30  O9  UNL     1       4.189  26.383  22.976  1.00  0.00    -0.259 OA
BRANCH  29  31
HETATM   31  C21 UNL     1       4.137  25.527  25.197  1.00  0.00     0.039 A 
HETATM   32  C22 UNL     1       5.377  25.251  25.723  1.00  0.00     0.020 A 
HETATM   33  C23 UNL     1       5.640  25.323  27.084  1.00  0.00     0.037 A 
HETATM   34  C24 UNL     1       4.649  25.678  27.974  1.00  0.00     0.065 A 
HETATM   35  C25 UNL     1       3.404  25.955  27.456  1.00  0.00     0.037 A 
HETATM   36  C26 UNL     1       3.152  25.881  26.093  1.00  0.00     0.020 A 
BRANCH  34  37
HETATM   37  O10 UNL     1       4.929  25.745  29.338  1.00  0.00    -0.361 OA
ATOM     38  H10 UNL     1       4.692  26.520  29.834  1.00  0.00     0.217 HD
ENDBRANCH  34  37
ENDBRANCH  29  31
ENDBRANCH  28  29
ENDBRANCH  15  28
TORSDOF 10
ENDMDL
