MODEL 1
REMARK VINA RESULT: -8.876606048      0.000      0.000
REMARK  9 active torsions:
REMARK  status: ('A' for Active; 'I' for Inactive)
REMARK    1  A    between atoms: C2_2  and  C3_3 
REMARK    2  A    between atoms: C2_2  and  C4_6 
REMARK    3  A    between atoms: C3_3  and  O1_4 
REMARK    4  A    between atoms: C9_15  and  C10_16 
REMARK    5  A    between atoms: C10_16  and  O6_17 
REMARK    6  A    between atoms: O6_17  and  C11_18 
REMARK    7  A    between atoms: C11_18  and  C12_20 
REMARK    8  A    between atoms: C14_22  and  O8_23 
REMARK    9  A    between atoms: C17_27  and  O9_28 
ROOT
HETATM    1  O6  UNL     1       3.109  24.825  24.566  1.00  0.00    -0.312 OA
ENDROOT
BRANCH   1   2
HETATM    2  C10 UNL     1       2.054  25.606  25.011  1.00  0.00     0.251 C 
BRANCH   2   3
HETATM    3  C9  UNL     1       2.050  26.023  26.435  1.00  0.00     0.224 C 
HETATM    4  C6  UNL     1       0.758  25.653  27.148  1.00  0.00     0.230 C 
HETATM    5  C5  UNL     1       1.252  25.270  28.516  1.00  0.00     0.114 C 
HETATM    6  O2  UNL     1      -0.058  26.765  27.144  1.00  0.00    -0.225 OA
HETATM    7  C4  UNL     1       2.648  25.891  28.516  1.00  0.00     0.202 C 
HETATM    8  O4  UNL     1       2.471  27.252  28.721  1.00  0.00    -0.289 OA
HETATM    9  O10 UNL     1       3.077  25.604  27.226  1.00  0.00    -0.309 OA
HETATM   10  C7  UNL     1       1.807  27.881  27.702  1.00  0.00     0.312 C 
HETATM   11  O3  UNL     1       0.429  27.712  27.910  1.00  0.00    -0.171 OA
HETATM   12  C8  UNL     1       2.161  29.369  27.737  1.00  0.00     0.118 C 
HETATM   13  O5  UNL     1       2.096  27.427  26.441  1.00  0.00    -0.289 OA
BRANCH   7  14
HETATM   14  C2  UNL     1       3.513  25.323  29.561  1.00  0.00    -0.004 C 
HETATM   15  C1  UNL     1       3.016  24.514  30.475  1.00  0.00     0.022 C 
BRANCH  14  16
HETATM   16  C3  UNL     1       4.960  25.651  29.605  1.00  0.00     0.203 C 
BRANCH  16  17
HETATM   17  O1  UNL     1       5.295  26.570  28.613  1.00  0.00    -0.397 OA
ATOM     18  H1  UNL     1       6.115  27.006  28.815  1.00  0.00     0.209 HD
ENDBRANCH  16  17
ENDBRANCH  14  16
ENDBRANCH   7  14
ENDBRANCH   2   3
ENDBRANCH   1   2
BRANCH   1  19
HETATM   19  C11 UNL     1       4.245  25.152  23.895  1.00  0.00     0.296 C 
HETATM   20  O7  UNL     1       4.281  26.308  23.352  1.00  0.00    -0.259 OA
BRANCH  19  21
HETATM   21  C12 UNL     1       5.399  24.257  23.773  1.00  0.00     0.076 A 
HETATM   22  C13 UNL     1       6.493  24.454  24.581  1.00  0.00     0.057 A 
HETATM   23  C14 UNL     1       7.555  23.585  24.456  1.00  0.00     0.073 A 
HETATM   24  C15 UNL     1       7.535  22.524  23.537  1.00  0.00    -0.015 A 
HETATM   25  C16 UNL     1       6.426  22.354  22.742  1.00  0.00    -0.011 A 
HETATM   26  C24 UNL     1       8.715  21.633  23.466  1.00  0.00     0.042 C 
HETATM   27  C17 UNL     1       5.369  23.222  22.868  1.00  0.00     0.091 A 
HETATM   28  C19 UNL     1       6.448  21.217  21.791  1.00  0.00     0.022 C 
HETATM   29  C20 UNL     1       7.351  21.501  20.592  1.00  0.00     0.015 C 
HETATM   30  C21 UNL     1       7.037  20.051  22.603  1.00  0.00    -0.010 C 
HETATM   31  C22 UNL     1       6.738  18.737  21.963  1.00  0.00     0.010 C 
HETATM   32  C23 UNL     1       8.489  20.340  22.759  1.00  0.00     0.009 C 
BRANCH  23  33
HETATM   33  O8  UNL     1       8.682  23.751  25.256  1.00  0.00    -0.360 OA
ATOM     34  H8  UNL     1       8.679  23.425  26.149  1.00  0.00     0.217 HD
ENDBRANCH  23  33
BRANCH  27  35
HETATM   35  O9  UNL     1       4.287  22.978  22.026  1.00  0.00    -0.354 OA
HETATM   36  C18 UNL     1       3.299  22.054  22.491  1.00  0.00     0.210 C 
ENDBRANCH  27  35
ENDBRANCH  19  21
ENDBRANCH   1  19
TORSDOF 9
ENDMDL
MODEL 2
REMARK VINA RESULT: -8.738060848      0.984      1.082
REMARK  9 active torsions:
REMARK  status: ('A' for Active; 'I' for Inactive)
REMARK    1  A    between atoms: C2_2  and  C3_3 
REMARK    2  A    between atoms: C2_2  and  C4_6 
REMARK    3  A    between atoms: C3_3  and  O1_4 
REMARK    4  A    between atoms: C9_15  and  C10_16 
REMARK    5  A    between atoms: C10_16  and  O6_17 
REMARK    6  A    between atoms: O6_17  and  C11_18 
REMARK    7  A    between atoms: C11_18  and  C12_20 
REMARK    8  A    between atoms: C14_22  and  O8_23 
REMARK    9  A    between atoms: C17_27  and  O9_28 
ROOT
HETATM    1  O6  UNL     1       3.790  25.330  25.329  1.00  0.00    -0.312 OA
ENDROOT
BRANCH   1   2
HETATM    2  C10 UNL     1       2.928  26.292  25.835  1.00  0.00     0.251 C 
BRANCH   2   3
HETATM    3  C9  UNL     1       2.792  26.395  27.310  1.00  0.00     0.224 C 
HETATM    4  C6  UNL     1       1.897  25.309  27.890  1.00  0.00     0.230 C 
HETATM    5  C5  UNL     1       2.588  24.993  29.188  1.00  0.00     0.114 C 
HETATM    6  O2  UNL     1       0.635  25.843  28.048  1.00  0.00    -0.225 OA
HETATM    7  C4  UNL     1       3.484  26.219  29.357  1.00  0.00     0.202 C 
HETATM    8  O4  UNL     1       2.661  27.248  29.792  1.00  0.00    -0.289 OA
HETATM    9  O10 UNL     1       3.931  26.416  28.056  1.00  0.00    -0.309 OA
HETATM   10  C7  UNL     1       1.719  27.626  28.874  1.00  0.00     0.312 C 
HETATM   11  O3  UNL     1       0.624  26.756  28.989  1.00  0.00    -0.171 OA
HETATM   12  C8  UNL     1       1.283  29.059  29.187  1.00  0.00     0.118 C 
HETATM   13  O5  UNL     1       2.130  27.607  27.566  1.00  0.00    -0.289 OA
BRANCH   7  14
HETATM   14  C2  UNL     1       4.570  25.989  30.321  1.00  0.00    -0.004 C 
HETATM   15  C1  UNL     1       4.913  24.763  30.665  1.00  0.00     0.022 C 
BRANCH  14  16
HETATM   16  C3  UNL     1       5.301  27.131  30.925  1.00  0.00     0.203 C 
BRANCH  16  17
HETATM   17  O1  UNL     1       5.352  28.212  30.046  1.00  0.00    -0.397 OA
ATOM     18  H1  UNL     1       5.483  29.027  30.516  1.00  0.00     0.209 HD
ENDBRANCH  16  17
ENDBRANCH  14  16
ENDBRANCH   7  14
ENDBRANCH   2   3
ENDBRANCH   1   2
BRANCH   1  19
HETATM   19  C11 UNL     1       4.584  25.330  24.226  1.00  0.00     0.296 C 
HETATM   20  O7  UNL     1       4.354  26.233  23.351  1.00  0.00    -0.259 OA
BRANCH  19  21
HETATM   21  C12 UNL     1       5.664  24.364  24.007  1.00  0.00     0.076 A 
HETATM   22  C13 UNL     1       6.811  24.453  24.760  1.00  0.00     0.057 A 
HETATM   23  C14 UNL     1       7.801  23.520  24.544  1.00  0.00     0.073 A 
HETATM   24  C15 UNL     1       7.658  22.502  23.587  1.00  0.00    -0.015 A 
HETATM   25  C16 UNL     1       6.499  22.440  22.849  1.00  0.00    -0.011 A 
HETATM   26  C24 UNL     1       8.767  21.536  23.418  1.00  0.00     0.042 C 
HETATM   27  C17 UNL     1       5.514  23.372  23.067  1.00  0.00     0.091 A 
HETATM   28  C19 UNL     1       6.391  21.346  21.857  1.00  0.00     0.022 C 
HETATM   29  C20 UNL     1       7.247  21.617  20.621  1.00  0.00     0.015 C 
HETATM   30  C21 UNL     1       6.939  20.109  22.590  1.00  0.00    -0.010 C 
HETATM   31  C22 UNL     1       6.515  18.846  21.918  1.00  0.00     0.010 C 
HETATM   32  C23 UNL     1       8.414  20.292  22.676  1.00  0.00     0.009 C 
BRANCH  23  33
HETATM   33  O8  UNL     1       8.977  23.575  25.286  1.00  0.00    -0.360 OA
ATOM     34  H8  UNL     1       9.785  23.240  24.915  1.00  0.00     0.217 HD
ENDBRANCH  23  33
BRANCH  27  35
HETATM   35  O9  UNL     1       4.375  23.238  22.277  1.00  0.00    -0.354 OA
HETATM   36  C18 UNL     1       3.283  22.501  22.835  1.00  0.00     0.210 C 
ENDBRANCH  27  35
ENDBRANCH  19  21
ENDBRANCH   1  19
TORSDOF 9
ENDMDL
MODEL 3
REMARK VINA RESULT: -8.723126647      3.590      6.047
REMARK  9 active torsions:
REMARK  status: ('A' for Active; 'I' for Inactive)
REMARK    1  A    between atoms: C2_2  and  C3_3 
REMARK    2  A    between atoms: C2_2  and  C4_6 
REMARK    3  A    between atoms: C3_3  and  O1_4 
REMARK    4  A    between atoms: C9_15  and  C10_16 
REMARK    5  A    between atoms: C10_16  and  O6_17 
REMARK    6  A    between atoms: O6_17  and  C11_18 
REMARK    7  A    between atoms: C11_18  and  C12_20 
REMARK    8  A    between atoms: C14_22  and  O8_23 
REMARK    9  A    between atoms: C17_27  and  O9_28 
ROOT
HETATM    1  O6  UNL     1       2.983  24.481  23.729  1.00  0.00    -0.312 OA
ENDROOT
BRANCH   1   2
HETATM    2  C10 UNL     1       1.783  24.828  23.127  1.00  0.00     0.251 C 
BRANCH   2   3
HETATM    3  C9  UNL     1       1.099  23.801  22.301  1.00  0.00     0.224 C 
HETATM    4  C6  UNL     1      -0.333  23.550  22.752  1.00  0.00     0.230 C 
HETATM    5  C5  UNL     1      -1.042  23.334  21.443  1.00  0.00     0.114 C 
HETATM    6  O2  UNL     1      -0.327  22.440  23.571  1.00  0.00    -0.225 OA
HETATM    7  C4  UNL     1       0.134  23.055  20.508  1.00  0.00     0.202 C 
HETATM    8  O4  UNL     1       0.532  21.749  20.759  1.00  0.00    -0.289 OA
HETATM    9  O10 UNL     1       1.067  23.985  20.952  1.00  0.00    -0.309 OA
HETATM   10  C7  UNL     1       1.033  21.559  22.019  1.00  0.00     0.312 C 
HETATM   11  O3  UNL     1      -0.048  21.354  22.891  1.00  0.00    -0.171 OA
HETATM   12  C8  UNL     1       1.932  20.320  22.002  1.00  0.00     0.118 C 
HETATM   13  O5  UNL     1       1.781  22.593  22.519  1.00  0.00    -0.289 OA
BRANCH   7  14
HETATM   14  C2  UNL     1      -0.226  23.218  19.092  1.00  0.00    -0.004 C 
HETATM   15  C1  UNL     1      -1.340  23.835  18.750  1.00  0.00     0.022 C 
BRANCH  14  16
HETATM   16  C3  UNL     1       0.656  22.691  18.021  1.00  0.00     0.203 C 
BRANCH  16  17
HETATM   17  O1  UNL     1       1.992  22.994  18.279  1.00  0.00    -0.397 OA
ATOM     18  H1  UNL     1       2.475  23.120  17.471  1.00  0.00     0.209 HD
ENDBRANCH  16  17
ENDBRANCH  14  16
ENDBRANCH   7  14
ENDBRANCH   2   3
ENDBRANCH   1   2
BRANCH   1  19
HETATM   19  C11 UNL     1       4.245  24.955  23.550  1.00  0.00     0.296 C 
HETATM   20  O7  UNL     1       4.368  26.216  23.387  1.00  0.00    -0.259 OA
BRANCH  19  21
HETATM   21  C12 UNL     1       5.436  24.101  23.540  1.00  0.00     0.076 A 
HETATM   22  C13 UNL     1       6.471  24.378  24.403  1.00  0.00     0.057 A 
HETATM   23  C14 UNL     1       7.569  23.547  24.383  1.00  0.00     0.073 A 
HETATM   24  C15 UNL     1       7.644  22.445  23.515  1.00  0.00    -0.015 A 
HETATM   25  C16 UNL     1       6.593  22.196  22.665  1.00  0.00    -0.011 A 
HETATM   26  C24 UNL     1       8.859  21.599  23.558  1.00  0.00     0.042 C 
HETATM   27  C17 UNL     1       5.499  23.026  22.686  1.00  0.00     0.091 A 
HETATM   28  C19 UNL     1       6.715  21.019  21.772  1.00  0.00     0.022 C 
HETATM   29  C20 UNL     1       7.679  21.284  20.617  1.00  0.00     0.015 C 
HETATM   30  C21 UNL     1       7.296  19.915  22.672  1.00  0.00    -0.010 C 
HETATM   31  C22 UNL     1       7.085  18.563  22.078  1.00  0.00     0.010 C 
HETATM   32  C23 UNL     1       8.724  20.268  22.901  1.00  0.00     0.009 C 
BRANCH  23  33
HETATM   33  O8  UNL     1       8.637  23.793  25.240  1.00  0.00    -0.360 OA
ATOM     34  H8  UNL     1       9.364  23.181  25.276  1.00  0.00     0.217 HD
ENDBRANCH  23  33
BRANCH  27  35
HETATM   35  O9  UNL     1       4.481  22.702  21.793  1.00  0.00    -0.354 OA
HETATM   36  C18 UNL     1       4.550  23.292  20.491  1.00  0.00     0.210 C 
ENDBRANCH  27  35
ENDBRANCH  19  21
ENDBRANCH   1  19
TORSDOF 9
ENDMDL
MODEL 4
REMARK VINA RESULT: -8.711696649      1.936      4.305
REMARK  9 active torsions:
REMARK  status: ('A' for Active; 'I' for Inactive)
REMARK    1  A    between atoms: C2_2  and  C3_3 
REMARK    2  A    between atoms: C2_2  and  C4_6 
REMARK    3  A    between atoms: C3_3  and  O1_4 
REMARK    4  A    between atoms: C9_15  and  C10_16 
REMARK    5  A    between atoms: C10_16  and  O6_17 
REMARK    6  A    between atoms: O6_17  and  C11_18 
REMARK    7  A    between atoms: C11_18  and  C12_20 
REMARK    8  A    between atoms: C14_22  and  O8_23 
REMARK    9  A    between atoms: C17_27  and  O9_28 
ROOT
HETATM    1  O6  UNL     1       2.956  23.216  22.740  1.00  0.00    -0.312 OA
ENDROOT
BRANCH   1   2
HETATM    2  C10 UNL     1       2.104  24.101  23.381  1.00  0.00     0.251 C 
BRANCH   2   3
HETATM    3  C9  UNL     1       2.698  25.067  24.339  1.00  0.00     0.224 C 
HETATM    4  C6  UNL     1       3.029  26.404  23.691  1.00  0.00     0.230 C 
HETATM    5  C5  UNL     1       2.689  27.377  24.785  1.00  0.00     0.114 C 
HETATM    6  O2  UNL     1       4.367  26.389  23.355  1.00  0.00    -0.225 OA
HETATM    7  C4  UNL     1       2.650  26.456  26.004  1.00  0.00     0.202 C 
HETATM    8  O4  UNL     1       3.971  26.197  26.343  1.00  0.00    -0.289 OA
HETATM    9  O10 UNL     1       2.010  25.337  25.483  1.00  0.00    -0.309 OA
HETATM   10  C7  UNL     1       4.655  25.490  25.391  1.00  0.00     0.312 C 
HETATM   11  O3  UNL     1       5.122  26.397  24.427  1.00  0.00    -0.171 OA
HETATM   12  C8  UNL     1       5.837  24.788  26.064  1.00  0.00     0.118 C 
HETATM   13  O5  UNL     1       3.931  24.526  24.739  1.00  0.00    -0.289 OA
BRANCH   7  14
HETATM   14  C2  UNL     1       1.938  27.061  27.140  1.00  0.00    -0.004 C 
HETATM   15  C1  UNL     1       1.983  28.363  27.342  1.00  0.00     0.022 C 
BRANCH  14  16
HETATM   16  C3  UNL     1       1.156  26.218  28.079  1.00  0.00     0.203 C 
BRANCH  16  17
HETATM   17  O1  UNL     1       1.672  24.925  28.138  1.00  0.00    -0.397 OA
ATOM     18  H1  UNL     1       1.257  24.424  28.830  1.00  0.00     0.209 HD
ENDBRANCH  16  17
ENDBRANCH  14  16
ENDBRANCH   7  14
ENDBRANCH   2   3
ENDBRANCH   1   2
BRANCH   1  19
HETATM   19  C11 UNL     1       2.963  21.858  22.687  1.00  0.00     0.296 C 
HETATM   20  O7  UNL     1       2.058  21.251  23.355  1.00  0.00    -0.259 OA
BRANCH  19  21
HETATM   21  C12 UNL     1       3.938  21.083  21.915  1.00  0.00     0.076 A 
HETATM   22  C13 UNL     1       3.533  20.444  20.766  1.00  0.00     0.057 A 
HETATM   23  C14 UNL     1       4.476  19.739  20.052  1.00  0.00     0.073 A 
HETATM   24  C15 UNL     1       5.815  19.665  20.470  1.00  0.00    -0.015 A 
HETATM   25  C16 UNL     1       6.188  20.315  21.624  1.00  0.00    -0.011 A 
HETATM   26  C24 UNL     1       6.768  18.889  19.644  1.00  0.00     0.042 C 
HETATM   27  C17 UNL     1       5.245  21.017  22.334  1.00  0.00     0.091 A 
HETATM   28  C19 UNL     1       7.611  20.214  22.022  1.00  0.00     0.022 C 
HETATM   29  C20 UNL     1       7.940  18.840  22.605  1.00  0.00     0.015 C 
HETATM   30  C21 UNL     1       8.390  20.404  20.709  1.00  0.00    -0.010 C 
HETATM   31  C22 UNL     1       9.814  20.764  20.969  1.00  0.00     0.010 C 
HETATM   32  C23 UNL     1       8.208  19.151  19.927  1.00  0.00     0.009 C 
BRANCH  23  33
HETATM   33  O8  UNL     1       4.107  19.078  18.884  1.00  0.00    -0.360 OA
ATOM     34  H8  UNL     1       4.762  18.892  18.220  1.00  0.00     0.217 HD
ENDBRANCH  23  33
BRANCH  27  35
HETATM   35  O9  UNL     1       5.707  21.643  23.489  1.00  0.00    -0.354 OA
HETATM   36  C18 UNL     1       6.443  22.858  23.317  1.00  0.00     0.210 C 
ENDBRANCH  27  35
ENDBRANCH  19  21
ENDBRANCH   1  19
TORSDOF 9
ENDMDL
MODEL 5
REMARK VINA RESULT: -8.633388005      3.234      5.280
REMARK  9 active torsions:
REMARK  status: ('A' for Active; 'I' for Inactive)
REMARK    1  A    between atoms: C2_2  and  C3_3 
REMARK    2  A    between atoms: C2_2  and  C4_6 
REMARK    3  A    between atoms: C3_3  and  O1_4 
REMARK    4  A    between atoms: C9_15  and  C10_16 
REMARK    5  A    between atoms: C10_16  and  O6_17 
REMARK    6  A    between atoms: O6_17  and  C11_18 
REMARK    7  A    between atoms: C11_18  and  C12_20 
REMARK    8  A    between atoms: C14_22  and  O8_23 
REMARK    9  A    between atoms: C17_27  and  O9_28 
ROOT
HETATM    1  O6  UNL     1       3.047  24.541  24.335  1.00  0.00    -0.312 OA
ENDROOT
BRANCH   1   2
HETATM    2  C10 UNL     1       1.731  24.903  24.090  1.00  0.00     0.251 C 
BRANCH   2   3
HETATM    3  C9  UNL     1       0.940  24.059  23.160  1.00  0.00     0.224 C 
HETATM    4  C6  UNL     1       0.411  24.843  21.967  1.00  0.00     0.230 C 
HETATM    5  C5  UNL     1       0.533  23.841  20.853  1.00  0.00     0.114 C 
HETATM    6  O2  UNL     1      -0.889  25.207  22.248  1.00  0.00    -0.225 OA
HETATM    7  C4  UNL     1       0.681  22.537  21.636  1.00  0.00     0.202 C 
HETATM    8  O4  UNL     1      -0.588  22.207  22.090  1.00  0.00    -0.289 OA
HETATM    9  O10 UNL     1       1.525  22.931  22.669  1.00  0.00    -0.309 OA
HETATM   10  C7  UNL     1      -1.101  23.101  22.991  1.00  0.00     0.312 C 
HETATM   11  O3  UNL     1      -1.678  24.160  22.273  1.00  0.00    -0.171 OA
HETATM   12  C8  UNL     1      -2.170  22.391  23.825  1.00  0.00     0.118 C 
HETATM   13  O5  UNL     1      -0.196  23.638  23.870  1.00  0.00    -0.289 OA
BRANCH   7  14
HETATM   14  C2  UNL     1       1.231  21.450  20.814  1.00  0.00    -0.004 C 
HETATM   15  C1  UNL     1       0.991  21.402  19.518  1.00  0.00     0.022 C 
BRANCH  14  16
HETATM   16  C3  UNL     1       2.067  20.386  21.426  1.00  0.00     0.203 C 
BRANCH  16  17
HETATM   17  O1  UNL     1       1.600  20.053  22.695  1.00  0.00    -0.397 OA
ATOM     18  H1  UNL     1       1.332  20.828  23.174  1.00  0.00     0.209 HD
ENDBRANCH  16  17
ENDBRANCH  14  16
ENDBRANCH   7  14
ENDBRANCH   2   3
ENDBRANCH   1   2
BRANCH   1  19
HETATM   19  C11 UNL     1       4.210  24.947  23.760  1.00  0.00     0.296 C 
HETATM   20  O7  UNL     1       4.230  26.128  23.273  1.00  0.00    -0.259 OA
BRANCH  19  21
HETATM   21  C12 UNL     1       5.409  24.108  23.681  1.00  0.00     0.076 A 
HETATM   22  C13 UNL     1       6.477  24.380  24.503  1.00  0.00     0.057 A 
HETATM   23  C14 UNL     1       7.583  23.563  24.418  1.00  0.00     0.073 A 
HETATM   24  C15 UNL     1       7.633  22.480  23.526  1.00  0.00    -0.015 A 
HETATM   25  C16 UNL     1       6.548  22.235  22.717  1.00  0.00    -0.011 A 
HETATM   26  C24 UNL     1       8.857  21.648  23.498  1.00  0.00     0.042 C 
HETATM   27  C17 UNL     1       5.447  23.051  22.802  1.00  0.00     0.091 A 
HETATM   28  C19 UNL     1       6.645  21.078  21.795  1.00  0.00     0.022 C 
HETATM   29  C20 UNL     1       7.554  21.378  20.605  1.00  0.00     0.015 C 
HETATM   30  C21 UNL     1       7.277  19.963  22.647  1.00  0.00    -0.010 C 
HETATM   31  C22 UNL     1       7.056  18.621  22.035  1.00  0.00     0.010 C 
HETATM   32  C23 UNL     1       8.709  20.329  22.820  1.00  0.00     0.009 C 
BRANCH  23  33
HETATM   33  O8  UNL     1       8.685  23.805  25.233  1.00  0.00    -0.360 OA
ATOM     34  H8  UNL     1       9.558  23.808  24.858  1.00  0.00     0.217 HD
ENDBRANCH  23  33
BRANCH  27  35
HETATM   35  O9  UNL     1       4.395  22.733  21.948  1.00  0.00    -0.354 OA
HETATM   36  C18 UNL     1       4.378  23.381  20.672  1.00  0.00     0.210 C 
ENDBRANCH  27  35
ENDBRANCH  19  21
ENDBRANCH   1  19
TORSDOF 9
ENDMDL
