MODEL 1
REMARK VINA RESULT: -7.674472441      0.000      0.000
REMARK  11 active torsions:
REMARK  status: ('A' for Active; 'I' for Inactive)
REMARK    1  A    between atoms: C2_2  and  S1_3 
REMARK    2  A    between atoms: S1_3  and  C3_4 
REMARK    3  A    between atoms: C9_14  and  O3_15 
REMARK    4  A    between atoms: O3_15  and  C10_16 
REMARK    5  A    between atoms: C10_16  and  O4_17 
REMARK    6  A    between atoms: C10_16  and  O5_19 
REMARK    7  A    between atoms: O5_19  and  C11_20 
REMARK    8  A    between atoms: C16_25  and  C17_26 
REMARK    9  A    between atoms: C17_26  and  O6_27 
REMARK   10  A    between atoms: O6_27  and  C18_28 
REMARK   11  A    between atoms: C23_35  and  O9_36 
ROOT
HETATM    1  C3  UNL     1       7.897  21.187  21.477  1.00  0.00     0.202 C 
HETATM    2  N1  UNL     1       6.997  21.779  20.747  1.00  0.00    -0.237 N 
ATOM      3  H1  UNL     1       7.227  22.074  19.798  1.00  0.00     0.197 HD
HETATM    4  O1  UNL     1       5.724  22.012  21.254  1.00  0.00    -0.253 OA
HETATM    5  C4  UNL     1       5.226  20.903  22.036  1.00  0.00     0.205 C 
HETATM    6  C5  UNL     1       5.161  19.786  21.048  1.00  0.00     0.191 C 
HETATM    7  O2  UNL     1       5.773  18.754  21.302  1.00  0.00    -0.290 OA
HETATM    8  C6  UNL     1       4.415  19.807  19.770  1.00  0.00     0.054 C 
HETATM    9  C7  UNL     1       3.551  20.646  19.185  1.00  0.00     0.006 C 
HETATM   10  C8  UNL     1       3.018  21.928  19.667  1.00  0.00     0.033 C 
HETATM   11  C9  UNL     1       2.945  22.611  20.812  1.00  0.00     0.063 C 
HETATM   12  C15 UNL     1       3.358  22.434  22.175  1.00  0.00     0.105 C 
HETATM   13  C16 UNL     1       4.364  23.429  22.733  1.00  0.00    -0.046 C 
HETATM   14  C20 UNL     1       5.367  23.126  23.557  1.00  0.00    -0.018 C 
HETATM   15  C21 UNL     1       5.828  21.845  24.163  1.00  0.00     0.063 C 
HETATM   16  C22 UNL     1       6.162  20.756  23.149  1.00  0.00     0.182 C 
HETATM   17  O8  UNL     1       7.517  20.814  22.754  1.00  0.00    -0.320 OA
HETATM   18  C23 UNL     1       3.838  21.069  22.536  1.00  0.00     0.180 C 
ENDROOT
BRANCH  11  19
HETATM   19  O3  UNL     1       2.285  23.798  20.571  1.00  0.00    -0.300 OA
BRANCH  19  20
HETATM   20  C10 UNL     1       0.890  23.973  20.744  1.00  0.00     0.416 C 
BRANCH  20  21
HETATM   21  O4  UNL     1       0.745  25.074  21.601  1.00  0.00    -0.349 OA
ATOM     22  H4  UNL     1       1.165  24.825  22.416  1.00  0.00     0.215 HD
ENDBRANCH  20  21
BRANCH  20  23
HETATM   23  O5  UNL     1       0.326  24.205  19.506  1.00  0.00    -0.329 OA
BRANCH  23  24
HETATM   24  C11 UNL     1      -0.489  23.233  19.022  1.00  0.00     0.055 C 
HETATM   25  C12 UNL     1      -0.746  22.091  19.971  1.00  0.00     0.045 C 
HETATM   26  C13 UNL     1      -1.849  23.882  18.733  1.00  0.00     0.045 C 
HETATM   27  C14 UNL     1      -0.033  22.643  17.705  1.00  0.00     0.045 C 
ENDBRANCH  23  24
ENDBRANCH  20  23
ENDBRANCH  19  20
ENDBRANCH  11  19
BRANCH  13  28
HETATM   28  C17 UNL     1       4.191  24.821  22.294  1.00  0.00     0.213 C 
BRANCH  28  29
HETATM   29  O6  UNL     1       3.247  25.586  22.950  1.00  0.00    -0.317 OA
BRANCH  29  30
HETATM   30  C18 UNL     1       3.367  26.416  24.022  1.00  0.00     0.255 C 
HETATM   31  C19 UNL     1       4.183  26.118  25.233  1.00  0.00     0.126 C 
HETATM   32  O7  UNL     1       2.756  27.512  24.013  1.00  0.00    -0.266 OA
ENDBRANCH  29  30
ENDBRANCH  28  29
ENDBRANCH  13  28
BRANCH  18  33
HETATM   33  O9  UNL     1       2.953  20.062  22.145  1.00  0.00    -0.391 OA
ATOM     34  H9  UNL     1       2.390  19.739  22.838  1.00  0.00     0.210 HD
ENDBRANCH  18  33
BRANCH   1  35
HETATM   35  S1  UNL     1       9.541  20.880  20.840  1.00  0.00    -0.085 SA
BRANCH  35  36
HETATM   36  C2  UNL     1       9.355  19.989  19.255  1.00  0.00     0.078 C 
HETATM   37  C1  UNL     1       8.387  18.838  19.436  1.00  0.00     0.016 C 
ENDBRANCH  35  36
ENDBRANCH   1  35
TORSDOF 11
ENDMDL
MODEL 2
REMARK VINA RESULT: -7.460742476      1.425      1.671
REMARK  11 active torsions:
REMARK  status: ('A' for Active; 'I' for Inactive)
REMARK    1  A    between atoms: C2_2  and  S1_3 
REMARK    2  A    between atoms: S1_3  and  C3_4 
REMARK    3  A    between atoms: C9_14  and  O3_15 
REMARK    4  A    between atoms: O3_15  and  C10_16 
REMARK    5  A    between atoms: C10_16  and  O4_17 
REMARK    6  A    between atoms: C10_16  and  O5_19 
REMARK    7  A    between atoms: O5_19  and  C11_20 
REMARK    8  A    between atoms: C16_25  and  C17_26 
REMARK    9  A    between atoms: C17_26  and  O6_27 
REMARK   10  A    between atoms: O6_27  and  C18_28 
REMARK   11  A    between atoms: C23_35  and  O9_36 
ROOT
HETATM    1  C3  UNL     1       6.200  20.650  20.402  1.00  0.00     0.202 C 
HETATM    2  N1  UNL     1       5.290  21.426  19.887  1.00  0.00    -0.237 N 
ATOM      3  H1  UNL     1       5.374  21.733  18.919  1.00  0.00     0.197 HD
HETATM    4  O1  UNL     1       4.204  21.837  20.651  1.00  0.00    -0.253 OA
HETATM    5  C4  UNL     1       3.686  20.782  21.494  1.00  0.00     0.205 C 
HETATM    6  C5  UNL     1       3.232  19.751  20.515  1.00  0.00     0.191 C 
HETATM    7  O2  UNL     1       3.693  18.619  20.613  1.00  0.00    -0.290 OA
HETATM    8  C6  UNL     1       2.261  19.970  19.419  1.00  0.00     0.054 C 
HETATM    9  C7  UNL     1       1.459  20.973  19.044  1.00  0.00     0.006 C 
HETATM   10  C8  UNL     1       1.264  22.296  19.655  1.00  0.00     0.033 C 
HETATM   11  C9  UNL     1       1.541  22.914  20.806  1.00  0.00     0.063 C 
HETATM   12  C15 UNL     1       2.180  22.592  22.050  1.00  0.00     0.105 C 
HETATM   13  C16 UNL     1       3.435  23.371  22.412  1.00  0.00    -0.046 C 
HETATM   14  C20 UNL     1       4.514  22.859  23.003  1.00  0.00    -0.018 C 
HETATM   15  C21 UNL     1       4.855  21.486  23.471  1.00  0.00     0.063 C 
HETATM   16  C22 UNL     1       4.786  20.418  22.386  1.00  0.00     0.182 C 
HETATM   17  O8  UNL     1       6.023  20.272  21.720  1.00  0.00    -0.320 OA
HETATM   18  C23 UNL     1       2.476  21.147  22.273  1.00  0.00     0.180 C 
ENDROOT
BRANCH  11  19
HETATM   19  O3  UNL     1       1.064  24.206  20.734  1.00  0.00    -0.300 OA
BRANCH  19  20
HETATM   20  C10 UNL     1      -0.234  24.591  21.149  1.00  0.00     0.416 C 
BRANCH  20  21
HETATM   21  O4  UNL     1      -0.047  25.596  22.109  1.00  0.00    -0.349 OA
ATOM     22  H4  UNL     1      -0.907  25.772  22.471  1.00  0.00     0.215 HD
ENDBRANCH  20  21
BRANCH  20  23
HETATM   23  O5  UNL     1      -0.923  25.052  20.046  1.00  0.00    -0.329 OA
BRANCH  23  24
HETATM   24  C11 UNL     1      -1.982  24.305  19.639  1.00  0.00     0.055 C 
HETATM   25  C12 UNL     1      -2.379  23.201  20.585  1.00  0.00     0.045 C 
HETATM   26  C13 UNL     1      -3.188  25.247  19.529  1.00  0.00     0.045 C 
HETATM   27  C14 UNL     1      -1.816  23.695  18.265  1.00  0.00     0.045 C 
ENDBRANCH  23  24
ENDBRANCH  20  23
ENDBRANCH  19  20
ENDBRANCH  11  19
BRANCH  13  28
HETATM   28  C17 UNL     1       3.423  24.796  22.049  1.00  0.00     0.213 C 
BRANCH  28  29
HETATM   29  O6  UNL     1       2.785  25.669  22.908  1.00  0.00    -0.317 OA
BRANCH  29  30
HETATM   30  C18 UNL     1       3.277  26.447  23.910  1.00  0.00     0.255 C 
HETATM   31  C19 UNL     1       4.392  26.051  24.816  1.00  0.00     0.126 C 
HETATM   32  O7  UNL     1       2.772  27.579  24.105  1.00  0.00    -0.266 OA
ENDBRANCH  29  30
ENDBRANCH  28  29
ENDBRANCH  13  28
BRANCH  18  33
HETATM   33  O9  UNL     1       1.370  20.326  22.050  1.00  0.00    -0.391 OA
ATOM     34  H9  UNL     1       1.559  19.395  22.057  1.00  0.00     0.210 HD
ENDBRANCH  18  33
BRANCH   1  35
HETATM   35  S1  UNL     1       7.605  20.112  19.432  1.00  0.00    -0.085 SA
BRANCH  35  36
HETATM   36  C2  UNL     1       8.939  19.671  20.601  1.00  0.00     0.078 C 
HETATM   37  C1  UNL     1       9.649  20.932  21.051  1.00  0.00     0.016 C 
ENDBRANCH  35  36
ENDBRANCH   1  35
TORSDOF 11
ENDMDL
MODEL 3
REMARK VINA RESULT: -7.281795092      2.840      6.627
REMARK  11 active torsions:
REMARK  status: ('A' for Active; 'I' for Inactive)
REMARK    1  A    between atoms: C2_2  and  S1_3 
REMARK    2  A    between atoms: S1_3  and  C3_4 
REMARK    3  A    between atoms: C9_14  and  O3_15 
REMARK    4  A    between atoms: O3_15  and  C10_16 
REMARK    5  A    between atoms: C10_16  and  O4_17 
REMARK    6  A    between atoms: C10_16  and  O5_19 
REMARK    7  A    between atoms: O5_19  and  C11_20 
REMARK    8  A    between atoms: C16_25  and  C17_26 
REMARK    9  A    between atoms: C17_26  and  O6_27 
REMARK   10  A    between atoms: O6_27  and  C18_28 
REMARK   11  A    between atoms: C23_35  and  O9_36 
ROOT
HETATM    1  C3  UNL     1       0.836  23.221  23.106  1.00  0.00     0.202 C 
HETATM    2  N1  UNL     1       1.558  22.139  23.168  1.00  0.00    -0.237 N 
ATOM      3  H1  UNL     1       1.166  21.290  23.574  1.00  0.00     0.197 HD
HETATM    4  O1  UNL     1       2.861  22.136  22.682  1.00  0.00    -0.253 OA
HETATM    5  C4  UNL     1       2.995  22.878  21.448  1.00  0.00     0.205 C 
HETATM    6  C5  UNL     1       2.119  22.130  20.499  1.00  0.00     0.191 C 
HETATM    7  O2  UNL     1       1.225  22.747  19.931  1.00  0.00    -0.290 OA
HETATM    8  C6  UNL     1       2.230  20.690  20.175  1.00  0.00     0.054 C 
HETATM    9  C7  UNL     1       3.101  19.714  20.459  1.00  0.00     0.006 C 
HETATM   10  C8  UNL     1       4.336  19.763  21.255  1.00  0.00     0.033 C 
HETATM   11  C9  UNL     1       5.164  20.682  21.757  1.00  0.00     0.063 C 
HETATM   12  C15 UNL     1       5.268  22.113  21.772  1.00  0.00     0.105 C 
HETATM   13  C16 UNL     1       5.185  22.804  23.125  1.00  0.00    -0.046 C 
HETATM   14  C20 UNL     1       4.562  23.958  23.360  1.00  0.00    -0.018 C 
HETATM   15  C21 UNL     1       3.795  24.891  22.488  1.00  0.00     0.063 C 
HETATM   16  C22 UNL     1       2.611  24.251  21.772  1.00  0.00     0.182 C 
HETATM   17  O8  UNL     1       1.430  24.336  22.544  1.00  0.00    -0.320 OA
HETATM   18  C23 UNL     1       4.352  22.840  20.846  1.00  0.00     0.180 C 
ENDROOT
BRANCH  11  19
HETATM   19  O3  UNL     1       6.177  20.035  22.432  1.00  0.00    -0.300 OA
BRANCH  19  20
HETATM   20  C10 UNL     1       7.541  20.098  22.056  1.00  0.00     0.416 C 
BRANCH  20  21
HETATM   21  O4  UNL     1       8.273  19.800  23.214  1.00  0.00    -0.349 OA
ATOM     22  H4  UNL     1       9.154  19.602  22.921  1.00  0.00     0.215 HD
ENDBRANCH  20  21
BRANCH  20  23
HETATM   23  O5  UNL     1       7.758  19.174  21.055  1.00  0.00    -0.329 OA
BRANCH  23  24
HETATM   24  C11 UNL     1       8.363  19.633  19.929  1.00  0.00     0.055 C 
HETATM   25  C12 UNL     1       8.672  18.576  18.900  1.00  0.00     0.045 C 
HETATM   26  C13 UNL     1       7.398  20.625  19.266  1.00  0.00     0.045 C 
HETATM   27  C14 UNL     1       9.635  20.411  20.184  1.00  0.00     0.045 C 
ENDBRANCH  23  24
ENDBRANCH  20  23
ENDBRANCH  19  20
ENDBRANCH  11  19
BRANCH  13  28
HETATM   28  C17 UNL     1       5.845  22.104  24.236  1.00  0.00     0.213 C 
BRANCH  28  29
HETATM   29  O6  UNL     1       7.172  22.398  24.480  1.00  0.00    -0.317 OA
BRANCH  29  30
HETATM   30  C18 UNL     1       7.739  23.386  25.224  1.00  0.00     0.255 C 
HETATM   31  C19 UNL     1       6.975  24.403  26.001  1.00  0.00     0.126 C 
HETATM   32  O7  UNL     1       8.990  23.468  25.273  1.00  0.00    -0.266 OA
ENDBRANCH  29  30
ENDBRANCH  28  29
ENDBRANCH  13  28
BRANCH  18  33
HETATM   33  O9  UNL     1       4.397  22.348  19.541  1.00  0.00    -0.391 OA
ATOM     34  H9  UNL     1       4.276  23.005  18.866  1.00  0.00     0.210 HD
ENDBRANCH  18  33
BRANCH   1  35
HETATM   35  S1  UNL     1      -0.842  23.242  23.727  1.00  0.00    -0.085 SA
BRANCH  35  36
HETATM   36  C2  UNL     1      -1.958  23.033  22.294  1.00  0.00     0.078 C 
HETATM   37  C1  UNL     1      -1.701  21.686  21.650  1.00  0.00     0.016 C 
ENDBRANCH  35  36
ENDBRANCH   1  35
TORSDOF 11
ENDMDL
MODEL 4
REMARK VINA RESULT: -7.215721749      3.042      6.640
REMARK  11 active torsions:
REMARK  status: ('A' for Active; 'I' for Inactive)
REMARK    1  A    between atoms: C2_2  and  S1_3 
REMARK    2  A    between atoms: S1_3  and  C3_4 
REMARK    3  A    between atoms: C9_14  and  O3_15 
REMARK    4  A    between atoms: O3_15  and  C10_16 
REMARK    5  A    between atoms: C10_16  and  O4_17 
REMARK    6  A    between atoms: C10_16  and  O5_19 
REMARK    7  A    between atoms: O5_19  and  C11_20 
REMARK    8  A    between atoms: C16_25  and  C17_26 
REMARK    9  A    between atoms: C17_26  and  O6_27 
REMARK   10  A    between atoms: O6_27  and  C18_28 
REMARK   11  A    between atoms: C23_35  and  O9_36 
ROOT
HETATM    1  C3  UNL     1      -0.884  21.722  20.631  1.00  0.00     0.202 C 
HETATM    2  N1  UNL     1       0.116  21.154  21.241  1.00  0.00    -0.237 N 
ATOM      3  H1  UNL     1      -0.055  20.383  21.885  1.00  0.00     0.197 HD
HETATM    4  O1  UNL     1       1.415  21.595  21.018  1.00  0.00    -0.253 OA
HETATM    5  C4  UNL     1       1.664  21.915  19.630  1.00  0.00     0.205 C 
HETATM    6  C5  UNL     1       1.465  20.610  18.935  1.00  0.00     0.191 C 
HETATM    7  O2  UNL     1       0.641  20.559  18.027  1.00  0.00    -0.290 OA
HETATM    8  C6  UNL     1       2.180  19.351  19.241  1.00  0.00     0.054 C 
HETATM    9  C7  UNL     1       3.201  19.005  20.034  1.00  0.00     0.006 C 
HETATM   10  C8  UNL     1       4.013  19.837  20.934  1.00  0.00     0.033 C 
HETATM   11  C9  UNL     1       4.252  21.133  21.150  1.00  0.00     0.063 C 
HETATM   12  C15 UNL     1       3.828  22.390  20.602  1.00  0.00     0.105 C 
HETATM   13  C16 UNL     1       3.076  23.335  21.528  1.00  0.00    -0.046 C 
HETATM   14  C20 UNL     1       2.041  24.096  21.172  1.00  0.00    -0.018 C 
HETATM   15  C21 UNL     1       1.314  24.279  19.884  1.00  0.00     0.063 C 
HETATM   16  C22 UNL     1       0.732  22.994  19.305  1.00  0.00     0.182 C 
HETATM   17  O8  UNL     1      -0.581  22.763  19.772  1.00  0.00    -0.320 OA
HETATM   18  C23 UNL     1       3.060  22.316  19.326  1.00  0.00     0.180 C 
ENDROOT
BRANCH  11  19
HETATM   19  O3  UNL     1       5.156  21.243  22.185  1.00  0.00    -0.300 OA
BRANCH  19  20
HETATM   20  C10 UNL     1       6.524  21.566  22.006  1.00  0.00     0.416 C 
BRANCH  20  21
HETATM   21  O4  UNL     1       6.887  22.329  23.124  1.00  0.00    -0.349 OA
ATOM     22  H4  UNL     1       6.915  23.230  22.826  1.00  0.00     0.215 HD
ENDBRANCH  20  21
BRANCH  20  23
HETATM   23  O5  UNL     1       7.240  20.389  21.928  1.00  0.00    -0.329 OA
BRANCH  23  24
HETATM   24  C11 UNL     1       7.934  20.180  20.780  1.00  0.00     0.055 C 
HETATM   25  C12 UNL     1       9.407  20.487  20.865  1.00  0.00     0.045 C 
HETATM   26  C13 UNL     1       7.813  18.687  20.441  1.00  0.00     0.045 C 
HETATM   27  C14 UNL     1       7.380  20.914  19.579  1.00  0.00     0.045 C 
ENDBRANCH  23  24
ENDBRANCH  20  23
ENDBRANCH  19  20
ENDBRANCH  11  19
BRANCH  13  28
HETATM   28  C17 UNL     1       3.549  23.371  22.919  1.00  0.00     0.213 C 
BRANCH  28  29
HETATM   29  O6  UNL     1       4.542  24.278  23.234  1.00  0.00    -0.317 OA
BRANCH  29  30
HETATM   30  C18 UNL     1       4.478  25.476  23.875  1.00  0.00     0.255 C 
HETATM   31  C19 UNL     1       5.088  25.755  25.206  1.00  0.00     0.126 C 
HETATM   32  O7  UNL     1       3.867  26.426  23.329  1.00  0.00    -0.266 OA
ENDBRANCH  29  30
ENDBRANCH  28  29
ENDBRANCH  13  28
BRANCH  18  33
HETATM   33  O9  UNL     1       3.692  21.536  18.357  1.00  0.00    -0.391 OA
ATOM     34  H9  UNL     1       4.615  21.375  18.518  1.00  0.00     0.210 HD
ENDBRANCH  18  33
BRANCH   1  35
HETATM   35  S1  UNL     1      -2.563  21.168  20.906  1.00  0.00    -0.085 SA
BRANCH  35  36
HETATM   36  C2  UNL     1      -2.860  21.197  22.709  1.00  0.00     0.078 C 
HETATM   37  C1  UNL     1      -3.740  20.025  23.093  1.00  0.00     0.016 C 
ENDBRANCH  35  36
ENDBRANCH   1  35
TORSDOF 11
ENDMDL
MODEL 5
REMARK VINA RESULT: -7.183299209      2.981      6.555
REMARK  11 active torsions:
REMARK  status: ('A' for Active; 'I' for Inactive)
REMARK    1  A    between atoms: C2_2  and  S1_3 
REMARK    2  A    between atoms: S1_3  and  C3_4 
REMARK    3  A    between atoms: C9_14  and  O3_15 
REMARK    4  A    between atoms: O3_15  and  C10_16 
REMARK    5  A    between atoms: C10_16  and  O4_17 
REMARK    6  A    between atoms: C10_16  and  O5_19 
REMARK    7  A    between atoms: O5_19  and  C11_20 
REMARK    8  A    between atoms: C16_25  and  C17_26 
REMARK    9  A    between atoms: C17_26  and  O6_27 
REMARK   10  A    between atoms: O6_27  and  C18_28 
REMARK   11  A    between atoms: C23_35  and  O9_36 
ROOT
HETATM    1  C3  UNL     1      -0.904  21.693  20.518  1.00  0.00     0.202 C 
HETATM    2  N1  UNL     1       0.087  21.138  21.154  1.00  0.00    -0.237 N 
ATOM      3  H1  UNL     1      -0.093  20.374  21.805  1.00  0.00     0.197 HD
HETATM    4  O1  UNL     1       1.388  21.582  20.951  1.00  0.00    -0.253 OA
HETATM    5  C4  UNL     1       1.661  21.887  19.564  1.00  0.00     0.205 C 
HETATM    6  C5  UNL     1       1.482  20.572  18.881  1.00  0.00     0.191 C 
HETATM    7  O2  UNL     1       0.677  20.505  17.959  1.00  0.00    -0.290 OA
HETATM    8  C6  UNL     1       2.198  19.320  19.218  1.00  0.00     0.054 C 
HETATM    9  C7  UNL     1       3.205  18.989  20.034  1.00  0.00     0.006 C 
HETATM   10  C8  UNL     1       3.996  19.837  20.939  1.00  0.00     0.033 C 
HETATM   11  C9  UNL     1       4.224  21.136  21.143  1.00  0.00     0.063 C 
HETATM   12  C15 UNL     1       3.804  22.384  20.572  1.00  0.00     0.105 C 
HETATM   13  C16 UNL     1       3.030  23.337  21.471  1.00  0.00    -0.046 C 
HETATM   14  C20 UNL     1       1.999  24.088  21.086  1.00  0.00    -0.018 C 
HETATM   15  C21 UNL     1       1.296  24.251  19.782  1.00  0.00     0.063 C 
HETATM   16  C22 UNL     1       0.732  22.957  19.208  1.00  0.00     0.182 C 
HETATM   17  O8  UNL     1      -0.589  22.724  19.652  1.00  0.00    -0.320 OA
HETATM   18  C23 UNL     1       3.062  22.291  19.282  1.00  0.00     0.180 C 
ENDROOT
BRANCH  11  19
HETATM   19  O3  UNL     1       5.107  21.264  22.193  1.00  0.00    -0.300 OA
BRANCH  19  20
HETATM   20  C10 UNL     1       6.476  21.594  22.037  1.00  0.00     0.416 C 
BRANCH  20  21
HETATM   21  O4  UNL     1       6.815  22.367  23.156  1.00  0.00    -0.349 OA
ATOM     22  H4  UNL     1       7.446  21.853  23.645  1.00  0.00     0.215 HD
ENDBRANCH  20  21
BRANCH  20  23
HETATM   23  O5  UNL     1       7.200  20.421  21.980  1.00  0.00    -0.329 OA
BRANCH  23  24
HETATM   24  C11 UNL     1       7.922  20.211  20.849  1.00  0.00     0.055 C 
HETATM   25  C12 UNL     1       9.389  20.539  20.963  1.00  0.00     0.045 C 
HETATM   26  C13 UNL     1       7.829  18.715  20.520  1.00  0.00     0.045 C 
HETATM   27  C14 UNL     1       7.385  20.929  19.630  1.00  0.00     0.045 C 
ENDBRANCH  23  24
ENDBRANCH  20  23
ENDBRANCH  19  20
ENDBRANCH  11  19
BRANCH  13  28
HETATM   28  C17 UNL     1       3.477  23.392  22.870  1.00  0.00     0.213 C 
BRANCH  28  29
HETATM   29  O6  UNL     1       4.508  24.257  23.178  1.00  0.00    -0.317 OA
BRANCH  29  30
HETATM   30  C18 UNL     1       4.497  25.467  23.798  1.00  0.00     0.255 C 
HETATM   31  C19 UNL     1       5.262  25.790  25.036  1.00  0.00     0.126 C 
HETATM   32  O7  UNL     1       3.799  26.392  23.314  1.00  0.00    -0.266 OA
ENDBRANCH  29  30
ENDBRANCH  28  29
ENDBRANCH  13  28
BRANCH  18  33
HETATM   33  O9  UNL     1       3.716  21.502  18.335  1.00  0.00    -0.391 OA
ATOM     34  H9  UNL     1       4.502  21.890  17.970  1.00  0.00     0.210 HD
ENDBRANCH  18  33
BRANCH   1  35
HETATM   35  S1  UNL     1      -2.585  21.134  20.768  1.00  0.00    -0.085 SA
BRANCH  35  36
HETATM   36  C2  UNL     1      -3.287  20.757  19.123  1.00  0.00     0.078 C 
HETATM   37  C1  UNL     1      -2.641  19.499  18.578  1.00  0.00     0.016 C 
ENDBRANCH  35  36
ENDBRANCH   1  35
TORSDOF 11
ENDMDL
