MODEL 1
REMARK VINA RESULT: -7.922648966      0.000      0.000
REMARK  9 active torsions:
REMARK  status: ('A' for Active; 'I' for Inactive)
REMARK    1  A    between atoms: O1_2  and  C2_3 
REMARK    2  A    between atoms: C6_7  and  O2_8 
REMARK    3  A    between atoms: C7_10  and  C8_11 
REMARK    4  A    between atoms: C8_11  and  C9_12 
REMARK    5  A    between atoms: C13_16  and  O3_17 
REMARK    6  A    between atoms: O3_17  and  C14_18 
REMARK    7  A    between atoms: C16_21  and  O5_22 
REMARK    8  A    between atoms: O5_22  and  C17_23 
REMARK    9  A    between atoms: C19_26  and  O7_27 
ROOT
HETATM    1  C2  UNL     1       5.453  24.970  24.897  1.00  0.00     0.078 A 
HETATM    2  C3  UNL     1       6.136  23.759  24.998  1.00  0.00     0.047 A 
HETATM    3  C4  UNL     1       5.932  22.722  24.120  1.00  0.00    -0.020 A 
HETATM    4  C5  UNL     1       5.033  22.830  23.086  1.00  0.00     0.016 A 
HETATM    5  C6  UNL     1       4.353  24.033  22.982  1.00  0.00     0.084 A 
HETATM    6  C7  UNL     1       4.551  25.094  23.866  1.00  0.00     0.012 A 
HETATM    7  C13 UNL     1       4.556  21.973  21.981  1.00  0.00     0.201 C 
HETATM    8  C16 UNL     1       5.622  21.692  20.958  1.00  0.00     0.214 C 
HETATM    9  C19 UNL     1       6.649  20.704  21.392  1.00  0.00     0.168 C 
HETATM   10  S1  UNL     1       7.882  20.604  20.030  1.00  0.00    -0.049 SA
HETATM   11  C20 UNL     1       9.374  20.785  21.049  1.00  0.00     0.191 C 
HETATM   12  O8  UNL     1      10.488  21.087  20.698  1.00  0.00    -0.285 OA
HETATM   13  C21 UNL     1       8.850  20.458  22.424  1.00  0.00     0.127 C 
HETATM   14  C22 UNL     1       7.509  21.142  22.531  1.00  0.00     0.177 C 
HETATM   15  O9  UNL     1       6.921  20.615  23.706  1.00  0.00    -0.377 OA
HETATM   16  C23 UNL     1       6.861  21.672  24.616  1.00  0.00     0.207 C 
ENDROOT
BRANCH   6  17
HETATM   17  C8  UNL     1       3.802  26.366  23.706  1.00  0.00     0.071 C 
BRANCH  17  18
HETATM   18  C9  UNL     1       3.094  26.705  24.965  1.00  0.00    -0.020 C 
HETATM   19  C10 UNL     1       2.058  26.075  25.440  1.00  0.00    -0.091 C 
HETATM   20  C11 UNL     1       1.446  26.522  26.722  1.00  0.00     0.042 C 
HETATM   21  C12 UNL     1       1.429  24.924  24.742  1.00  0.00     0.042 C 
ENDBRANCH  17  18
ENDBRANCH   6  17
BRANCH   1  22
HETATM   22  O1  UNL     1       5.695  25.995  25.815  1.00  0.00    -0.355 OA
HETATM   23  C1  UNL     1       5.615  25.680  27.187  1.00  0.00     0.210 C 
ENDBRANCH   1  22
BRANCH   5  24
HETATM   24  O2  UNL     1       3.429  24.192  21.945  1.00  0.00    -0.359 OA
ATOM     25  H2  UNL     1       2.505  24.233  22.161  1.00  0.00     0.217 HD
ENDBRANCH   5  24
BRANCH   7  26
HETATM   26  O3  UNL     1       4.040  20.745  22.402  1.00  0.00    -0.309 OA
BRANCH  26  27
HETATM   27  C14 UNL     1       2.706  20.401  22.278  1.00  0.00     0.255 C 
HETATM   28  C15 UNL     1       1.630  21.114  23.015  1.00  0.00     0.126 C 
HETATM   29  O4  UNL     1       2.426  19.461  21.519  1.00  0.00    -0.266 OA
ENDBRANCH  26  27
ENDBRANCH   7  26
BRANCH   8  30
HETATM   30  O5  UNL     1       4.960  21.129  19.818  1.00  0.00    -0.309 OA
BRANCH  30  31
HETATM   31  C17 UNL     1       4.306  21.910  18.882  1.00  0.00     0.255 C 
HETATM   32  C18 UNL     1       2.824  21.910  18.779  1.00  0.00     0.126 C 
HETATM   33  O6  UNL     1       5.028  22.620  18.123  1.00  0.00    -0.266 OA
ENDBRANCH  30  31
ENDBRANCH   8  30
BRANCH   9  34
HETATM   34  O7  UNL     1       6.131  19.447  21.665  1.00  0.00    -0.373 OA
ATOM     35  H7  UNL     1       5.833  18.982  20.893  1.00  0.00     0.212 HD
ENDBRANCH   9  34
TORSDOF 9
ENDMDL
MODEL 2
REMARK VINA RESULT: -7.828510317      2.623      6.607
REMARK  9 active torsions:
REMARK  status: ('A' for Active; 'I' for Inactive)
REMARK    1  A    between atoms: O1_2  and  C2_3 
REMARK    2  A    between atoms: C6_7  and  O2_8 
REMARK    3  A    between atoms: C7_10  and  C8_11 
REMARK    4  A    between atoms: C8_11  and  C9_12 
REMARK    5  A    between atoms: C13_16  and  O3_17 
REMARK    6  A    between atoms: O3_17  and  C14_18 
REMARK    7  A    between atoms: C16_21  and  O5_22 
REMARK    8  A    between atoms: O5_22  and  C17_23 
REMARK    9  A    between atoms: C19_26  and  O7_27 
ROOT
HETATM    1  C2  UNL     1       6.845  22.857  23.750  1.00  0.00     0.078 A 
HETATM    2  C3  UNL     1       6.250  24.109  23.894  1.00  0.00     0.047 A 
HETATM    3  C4  UNL     1       4.956  24.359  23.507  1.00  0.00    -0.020 A 
HETATM    4  C5  UNL     1       4.174  23.374  22.954  1.00  0.00     0.016 A 
HETATM    5  C6  UNL     1       4.763  22.127  22.810  1.00  0.00     0.084 A 
HETATM    6  C7  UNL     1       6.076  21.860  23.198  1.00  0.00     0.012 A 
HETATM    7  C13 UNL     1       2.796  23.257  22.435  1.00  0.00     0.201 C 
HETATM    8  C16 UNL     1       1.754  23.409  23.510  1.00  0.00     0.214 C 
HETATM    9  C19 UNL     1       1.550  24.810  23.977  1.00  0.00     0.168 C 
HETATM   10  S1  UNL     1       0.317  24.727  25.341  1.00  0.00    -0.049 SA
HETATM   11  C20 UNL     1       1.225  25.742  26.541  1.00  0.00     0.191 C 
HETATM   12  O8  UNL     1       1.063  25.815  27.735  1.00  0.00    -0.285 OA
HETATM   13  C21 UNL     1       2.215  26.455  25.656  1.00  0.00     0.127 C 
HETATM   14  C22 UNL     1       2.717  25.421  24.677  1.00  0.00     0.177 C 
HETATM   15  O9  UNL     1       3.432  26.157  23.701  1.00  0.00    -0.377 OA
HETATM   16  C23 UNL     1       4.772  25.795  23.850  1.00  0.00     0.207 C 
ENDROOT
BRANCH   6  17
HETATM   17  C8  UNL     1       6.656  20.504  23.030  1.00  0.00     0.071 C 
BRANCH  17  18
HETATM   18  C9  UNL     1       7.099  20.307  21.628  1.00  0.00    -0.020 C 
HETATM   19  C10 UNL     1       8.331  20.376  21.210  1.00  0.00    -0.091 C 
HETATM   20  C11 UNL     1       8.635  20.154  19.770  1.00  0.00     0.042 C 
HETATM   21  C12 UNL     1       9.467  20.695  22.112  1.00  0.00     0.042 C 
ENDBRANCH  17  18
ENDBRANCH   6  17
BRANCH   1  22
HETATM   22  O1  UNL     1       8.166  22.653  24.157  1.00  0.00    -0.355 OA
HETATM   23  C1  UNL     1       8.618  23.352  25.296  1.00  0.00     0.210 C 
ENDBRANCH   1  22
BRANCH   5  24
HETATM   24  O2  UNL     1       4.007  21.090  22.253  1.00  0.00    -0.359 OA
ATOM     25  H2  UNL     1       4.280  20.194  22.410  1.00  0.00     0.217 HD
ENDBRANCH   5  24
BRANCH   7  26
HETATM   26  O3  UNL     1       2.495  24.171  21.422  1.00  0.00    -0.309 OA
BRANCH  26  27
HETATM   27  C14 UNL     1       1.860  23.816  20.245  1.00  0.00     0.255 C 
HETATM   28  C15 UNL     1       2.335  22.693  19.395  1.00  0.00     0.126 C 
HETATM   29  O4  UNL     1       0.863  24.472  19.913  1.00  0.00    -0.266 OA
ENDBRANCH  26  27
ENDBRANCH   7  26
BRANCH   8  30
HETATM   30  O5  UNL     1       0.512  22.976  22.941  1.00  0.00    -0.309 OA
BRANCH  30  31
HETATM   31  C17 UNL     1       0.333  21.698  22.443  1.00  0.00     0.255 C 
HETATM   32  C18 UNL     1      -0.744  21.397  21.466  1.00  0.00     0.126 C 
HETATM   33  O6  UNL     1       1.127  20.804  22.858  1.00  0.00    -0.266 OA
ENDBRANCH  30  31
ENDBRANCH   8  30
BRANCH   9  34
HETATM   34  O7  UNL     1       1.108  25.669  22.982  1.00  0.00    -0.373 OA
ATOM     35  H7  UNL     1       0.526  26.350  23.297  1.00  0.00     0.212 HD
ENDBRANCH   9  34
TORSDOF 9
ENDMDL
MODEL 3
REMARK VINA RESULT: -7.583817327      2.491      6.120
REMARK  9 active torsions:
REMARK  status: ('A' for Active; 'I' for Inactive)
REMARK    1  A    between atoms: O1_2  and  C2_3 
REMARK    2  A    between atoms: C6_7  and  O2_8 
REMARK    3  A    between atoms: C7_10  and  C8_11 
REMARK    4  A    between atoms: C8_11  and  C9_12 
REMARK    5  A    between atoms: C13_16  and  O3_17 
REMARK    6  A    between atoms: O3_17  and  C14_18 
REMARK    7  A    between atoms: C16_21  and  O5_22 
REMARK    8  A    between atoms: O5_22  and  C17_23 
REMARK    9  A    between atoms: C19_26  and  O7_27 
ROOT
HETATM    1  C2  UNL     1       5.673  23.805  24.467  1.00  0.00     0.078 A 
HETATM    2  C3  UNL     1       4.591  24.528  23.968  1.00  0.00     0.047 A 
HETATM    3  C4  UNL     1       3.806  24.065  22.940  1.00  0.00    -0.020 A 
HETATM    4  C5  UNL     1       4.051  22.850  22.347  1.00  0.00     0.016 A 
HETATM    5  C6  UNL     1       5.126  22.127  22.842  1.00  0.00     0.084 A 
HETATM    6  C7  UNL     1       5.931  22.586  23.884  1.00  0.00     0.012 A 
HETATM    7  C13 UNL     1       3.456  22.041  21.263  1.00  0.00     0.201 C 
HETATM    8  C16 UNL     1       2.077  21.542  21.597  1.00  0.00     0.214 C 
HETATM    9  C19 UNL     1       1.011  22.581  21.522  1.00  0.00     0.168 C 
HETATM   10  S1  UNL     1      -0.548  21.765  22.062  1.00  0.00    -0.049 SA
HETATM   11  C20 UNL     1      -1.080  23.034  23.246  1.00  0.00     0.191 C 
HETATM   12  O8  UNL     1      -1.889  22.935  24.136  1.00  0.00    -0.285 OA
HETATM   13  C21 UNL     1      -0.254  24.220  22.820  1.00  0.00     0.127 C 
HETATM   14  C22 UNL     1       1.125  23.681  22.524  1.00  0.00     0.177 C 
HETATM   15  O9  UNL     1       1.804  24.744  21.881  1.00  0.00    -0.377 OA
HETATM   16  C23 UNL     1       2.806  25.152  22.763  1.00  0.00     0.207 C 
ENDROOT
BRANCH   6  17
HETATM   17  C8  UNL     1       7.066  21.769  24.383  1.00  0.00     0.071 C 
BRANCH  17  18
HETATM   18  C9  UNL     1       8.225  21.888  23.464  1.00  0.00    -0.020 C 
HETATM   19  C10 UNL     1       8.757  20.909  22.791  1.00  0.00    -0.091 C 
HETATM   20  C11 UNL     1       9.920  21.173  21.899  1.00  0.00     0.042 C 
HETATM   21  C12 UNL     1       8.267  19.510  22.886  1.00  0.00     0.042 C 
ENDBRANCH  17  18
ENDBRANCH   6  17
BRANCH   1  22
HETATM   22  O1  UNL     1       6.443  24.319  25.513  1.00  0.00    -0.355 OA
HETATM   23  C1  UNL     1       5.786  25.089  26.495  1.00  0.00     0.210 C 
ENDBRANCH   1  22
BRANCH   5  24
HETATM   24  O2  UNL     1       5.415  20.883  22.273  1.00  0.00    -0.359 OA
ATOM     25  H2  UNL     1       6.321  20.669  22.083  1.00  0.00     0.217 HD
ENDBRANCH   5  24
BRANCH   7  26
HETATM   26  O3  UNL     1       3.380  22.709  20.038  1.00  0.00    -0.309 OA
BRANCH  26  27
HETATM   27  C14 UNL     1       4.227  22.445  18.977  1.00  0.00     0.255 C 
HETATM   28  C15 UNL     1       5.582  23.047  18.873  1.00  0.00     0.126 C 
HETATM   29  O4  UNL     1       3.817  21.675  18.096  1.00  0.00    -0.266 OA
ENDBRANCH  26  27
ENDBRANCH   7  26
BRANCH   8  30
HETATM   30  O5  UNL     1       1.754  20.544  20.621  1.00  0.00    -0.309 OA
BRANCH  30  31
HETATM   31  C17 UNL     1       2.527  19.411  20.438  1.00  0.00     0.255 C 
HETATM   32  C18 UNL     1       2.493  18.655  19.161  1.00  0.00     0.126 C 
HETATM   33  O6  UNL     1       3.259  19.054  21.407  1.00  0.00    -0.266 OA
ENDBRANCH  30  31
ENDBRANCH   8  30
BRANCH   9  34
HETATM   34  O7  UNL     1       0.854  23.127  20.256  1.00  0.00    -0.373 OA
ATOM     35  H7  UNL     1       0.753  24.071  20.258  1.00  0.00     0.212 HD
ENDBRANCH   9  34
TORSDOF 9
ENDMDL
MODEL 4
REMARK VINA RESULT: -7.371069919      2.526      6.062
REMARK  9 active torsions:
REMARK  status: ('A' for Active; 'I' for Inactive)
REMARK    1  A    between atoms: O1_2  and  C2_3 
REMARK    2  A    between atoms: C6_7  and  O2_8 
REMARK    3  A    between atoms: C7_10  and  C8_11 
REMARK    4  A    between atoms: C8_11  and  C9_12 
REMARK    5  A    between atoms: C13_16  and  O3_17 
REMARK    6  A    between atoms: O3_17  and  C14_18 
REMARK    7  A    between atoms: C16_21  and  O5_22 
REMARK    8  A    between atoms: O5_22  and  C17_23 
REMARK    9  A    between atoms: C19_26  and  O7_27 
ROOT
HETATM    1  C2  UNL     1       5.535  23.795  24.069  1.00  0.00     0.078 A 
HETATM    2  C3  UNL     1       4.578  24.455  23.299  1.00  0.00     0.047 A 
HETATM    3  C4  UNL     1       3.970  23.868  22.216  1.00  0.00    -0.020 A 
HETATM    4  C5  UNL     1       4.279  22.585  21.834  1.00  0.00     0.016 A 
HETATM    5  C6  UNL     1       5.230  21.926  22.598  1.00  0.00     0.084 A 
HETATM    6  C7  UNL     1       5.855  22.510  23.699  1.00  0.00     0.012 A 
HETATM    7  C13 UNL     1       3.859  21.647  20.773  1.00  0.00     0.201 C 
HETATM    8  C16 UNL     1       2.429  21.204  20.918  1.00  0.00     0.214 C 
HETATM    9  C19 UNL     1       1.423  22.231  20.526  1.00  0.00     0.168 C 
HETATM   10  S1  UNL     1      -0.229  21.502  20.881  1.00  0.00    -0.049 SA
HETATM   11  C20 UNL     1      -0.922  22.916  21.782  1.00  0.00     0.191 C 
HETATM   12  O8  UNL     1      -1.876  22.939  22.521  1.00  0.00    -0.285 OA
HETATM   13  C21 UNL     1      -0.000  24.032  21.363  1.00  0.00     0.127 C 
HETATM   14  C22 UNL     1       1.392  23.451  21.386  1.00  0.00     0.177 C 
HETATM   15  O9  UNL     1       2.204  24.417  20.743  1.00  0.00    -0.377 OA
HETATM   16  C23 UNL     1       3.049  24.929  21.729  1.00  0.00     0.207 C 
ENDROOT
BRANCH   6  17
HETATM   17  C8  UNL     1       6.861  21.757  24.490  1.00  0.00     0.071 C 
BRANCH  17  18
HETATM   18  C9  UNL     1       8.228  22.053  23.992  1.00  0.00    -0.020 C 
HETATM   19  C10 UNL     1       8.929  21.282  23.211  1.00  0.00    -0.091 C 
HETATM   20  C11 UNL     1      10.291  21.706  22.785  1.00  0.00     0.042 C 
HETATM   21  C12 UNL     1       8.438  19.964  22.733  1.00  0.00     0.042 C 
ENDBRANCH  17  18
ENDBRANCH   6  17
BRANCH   1  22
HETATM   22  O1  UNL     1       6.126  24.436  25.161  1.00  0.00    -0.355 OA
HETATM   23  C1  UNL     1       5.467  25.561  25.697  1.00  0.00     0.210 C 
ENDBRANCH   1  22
BRANCH   5  24
HETATM   24  O2  UNL     1       5.578  20.616  22.250  1.00  0.00    -0.359 OA
ATOM     25  H2  UNL     1       6.484  20.346  22.342  1.00  0.00     0.217 HD
ENDBRANCH   5  24
BRANCH   7  26
HETATM   26  O3  UNL     1       4.017  22.151  19.479  1.00  0.00    -0.309 OA
BRANCH  26  27
HETATM   27  C14 UNL     1       5.237  22.207  18.831  1.00  0.00     0.255 C 
HETATM   28  C15 UNL     1       6.275  21.156  19.000  1.00  0.00     0.126 C 
HETATM   29  O4  UNL     1       5.447  23.177  18.089  1.00  0.00    -0.266 OA
ENDBRANCH  26  27
ENDBRANCH   7  26
BRANCH   8  30
HETATM   30  O5  UNL     1       2.252  20.090  20.034  1.00  0.00    -0.309 OA
BRANCH  30  31
HETATM   31  C17 UNL     1       2.927  18.895  20.206  1.00  0.00     0.255 C 
HETATM   32  C18 UNL     1       3.835  18.366  19.157  1.00  0.00     0.126 C 
HETATM   33  O6  UNL     1       2.735  18.279  21.295  1.00  0.00    -0.266 OA
ENDBRANCH  30  31
ENDBRANCH   8  30
BRANCH   9  34
HETATM   34  O7  UNL     1       1.505  22.610  19.194  1.00  0.00    -0.373 OA
ATOM     35  H7  UNL     1       2.116  23.320  19.036  1.00  0.00     0.212 HD
ENDBRANCH   9  34
TORSDOF 9
ENDMDL
MODEL 5
REMARK VINA RESULT: -7.354720214      4.917     10.019
REMARK  9 active torsions:
REMARK  status: ('A' for Active; 'I' for Inactive)
REMARK    1  A    between atoms: O1_2  and  C2_3 
REMARK    2  A    between atoms: C6_7  and  O2_8 
REMARK    3  A    between atoms: C7_10  and  C8_11 
REMARK    4  A    between atoms: C8_11  and  C9_12 
REMARK    5  A    between atoms: C13_16  and  O3_17 
REMARK    6  A    between atoms: O3_17  and  C14_18 
REMARK    7  A    between atoms: C16_21  and  O5_22 
REMARK    8  A    between atoms: O5_22  and  C17_23 
REMARK    9  A    between atoms: C19_26  and  O7_27 
ROOT
HETATM    1  C2  UNL     1       3.750  26.542  24.873  1.00  0.00     0.078 A 
HETATM    2  C3  UNL     1       2.632  27.061  25.523  1.00  0.00     0.047 A 
HETATM    3  C4  UNL     1       2.578  27.217  26.887  1.00  0.00    -0.020 A 
HETATM    4  C5  UNL     1       3.639  26.865  27.688  1.00  0.00     0.016 A 
HETATM    5  C6  UNL     1       4.753  26.349  27.043  1.00  0.00     0.084 A 
HETATM    6  C7  UNL     1       4.820  26.185  25.660  1.00  0.00     0.012 A 
HETATM    7  C13 UNL     1       3.950  26.881  29.132  1.00  0.00     0.201 C 
HETATM    8  C16 UNL     1       4.058  28.274  29.689  1.00  0.00     0.214 C 
HETATM    9  C19 UNL     1       2.752  28.966  29.877  1.00  0.00     0.168 C 
HETATM   10  S1  UNL     1       3.144  30.664  30.467  1.00  0.00    -0.049 SA
HETATM   11  C20 UNL     1       2.081  31.568  29.306  1.00  0.00     0.191 C 
HETATM   12  O8  UNL     1       2.126  32.736  29.004  1.00  0.00    -0.285 OA
HETATM   13  C21 UNL     1       1.146  30.484  28.835  1.00  0.00     0.127 C 
HETATM   14  C22 UNL     1       2.003  29.261  28.620  1.00  0.00     0.177 C 
HETATM   15  O9  UNL     1       1.086  28.197  28.437  1.00  0.00    -0.377 OA
HETATM   16  C23 UNL     1       1.224  27.791  27.109  1.00  0.00     0.207 C 
ENDROOT
BRANCH   6  17
HETATM   17  C8  UNL     1       6.041  25.636  25.019  1.00  0.00     0.071 C 
BRANCH  17  18
HETATM   18  C9  UNL     1       5.864  24.189  24.738  1.00  0.00    -0.020 C 
HETATM   19  C10 UNL     1       6.822  23.307  24.698  1.00  0.00    -0.091 C 
HETATM   20  C11 UNL     1       6.501  21.883  24.406  1.00  0.00     0.042 C 
HETATM   21  C12 UNL     1       8.249  23.662  24.908  1.00  0.00     0.042 C 
ENDBRANCH  17  18
ENDBRANCH   6  17
BRANCH   1  22
HETATM   22  O1  UNL     1       3.756  26.403  23.483  1.00  0.00    -0.355 OA
HETATM   23  C1  UNL     1       2.952  25.389  22.922  1.00  0.00     0.210 C 
ENDBRANCH   1  22
BRANCH   5  24
HETATM   24  O2  UNL     1       5.859  25.977  27.814  1.00  0.00    -0.359 OA
ATOM     25  H2  UNL     1       5.720  25.730  28.721  1.00  0.00     0.217 HD
ENDBRANCH   5  24
BRANCH   7  26
HETATM   26  O3  UNL     1       3.028  26.181  29.915  1.00  0.00    -0.309 OA
BRANCH  26  27
HETATM   27  C14 UNL     1       3.265  24.912  30.412  1.00  0.00     0.255 C 
HETATM   28  C15 UNL     1       4.625  24.448  30.789  1.00  0.00     0.126 C 
HETATM   29  O4  UNL     1       2.290  24.157  30.537  1.00  0.00    -0.266 OA
ENDBRANCH  26  27
ENDBRANCH   7  26
BRANCH   8  30
HETATM   30  O5  UNL     1       4.653  28.151  30.987  1.00  0.00    -0.309 OA
BRANCH  30  31
HETATM   31  C17 UNL     1       6.024  28.158  31.175  1.00  0.00     0.255 C 
HETATM   32  C18 UNL     1       6.873  29.235  30.608  1.00  0.00     0.126 C 
HETATM   33  O6  UNL     1       6.515  27.207  31.851  1.00  0.00    -0.266 OA
ENDBRANCH  30  31
ENDBRANCH   8  30
BRANCH   9  34
HETATM   34  O7  UNL     1       1.908  28.328  30.775  1.00  0.00    -0.373 OA
ATOM     35  H7  UNL     1       1.409  28.925  31.319  1.00  0.00     0.212 HD
ENDBRANCH   9  34
TORSDOF 9
ENDMDL
