MODEL 1
REMARK VINA RESULT: -7.262409123      0.000      0.000
REMARK  7 active torsions:
REMARK  status: ('A' for Active; 'I' for Inactive)
REMARK    1  A    between atoms: C3_3  and  O1_4 
REMARK    2  A    between atoms: C4_6  and  N1_7 
REMARK    3  A    between atoms: N2_9  and  C5_11 
REMARK    4  A    between atoms: C8_15  and  O3_16 
REMARK    5  A    between atoms: C13_23  and  C14_24 
REMARK    6  A    between atoms: C14_24  and  O5_25 
REMARK    7  A    between atoms: O5_25  and  C15_26 
ROOT
HETATM    1  C1  UNL     1      37.477 -14.468  37.759  1.00  0.00     0.054 C 
HETATM    2  C2  UNL     1      36.840 -14.542  36.409  1.00  0.00     0.009 A 
HETATM    3  C3  UNL     1      37.207 -15.522  35.514  1.00  0.00     0.103 A 
HETATM    4  C4  UNL     1      36.592 -15.558  34.273  1.00  0.00     0.095 A 
HETATM    5  C6  UNL     1      35.636 -14.643  33.931  1.00  0.00     0.039 A 
HETATM    6  C7  UNL     1      35.267 -13.645  34.844  1.00  0.00     0.116 A 
HETATM    7  C8  UNL     1      35.864 -13.600  36.065  1.00  0.00     0.108 A 
HETATM    8  O4  UNL     1      34.293 -12.785  34.354  1.00  0.00    -0.337 OA
HETATM    9  C9  UNL     1      34.329 -12.291  33.022  1.00  0.00     0.065 C 
HETATM   10  C10 UNL     1      35.297 -11.127  33.017  1.00  0.00     0.046 C 
HETATM   11  C11 UNL     1      32.962 -11.765  32.608  1.00  0.00     0.046 C 
HETATM   12  C12 UNL     1      34.739 -13.302  31.990  1.00  0.00     0.079 C 
HETATM   13  C13 UNL     1      34.931 -14.638  32.673  1.00  0.00    -0.017 C 
ENDROOT
BRANCH   4  14
HETATM   14  N1  UNL     1      36.973 -16.503  33.259  1.00  0.00    -0.295 N 
HETATM   15  N2  UNL     1      36.706 -17.722  33.308  1.00  0.00    -0.277 N 
ATOM     16  H2  UNL     1      37.029 -18.294  32.528  1.00  0.00     0.189 HD
ATOM     17  H1  UNL     1      37.492 -16.158  32.451  1.00  0.00     0.187 HD
BRANCH  15  18
HETATM   18  C5  UNL     1      36.004 -18.386  34.329  1.00  0.00     0.368 C 
HETATM   19  O2  UNL     1      36.586 -18.968  35.298  1.00  0.00    -0.282 OA
ENDBRANCH  15  18
ENDBRANCH   4  14
BRANCH   3  20
HETATM   20  O1  UNL     1      38.167 -16.462  35.830  1.00  0.00    -0.358 OA
ATOM     21  H1  UNL     1      38.941 -16.581  35.292  1.00  0.00     0.217 HD
ENDBRANCH   3  20
BRANCH  13  22
HETATM   22  C14 UNL     1      34.407 -15.729  32.201  1.00  0.00     0.155 C 
BRANCH  22  23
HETATM   23  O5  UNL     1      34.866 -16.440  31.125  1.00  0.00    -0.276 OA
BRANCH  23  24
HETATM   24  C15 UNL     1      34.182 -17.550  30.611  1.00  0.00     0.377 C 
HETATM   25  N3  UNL     1      34.660 -18.824  30.978  1.00  0.00    -0.032 NA
HETATM   26  O6  UNL     1      33.209 -17.337  29.873  1.00  0.00    -0.242 OA
ENDBRANCH  23  24
ENDBRANCH  22  23
ENDBRANCH  13  22
BRANCH   7  27
HETATM   27  O3  UNL     1      35.500 -12.618  36.962  1.00  0.00    -0.357 OA
ATOM     28  H3  UNL     1      34.694 -12.130  36.836  1.00  0.00     0.217 HD
ENDBRANCH   7  27
TORSDOF 7
ENDMDL
MODEL 2
REMARK VINA RESULT: -7.004061935      2.552      5.082
REMARK  7 active torsions:
REMARK  status: ('A' for Active; 'I' for Inactive)
REMARK    1  A    between atoms: C3_3  and  O1_4 
REMARK    2  A    between atoms: C4_6  and  N1_7 
REMARK    3  A    between atoms: N2_9  and  C5_11 
REMARK    4  A    between atoms: C8_15  and  O3_16 
REMARK    5  A    between atoms: C13_23  and  C14_24 
REMARK    6  A    between atoms: C14_24  and  O5_25 
REMARK    7  A    between atoms: O5_25  and  C15_26 
ROOT
HETATM    1  C1  UNL     1      34.966 -11.565  30.420  1.00  0.00     0.054 C 
HETATM    2  C2  UNL     1      34.928 -12.950  30.980  1.00  0.00     0.009 A 
HETATM    3  C3  UNL     1      34.052 -13.886  30.476  1.00  0.00     0.103 A 
HETATM    4  C4  UNL     1      34.048 -15.160  31.021  1.00  0.00     0.095 A 
HETATM    5  C6  UNL     1      34.894 -15.494  32.041  1.00  0.00     0.039 A 
HETATM    6  C7  UNL     1      35.782 -14.538  32.554  1.00  0.00     0.116 A 
HETATM    7  C8  UNL     1      35.794 -13.285  32.027  1.00  0.00     0.108 A 
HETATM    8  O4  UNL     1      36.570 -15.020  33.590  1.00  0.00    -0.337 OA
HETATM    9  C9  UNL     1      36.038 -15.845  34.617  1.00  0.00     0.065 C 
HETATM   10  C10 UNL     1      35.369 -14.921  35.613  1.00  0.00     0.046 C 
HETATM   11  C11 UNL     1      37.152 -16.587  35.341  1.00  0.00     0.046 C 
HETATM   12  C12 UNL     1      35.059 -16.882  34.143  1.00  0.00     0.079 C 
HETATM   13  C13 UNL     1      34.969 -16.806  32.635  1.00  0.00    -0.017 C 
ENDROOT
BRANCH   4  14
HETATM   14  N1  UNL     1      33.114 -16.168  30.600  1.00  0.00    -0.295 N 
HETATM   15  N2  UNL     1      33.160 -16.739  29.491  1.00  0.00    -0.277 N 
ATOM     16  H2  UNL     1      32.441 -17.439  29.306  1.00  0.00     0.189 HD
ATOM     17  H1  UNL     1      32.369 -16.432  31.246  1.00  0.00     0.187 HD
BRANCH  15  18
HETATM   18  C5  UNL     1      34.101 -16.516  28.471  1.00  0.00     0.368 C 
HETATM   19  O2  UNL     1      33.882 -15.737  27.490  1.00  0.00    -0.282 OA
ENDBRANCH  15  18
ENDBRANCH   4  14
BRANCH   3  20
HETATM   20  O1  UNL     1      33.187 -13.579  29.444  1.00  0.00    -0.358 OA
ATOM     21  H1  UNL     1      33.219 -14.043  28.616  1.00  0.00     0.217 HD
ENDBRANCH   3  20
BRANCH  13  22
HETATM   22  C14 UNL     1      35.048 -17.868  31.892  1.00  0.00     0.155 C 
BRANCH  22  23
HETATM   23  O5  UNL     1      35.035 -19.163  32.337  1.00  0.00    -0.276 OA
BRANCH  23  24
HETATM   24  C15 UNL     1      34.652 -20.235  31.519  1.00  0.00     0.377 C 
HETATM   25  N3  UNL     1      34.341 -19.939  30.177  1.00  0.00    -0.032 NA
HETATM   26  O6  UNL     1      34.615 -21.364  32.029  1.00  0.00    -0.242 OA
ENDBRANCH  23  24
ENDBRANCH  22  23
ENDBRANCH  13  22
BRANCH   7  27
HETATM   27  O3  UNL     1      36.669 -12.345  32.532  1.00  0.00    -0.357 OA
ATOM     28  H3  UNL     1      36.490 -11.418  32.422  1.00  0.00     0.217 HD
ENDBRANCH   7  27
TORSDOF 7
ENDMDL
MODEL 3
REMARK VINA RESULT: -6.828405113      2.370      4.685
REMARK  7 active torsions:
REMARK  status: ('A' for Active; 'I' for Inactive)
REMARK    1  A    between atoms: C3_3  and  O1_4 
REMARK    2  A    between atoms: C4_6  and  N1_7 
REMARK    3  A    between atoms: N2_9  and  C5_11 
REMARK    4  A    between atoms: C8_15  and  O3_16 
REMARK    5  A    between atoms: C13_23  and  C14_24 
REMARK    6  A    between atoms: C14_24  and  O5_25 
REMARK    7  A    between atoms: O5_25  and  C15_26 
ROOT
HETATM    1  C1  UNL     1      36.917 -18.713  35.228  1.00  0.00     0.054 C 
HETATM    2  C2  UNL     1      36.575 -17.474  34.464  1.00  0.00     0.009 A 
HETATM    3  C3  UNL     1      36.890 -16.232  34.968  1.00  0.00     0.103 A 
HETATM    4  C4  UNL     1      36.557 -15.108  34.229  1.00  0.00     0.095 A 
HETATM    5  C6  UNL     1      35.929 -15.217  33.021  1.00  0.00     0.039 A 
HETATM    6  C7  UNL     1      35.608 -16.483  32.512  1.00  0.00     0.116 A 
HETATM    7  C8  UNL     1      35.928 -17.594  33.229  1.00  0.00     0.108 A 
HETATM    8  O4  UNL     1      34.966 -16.436  31.282  1.00  0.00    -0.337 OA
HETATM    9  C9  UNL     1      33.948 -15.484  31.004  1.00  0.00     0.065 C 
HETATM   10  C10 UNL     1      32.668 -16.031  31.601  1.00  0.00     0.046 C 
HETATM   11  C11 UNL     1      33.741 -15.344  29.502  1.00  0.00     0.046 C 
HETATM   12  C12 UNL     1      34.214 -14.106  31.538  1.00  0.00     0.079 C 
HETATM   13  C13 UNL     1      35.583 -14.096  32.182  1.00  0.00    -0.017 C 
ENDROOT
BRANCH   4  14
HETATM   14  N1  UNL     1      36.785 -13.776  34.721  1.00  0.00    -0.295 N 
HETATM   15  N2  UNL     1      36.104 -13.240  35.619  1.00  0.00    -0.277 N 
ATOM     16  H2  UNL     1      36.361 -12.289  35.884  1.00  0.00     0.189 HD
ATOM     17  H1  UNL     1      37.548 -13.237  34.311  1.00  0.00     0.187 HD
BRANCH  15  18
HETATM   18  C5  UNL     1      35.018 -13.813  36.303  1.00  0.00     0.368 C 
HETATM   19  O2  UNL     1      35.146 -14.420  37.413  1.00  0.00    -0.282 OA
ENDBRANCH  15  18
ENDBRANCH   4  14
BRANCH   3  20
HETATM   20  O1  UNL     1      37.526 -16.089  36.185  1.00  0.00    -0.358 OA
ATOM     21  H1  UNL     1      38.449 -16.290  36.288  1.00  0.00     0.217 HD
ENDBRANCH   3  20
BRANCH  13  22
HETATM   22  C14 UNL     1      36.453 -13.165  31.925  1.00  0.00     0.155 C 
BRANCH  22  23
HETATM   23  O5  UNL     1      36.556 -11.962  32.569  1.00  0.00    -0.276 OA
BRANCH  23  24
HETATM   24  C15 UNL     1      35.467 -11.090  32.711  1.00  0.00     0.377 C 
HETATM   25  N3  UNL     1      34.852 -11.032  33.977  1.00  0.00    -0.032 NA
HETATM   26  O6  UNL     1      35.124 -10.432  31.718  1.00  0.00    -0.242 OA
ENDBRANCH  23  24
ENDBRANCH  22  23
ENDBRANCH  13  22
BRANCH   7  27
HETATM   27  O3  UNL     1      35.612 -18.839  32.728  1.00  0.00    -0.357 OA
ATOM     28  H3  UNL     1      34.706 -19.123  32.690  1.00  0.00     0.217 HD
ENDBRANCH   7  27
TORSDOF 7
ENDMDL
MODEL 4
REMARK VINA RESULT: -6.806664573      2.164      2.952
REMARK  7 active torsions:
REMARK  status: ('A' for Active; 'I' for Inactive)
REMARK    1  A    between atoms: C3_3  and  O1_4 
REMARK    2  A    between atoms: C4_6  and  N1_7 
REMARK    3  A    between atoms: N2_9  and  C5_11 
REMARK    4  A    between atoms: C8_15  and  O3_16 
REMARK    5  A    between atoms: C13_23  and  C14_24 
REMARK    6  A    between atoms: C14_24  and  O5_25 
REMARK    7  A    between atoms: O5_25  and  C15_26 
ROOT
HETATM    1  C1  UNL     1      34.537 -18.634  37.199  1.00  0.00     0.054 C 
HETATM    2  C2  UNL     1      34.682 -17.959  35.873  1.00  0.00     0.009 A 
HETATM    3  C3  UNL     1      35.296 -18.604  34.823  1.00  0.00     0.103 A 
HETATM    4  C4  UNL     1      35.411 -17.945  33.609  1.00  0.00     0.095 A 
HETATM    5  C6  UNL     1      34.927 -16.678  33.445  1.00  0.00     0.039 A 
HETATM    6  C7  UNL     1      34.305 -16.023  34.517  1.00  0.00     0.116 A 
HETATM    7  C8  UNL     1      34.188 -16.659  35.713  1.00  0.00     0.108 A 
HETATM    8  O4  UNL     1      33.873 -14.741  34.203  1.00  0.00    -0.337 OA
HETATM    9  C9  UNL     1      34.667 -13.849  33.433  1.00  0.00     0.065 C 
HETATM   10  C10 UNL     1      35.671 -13.231  34.383  1.00  0.00     0.046 C 
HETATM   11  C11 UNL     1      33.812 -12.728  32.860  1.00  0.00     0.046 C 
HETATM   12  C12 UNL     1      35.383 -14.487  32.276  1.00  0.00     0.079 C 
HETATM   13  C13 UNL     1      34.981 -15.944  32.204  1.00  0.00    -0.017 C 
ENDROOT
BRANCH   4  14
HETATM   14  N1  UNL     1      36.104 -18.522  32.489  1.00  0.00    -0.295 N 
HETATM   15  N2  UNL     1      35.634 -19.432  31.775  1.00  0.00    -0.277 N 
ATOM     16  H2  UNL     1      36.221 -19.761  31.008  1.00  0.00     0.189 HD
ATOM     17  H1  UNL     1      37.033 -18.167  32.265  1.00  0.00     0.187 HD
BRANCH  15  18
HETATM   18  C5  UNL     1      34.380 -20.049  31.921  1.00  0.00     0.368 C 
HETATM   19  O2  UNL     1      34.221 -21.150  32.538  1.00  0.00    -0.282 OA
ENDBRANCH  15  18
ENDBRANCH   4  14
BRANCH   3  20
HETATM   20  O1  UNL     1      35.794 -19.885  34.957  1.00  0.00    -0.358 OA
ATOM     21  H1  UNL     1      35.360 -20.629  34.556  1.00  0.00     0.217 HD
ENDBRANCH   3  20
BRANCH  13  22
HETATM   22  C14 UNL     1      34.609 -16.496  31.089  1.00  0.00     0.155 C 
BRANCH  22  23
HETATM   23  O5  UNL     1      33.618 -16.042  30.260  1.00  0.00    -0.276 OA
BRANCH  23  24
HETATM   24  C15 UNL     1      33.120 -16.807  29.196  1.00  0.00     0.377 C 
HETATM   25  N3  UNL     1      32.906 -16.141  27.972  1.00  0.00    -0.032 NA
HETATM   26  O6  UNL     1      32.903 -18.010  29.403  1.00  0.00    -0.242 OA
ENDBRANCH  23  24
ENDBRANCH  22  23
ENDBRANCH  13  22
BRANCH   7  27
HETATM   27  O3  UNL     1      33.575 -16.015  36.767  1.00  0.00    -0.357 OA
ATOM     28  H3  UNL     1      32.918 -16.464  37.286  1.00  0.00     0.217 HD
ENDBRANCH   7  27
TORSDOF 7
ENDMDL
MODEL 5
REMARK VINA RESULT: -6.763974319      1.887      4.850
REMARK  7 active torsions:
REMARK  status: ('A' for Active; 'I' for Inactive)
REMARK    1  A    between atoms: C3_3  and  O1_4 
REMARK    2  A    between atoms: C4_6  and  N1_7 
REMARK    3  A    between atoms: N2_9  and  C5_11 
REMARK    4  A    between atoms: C8_15  and  O3_16 
REMARK    5  A    between atoms: C13_23  and  C14_24 
REMARK    6  A    between atoms: C14_24  and  O5_25 
REMARK    7  A    between atoms: O5_25  and  C15_26 
ROOT
HETATM    1  C1  UNL     1      35.101 -11.202  31.410  1.00  0.00     0.054 C 
HETATM    2  C2  UNL     1      35.102 -12.694  31.509  1.00  0.00     0.009 A 
HETATM    3  C3  UNL     1      36.087 -13.347  32.215  1.00  0.00     0.103 A 
HETATM    4  C4  UNL     1      36.053 -14.731  32.284  1.00  0.00     0.095 A 
HETATM    5  C6  UNL     1      35.065 -15.445  31.668  1.00  0.00     0.039 A 
HETATM    6  C7  UNL     1      34.065 -14.776  30.947  1.00  0.00     0.116 A 
HETATM    7  C8  UNL     1      34.089 -13.419  30.872  1.00  0.00     0.108 A 
HETATM    8  O4  UNL     1      33.137 -15.632  30.370  1.00  0.00    -0.337 OA
HETATM    9  C9  UNL     1      33.526 -16.840  29.731  1.00  0.00     0.065 C 
HETATM   10  C10 UNL     1      33.982 -16.465  28.336  1.00  0.00     0.046 C 
HETATM   11  C11 UNL     1      32.339 -17.783  29.598  1.00  0.00     0.046 C 
HETATM   12  C12 UNL     1      34.612 -17.602  30.437  1.00  0.00     0.079 C 
HETATM   13  C13 UNL     1      34.947 -16.881  31.724  1.00  0.00    -0.017 C 
ENDROOT
BRANCH   4  14
HETATM   14  N1  UNL     1      37.085 -15.489  32.939  1.00  0.00    -0.295 N 
HETATM   15  N2  UNL     1      37.199 -15.582  34.179  1.00  0.00    -0.277 N 
ATOM     16  H2  UNL     1      37.973 -16.149  34.526  1.00  0.00     0.189 HD
ATOM     17  H1  UNL     1      37.764 -15.978  32.356  1.00  0.00     0.187 HD
BRANCH  15  18
HETATM   18  C5  UNL     1      36.370 -14.987  35.144  1.00  0.00     0.368 C 
HETATM   19  O2  UNL     1      36.601 -13.836  35.636  1.00  0.00    -0.282 OA
ENDBRANCH  15  18
ENDBRANCH   4  14
BRANCH   3  20
HETATM   20  O1  UNL     1      37.098 -12.654  32.851  1.00  0.00    -0.358 OA
ATOM     21  H1  UNL     1      36.964 -11.773  33.179  1.00  0.00     0.217 HD
ENDBRANCH   3  20
BRANCH  13  22
HETATM   22  C14 UNL     1      35.035 -17.512  32.856  1.00  0.00     0.155 C 
BRANCH  22  23
HETATM   23  O5  UNL     1      36.100 -18.264  33.275  1.00  0.00    -0.276 OA
BRANCH  23  24
HETATM   24  C15 UNL     1      36.176 -18.806  34.566  1.00  0.00     0.377 C 
HETATM   25  N3  UNL     1      35.129 -19.662  34.965  1.00  0.00    -0.032 NA
HETATM   26  O6  UNL     1      37.153 -18.498  35.264  1.00  0.00    -0.242 OA
ENDBRANCH  23  24
ENDBRANCH  22  23
ENDBRANCH  13  22
BRANCH   7  27
HETATM   27  O3  UNL     1      33.105 -12.762  30.163  1.00  0.00    -0.357 OA
ATOM     28  H3  UNL     1      32.782 -11.919  30.462  1.00  0.00     0.217 HD
ENDBRANCH   7  27
TORSDOF 7
ENDMDL
