MODEL 1
REMARK VINA RESULT: -9.327379772      0.000      0.000
REMARK  8 active torsions:
REMARK  status: ('A' for Active; 'I' for Inactive)
REMARK    1  A    between atoms: C3_3  and  O1_4 
REMARK    2  A    between atoms: O1_4  and  O2_5 
REMARK    3  A    between atoms: C4_8  and  O4_9 
REMARK    4  A    between atoms: O4_9  and  C5_10 
REMARK    5  A    between atoms: C5_10  and  C6_12 
REMARK    6  A    between atoms: C19_27  and  O8_28 
REMARK    7  A    between atoms: O8_28  and  C20_29 
REMARK    8  A    between atoms: C20_29  and  C21_31 
ROOT
HETATM    1  C1  UNL     1      -6.664  22.996 -24.630  1.00  0.00     0.022 C 
HETATM    2  C2  UNL     1      -6.002  22.795 -23.501  1.00  0.00     0.001 C 
HETATM    3  C3  UNL     1      -5.556  24.037 -22.774  1.00  0.00     0.331 C 
HETATM    4  O3  UNL     1      -4.212  24.161 -22.638  1.00  0.00    -0.321 OA
HETATM    5  C4  UNL     1      -3.509  23.199 -21.977  1.00  0.00     0.307 C 
HETATM    6  C9  UNL     1      -4.353  22.058 -21.642  1.00  0.00     0.234 C 
HETATM    7  O6  UNL     1      -4.488  21.236 -22.780  1.00  0.00    -0.361 OA
HETATM    8  C10 UNL     1      -5.819  21.357 -23.174  1.00  0.00     0.191 C 
HETATM    9  C11 UNL     1      -6.671  20.863 -22.070  1.00  0.00     0.009 A 
HETATM   10  C12 UNL     1      -7.987  20.878 -22.476  1.00  0.00     0.020 A 
HETATM   11  C13 UNL     1      -9.012  20.456 -21.643  1.00  0.00    -0.055 A 
HETATM   12  C14 UNL     1     -10.443  20.468 -22.074  1.00  0.00     0.049 C 
HETATM   13  C15 UNL     1      -8.695  20.011 -20.378  1.00  0.00    -0.053 A 
HETATM   14  C16 UNL     1      -9.806  19.554 -19.480  1.00  0.00     0.049 C 
HETATM   15  C17 UNL     1      -7.390  19.992 -19.965  1.00  0.00     0.044 A 
HETATM   16  C18 UNL     1      -6.373  20.413 -20.794  1.00  0.00     0.082 A 
HETATM   17  O7  UNL     1      -5.093  20.339 -20.242  1.00  0.00    -0.316 OA
HETATM   18  C19 UNL     1      -3.920  21.135 -20.538  1.00  0.00     0.310 C 
ENDROOT
BRANCH  18  19
HETATM   19  O8  UNL     1      -3.422  21.765 -19.408  1.00  0.00    -0.283 OA
BRANCH  19  20
HETATM   20  C20 UNL     1      -2.283  21.393 -18.702  1.00  0.00     0.291 C 
HETATM   21  O9  UNL     1      -2.377  20.331 -18.034  1.00  0.00    -0.260 OA
BRANCH  20  22
HETATM   22  C21 UNL     1      -1.054  22.167 -18.722  1.00  0.00     0.009 C 
HETATM   23  C22 UNL     1      -1.113  23.567 -19.199  1.00  0.00     0.054 C 
HETATM   24  C23 UNL     1       0.076  21.637 -18.328  1.00  0.00    -0.018 C 
HETATM   25  C24 UNL     1       1.346  22.406 -18.338  1.00  0.00     0.036 C 
ENDBRANCH  20  22
ENDBRANCH  19  20
ENDBRANCH  18  19
BRANCH   5  26
HETATM   26  O4  UNL     1      -2.498  22.752 -22.904  1.00  0.00    -0.283 OA
BRANCH  26  27
HETATM   27  C5  UNL     1      -1.146  22.860 -22.628  1.00  0.00     0.285 C 
HETATM   28  O5  UNL     1      -0.675  24.025 -22.608  1.00  0.00    -0.260 OA
BRANCH  27  29
HETATM   29  C6  UNL     1      -0.276  21.739 -22.372  1.00  0.00     0.078 C 
HETATM   30  C7  UNL     1       0.960  21.943 -21.989  1.00  0.00    -0.025 C 
HETATM   31  C8  UNL     1       1.925  20.851 -21.703  1.00  0.00     0.036 C 
ENDBRANCH  27  29
ENDBRANCH  26  27
ENDBRANCH   5  26
BRANCH   3  32
HETATM   32  O1  UNL     1      -5.944  25.146 -23.572  1.00  0.00    -0.205 OA
BRANCH  32  33
HETATM   33  O2  UNL     1      -4.996  25.999 -23.771  1.00  0.00    -0.248 OA
ATOM     34  H2  UNL     1      -5.199  26.649 -24.433  1.00  0.00     0.253 HD
ENDBRANCH  32  33
ENDBRANCH   3  32
TORSDOF 8
ENDMDL
MODEL 2
REMARK VINA RESULT: -8.964037056      1.539      6.818
REMARK  8 active torsions:
REMARK  status: ('A' for Active; 'I' for Inactive)
REMARK    1  A    between atoms: C3_3  and  O1_4 
REMARK    2  A    between atoms: O1_4  and  O2_5 
REMARK    3  A    between atoms: C4_8  and  O4_9 
REMARK    4  A    between atoms: O4_9  and  C5_10 
REMARK    5  A    between atoms: C5_10  and  C6_12 
REMARK    6  A    between atoms: C19_27  and  O8_28 
REMARK    7  A    between atoms: O8_28  and  C20_29 
REMARK    8  A    between atoms: C20_29  and  C21_31 
ROOT
HETATM    1  C1  UNL     1       0.636  24.283 -21.223  1.00  0.00     0.022 C 
HETATM    2  C2  UNL     1      -0.487  23.586 -21.155  1.00  0.00     0.001 C 
HETATM    3  C3  UNL     1      -0.809  22.745 -22.361  1.00  0.00     0.331 C 
HETATM    4  O3  UNL     1      -1.963  23.080 -22.993  1.00  0.00    -0.321 OA
HETATM    5  C4  UNL     1      -3.143  23.033 -22.314  1.00  0.00     0.307 C 
HETATM    6  C9  UNL     1      -2.931  22.760 -20.897  1.00  0.00     0.234 C 
HETATM    7  O6  UNL     1      -2.557  23.956 -20.249  1.00  0.00    -0.361 OA
HETATM    8  C10 UNL     1      -1.225  23.783 -19.880  1.00  0.00     0.191 C 
HETATM    9  C11 UNL     1      -1.154  22.639 -18.944  1.00  0.00     0.009 A 
HETATM   10  C12 UNL     1       0.139  22.512 -18.486  1.00  0.00     0.020 A 
HETATM   11  C13 UNL     1       0.499  21.524 -17.582  1.00  0.00    -0.055 A 
HETATM   12  C14 UNL     1       1.898  21.378 -17.079  1.00  0.00     0.049 C 
HETATM   13  C15 UNL     1      -0.470  20.651 -17.136  1.00  0.00    -0.053 A 
HETATM   14  C16 UNL     1      -0.078  19.584 -16.158  1.00  0.00     0.049 C 
HETATM   15  C17 UNL     1      -1.758  20.768 -17.586  1.00  0.00     0.044 A 
HETATM   16  C18 UNL     1      -2.114  21.751 -18.484  1.00  0.00     0.082 A 
HETATM   17  O7  UNL     1      -3.459  21.753 -18.856  1.00  0.00    -0.316 OA
HETATM   18  C19 UNL     1      -4.070  22.212 -20.085  1.00  0.00     0.310 C 
ENDROOT
BRANCH  18  19
HETATM   19  O8  UNL     1      -4.803  21.212 -20.705  1.00  0.00    -0.283 OA
BRANCH  19  20
HETATM   20  C20 UNL     1      -6.140  20.912 -20.465  1.00  0.00     0.291 C 
HETATM   21  O9  UNL     1      -6.826  21.839 -19.961  1.00  0.00    -0.260 OA
BRANCH  20  22
HETATM   22  C21 UNL     1      -6.726  19.618 -20.770  1.00  0.00     0.009 C 
HETATM   23  C22 UNL     1      -6.342  18.457 -19.935  1.00  0.00     0.054 C 
HETATM   24  C23 UNL     1      -7.570  19.484 -21.762  1.00  0.00    -0.018 C 
HETATM   25  C24 UNL     1      -8.183  18.174 -22.095  1.00  0.00     0.036 C 
ENDBRANCH  20  22
ENDBRANCH  19  20
ENDBRANCH  18  19
BRANCH   5  26
HETATM   26  O4  UNL     1      -3.713  24.352 -22.435  1.00  0.00    -0.283 OA
BRANCH  26  27
HETATM   27  C5  UNL     1      -4.974  24.563 -22.965  1.00  0.00     0.285 C 
HETATM   28  O5  UNL     1      -5.281  25.757 -23.210  1.00  0.00    -0.260 OA
BRANCH  27  29
HETATM   29  C6  UNL     1      -5.926  23.516 -23.242  1.00  0.00     0.078 C 
HETATM   30  C7  UNL     1      -6.835  23.685 -24.170  1.00  0.00    -0.025 C 
HETATM   31  C8  UNL     1      -7.853  22.662 -24.522  1.00  0.00     0.036 C 
ENDBRANCH  27  29
ENDBRANCH  26  27
ENDBRANCH   5  26
BRANCH   3  32
HETATM   32  O1  UNL     1       0.212  22.986 -23.320  1.00  0.00    -0.205 OA
BRANCH  32  33
HETATM   33  O2  UNL     1      -0.207  23.578 -24.387  1.00  0.00    -0.248 OA
ATOM     34  H2  UNL     1       0.468  24.067 -24.843  1.00  0.00     0.253 HD
ENDBRANCH  32  33
ENDBRANCH   3  32
TORSDOF 8
ENDMDL
MODEL 3
REMARK VINA RESULT: -8.813701567      0.810      1.098
REMARK  8 active torsions:
REMARK  status: ('A' for Active; 'I' for Inactive)
REMARK    1  A    between atoms: C3_3  and  O1_4 
REMARK    2  A    between atoms: O1_4  and  O2_5 
REMARK    3  A    between atoms: C4_8  and  O4_9 
REMARK    4  A    between atoms: O4_9  and  C5_10 
REMARK    5  A    between atoms: C5_10  and  C6_12 
REMARK    6  A    between atoms: C19_27  and  O8_28 
REMARK    7  A    between atoms: O8_28  and  C20_29 
REMARK    8  A    between atoms: C20_29  and  C21_31 
ROOT
HETATM    1  C1  UNL     1      -6.481  22.789 -24.409  1.00  0.00     0.022 C 
HETATM    2  C2  UNL     1      -5.816  22.691 -23.269  1.00  0.00     0.001 C 
HETATM    3  C3  UNL     1      -5.487  23.995 -22.591  1.00  0.00     0.331 C 
HETATM    4  O3  UNL     1      -4.160  24.241 -22.450  1.00  0.00    -0.321 OA
HETATM    5  C4  UNL     1      -3.383  23.371 -21.746  1.00  0.00     0.307 C 
HETATM    6  C9  UNL     1      -4.128  22.175 -21.370  1.00  0.00     0.234 C 
HETATM    7  O6  UNL     1      -4.181  21.300 -22.475  1.00  0.00    -0.361 OA
HETATM    8  C10 UNL     1      -5.513  21.289 -22.883  1.00  0.00     0.191 C 
HETATM    9  C11 UNL     1      -6.330  20.767 -21.765  1.00  0.00     0.009 A 
HETATM   10  C12 UNL     1      -7.638  20.651 -22.181  1.00  0.00     0.020 A 
HETATM   11  C13 UNL     1      -8.632  20.175 -21.338  1.00  0.00    -0.055 A 
HETATM   12  C14 UNL     1     -10.054  20.046 -21.779  1.00  0.00     0.049 C 
HETATM   13  C15 UNL     1      -8.291  19.810 -20.054  1.00  0.00    -0.053 A 
HETATM   14  C16 UNL     1      -9.367  19.295 -19.145  1.00  0.00     0.049 C 
HETATM   15  C17 UNL     1      -6.993  19.922 -19.631  1.00  0.00     0.044 A 
HETATM   16  C18 UNL     1      -6.007  20.396 -20.470  1.00  0.00     0.082 A 
HETATM   17  O7  UNL     1      -4.731  20.456 -19.907  1.00  0.00    -0.316 OA
HETATM   18  C19 UNL     1      -3.629  21.338 -20.227  1.00  0.00     0.310 C 
ENDROOT
BRANCH  18  19
HETATM   19  O8  UNL     1      -3.199  22.053 -19.121  1.00  0.00    -0.283 OA
BRANCH  19  20
HETATM   20  C20 UNL     1      -1.875  22.260 -18.746  1.00  0.00     0.291 C 
HETATM   21  O9  UNL     1      -1.385  23.374 -19.065  1.00  0.00    -0.260 OA
BRANCH  20  22
HETATM   22  C21 UNL     1      -1.093  21.266 -18.032  1.00  0.00     0.009 C 
HETATM   23  C22 UNL     1      -1.799  20.338 -17.119  1.00  0.00     0.054 C 
HETATM   24  C23 UNL     1       0.205  21.196 -18.193  1.00  0.00    -0.018 C 
HETATM   25  C24 UNL     1       1.027  20.189 -17.476  1.00  0.00     0.036 C 
ENDBRANCH  20  22
ENDBRANCH  19  20
ENDBRANCH  18  19
BRANCH   5  26
HETATM   26  O4  UNL     1      -2.328  22.976 -22.647  1.00  0.00    -0.283 OA
BRANCH  26  27
HETATM   27  C5  UNL     1      -0.992  23.041 -22.290  1.00  0.00     0.285 C 
HETATM   28  O5  UNL     1      -0.514  24.193 -22.137  1.00  0.00    -0.260 OA
BRANCH  27  29
HETATM   29  C6  UNL     1      -0.147  21.890 -22.092  1.00  0.00     0.078 C 
HETATM   30  C7  UNL     1       1.081  22.045 -21.663  1.00  0.00    -0.025 C 
HETATM   31  C8  UNL     1       2.021  20.918 -21.431  1.00  0.00     0.036 C 
ENDBRANCH  27  29
ENDBRANCH  26  27
ENDBRANCH   5  26
BRANCH   3  32
HETATM   32  O1  UNL     1      -5.961  25.034 -23.436  1.00  0.00    -0.205 OA
BRANCH  32  33
HETATM   33  O2  UNL     1      -5.115  25.993 -23.603  1.00  0.00    -0.248 OA
ATOM     34  H2  UNL     1      -4.398  25.773 -24.186  1.00  0.00     0.253 HD
ENDBRANCH  32  33
ENDBRANCH   3  32
TORSDOF 8
ENDMDL
MODEL 4
REMARK VINA RESULT: -8.770387487      1.631      6.725
REMARK  8 active torsions:
REMARK  status: ('A' for Active; 'I' for Inactive)
REMARK    1  A    between atoms: C3_3  and  O1_4 
REMARK    2  A    between atoms: O1_4  and  O2_5 
REMARK    3  A    between atoms: C4_8  and  O4_9 
REMARK    4  A    between atoms: O4_9  and  C5_10 
REMARK    5  A    between atoms: C5_10  and  C6_12 
REMARK    6  A    between atoms: C19_27  and  O8_28 
REMARK    7  A    between atoms: O8_28  and  C20_29 
REMARK    8  A    between atoms: C20_29  and  C21_31 
ROOT
HETATM    1  C1  UNL     1       0.329  24.576 -21.282  1.00  0.00     0.022 C 
HETATM    2  C2  UNL     1      -0.768  23.839 -21.206  1.00  0.00     0.001 C 
HETATM    3  C3  UNL     1      -1.120  23.062 -22.447  1.00  0.00     0.331 C 
HETATM    4  O3  UNL     1      -2.312  23.395 -23.005  1.00  0.00    -0.321 OA
HETATM    5  C4  UNL     1      -3.457  23.268 -22.277  1.00  0.00     0.307 C 
HETATM    6  C9  UNL     1      -3.171  22.917 -20.891  1.00  0.00     0.234 C 
HETATM    7  O6  UNL     1      -2.804  24.084 -20.188  1.00  0.00    -0.361 OA
HETATM    8  C10 UNL     1      -1.451  23.934 -19.890  1.00  0.00     0.191 C 
HETATM    9  C11 UNL     1      -1.301  22.738 -19.031  1.00  0.00     0.009 A 
HETATM   10  C12 UNL     1       0.015  22.628 -18.639  1.00  0.00     0.020 A 
HETATM   11  C13 UNL     1       0.447  21.600 -17.816  1.00  0.00    -0.055 A 
HETATM   12  C14 UNL     1       1.872  21.471 -17.386  1.00  0.00     0.049 C 
HETATM   13  C15 UNL     1      -0.472  20.670 -17.382  1.00  0.00    -0.053 A 
HETATM   14  C16 UNL     1      -0.003  19.559 -16.490  1.00  0.00     0.049 C 
HETATM   15  C17 UNL     1      -1.783  20.770 -17.765  1.00  0.00     0.044 A 
HETATM   16  C18 UNL     1      -2.211  21.793 -18.584  1.00  0.00     0.082 A 
HETATM   17  O7  UNL     1      -3.572  21.771 -18.894  1.00  0.00    -0.316 OA
HETATM   18  C19 UNL     1      -4.253  22.283 -20.064  1.00  0.00     0.310 C 
ENDROOT
BRANCH  18  19
HETATM   19  O8  UNL     1      -4.983  21.298 -20.711  1.00  0.00    -0.283 OA
BRANCH  19  20
HETATM   20  C20 UNL     1      -6.369  21.242 -20.810  1.00  0.00     0.291 C 
HETATM   21  O9  UNL     1      -6.997  21.290 -19.722  1.00  0.00    -0.260 OA
BRANCH  20  22
HETATM   22  C21 UNL     1      -7.066  21.135 -22.081  1.00  0.00     0.009 C 
HETATM   23  C22 UNL     1      -7.981  19.990 -22.288  1.00  0.00     0.054 C 
HETATM   24  C23 UNL     1      -6.885  22.031 -23.019  1.00  0.00    -0.018 C 
HETATM   25  C24 UNL     1      -7.584  21.946 -24.326  1.00  0.00     0.036 C 
ENDBRANCH  20  22
ENDBRANCH  19  20
ENDBRANCH  18  19
BRANCH   5  26
HETATM   26  O4  UNL     1      -4.072  24.572 -22.291  1.00  0.00    -0.283 OA
BRANCH  26  27
HETATM   27  C5  UNL     1      -4.316  25.259 -23.468  1.00  0.00     0.285 C 
HETATM   28  O5  UNL     1      -3.767  26.384 -23.578  1.00  0.00    -0.260 OA
BRANCH  27  29
HETATM   29  C6  UNL     1      -5.141  24.765 -24.542  1.00  0.00     0.078 C 
HETATM   30  C7  UNL     1      -5.119  25.356 -25.711  1.00  0.00    -0.025 C 
HETATM   31  C8  UNL     1      -5.934  24.917 -26.873  1.00  0.00     0.036 C 
ENDBRANCH  27  29
ENDBRANCH  26  27
ENDBRANCH   5  26
BRANCH   3  32
HETATM   32  O1  UNL     1      -0.153  23.394 -23.433  1.00  0.00    -0.205 OA
BRANCH  32  33
HETATM   33  O2  UNL     1      -0.664  23.795 -24.548  1.00  0.00    -0.248 OA
ATOM     34  H2  UNL     1      -0.229  23.443 -25.316  1.00  0.00     0.253 HD
ENDBRANCH  32  33
ENDBRANCH   3  32
TORSDOF 8
ENDMDL
MODEL 5
REMARK VINA RESULT: -8.665198524      2.146      7.351
REMARK  8 active torsions:
REMARK  status: ('A' for Active; 'I' for Inactive)
REMARK    1  A    between atoms: C3_3  and  O1_4 
REMARK    2  A    between atoms: O1_4  and  O2_5 
REMARK    3  A    between atoms: C4_8  and  O4_9 
REMARK    4  A    between atoms: O4_9  and  C5_10 
REMARK    5  A    between atoms: C5_10  and  C6_12 
REMARK    6  A    between atoms: C19_27  and  O8_28 
REMARK    7  A    between atoms: O8_28  and  C20_29 
REMARK    8  A    between atoms: C20_29  and  C21_31 
ROOT
HETATM    1  C1  UNL     1      -4.325  20.046 -19.534  1.00  0.00     0.022 C 
HETATM    2  C2  UNL     1      -4.452  21.130 -20.284  1.00  0.00     0.001 C 
HETATM    3  C3  UNL     1      -5.584  22.051 -19.912  1.00  0.00     0.331 C 
HETATM    4  O3  UNL     1      -6.523  22.212 -20.878  1.00  0.00    -0.321 OA
HETATM    5  C4  UNL     1      -6.162  22.710 -22.094  1.00  0.00     0.307 C 
HETATM    6  C9  UNL     1      -4.715  22.851 -22.204  1.00  0.00     0.234 C 
HETATM    7  O6  UNL     1      -4.152  21.593 -22.505  1.00  0.00    -0.361 OA
HETATM    8  C10 UNL     1      -3.440  21.218 -21.367  1.00  0.00     0.191 C 
HETATM    9  C11 UNL     1      -2.379  22.224 -21.139  1.00  0.00     0.009 A 
HETATM   10  C12 UNL     1      -1.598  21.819 -20.079  1.00  0.00     0.020 A 
HETATM   11  C13 UNL     1      -0.514  22.567 -19.645  1.00  0.00    -0.055 A 
HETATM   12  C14 UNL     1       0.339  22.138 -18.495  1.00  0.00     0.049 C 
HETATM   13  C15 UNL     1      -0.219  23.744 -20.297  1.00  0.00    -0.053 A 
HETATM   14  C16 UNL     1       0.955  24.551 -19.826  1.00  0.00     0.049 C 
HETATM   15  C17 UNL     1      -0.989  24.155 -21.353  1.00  0.00     0.044 A 
HETATM   16  C18 UNL     1      -2.066  23.410 -21.782  1.00  0.00     0.082 A 
HETATM   17  O7  UNL     1      -2.761  23.949 -22.867  1.00  0.00    -0.316 OA
HETATM   18  C19 UNL     1      -4.153  23.791 -23.233  1.00  0.00     0.310 C 
ENDROOT
BRANCH  18  19
HETATM   19  O8  UNL     1      -4.804  25.011 -23.330  1.00  0.00    -0.283 OA
BRANCH  19  20
HETATM   20  C20 UNL     1      -5.576  25.441 -24.404  1.00  0.00     0.291 C 
HETATM   21  O9  UNL     1      -6.764  25.751 -24.134  1.00  0.00    -0.260 OA
BRANCH  20  22
HETATM   22  C21 UNL     1      -5.060  25.532 -25.760  1.00  0.00     0.009 C 
HETATM   23  C22 UNL     1      -3.838  26.334 -25.995  1.00  0.00     0.054 C 
HETATM   24  C23 UNL     1      -5.665  24.920 -26.747  1.00  0.00    -0.018 C 
HETATM   25  C24 UNL     1      -5.159  24.996 -28.140  1.00  0.00     0.036 C 
ENDBRANCH  20  22
ENDBRANCH  19  20
ENDBRANCH  18  19
BRANCH   5  26
HETATM   26  O4  UNL     1      -6.591  21.728 -23.059  1.00  0.00    -0.283 OA
BRANCH  26  27
HETATM   27  C5  UNL     1      -7.900  21.284 -23.126  1.00  0.00     0.285 C 
HETATM   28  O5  UNL     1      -8.713  22.039 -23.716  1.00  0.00    -0.260 OA
BRANCH  27  29
HETATM   29  C6  UNL     1      -8.365  20.037 -22.571  1.00  0.00     0.078 C 
HETATM   30  C7  UNL     1      -7.546  19.281 -21.881  1.00  0.00    -0.025 C 
HETATM   31  C8  UNL     1      -7.937  17.983 -21.273  1.00  0.00     0.036 C 
ENDBRANCH  27  29
ENDBRANCH  26  27
ENDBRANCH   5  26
BRANCH   3  32
HETATM   32  O1  UNL     1      -6.277  21.443 -18.831  1.00  0.00    -0.205 OA
BRANCH  32  33
HETATM   33  O2  UNL     1      -6.331  22.177 -17.771  1.00  0.00    -0.248 OA
ATOM     34  H2  UNL     1      -5.639  21.996 -17.145  1.00  0.00     0.253 HD
ENDBRANCH  32  33
ENDBRANCH   3  32
TORSDOF 8
ENDMDL
