MODEL 1
REMARK VINA RESULT: -9.656703222      0.000      0.000
REMARK  7 active torsions:
REMARK  status: ('A' for Active; 'I' for Inactive)
REMARK    1  A    between atoms: O1_2  and  C2_3 
REMARK    2  A    between atoms: C5_6  and  C6_7 
REMARK    3  A    between atoms: C8_10  and  O3_11 
REMARK    4  A    between atoms: C16_21  and  O5_22 
REMARK    5  A    between atoms: C18_24  and  O6_25 
REMARK    6  A    between atoms: C22_31  and  O8_32 
REMARK    7  A    between atoms: C24_34  and  O9_35 
ROOT
HETATM    1  C2  UNL     1      -3.245  21.303 -18.511  1.00  0.00     0.105 A 
HETATM    2  C3  UNL     1      -4.435  20.736 -18.969  1.00  0.00     0.052 A 
HETATM    3  C4  UNL     1      -5.094  21.128 -20.104  1.00  0.00    -0.010 A 
HETATM    4  C5  UNL     1      -6.295  20.508 -20.519  1.00  0.00    -0.029 A 
HETATM    5  C9  UNL     1      -6.843  20.983 -21.679  1.00  0.00    -0.037 A 
HETATM    6  C10 UNL     1      -7.978  20.297 -22.278  1.00  0.00     0.050 C 
HETATM    7  C11 UNL     1      -6.272  22.031 -22.427  1.00  0.00     0.056 A 
HETATM    8  C12 UNL     1      -6.866  22.477 -23.571  1.00  0.00     0.198 A 
HETATM    9  O4  UNL     1      -7.932  21.988 -23.989  1.00  0.00    -0.286 OA
HETATM   10  C13 UNL     1      -6.253  23.506 -24.270  1.00  0.00     0.052 A 
HETATM   11  C14 UNL     1      -6.884  23.916 -25.412  1.00  0.00     0.021 A 
HETATM   12  C15 UNL     1      -6.328  24.919 -26.142  1.00  0.00     0.041 A 
HETATM   13  C16 UNL     1      -5.125  25.530 -25.740  1.00  0.00     0.104 A 
HETATM   14  C18 UNL     1      -4.529  25.056 -24.550  1.00  0.00     0.134 A 
HETATM   15  C19 UNL     1      -5.074  24.049 -23.796  1.00  0.00     0.126 A 
HETATM   16  O7  UNL     1      -4.553  23.593 -22.692  1.00  0.00    -0.305 OA
HETATM   17  C20 UNL     1      -5.089  22.619 -21.984  1.00  0.00     0.105 A 
HETATM   18  C21 UNL     1      -4.508  22.170 -20.828  1.00  0.00     0.046 A 
HETATM   19  C22 UNL     1      -3.344  22.751 -20.400  1.00  0.00     0.118 A 
HETATM   20  C24 UNL     1      -2.696  22.330 -19.246  1.00  0.00     0.136 A 
ENDROOT
BRANCH   4  21
HETATM   21  C6  UNL     1      -6.837  19.531 -19.676  1.00  0.00     0.099 C 
HETATM   22  C7  UNL     1      -8.192  19.025 -19.488  1.00  0.00     0.185 C 
HETATM   23  O2  UNL     1      -7.491  18.038 -18.667  1.00  0.00    -0.360 OA
HETATM   24  C8  UNL     1      -6.648  18.061 -19.833  1.00  0.00     0.267 C 
BRANCH  24  25
HETATM   25  O3  UNL     1      -5.503  17.414 -19.575  1.00  0.00    -0.370 OA
ATOM     26  H3  UNL     1      -5.370  16.484 -19.712  1.00  0.00     0.212 HD
ENDBRANCH  24  25
ENDBRANCH   4  21
BRANCH   1  27
HETATM   27  O1  UNL     1      -2.599  20.887 -17.367  1.00  0.00    -0.353 OA
HETATM   28  C1  UNL     1      -1.447  20.107 -17.330  1.00  0.00     0.210 C 
ENDBRANCH   1  27
BRANCH  19  29
HETATM   29  O8  UNL     1      -2.725  23.831 -21.075  1.00  0.00    -0.352 OA
HETATM   30  C23 UNL     1      -1.689  23.448 -22.016  1.00  0.00     0.210 C 
ENDBRANCH  19  29
BRANCH  20  31
HETATM   31  O9  UNL     1      -1.534  22.943 -18.873  1.00  0.00    -0.351 OA
HETATM   32  C25 UNL     1      -0.244  22.473 -19.221  1.00  0.00     0.210 C 
ENDBRANCH  20  31
BRANCH  14  33
HETATM   33  O6  UNL     1      -3.365  25.668 -24.203  1.00  0.00    -0.356 OA
ATOM     34  H6  UNL     1      -3.459  26.553 -23.868  1.00  0.00     0.218 HD
ENDBRANCH  14  33
BRANCH  13  35
HETATM   35  O5  UNL     1      -4.607  26.490 -26.454  1.00  0.00    -0.353 OA
HETATM   36  C17 UNL     1      -3.947  27.249 -27.251  1.00  0.00     0.210 C 
ENDBRANCH  13  35
TORSDOF 7
ENDMDL
MODEL 2
REMARK VINA RESULT: -9.360755265      1.918      7.394
REMARK  7 active torsions:
REMARK  status: ('A' for Active; 'I' for Inactive)
REMARK    1  A    between atoms: O1_2  and  C2_3 
REMARK    2  A    between atoms: C5_6  and  C6_7 
REMARK    3  A    between atoms: C8_10  and  O3_11 
REMARK    4  A    between atoms: C16_21  and  O5_22 
REMARK    5  A    between atoms: C18_24  and  O6_25 
REMARK    6  A    between atoms: C22_31  and  O8_32 
REMARK    7  A    between atoms: C24_34  and  O9_35 
ROOT
HETATM    1  C2  UNL     1      -8.190  20.512 -22.101  1.00  0.00     0.105 A 
HETATM    2  C3  UNL     1      -7.487  21.520 -22.760  1.00  0.00     0.052 A 
HETATM    3  C4  UNL     1      -6.257  21.984 -22.375  1.00  0.00    -0.010 A 
HETATM    4  C5  UNL     1      -5.590  23.006 -23.091  1.00  0.00    -0.029 A 
HETATM    5  C9  UNL     1      -4.360  23.366 -22.612  1.00  0.00    -0.037 A 
HETATM    6  C10 UNL     1      -3.525  24.280 -23.377  1.00  0.00     0.050 C 
HETATM    7  C11 UNL     1      -3.777  22.781 -21.472  1.00  0.00     0.056 A 
HETATM    8  C12 UNL     1      -2.552  23.186 -21.028  1.00  0.00     0.198 A 
HETATM    9  O4  UNL     1      -1.915  24.089 -21.599  1.00  0.00    -0.286 OA
HETATM   10  C13 UNL     1      -2.024  22.565 -19.905  1.00  0.00     0.052 A 
HETATM   11  C14 UNL     1      -0.793  23.004 -19.501  1.00  0.00     0.021 A 
HETATM   12  C15 UNL     1      -0.223  22.430 -18.408  1.00  0.00     0.041 A 
HETATM   13  C16 UNL     1      -0.876  21.404 -17.701  1.00  0.00     0.104 A 
HETATM   14  C18 UNL     1      -2.145  21.002 -18.176  1.00  0.00     0.134 A 
HETATM   15  C19 UNL     1      -2.741  21.569 -19.272  1.00  0.00     0.126 A 
HETATM   16  O7  UNL     1      -3.911  21.225 -19.732  1.00  0.00    -0.305 OA
HETATM   17  C20 UNL     1      -4.465  21.778 -20.792  1.00  0.00     0.105 A 
HETATM   18  C21 UNL     1      -5.699  21.388 -21.242  1.00  0.00     0.046 A 
HETATM   19  C22 UNL     1      -6.369  20.400 -20.569  1.00  0.00     0.118 A 
HETATM   20  C24 UNL     1      -7.614  19.947 -20.984  1.00  0.00     0.136 A 
ENDROOT
BRANCH   4  21
HETATM   21  C6  UNL     1      -6.276  23.591 -24.163  1.00  0.00     0.099 C 
HETATM   22  C7  UNL     1      -7.380  23.137 -24.999  1.00  0.00     0.185 C 
HETATM   23  O2  UNL     1      -7.322  24.519 -25.472  1.00  0.00    -0.360 OA
HETATM   24  C8  UNL     1      -7.239  24.721 -24.050  1.00  0.00     0.267 C 
BRANCH  24  25
HETATM   25  O3  UNL     1      -6.890  25.990 -23.794  1.00  0.00    -0.370 OA
ATOM     26  H3  UNL     1      -7.343  26.751 -24.139  1.00  0.00     0.212 HD
ENDBRANCH  24  25
ENDBRANCH   4  21
BRANCH   1  27
HETATM   27  O1  UNL     1      -9.426  20.059 -22.510  1.00  0.00    -0.353 OA
HETATM   28  C1  UNL     1     -10.598  20.810 -22.520  1.00  0.00     0.210 C 
ENDBRANCH   1  27
BRANCH  19  29
HETATM   29  O8  UNL     1      -5.867  19.785 -19.397  1.00  0.00    -0.352 OA
HETATM   30  C23 UNL     1      -5.637  18.356 -19.509  1.00  0.00     0.210 C 
ENDBRANCH  19  29
BRANCH  20  31
HETATM   31  O9  UNL     1      -8.231  18.955 -20.278  1.00  0.00    -0.351 OA
HETATM   32  C25 UNL     1      -9.335  19.166 -19.417  1.00  0.00     0.210 C 
ENDBRANCH  20  31
BRANCH  14  33
HETATM   33  O6  UNL     1      -2.736  20.003 -17.468  1.00  0.00    -0.356 OA
ATOM     34  H6  UNL     1      -3.682  19.953 -17.552  1.00  0.00     0.218 HD
ENDBRANCH  14  33
BRANCH  13  35
HETATM   35  O5  UNL     1      -0.311  20.866 -16.656  1.00  0.00    -0.353 OA
HETATM   36  C17 UNL     1       0.304  20.146 -15.789  1.00  0.00     0.210 C 
ENDBRANCH  13  35
TORSDOF 7
ENDMDL
MODEL 3
REMARK VINA RESULT: -9.069235610      1.725      6.029
REMARK  7 active torsions:
REMARK  status: ('A' for Active; 'I' for Inactive)
REMARK    1  A    between atoms: O1_2  and  C2_3 
REMARK    2  A    between atoms: C5_6  and  C6_7 
REMARK    3  A    between atoms: C8_10  and  O3_11 
REMARK    4  A    between atoms: C16_21  and  O5_22 
REMARK    5  A    between atoms: C18_24  and  O6_25 
REMARK    6  A    between atoms: C22_31  and  O8_32 
REMARK    7  A    between atoms: C24_34  and  O9_35 
ROOT
HETATM    1  C2  UNL     1      -7.285  22.861 -24.099  1.00  0.00     0.105 A 
HETATM    2  C3  UNL     1      -7.325  21.843 -23.147  1.00  0.00     0.052 A 
HETATM    3  C4  UNL     1      -6.335  21.597 -22.234  1.00  0.00    -0.010 A 
HETATM    4  C5  UNL     1      -6.438  20.551 -21.287  1.00  0.00    -0.029 A 
HETATM    5  C9  UNL     1      -5.386  20.424 -20.420  1.00  0.00    -0.037 A 
HETATM    6  C10 UNL     1      -5.478  19.494 -19.304  1.00  0.00     0.050 C 
HETATM    7  C11 UNL     1      -4.255  21.261 -20.455  1.00  0.00     0.056 A 
HETATM    8  C12 UNL     1      -3.227  21.083 -19.576  1.00  0.00     0.198 A 
HETATM    9  O4  UNL     1      -3.244  20.174 -18.725  1.00  0.00    -0.286 OA
HETATM   10  C13 UNL     1      -2.143  21.945 -19.652  1.00  0.00     0.052 A 
HETATM   11  C14 UNL     1      -1.140  21.728 -18.748  1.00  0.00     0.021 A 
HETATM   12  C15 UNL     1      -0.053  22.543 -18.771  1.00  0.00     0.041 A 
HETATM   13  C16 UNL     1       0.049  23.594 -19.702  1.00  0.00     0.104 A 
HETATM   14  C18 UNL     1      -1.025  23.759 -20.606  1.00  0.00     0.134 A 
HETATM   15  C19 UNL     1      -2.129  22.945 -20.603  1.00  0.00     0.126 A 
HETATM   16  O7  UNL     1      -3.133  23.067 -21.426  1.00  0.00    -0.305 OA
HETATM   17  C20 UNL     1      -4.189  22.279 -21.404  1.00  0.00     0.105 A 
HETATM   18  C21 UNL     1      -5.222  22.441 -22.288  1.00  0.00     0.046 A 
HETATM   19  C22 UNL     1      -5.151  23.445 -23.217  1.00  0.00     0.118 A 
HETATM   20  C24 UNL     1      -6.173  23.673 -24.129  1.00  0.00     0.136 A 
ENDROOT
BRANCH   4  21
HETATM   21  C6  UNL     1      -7.557  19.715 -21.374  1.00  0.00     0.099 C 
HETATM   22  C7  UNL     1      -7.770  18.308 -21.059  1.00  0.00     0.185 C 
HETATM   23  O2  UNL     1      -9.164  18.673 -21.303  1.00  0.00    -0.360 OA
HETATM   24  C8  UNL     1      -8.742  19.771 -20.473  1.00  0.00     0.267 C 
BRANCH  24  25
HETATM   25  O3  UNL     1      -9.669  20.740 -20.501  1.00  0.00    -0.370 OA
ATOM     26  H3  UNL     1      -9.525  21.627 -20.193  1.00  0.00     0.212 HD
ENDBRANCH  24  25
ENDBRANCH   4  21
BRANCH   1  27
HETATM   27  O1  UNL     1      -8.298  23.091 -25.006  1.00  0.00    -0.353 OA
HETATM   28  C1  UNL     1      -9.607  22.635 -24.884  1.00  0.00     0.210 C 
ENDBRANCH   1  27
BRANCH  19  29
HETATM   29  O8  UNL     1      -4.035  24.308 -23.339  1.00  0.00    -0.352 OA
HETATM   30  C23 UNL     1      -4.336  25.720 -23.194  1.00  0.00     0.210 C 
ENDBRANCH  19  29
BRANCH  20  31
HETATM   31  O9  UNL     1      -6.049  24.694 -25.027  1.00  0.00    -0.351 OA
HETATM   32  C25 UNL     1      -5.783  24.508 -26.405  1.00  0.00     0.210 C 
ENDBRANCH  20  31
BRANCH  14  33
HETATM   33  O6  UNL     1      -0.890  24.790 -21.482  1.00  0.00    -0.356 OA
ATOM     34  H6  UNL     1      -1.560  25.461 -21.422  1.00  0.00     0.218 HD
ENDBRANCH  14  33
BRANCH  13  35
HETATM   35  O5  UNL     1       1.099  24.366 -19.708  1.00  0.00    -0.353 OA
HETATM   36  C17 UNL     1       2.244  24.933 -19.839  1.00  0.00     0.210 C 
ENDBRANCH  13  35
TORSDOF 7
ENDMDL
MODEL 4
REMARK VINA RESULT: -8.774524913      1.834      7.555
REMARK  7 active torsions:
REMARK  status: ('A' for Active; 'I' for Inactive)
REMARK    1  A    between atoms: O1_2  and  C2_3 
REMARK    2  A    between atoms: C5_6  and  C6_7 
REMARK    3  A    between atoms: C8_10  and  O3_11 
REMARK    4  A    between atoms: C16_21  and  O5_22 
REMARK    5  A    between atoms: C18_24  and  O6_25 
REMARK    6  A    between atoms: C22_31  and  O8_32 
REMARK    7  A    between atoms: C24_34  and  O9_35 
ROOT
HETATM    1  C2  UNL     1      -7.972  21.548 -22.743  1.00  0.00     0.105 A 
HETATM    2  C3  UNL     1      -7.132  22.531 -23.265  1.00  0.00     0.052 A 
HETATM    3  C4  UNL     1      -5.892  22.832 -22.769  1.00  0.00    -0.010 A 
HETATM    4  C5  UNL     1      -5.083  23.838 -23.348  1.00  0.00    -0.029 A 
HETATM    5  C9  UNL     1      -3.858  24.028 -22.768  1.00  0.00    -0.037 A 
HETATM    6  C10 UNL     1      -2.890  24.915 -23.396  1.00  0.00     0.050 C 
HETATM    7  C11 UNL     1      -3.411  23.289 -21.656  1.00  0.00     0.056 A 
HETATM    8  C12 UNL     1      -2.185  23.527 -21.107  1.00  0.00     0.198 A 
HETATM    9  O4  UNL     1      -1.427  24.406 -21.555  1.00  0.00    -0.286 OA
HETATM   10  C13 UNL     1      -1.794  22.761 -20.018  1.00  0.00     0.052 A 
HETATM   11  C14 UNL     1      -0.557  23.035 -19.506  1.00  0.00     0.021 A 
HETATM   12  C15 UNL     1      -0.118  22.313 -18.440  1.00  0.00     0.041 A 
HETATM   13  C16 UNL     1      -0.913  21.301 -17.869  1.00  0.00     0.104 A 
HETATM   14  C18 UNL     1      -2.180  21.074 -18.451  1.00  0.00     0.134 A 
HETATM   15  C19 UNL     1      -2.645  21.792 -19.523  1.00  0.00     0.126 A 
HETATM   16  O7  UNL     1      -3.810  21.611 -20.079  1.00  0.00    -0.305 OA
HETATM   17  C20 UNL     1      -4.237  22.308 -21.112  1.00  0.00     0.105 A 
HETATM   18  C21 UNL     1      -5.470  22.086 -21.666  1.00  0.00     0.046 A 
HETATM   19  C22 UNL     1      -6.276  21.118 -21.128  1.00  0.00     0.118 A 
HETATM   20  C24 UNL     1      -7.528  20.832 -21.653  1.00  0.00     0.136 A 
ENDROOT
BRANCH   4  21
HETATM   21  C6  UNL     1      -5.637  24.581 -24.398  1.00  0.00     0.099 C 
HETATM   22  C7  UNL     1      -6.008  24.239 -25.766  1.00  0.00     0.185 C 
HETATM   23  O2  UNL     1      -6.594  25.578 -25.725  1.00  0.00    -0.360 OA
HETATM   24  C8  UNL     1      -7.049  25.050 -24.466  1.00  0.00     0.267 C 
BRANCH  24  25
HETATM   25  O3  UNL     1      -7.554  26.041 -23.717  1.00  0.00    -0.370 OA
ATOM     26  H3  UNL     1      -7.190  26.322 -22.886  1.00  0.00     0.212 HD
ENDBRANCH  24  25
ENDBRANCH   4  21
BRANCH   1  27
HETATM   27  O1  UNL     1      -9.217  21.260 -23.263  1.00  0.00    -0.353 OA
HETATM   28  C1  UNL     1     -10.086  22.186 -23.833  1.00  0.00     0.210 C 
ENDBRANCH   1  27
BRANCH  19  29
HETATM   29  O8  UNL     1      -5.914  20.355 -19.991  1.00  0.00    -0.352 OA
HETATM   30  C23 UNL     1      -6.523  20.786 -18.747  1.00  0.00     0.210 C 
ENDBRANCH  19  29
BRANCH  20  31
HETATM   31  O9  UNL     1      -8.284  19.851 -21.078  1.00  0.00    -0.351 OA
HETATM   32  C25 UNL     1      -8.243  18.490 -21.468  1.00  0.00     0.210 C 
ENDBRANCH  20  31
BRANCH  14  33
HETATM   33  O6  UNL     1      -2.911  20.083 -17.874  1.00  0.00    -0.356 OA
ATOM     34  H6  UNL     1      -3.467  19.593 -18.469  1.00  0.00     0.218 HD
ENDBRANCH  14  33
BRANCH  13  35
HETATM   35  O5  UNL     1      -0.473  20.620 -16.849  1.00  0.00    -0.353 OA
HETATM   36  C17 UNL     1      -0.011  19.760 -16.015  1.00  0.00     0.210 C 
ENDBRANCH  13  35
TORSDOF 7
ENDMDL
MODEL 5
REMARK VINA RESULT: -8.733640650      1.672      6.609
REMARK  7 active torsions:
REMARK  status: ('A' for Active; 'I' for Inactive)
REMARK    1  A    between atoms: O1_2  and  C2_3 
REMARK    2  A    between atoms: C5_6  and  C6_7 
REMARK    3  A    between atoms: C8_10  and  O3_11 
REMARK    4  A    between atoms: C16_21  and  O5_22 
REMARK    5  A    between atoms: C18_24  and  O6_25 
REMARK    6  A    between atoms: C22_31  and  O8_32 
REMARK    7  A    between atoms: C24_34  and  O9_35 
ROOT
HETATM    1  C2  UNL     1      -2.275  23.427 -22.139  1.00  0.00     0.105 A 
HETATM    2  C3  UNL     1      -3.207  23.776 -23.117  1.00  0.00     0.052 A 
HETATM    3  C4  UNL     1      -4.510  23.355 -23.130  1.00  0.00    -0.010 A 
HETATM    4  C5  UNL     1      -5.409  23.749 -24.148  1.00  0.00    -0.029 A 
HETATM    5  C9  UNL     1      -6.687  23.273 -24.034  1.00  0.00    -0.037 A 
HETATM    6  C10 UNL     1      -7.724  23.761 -24.931  1.00  0.00     0.050 C 
HETATM    7  C11 UNL     1      -7.104  22.431 -22.985  1.00  0.00     0.056 A 
HETATM    8  C12 UNL     1      -8.387  21.973 -22.925  1.00  0.00     0.198 A 
HETATM    9  O4  UNL     1      -9.228  22.267 -23.794  1.00  0.00    -0.286 OA
HETATM   10  C13 UNL     1      -8.742  21.154 -21.863  1.00  0.00     0.052 A 
HETATM   11  C14 UNL     1     -10.040  20.723 -21.846  1.00  0.00     0.021 A 
HETATM   12  C15 UNL     1     -10.447  19.921 -20.827  1.00  0.00     0.041 A 
HETATM   13  C16 UNL     1      -9.560  19.536 -19.804  1.00  0.00     0.104 A 
HETATM   14  C18 UNL     1      -8.234  20.019 -19.887  1.00  0.00     0.134 A 
HETATM   15  C19 UNL     1      -7.801  20.826 -20.908  1.00  0.00     0.126 A 
HETATM   16  O7  UNL     1      -6.585  21.283 -21.017  1.00  0.00    -0.305 OA
HETATM   17  C20 UNL     1      -6.188  22.062 -22.002  1.00  0.00     0.105 A 
HETATM   18  C21 UNL     1      -4.900  22.520 -22.079  1.00  0.00     0.046 A 
HETATM   19  C22 UNL     1      -4.005  22.155 -21.108  1.00  0.00     0.118 A 
HETATM   20  C24 UNL     1      -2.690  22.600 -21.118  1.00  0.00     0.136 A 
ENDROOT
BRANCH   4  21
HETATM   21  C6  UNL     1      -4.893  24.520 -25.197  1.00  0.00     0.099 C 
HETATM   22  C7  UNL     1      -5.398  24.854 -26.523  1.00  0.00     0.185 C 
HETATM   23  O2  UNL     1      -4.249  25.758 -26.510  1.00  0.00    -0.360 OA
HETATM   24  C8  UNL     1      -4.798  26.006 -25.204  1.00  0.00     0.267 C 
BRANCH  24  25
HETATM   25  O3  UNL     1      -3.923  26.712 -24.473  1.00  0.00    -0.370 OA
ATOM     26  H3  UNL     1      -2.989  26.540 -24.443  1.00  0.00     0.212 HD
ENDBRANCH  24  25
ENDBRANCH   4  21
BRANCH   1  27
HETATM   27  O1  UNL     1      -0.969  23.868 -22.146  1.00  0.00    -0.353 OA
HETATM   28  C1  UNL     1       0.073  23.288 -22.864  1.00  0.00     0.210 C 
ENDBRANCH   1  27
BRANCH  19  29
HETATM   29  O8  UNL     1      -4.336  21.286 -20.039  1.00  0.00    -0.352 OA
HETATM   30  C23 UNL     1      -4.724  21.952 -18.810  1.00  0.00     0.210 C 
ENDBRANCH  19  29
BRANCH  20  31
HETATM   31  O9  UNL     1      -1.846  22.208 -20.119  1.00  0.00    -0.351 OA
HETATM   32  C25 UNL     1      -1.354  23.075 -19.113  1.00  0.00     0.210 C 
ENDBRANCH  20  31
BRANCH  14  33
HETATM   33  O6  UNL     1      -7.414  19.630 -18.875  1.00  0.00    -0.356 OA
ATOM     34  H6  UNL     1      -7.359  20.236 -18.145  1.00  0.00     0.218 HD
ENDBRANCH  14  33
BRANCH  13  35
HETATM   35  O5  UNL     1      -9.970  18.767 -18.835  1.00  0.00    -0.353 OA
HETATM   36  C17 UNL     1     -10.504  18.217 -17.805  1.00  0.00     0.210 C 
ENDBRANCH  13  35
TORSDOF 7
ENDMDL
