MODEL 1
REMARK VINA RESULT: -8.933664904      0.000      0.000
REMARK  9 active torsions:
REMARK  status: ('A' for Active; 'I' for Inactive)
REMARK    1  A    between atoms: C2_2  and  C23_32 
REMARK    2  A    between atoms: C3_3  and  C4_4 
REMARK    3  A    between atoms: C4_4  and  C5_5 
REMARK    4  A    between atoms: C5_5  and  O2_7 
REMARK    5  A    between atoms: O2_7  and  C6_8 
REMARK    6  A    between atoms: C18_23  and  O6_24 
REMARK    7  A    between atoms: O6_24  and  C19_25 
REMARK    8  A    between atoms: C19_25  and  C20_27 
REMARK    9  A    between atoms: C20_27  and  O8_30 
ROOT
HETATM    1  C23 UNL     1      -2.119  22.280 -18.801  1.00  0.00     0.100 C 
HETATM    2  C24 UNL     1      -1.931  21.143 -17.985  1.00  0.00     0.088 C 
HETATM    3  N1  UNL     1      -1.823  20.209 -17.310  1.00  0.00    -0.192 NA
ENDROOT
BRANCH   1   4
HETATM    4  C2  UNL     1      -1.112  22.754 -19.734  1.00  0.00    -0.055 C 
HETATM    5  C1  UNL     1       0.350  22.714 -19.204  1.00  0.00     0.048 C 
HETATM    6  C3  UNL     1      -1.265  23.244 -20.921  1.00  0.00    -0.010 C 
BRANCH   6   7
HETATM    7  C4  UNL     1      -2.424  23.459 -21.778  1.00  0.00     0.138 C 
BRANCH   7   8
HETATM    8  C5  UNL     1      -2.747  22.161 -22.431  1.00  0.00     0.264 C 
HETATM    9  O1  UNL     1      -1.780  21.511 -22.906  1.00  0.00    -0.265 OA
BRANCH   8  10
HETATM   10  O2  UNL     1      -4.042  21.675 -22.525  1.00  0.00    -0.284 OA
BRANCH  10  11
HETATM   11  C6  UNL     1      -5.056  22.201 -21.718  1.00  0.00     0.337 C 
HETATM   12  O3  UNL     1      -4.978  21.885 -20.412  1.00  0.00    -0.344 OA
HETATM   13  C7  UNL     1      -6.053  21.129 -19.970  1.00  0.00     0.073 C 
HETATM   14  C8  UNL     1      -6.473  21.751 -18.670  1.00  0.00     0.047 C 
HETATM   15  C9  UNL     1      -5.357  19.824 -19.522  1.00  0.00     0.047 C 
HETATM   16  C10 UNL     1      -7.035  20.960 -21.047  1.00  0.00     0.087 C 
HETATM   17  C11 UNL     1      -8.465  21.187 -20.743  1.00  0.00     0.001 C 
HETATM   18  C17 UNL     1      -6.931  19.614 -21.759  1.00  0.00     0.181 C 
HETATM   19  C18 UNL     1      -6.442  21.832 -22.123  1.00  0.00     0.268 C 
HETATM   20  C12 UNL     1      -9.426  21.134 -21.858  1.00  0.00     0.011 C 
HETATM   21  C13 UNL     1      -8.972  20.088 -19.812  1.00  0.00     0.006 C 
HETATM   22  C14 UNL     1      -8.860  18.722 -20.404  1.00  0.00     0.007 C 
HETATM   23  C15 UNL     1      -7.681  18.483 -21.255  1.00  0.00     0.015 C 
HETATM   24  C16 UNL     1      -8.106  17.591 -22.438  1.00  0.00     0.012 C 
HETATM   25  O4  UNL     1      -7.265  20.042 -23.071  1.00  0.00    -0.231 OA
HETATM   26  O5  UNL     1      -6.245  20.898 -23.211  1.00  0.00    -0.193 OA
BRANCH  19  27
HETATM   27  O6  UNL     1      -7.110  22.853 -22.664  1.00  0.00    -0.272 OA
BRANCH  27  28
HETATM   28  C19 UNL     1      -7.155  23.371 -23.906  1.00  0.00     0.295 C 
HETATM   29  O7  UNL     1      -7.707  22.693 -24.776  1.00  0.00    -0.262 OA
BRANCH  28  30
HETATM   30  C20 UNL     1      -6.567  24.712 -24.250  1.00  0.00     0.138 C 
HETATM   31  C21 UNL     1      -6.231  24.696 -25.707  1.00  0.00     0.056 C 
HETATM   32  C22 UNL     1      -5.411  24.973 -23.337  1.00  0.00     0.056 C 
BRANCH  30  33
HETATM   33  O8  UNL     1      -7.538  25.698 -24.070  1.00  0.00    -0.380 OA
ATOM     34  H8  UNL     1      -7.496  26.018 -23.176  1.00  0.00     0.211 HD
ENDBRANCH  30  33
ENDBRANCH  28  30
ENDBRANCH  27  28
ENDBRANCH  19  27
ENDBRANCH  10  11
ENDBRANCH   8  10
ENDBRANCH   7   8
ENDBRANCH   6   7
ENDBRANCH   1   4
TORSDOF 9
ENDMDL
MODEL 2
REMARK VINA RESULT: -8.751105417      1.470      1.832
REMARK  9 active torsions:
REMARK  status: ('A' for Active; 'I' for Inactive)
REMARK    1  A    between atoms: C2_2  and  C23_32 
REMARK    2  A    between atoms: C3_3  and  C4_4 
REMARK    3  A    between atoms: C4_4  and  C5_5 
REMARK    4  A    between atoms: C5_5  and  O2_7 
REMARK    5  A    between atoms: O2_7  and  C6_8 
REMARK    6  A    between atoms: C18_23  and  O6_24 
REMARK    7  A    between atoms: O6_24  and  C19_25 
REMARK    8  A    between atoms: C19_25  and  C20_27 
REMARK    9  A    between atoms: C20_27  and  O8_30 
ROOT
HETATM    1  C23 UNL     1      -1.088  24.129 -19.840  1.00  0.00     0.100 C 
HETATM    2  C24 UNL     1      -0.037  24.498 -20.709  1.00  0.00     0.088 C 
HETATM    3  N1  UNL     1       0.827  24.841 -21.397  1.00  0.00    -0.192 NA
ENDROOT
BRANCH   1   4
HETATM    4  C2  UNL     1      -1.513  22.752 -19.659  1.00  0.00    -0.055 C 
HETATM    5  C1  UNL     1      -1.664  22.297 -18.179  1.00  0.00     0.048 C 
HETATM    6  C3  UNL     1      -1.737  21.843 -20.551  1.00  0.00    -0.010 C 
BRANCH   6   7
HETATM    7  C4  UNL     1      -1.713  21.838 -22.008  1.00  0.00     0.138 C 
BRANCH   7   8
HETATM    8  C5  UNL     1      -2.974  22.472 -22.481  1.00  0.00     0.264 C 
HETATM    9  O1  UNL     1      -2.891  23.660 -22.889  1.00  0.00    -0.265 OA
BRANCH   8  10
HETATM   10  O2  UNL     1      -4.190  21.807 -22.480  1.00  0.00    -0.284 OA
BRANCH  10  11
HETATM   11  C6  UNL     1      -5.268  22.304 -21.740  1.00  0.00     0.337 C 
HETATM   12  O3  UNL     1      -5.190  22.121 -20.409  1.00  0.00    -0.344 OA
HETATM   13  C7  UNL     1      -6.196  21.307 -19.911  1.00  0.00     0.073 C 
HETATM   14  C8  UNL     1      -6.704  22.004 -18.682  1.00  0.00     0.047 C 
HETATM   15  C9  UNL     1      -5.388  20.124 -19.333  1.00  0.00     0.047 C 
HETATM   16  C10 UNL     1      -7.134  20.944 -20.980  1.00  0.00     0.087 C 
HETATM   17  C11 UNL     1      -8.585  21.057 -20.718  1.00  0.00     0.001 C 
HETATM   18  C17 UNL     1      -6.885  19.554 -21.561  1.00  0.00     0.181 C 
HETATM   19  C18 UNL     1      -6.602  21.765 -22.127  1.00  0.00     0.268 C 
HETATM   20  C12 UNL     1      -9.511  20.807 -21.836  1.00  0.00     0.011 C 
HETATM   21  C13 UNL     1      -9.005  20.005 -19.694  1.00  0.00     0.006 C 
HETATM   22  C14 UNL     1      -8.749  18.608 -20.153  1.00  0.00     0.007 C 
HETATM   23  C15 UNL     1      -7.533  18.407 -20.961  1.00  0.00     0.015 C 
HETATM   24  C16 UNL     1      -7.844  17.372 -22.061  1.00  0.00     0.012 C 
HETATM   25  O4  UNL     1      -7.229  19.823 -22.911  1.00  0.00    -0.231 OA
HETATM   26  O5  UNL     1      -6.292  20.759 -23.118  1.00  0.00    -0.193 OA
BRANCH  19  27
HETATM   27  O6  UNL     1      -7.354  22.662 -22.771  1.00  0.00    -0.272 OA
BRANCH  27  28
HETATM   28  C19 UNL     1      -7.305  23.185 -24.010  1.00  0.00     0.295 C 
HETATM   29  O7  UNL     1      -7.880  22.560 -24.905  1.00  0.00    -0.262 OA
BRANCH  28  30
HETATM   30  C20 UNL     1      -6.590  24.470 -24.323  1.00  0.00     0.138 C 
HETATM   31  C21 UNL     1      -7.429  25.591 -23.799  1.00  0.00     0.056 C 
HETATM   32  C22 UNL     1      -6.318  24.517 -25.794  1.00  0.00     0.056 C 
BRANCH  30  33
HETATM   33  O8  UNL     1      -5.383  24.507 -23.623  1.00  0.00    -0.380 OA
ATOM     34  H8  UNL     1      -5.241  25.385 -23.292  1.00  0.00     0.211 HD
ENDBRANCH  30  33
ENDBRANCH  28  30
ENDBRANCH  27  28
ENDBRANCH  19  27
ENDBRANCH  10  11
ENDBRANCH   8  10
ENDBRANCH   7   8
ENDBRANCH   6   7
ENDBRANCH   1   4
TORSDOF 9
ENDMDL
MODEL 3
REMARK VINA RESULT: -8.577562300      1.452      1.749
REMARK  9 active torsions:
REMARK  status: ('A' for Active; 'I' for Inactive)
REMARK    1  A    between atoms: C2_2  and  C23_32 
REMARK    2  A    between atoms: C3_3  and  C4_4 
REMARK    3  A    between atoms: C4_4  and  C5_5 
REMARK    4  A    between atoms: C5_5  and  O2_7 
REMARK    5  A    between atoms: O2_7  and  C6_8 
REMARK    6  A    between atoms: C18_23  and  O6_24 
REMARK    7  A    between atoms: O6_24  and  C19_25 
REMARK    8  A    between atoms: C19_25  and  C20_27 
REMARK    9  A    between atoms: C20_27  and  O8_30 
ROOT
HETATM    1  C23 UNL     1       0.061  24.539 -20.019  1.00  0.00     0.100 C 
HETATM    2  C24 UNL     1       0.825  24.748 -21.189  1.00  0.00     0.088 C 
HETATM    3  N1  UNL     1       1.473  24.953 -22.125  1.00  0.00    -0.192 NA
ENDROOT
BRANCH   1   4
HETATM    4  C2  UNL     1      -0.678  23.314 -19.770  1.00  0.00    -0.055 C 
HETATM    5  C1  UNL     1      -0.164  22.465 -18.573  1.00  0.00     0.048 C 
HETATM    6  C3  UNL     1      -1.670  22.810 -20.429  1.00  0.00    -0.010 C 
BRANCH   6   7
HETATM    7  C4  UNL     1      -2.441  23.259 -21.582  1.00  0.00     0.138 C 
BRANCH   7   8
HETATM    8  C5  UNL     1      -2.800  22.055 -22.380  1.00  0.00     0.264 C 
HETATM    9  O1  UNL     1      -1.849  21.418 -22.902  1.00  0.00    -0.265 OA
BRANCH   8  10
HETATM   10  O2  UNL     1      -4.110  21.638 -22.553  1.00  0.00    -0.284 OA
BRANCH  10  11
HETATM   11  C6  UNL     1      -5.132  22.164 -21.755  1.00  0.00     0.337 C 
HETATM   12  O3  UNL     1      -5.074  21.837 -20.451  1.00  0.00    -0.344 OA
HETATM   13  C7  UNL     1      -6.160  21.085 -20.030  1.00  0.00     0.073 C 
HETATM   14  C8  UNL     1      -6.594  21.699 -18.730  1.00  0.00     0.047 C 
HETATM   15  C9  UNL     1      -5.479  19.771 -19.584  1.00  0.00     0.047 C 
HETATM   16  C10 UNL     1      -7.129  20.932 -21.121  1.00  0.00     0.087 C 
HETATM   17  C11 UNL     1      -8.561  21.167 -20.834  1.00  0.00     0.001 C 
HETATM   18  C17 UNL     1      -7.025  19.591 -21.844  1.00  0.00     0.181 C 
HETATM   19  C18 UNL     1      -6.515  21.809 -22.182  1.00  0.00     0.268 C 
HETATM   20  C12 UNL     1      -9.507  21.130 -21.962  1.00  0.00     0.011 C 
HETATM   21  C13 UNL     1      -9.088  20.063 -19.920  1.00  0.00     0.006 C 
HETATM   22  C14 UNL     1      -8.977  18.702 -20.523  1.00  0.00     0.007 C 
HETATM   23  C15 UNL     1      -7.789  18.461 -21.359  1.00  0.00     0.015 C 
HETATM   24  C16 UNL     1      -8.204  17.583 -22.556  1.00  0.00     0.012 C 
HETATM   25  O4  UNL     1      -7.338  20.033 -23.156  1.00  0.00    -0.231 OA
HETATM   26  O5  UNL     1      -6.310  20.883 -23.275  1.00  0.00    -0.193 OA
BRANCH  19  27
HETATM   27  O6  UNL     1      -7.169  22.839 -22.723  1.00  0.00    -0.272 OA
BRANCH  27  28
HETATM   28  C19 UNL     1      -7.175  23.383 -23.955  1.00  0.00     0.295 C 
HETATM   29  O7  UNL     1      -7.718  22.733 -24.851  1.00  0.00    -0.262 OA
BRANCH  28  30
HETATM   30  C20 UNL     1      -6.556  24.720 -24.257  1.00  0.00     0.138 C 
HETATM   31  C21 UNL     1      -6.230  24.745 -25.716  1.00  0.00     0.056 C 
HETATM   32  C22 UNL     1      -5.387  24.920 -23.344  1.00  0.00     0.056 C 
BRANCH  30  33
HETATM   33  O8  UNL     1      -7.500  25.723 -24.036  1.00  0.00    -0.380 OA
ATOM     34  H8  UNL     1      -8.121  25.732 -24.754  1.00  0.00     0.211 HD
ENDBRANCH  30  33
ENDBRANCH  28  30
ENDBRANCH  27  28
ENDBRANCH  19  27
ENDBRANCH  10  11
ENDBRANCH   8  10
ENDBRANCH   7   8
ENDBRANCH   6   7
ENDBRANCH   1   4
TORSDOF 9
ENDMDL
MODEL 4
REMARK VINA RESULT: -8.562909225      1.221      1.501
REMARK  9 active torsions:
REMARK  status: ('A' for Active; 'I' for Inactive)
REMARK    1  A    between atoms: C2_2  and  C23_32 
REMARK    2  A    between atoms: C3_3  and  C4_4 
REMARK    3  A    between atoms: C4_4  and  C5_5 
REMARK    4  A    between atoms: C5_5  and  O2_7 
REMARK    5  A    between atoms: O2_7  and  C6_8 
REMARK    6  A    between atoms: C18_23  and  O6_24 
REMARK    7  A    between atoms: O6_24  and  C19_25 
REMARK    8  A    between atoms: C19_25  and  C20_27 
REMARK    9  A    between atoms: C20_27  and  O8_30 
ROOT
HETATM    1  C23 UNL     1       0.688  22.821 -20.903  1.00  0.00     0.100 C 
HETATM    2  C24 UNL     1       1.202  21.677 -21.554  1.00  0.00     0.088 C 
HETATM    3  N1  UNL     1       1.664  20.761 -22.088  1.00  0.00    -0.192 NA
ENDROOT
BRANCH   1   4
HETATM    4  C2  UNL     1      -0.567  22.813 -20.173  1.00  0.00    -0.055 C 
HETATM    5  C1  UNL     1      -0.437  22.591 -18.639  1.00  0.00     0.048 C 
HETATM    6  C3  UNL     1      -1.775  22.920 -20.623  1.00  0.00    -0.010 C 
BRANCH   6   7
HETATM    7  C4  UNL     1      -2.336  23.133 -21.951  1.00  0.00     0.138 C 
BRANCH   7   8
HETATM    8  C5  UNL     1      -2.879  21.830 -22.425  1.00  0.00     0.264 C 
HETATM    9  O1  UNL     1      -2.059  20.882 -22.534  1.00  0.00    -0.265 OA
BRANCH   8  10
HETATM   10  O2  UNL     1      -4.217  21.648 -22.736  1.00  0.00    -0.284 OA
BRANCH  10  11
HETATM   11  C6  UNL     1      -5.214  22.166 -21.903  1.00  0.00     0.337 C 
HETATM   12  O3  UNL     1      -5.095  21.860 -20.598  1.00  0.00    -0.344 OA
HETATM   13  C7  UNL     1      -6.147  21.093 -20.120  1.00  0.00     0.073 C 
HETATM   14  C8  UNL     1      -6.538  21.718 -18.813  1.00  0.00     0.047 C 
HETATM   15  C9  UNL     1      -5.421  19.800 -19.685  1.00  0.00     0.047 C 
HETATM   16  C10 UNL     1      -7.158  20.905 -21.167  1.00  0.00     0.087 C 
HETATM   17  C11 UNL     1      -8.581  21.115 -20.823  1.00  0.00     0.001 C 
HETATM   18  C17 UNL     1      -7.057  19.556 -21.874  1.00  0.00     0.181 C 
HETATM   19  C18 UNL     1      -6.606  21.777 -22.266  1.00  0.00     0.268 C 
HETATM   20  C12 UNL     1      -9.572  21.044 -21.910  1.00  0.00     0.011 C 
HETATM   21  C13 UNL     1      -9.047  20.016 -19.872  1.00  0.00     0.006 C 
HETATM   22  C14 UNL     1      -8.934  18.648 -20.459  1.00  0.00     0.007 C 
HETATM   23  C15 UNL     1      -7.777  18.418 -21.342  1.00  0.00     0.015 C 
HETATM   24  C16 UNL     1      -8.224  17.514 -22.508  1.00  0.00     0.012 C 
HETATM   25  O4  UNL     1      -7.434  19.971 -23.178  1.00  0.00    -0.231 OA
HETATM   26  O5  UNL     1      -6.429  20.840 -23.353  1.00  0.00    -0.193 OA
BRANCH  19  27
HETATM   27  O6  UNL     1      -7.303  22.786 -22.793  1.00  0.00    -0.272 OA
BRANCH  27  28
HETATM   28  C19 UNL     1      -7.304  23.371 -24.006  1.00  0.00     0.295 C 
HETATM   29  O7  UNL     1      -7.885  22.775 -24.915  1.00  0.00    -0.262 OA
BRANCH  28  30
HETATM   30  C20 UNL     1      -6.635  24.692 -24.272  1.00  0.00     0.138 C 
HETATM   31  C21 UNL     1      -6.264  24.724 -25.720  1.00  0.00     0.056 C 
HETATM   32  C22 UNL     1      -5.490  24.845 -23.322  1.00  0.00     0.056 C 
BRANCH  30  33
HETATM   33  O8  UNL     1      -7.554  25.722 -24.068  1.00  0.00    -0.380 OA
ATOM     34  H8  UNL     1      -7.166  26.380 -23.505  1.00  0.00     0.211 HD
ENDBRANCH  30  33
ENDBRANCH  28  30
ENDBRANCH  27  28
ENDBRANCH  19  27
ENDBRANCH  10  11
ENDBRANCH   8  10
ENDBRANCH   7   8
ENDBRANCH   6   7
ENDBRANCH   1   4
TORSDOF 9
ENDMDL
MODEL 5
REMARK VINA RESULT: -8.468017390      2.717      6.050
REMARK  9 active torsions:
REMARK  status: ('A' for Active; 'I' for Inactive)
REMARK    1  A    between atoms: C2_2  and  C23_32 
REMARK    2  A    between atoms: C3_3  and  C4_4 
REMARK    3  A    between atoms: C4_4  and  C5_5 
REMARK    4  A    between atoms: C5_5  and  O2_7 
REMARK    5  A    between atoms: O2_7  and  C6_8 
REMARK    6  A    between atoms: C18_23  and  O6_24 
REMARK    7  A    between atoms: O6_24  and  C19_25 
REMARK    8  A    between atoms: C19_25  and  C20_27 
REMARK    9  A    between atoms: C20_27  and  O8_30 
ROOT
HETATM    1  C23 UNL     1      -2.952  25.974 -27.697  1.00  0.00     0.100 C 
HETATM    2  C24 UNL     1      -1.800  25.489 -27.039  1.00  0.00     0.088 C 
HETATM    3  N1  UNL     1      -0.833  25.129 -26.515  1.00  0.00    -0.192 NA
ENDROOT
BRANCH   1   4
HETATM    4  C2  UNL     1      -4.290  25.498 -27.393  1.00  0.00    -0.055 C 
HETATM    5  C1  UNL     1      -4.984  24.704 -28.537  1.00  0.00     0.048 C 
HETATM    6  C3  UNL     1      -4.999  25.679 -26.327  1.00  0.00    -0.010 C 
BRANCH   6   7
HETATM    7  C4  UNL     1      -4.748  26.343 -25.054  1.00  0.00     0.138 C 
BRANCH   7   8
HETATM    8  C5  UNL     1      -5.536  25.631 -24.011  1.00  0.00     0.264 C 
HETATM    9  O1  UNL     1      -6.788  25.740 -24.077  1.00  0.00    -0.265 OA
BRANCH   8  10
HETATM   10  O2  UNL     1      -4.942  24.881 -23.009  1.00  0.00    -0.284 OA
BRANCH  10  11
HETATM   11  C6  UNL     1      -4.646  23.530 -23.216  1.00  0.00     0.337 C 
HETATM   12  O3  UNL     1      -5.651  22.787 -23.715  1.00  0.00    -0.344 OA
HETATM   13  C7  UNL     1      -6.069  21.786 -22.851  1.00  0.00     0.073 C 
HETATM   14  C8  UNL     1      -6.198  20.553 -23.698  1.00  0.00     0.047 C 
HETATM   15  C9  UNL     1      -7.539  22.187 -22.593  1.00  0.00     0.047 C 
HETATM   16  C10 UNL     1      -5.222  21.760 -21.653  1.00  0.00     0.087 C 
HETATM   17  C11 UNL     1      -4.708  20.456 -21.179  1.00  0.00     0.001 C 
HETATM   18  C17 UNL     1      -5.845  22.466 -20.452  1.00  0.00     0.181 C 
HETATM   19  C18 UNL     1      -4.182  22.791 -22.008  1.00  0.00     0.268 C 
HETATM   20  C12 UNL     1      -3.761  20.456 -20.050  1.00  0.00     0.011 C 
HETATM   21  C13 UNL     1      -5.863  19.612 -20.646  1.00  0.00     0.006 C 
HETATM   22  C14 UNL     1      -6.572  20.250 -19.498  1.00  0.00     0.007 C 
HETATM   23  C15 UNL     1      -6.693  21.718 -19.549  1.00  0.00     0.015 C 
HETATM   24  C16 UNL     1      -6.520  22.271 -18.120  1.00  0.00     0.012 C 
HETATM   25  O4  UNL     1      -4.661  23.005 -19.885  1.00  0.00    -0.231 OA
HETATM   26  O5  UNL     1      -4.321  23.758 -20.940  1.00  0.00    -0.193 OA
BRANCH  19  27
HETATM   27  O6  UNL     1      -2.878  22.507 -22.045  1.00  0.00    -0.272 OA
BRANCH  27  28
HETATM   28  C19 UNL     1      -1.767  23.265 -21.985  1.00  0.00     0.295 C 
HETATM   29  O7  UNL     1      -1.330  23.704 -23.052  1.00  0.00    -0.262 OA
BRANCH  28  30
HETATM   30  C20 UNL     1      -1.067  23.581 -20.693  1.00  0.00     0.138 C 
HETATM   31  C21 UNL     1       0.159  24.370 -21.025  1.00  0.00     0.056 C 
HETATM   32  C22 UNL     1      -0.815  22.299 -19.963  1.00  0.00     0.056 C 
BRANCH  30  33
HETATM   33  O8  UNL     1      -1.882  24.408 -19.918  1.00  0.00    -0.380 OA
ATOM     34  H8  UNL     1      -1.493  24.513 -19.058  1.00  0.00     0.211 HD
ENDBRANCH  30  33
ENDBRANCH  28  30
ENDBRANCH  27  28
ENDBRANCH  19  27
ENDBRANCH  10  11
ENDBRANCH   8  10
ENDBRANCH   7   8
ENDBRANCH   6   7
ENDBRANCH   1   4
TORSDOF 9
ENDMDL
