MODEL 1
REMARK VINA RESULT: -7.622486848      0.000      0.000
REMARK  11 active torsions:
REMARK  status: ('A' for Active; 'I' for Inactive)
REMARK    1  A    between atoms: C2_2  and  O2_4 
REMARK    2  A    between atoms: O2_4  and  C3_5 
REMARK    3  A    between atoms: C4_6  and  O3_7 
REMARK    4  A    between atoms: O3_7  and  C5_8 
REMARK    5  A    between atoms: C5_8  and  C6_10 
REMARK    6  A    between atoms: C9_13  and  C10_14 
REMARK    7  A    between atoms: C11_15  and  C12_16 
REMARK    8  A    between atoms: C19_24  and  C20_25 
REMARK    9  A    between atoms: C20_25  and  O6_26 
REMARK   10  A    between atoms: C21_28  and  O7_29 
REMARK   11  A    between atoms: C22_31  and  O8_32 
ROOT
HETATM    1  C3  UNL     1       0.396  22.604  19.923  1.00  0.00     0.218 C 
HETATM    2  C4  UNL     1       0.207  23.522  21.111  1.00  0.00     0.302 C 
HETATM    3  O5  UNL     1      -0.789  24.427  20.878  1.00  0.00    -0.348 OA
HETATM    4  C19 UNL     1      -1.345  24.387  19.627  1.00  0.00     0.179 C 
HETATM    5  C21 UNL     1      -1.887  23.022  19.243  1.00  0.00     0.180 C 
HETATM    6  C22 UNL     1      -0.915  21.918  19.689  1.00  0.00     0.183 C 
ENDROOT
BRANCH   2   7
HETATM    7  O3  UNL     1       1.414  24.099  21.541  1.00  0.00    -0.283 OA
BRANCH   7   8
HETATM    8  C5  UNL     1       1.999  23.844  22.766  1.00  0.00     0.296 C 
HETATM    9  O4  UNL     1       1.377  24.237  23.776  1.00  0.00    -0.259 OA
BRANCH   8  10
HETATM   10  C6  UNL     1       3.276  23.145  22.786  1.00  0.00     0.045 A 
HETATM   11  C7  UNL     1       3.331  21.753  22.710  1.00  0.00     0.019 A 
HETATM   12  C8  UNL     1       4.520  21.057  22.727  1.00  0.00     0.012 A 
HETATM   13  C9  UNL     1       5.724  21.723  22.821  1.00  0.00    -0.036 A 
HETATM   14  C16 UNL     1       5.663  23.103  22.897  1.00  0.00     0.019 A 
HETATM   15  C17 UNL     1       4.469  23.792  22.880  1.00  0.00    -0.045 A 
HETATM   16  C18 UNL     1       4.555  25.273  22.968  1.00  0.00     0.049 C 
BRANCH  13  17
HETATM   17  C10 UNL     1       7.006  21.042  22.843  1.00  0.00     0.008 C 
HETATM   18  C11 UNL     1       7.789  20.856  21.823  1.00  0.00    -0.017 C 
BRANCH  18  19
HETATM   19  C12 UNL     1       9.087  20.148  21.930  1.00  0.00    -0.034 C 
HETATM   20  C13 UNL     1      10.121  20.970  22.656  1.00  0.00     0.018 C 
HETATM   21  C14 UNL     1       9.660  19.845  20.548  1.00  0.00     0.018 C 
HETATM   22  C15 UNL     1       8.860  18.830  22.637  1.00  0.00     0.018 C 
ENDBRANCH  18  19
ENDBRANCH  13  17
ENDBRANCH   8  10
ENDBRANCH   7   8
ENDBRANCH   2   7
BRANCH   1  23
HETATM   23  O2  UNL     1       1.508  21.783  20.034  1.00  0.00    -0.309 OA
BRANCH  23  24
HETATM   24  C2  UNL     1       2.425  21.523  19.048  1.00  0.00     0.255 C 
HETATM   25  C1  UNL     1       3.809  22.058  19.137  1.00  0.00     0.126 C 
HETATM   26  O1  UNL     1       2.009  20.826  18.112  1.00  0.00    -0.266 OA
ENDBRANCH  23  24
ENDBRANCH   1  23
BRANCH   6  27
HETATM   27  O8  UNL     1      -0.871  21.005  18.640  1.00  0.00    -0.390 OA
ATOM     28  H8  UNL     1      -0.580  20.142  18.910  1.00  0.00     0.210 HD
ENDBRANCH   6  27
BRANCH   4  29
HETATM   29  C20 UNL     1      -2.573  25.312  19.670  1.00  0.00     0.198 C 
BRANCH  29  30
HETATM   30  O6  UNL     1      -3.751  24.567  19.705  1.00  0.00    -0.398 OA
ATOM     31  H6  UNL     1      -4.511  25.137  19.689  1.00  0.00     0.209 HD
ENDBRANCH  29  30
ENDBRANCH   4  29
BRANCH   5  32
HETATM   32  O7  UNL     1      -2.061  23.017  17.870  1.00  0.00    -0.390 OA
ATOM     33  H7  UNL     1      -2.871  22.555  17.688  1.00  0.00     0.210 HD
ENDBRANCH   5  32
TORSDOF 11
ENDMDL
MODEL 2
REMARK VINA RESULT: -7.614692720      0.499      1.288
REMARK  11 active torsions:
REMARK  status: ('A' for Active; 'I' for Inactive)
REMARK    1  A    between atoms: C2_2  and  O2_4 
REMARK    2  A    between atoms: O2_4  and  C3_5 
REMARK    3  A    between atoms: C4_6  and  O3_7 
REMARK    4  A    between atoms: O3_7  and  C5_8 
REMARK    5  A    between atoms: C5_8  and  C6_10 
REMARK    6  A    between atoms: C9_13  and  C10_14 
REMARK    7  A    between atoms: C11_15  and  C12_16 
REMARK    8  A    between atoms: C19_24  and  C20_25 
REMARK    9  A    between atoms: C20_25  and  O6_26 
REMARK   10  A    between atoms: C21_28  and  O7_29 
REMARK   11  A    between atoms: C22_31  and  O8_32 
ROOT
HETATM    1  C3  UNL     1       0.397  22.637  19.846  1.00  0.00     0.218 C 
HETATM    2  C4  UNL     1       0.316  23.585  21.023  1.00  0.00     0.302 C 
HETATM    3  O5  UNL     1      -0.690  24.493  20.853  1.00  0.00    -0.348 OA
HETATM    4  C19 UNL     1      -1.350  24.429  19.655  1.00  0.00     0.179 C 
HETATM    5  C21 UNL     1      -1.932  23.060  19.351  1.00  0.00     0.180 C 
HETATM    6  C22 UNL     1      -0.934  21.957  19.740  1.00  0.00     0.183 C 
ENDROOT
BRANCH   2   7
HETATM    7  O3  UNL     1       1.559  24.161  21.335  1.00  0.00    -0.283 OA
BRANCH   7   8
HETATM    8  C5  UNL     1       2.207  23.990  22.544  1.00  0.00     0.296 C 
HETATM    9  O4  UNL     1       1.684  24.533  23.540  1.00  0.00    -0.259 OA
BRANCH   8  10
HETATM   10  C6  UNL     1       3.431  23.202  22.562  1.00  0.00     0.045 A 
HETATM   11  C7  UNL     1       4.677  23.812  22.416  1.00  0.00     0.019 A 
HETATM   12  C8  UNL     1       5.857  23.101  22.428  1.00  0.00     0.012 A 
HETATM   13  C9  UNL     1       5.850  21.731  22.588  1.00  0.00    -0.036 A 
HETATM   14  C16 UNL     1       4.611  21.131  22.732  1.00  0.00     0.019 A 
HETATM   15  C17 UNL     1       3.436  21.851  22.718  1.00  0.00    -0.045 A 
HETATM   16  C18 UNL     1       2.179  21.075  22.884  1.00  0.00     0.049 C 
BRANCH  13  17
HETATM   17  C10 UNL     1       7.061  20.930  22.609  1.00  0.00     0.008 C 
HETATM   18  C11 UNL     1       7.956  20.876  21.669  1.00  0.00    -0.017 C 
BRANCH  18  19
HETATM   19  C12 UNL     1       9.170  20.030  21.768  1.00  0.00    -0.034 C 
HETATM   20  C13 UNL     1      10.329  20.776  22.380  1.00  0.00     0.018 C 
HETATM   21  C14 UNL     1       9.626  19.566  20.388  1.00  0.00     0.018 C 
HETATM   22  C15 UNL     1       8.835  18.802  22.584  1.00  0.00     0.018 C 
ENDBRANCH  18  19
ENDBRANCH  13  17
ENDBRANCH   8  10
ENDBRANCH   7   8
ENDBRANCH   2   7
BRANCH   1  23
HETATM   23  O2  UNL     1       1.509  21.809  19.882  1.00  0.00    -0.309 OA
BRANCH  23  24
HETATM   24  C2  UNL     1       2.402  21.605  18.860  1.00  0.00     0.255 C 
HETATM   25  C1  UNL     1       3.844  21.921  19.037  1.00  0.00     0.126 C 
HETATM   26  O1  UNL     1       1.913  21.151  17.817  1.00  0.00    -0.266 OA
ENDBRANCH  23  24
ENDBRANCH   1  23
BRANCH   6  27
HETATM   27  O8  UNL     1      -0.985  21.021  18.712  1.00  0.00    -0.390 OA
ATOM     28  H8  UNL     1      -1.847  20.636  18.603  1.00  0.00     0.210 HD
ENDBRANCH   6  27
BRANCH   4  29
HETATM   29  C20 UNL     1      -2.564  25.365  19.779  1.00  0.00     0.198 C 
BRANCH  29  30
HETATM   30  O6  UNL     1      -3.093  25.656  18.521  1.00  0.00    -0.398 OA
ATOM     31  H6  UNL     1      -3.591  24.919  18.187  1.00  0.00     0.209 HD
ENDBRANCH  29  30
ENDBRANCH   4  29
BRANCH   5  32
HETATM   32  O7  UNL     1      -2.222  23.025  17.997  1.00  0.00    -0.390 OA
ATOM     33  H7  UNL     1      -2.878  23.691  17.830  1.00  0.00     0.210 HD
ENDBRANCH   5  32
TORSDOF 11
ENDMDL
MODEL 3
REMARK VINA RESULT: -7.578469938      1.581      2.311
REMARK  11 active torsions:
REMARK  status: ('A' for Active; 'I' for Inactive)
REMARK    1  A    between atoms: C2_2  and  O2_4 
REMARK    2  A    between atoms: O2_4  and  C3_5 
REMARK    3  A    between atoms: C4_6  and  O3_7 
REMARK    4  A    between atoms: O3_7  and  C5_8 
REMARK    5  A    between atoms: C5_8  and  C6_10 
REMARK    6  A    between atoms: C9_13  and  C10_14 
REMARK    7  A    between atoms: C11_15  and  C12_16 
REMARK    8  A    between atoms: C19_24  and  C20_25 
REMARK    9  A    between atoms: C20_25  and  O6_26 
REMARK   10  A    between atoms: C21_28  and  O7_29 
REMARK   11  A    between atoms: C22_31  and  O8_32 
ROOT
HETATM    1  C3  UNL     1       1.821  22.321  18.526  1.00  0.00     0.218 C 
HETATM    2  C4  UNL     1       0.996  22.542  19.774  1.00  0.00     0.302 C 
HETATM    3  O5  UNL     1      -0.340  22.533  19.487  1.00  0.00    -0.348 OA
HETATM    4  C19 UNL     1      -0.659  22.417  18.161  1.00  0.00     0.179 C 
HETATM    5  C21 UNL     1      -0.053  21.198  17.490  1.00  0.00     0.180 C 
HETATM    6  C22 UNL     1       1.400  21.003  17.951  1.00  0.00     0.183 C 
ENDROOT
BRANCH   2   7
HETATM    7  O3  UNL     1       1.416  23.667  20.504  1.00  0.00    -0.283 OA
BRANCH   7   8
HETATM    8  C5  UNL     1       1.914  23.611  21.791  1.00  0.00     0.296 C 
HETATM    9  O4  UNL     1       1.194  24.093  22.691  1.00  0.00    -0.259 OA
BRANCH   8  10
HETATM   10  C6  UNL     1       3.221  23.002  21.997  1.00  0.00     0.045 A 
HETATM   11  C7  UNL     1       4.391  23.725  21.766  1.00  0.00     0.019 A 
HETATM   12  C8  UNL     1       5.645  23.183  21.949  1.00  0.00     0.012 A 
HETATM   13  C9  UNL     1       5.792  21.880  22.375  1.00  0.00    -0.036 A 
HETATM   14  C16 UNL     1       4.628  21.167  22.602  1.00  0.00     0.019 A 
HETATM   15  C17 UNL     1       3.378  21.718  22.416  1.00  0.00    -0.045 A 
HETATM   16  C18 UNL     1       2.215  20.836  22.698  1.00  0.00     0.049 C 
BRANCH  13  17
HETATM   17  C10 UNL     1       7.088  21.258  22.585  1.00  0.00     0.008 C 
HETATM   18  C11 UNL     1       7.929  20.916  21.656  1.00  0.00    -0.017 C 
BRANCH  18  19
HETATM   19  C12 UNL     1       9.236  20.283  21.955  1.00  0.00    -0.034 C 
HETATM   20  C13 UNL     1      10.103  21.161  22.822  1.00  0.00     0.018 C 
HETATM   21  C14 UNL     1      10.022  20.020  20.674  1.00  0.00     0.018 C 
HETATM   22  C15 UNL     1       8.984  18.951  22.626  1.00  0.00     0.018 C 
ENDBRANCH  18  19
ENDBRANCH  13  17
ENDBRANCH   8  10
ENDBRANCH   7   8
ENDBRANCH   2   7
BRANCH   1  23
HETATM   23  O2  UNL     1       3.182  22.496  18.728  1.00  0.00    -0.309 OA
BRANCH  23  24
HETATM   24  C2  UNL     1       4.112  21.501  18.893  1.00  0.00     0.255 C 
HETATM   25  C1  UNL     1       5.545  21.738  18.574  1.00  0.00     0.126 C 
HETATM   26  O1  UNL     1       3.664  20.427  19.316  1.00  0.00    -0.266 OA
ENDBRANCH  23  24
ENDBRANCH   1  23
BRANCH   6  27
HETATM   27  O8  UNL     1       2.116  20.654  16.810  1.00  0.00    -0.390 OA
ATOM     28  H8  UNL     1       2.904  20.161  17.002  1.00  0.00     0.210 HD
ENDBRANCH   6  27
BRANCH   4  29
HETATM   29  C20 UNL     1      -2.180  22.198  18.100  1.00  0.00     0.198 C 
BRANCH  29  30
HETATM   30  O6  UNL     1      -2.476  20.855  17.868  1.00  0.00    -0.398 OA
ATOM     31  H6  UNL     1      -1.729  20.406  17.489  1.00  0.00     0.209 HD
ENDBRANCH  29  30
ENDBRANCH   4  29
BRANCH   5  32
HETATM   32  O7  UNL     1      -0.126  21.399  16.122  1.00  0.00    -0.390 OA
ATOM     33  H7  UNL     1      -0.443  22.284  15.981  1.00  0.00     0.210 HD
ENDBRANCH   5  32
TORSDOF 11
ENDMDL
MODEL 4
REMARK VINA RESULT: -7.567499884      1.477      3.558
REMARK  11 active torsions:
REMARK  status: ('A' for Active; 'I' for Inactive)
REMARK    1  A    between atoms: C2_2  and  O2_4 
REMARK    2  A    between atoms: O2_4  and  C3_5 
REMARK    3  A    between atoms: C4_6  and  O3_7 
REMARK    4  A    between atoms: O3_7  and  C5_8 
REMARK    5  A    between atoms: C5_8  and  C6_10 
REMARK    6  A    between atoms: C9_13  and  C10_14 
REMARK    7  A    between atoms: C11_15  and  C12_16 
REMARK    8  A    between atoms: C19_24  and  C20_25 
REMARK    9  A    between atoms: C20_25  and  O6_26 
REMARK   10  A    between atoms: C21_28  and  O7_29 
REMARK   11  A    between atoms: C22_31  and  O8_32 
ROOT
HETATM    1  C3  UNL     1       0.507  22.552  20.174  1.00  0.00     0.218 C 
HETATM    2  C4  UNL     1       1.532  23.662  20.256  1.00  0.00     0.302 C 
HETATM    3  O5  UNL     1       2.743  23.247  19.779  1.00  0.00    -0.348 OA
HETATM    4  C19 UNL     1       2.817  21.930  19.414  1.00  0.00     0.179 C 
HETATM    5  C21 UNL     1       1.773  21.521  18.390  1.00  0.00     0.180 C 
HETATM    6  C22 UNL     1       0.413  22.150  18.735  1.00  0.00     0.183 C 
ENDROOT
BRANCH   2   7
HETATM    7  O3  UNL     1       1.590  24.247  21.533  1.00  0.00    -0.283 OA
BRANCH   7   8
HETATM    8  C5  UNL     1       1.975  23.571  22.675  1.00  0.00     0.296 C 
HETATM    9  O4  UNL     1       1.142  23.521  23.604  1.00  0.00    -0.259 OA
BRANCH   8  10
HETATM   10  C6  UNL     1       3.304  22.976  22.707  1.00  0.00     0.045 A 
HETATM   11  C7  UNL     1       4.445  23.777  22.742  1.00  0.00     0.019 A 
HETATM   12  C8  UNL     1       5.719  23.252  22.772  1.00  0.00     0.012 A 
HETATM   13  C9  UNL     1       5.917  21.888  22.768  1.00  0.00    -0.036 A 
HETATM   14  C16 UNL     1       4.781  21.097  22.733  1.00  0.00     0.019 A 
HETATM   15  C17 UNL     1       3.511  21.632  22.703  1.00  0.00    -0.045 A 
HETATM   16  C18 UNL     1       2.384  20.664  22.666  1.00  0.00     0.049 C 
BRANCH  13  17
HETATM   17  C10 UNL     1       7.235  21.278  22.800  1.00  0.00     0.008 C 
HETATM   18  C11 UNL     1       7.885  20.814  21.776  1.00  0.00    -0.017 C 
BRANCH  18  19
HETATM   19  C12 UNL     1       9.232  20.205  21.893  1.00  0.00    -0.034 C 
HETATM   20  C13 UNL     1      10.184  21.085  22.663  1.00  0.00     0.018 C 
HETATM   21  C14 UNL     1       9.854  19.986  20.517  1.00  0.00     0.018 C 
HETATM   22  C15 UNL     1       9.094  18.855  22.561  1.00  0.00     0.018 C 
ENDBRANCH  18  19
ENDBRANCH  13  17
ENDBRANCH   8  10
ENDBRANCH   7   8
ENDBRANCH   2   7
BRANCH   1  23
HETATM   23  O2  UNL     1      -0.689  22.860  20.805  1.00  0.00    -0.309 OA
BRANCH  23  24
HETATM   24  C2  UNL     1      -1.347  22.079  21.722  1.00  0.00     0.255 C 
HETATM   25  C1  UNL     1      -2.091  22.696  22.851  1.00  0.00     0.126 C 
HETATM   26  O1  UNL     1      -1.265  20.859  21.528  1.00  0.00    -0.266 OA
ENDBRANCH  23  24
ENDBRANCH   1  23
BRANCH   6  27
HETATM   27  O8  UNL     1      -0.532  21.154  18.509  1.00  0.00    -0.390 OA
ATOM     28  H8  UNL     1      -0.994  21.260  17.685  1.00  0.00     0.210 HD
ENDBRANCH   6  27
BRANCH   4  29
HETATM   29  C20 UNL     1       4.170  21.752  18.706  1.00  0.00     0.198 C 
BRANCH  29  30
HETATM   30  O6  UNL     1       4.713  20.499  18.989  1.00  0.00    -0.398 OA
ATOM     31  H6  UNL     1       5.658  20.510  18.884  1.00  0.00     0.209 HD
ENDBRANCH  29  30
ENDBRANCH   4  29
BRANCH   5  32
HETATM   32  O7  UNL     1       1.706  20.138  18.397  1.00  0.00    -0.390 OA
ATOM     33  H7  UNL     1       1.428  19.872  19.266  1.00  0.00     0.210 HD
ENDBRANCH   5  32
TORSDOF 11
ENDMDL
MODEL 5
REMARK VINA RESULT: -7.562315099      0.839      3.137
REMARK  11 active torsions:
REMARK  status: ('A' for Active; 'I' for Inactive)
REMARK    1  A    between atoms: C2_2  and  O2_4 
REMARK    2  A    between atoms: O2_4  and  C3_5 
REMARK    3  A    between atoms: C4_6  and  O3_7 
REMARK    4  A    between atoms: O3_7  and  C5_8 
REMARK    5  A    between atoms: C5_8  and  C6_10 
REMARK    6  A    between atoms: C9_13  and  C10_14 
REMARK    7  A    between atoms: C11_15  and  C12_16 
REMARK    8  A    between atoms: C19_24  and  C20_25 
REMARK    9  A    between atoms: C20_25  and  O6_26 
REMARK   10  A    between atoms: C21_28  and  O7_29 
REMARK   11  A    between atoms: C22_31  and  O8_32 
ROOT
HETATM    1  C3  UNL     1      -0.214  23.398  20.206  1.00  0.00     0.218 C 
HETATM    2  C4  UNL     1       1.198  23.938  20.257  1.00  0.00     0.302 C 
HETATM    3  O5  UNL     1       2.085  23.041  19.732  1.00  0.00    -0.348 OA
HETATM    4  C19 UNL     1       1.557  21.836  19.356  1.00  0.00     0.179 C 
HETATM    5  C21 UNL     1       0.409  21.953  18.369  1.00  0.00     0.180 C 
HETATM    6  C22 UNL     1      -0.521  23.111  18.768  1.00  0.00     0.183 C 
ENDROOT
BRANCH   2   7
HETATM    7  O3  UNL     1       1.548  24.407  21.534  1.00  0.00    -0.283 OA
BRANCH   7   8
HETATM    8  C5  UNL     1       1.834  23.585  22.607  1.00  0.00     0.296 C 
HETATM    9  O4  UNL     1       0.936  23.454  23.466  1.00  0.00    -0.259 OA
BRANCH   8  10
HETATM   10  C6  UNL     1       3.140  22.944  22.654  1.00  0.00     0.045 A 
HETATM   11  C7  UNL     1       3.264  21.562  22.510  1.00  0.00     0.019 A 
HETATM   12  C8  UNL     1       4.483  20.920  22.549  1.00  0.00     0.012 A 
HETATM   13  C9  UNL     1       5.648  21.633  22.735  1.00  0.00    -0.036 A 
HETATM   14  C16 UNL     1       5.519  23.003  22.878  1.00  0.00     0.019 A 
HETATM   15  C17 UNL     1       4.295  23.638  22.838  1.00  0.00    -0.045 A 
HETATM   16  C18 UNL     1       4.307  25.114  23.006  1.00  0.00     0.049 C 
BRANCH  13  17
HETATM   17  C10 UNL     1       6.959  21.010  22.784  1.00  0.00     0.008 C 
HETATM   18  C11 UNL     1       7.746  20.808  21.771  1.00  0.00    -0.017 C 
BRANCH  18  19
HETATM   19  C12 UNL     1       9.074  20.162  21.907  1.00  0.00    -0.034 C 
HETATM   20  C13 UNL     1      10.051  21.032  22.656  1.00  0.00     0.018 C 
HETATM   21  C14 UNL     1       9.691  19.889  20.538  1.00  0.00     0.018 C 
HETATM   22  C15 UNL     1       8.894  18.834  22.608  1.00  0.00     0.018 C 
ENDBRANCH  18  19
ENDBRANCH  13  17
ENDBRANCH   8  10
ENDBRANCH   7   8
ENDBRANCH   2   7
BRANCH   1  23
HETATM   23  O2  UNL     1      -1.130  24.188  20.883  1.00  0.00    -0.309 OA
BRANCH  23  24
HETATM   24  C2  UNL     1      -1.802  25.270  20.372  1.00  0.00     0.255 C 
HETATM   25  C1  UNL     1      -1.178  26.619  20.367  1.00  0.00     0.126 C 
HETATM   26  O1  UNL     1      -2.934  25.026  19.932  1.00  0.00    -0.266 OA
ENDBRANCH  23  24
ENDBRANCH   1  23
BRANCH   6  27
HETATM   27  O8  UNL     1      -1.816  22.641  18.571  1.00  0.00    -0.390 OA
ATOM     28  H8  UNL     1      -1.872  21.693  18.576  1.00  0.00     0.210 HD
ENDBRANCH   6  27
BRANCH   4  29
HETATM   29  C20 UNL     1       2.669  21.094  18.596  1.00  0.00     0.198 C 
BRANCH  29  30
HETATM   30  O6  UNL     1       2.270  20.812  17.289  1.00  0.00    -0.398 OA
ATOM     31  H6  UNL     1       2.131  21.614  16.799  1.00  0.00     0.209 HD
ENDBRANCH  29  30
ENDBRANCH   4  29
BRANCH   5  32
HETATM   32  O7  UNL     1      -0.263  20.743  18.369  1.00  0.00    -0.390 OA
ATOM     33  H7  UNL     1      -0.700  20.661  19.209  1.00  0.00     0.210 HD
ENDBRANCH   5  32
TORSDOF 11
ENDMDL
