MODEL 1
REMARK VINA RESULT: -8.727545132      0.000      0.000
REMARK  8 active torsions:
REMARK  status: ('A' for Active; 'I' for Inactive)
REMARK    1  A    between atoms: C2_2  and  O1_3 
REMARK    2  A    between atoms: O1_3  and  C3_4 
REMARK    3  A    between atoms: C3_4  and  N1_5 
REMARK    4  A    between atoms: C3_4  and  O5_14 
REMARK    5  A    between atoms: N1_5  and  C4_7 
REMARK    6  A    between atoms: O5_14  and  C8_15 
REMARK    7  A    between atoms: C12_19  and  O6_20 
REMARK    8  A    between atoms: C18_27  and  O7_28 
ROOT
HETATM    1  C8  UNL     1       6.309  21.999  22.023  1.00  0.00     0.139 C 
HETATM    2  C9  UNL     1       5.247  22.762  21.285  1.00  0.00     0.014 C 
HETATM    3  C10 UNL     1       3.862  22.345  21.778  1.00  0.00     0.012 C 
HETATM    4  C11 UNL     1       5.302  22.782  19.818  1.00  0.00     0.039 C 
HETATM    5  C12 UNL     1       6.016  21.657  19.148  1.00  0.00     0.123 C 
HETATM    6  C13 UNL     1       7.118  21.051  19.946  1.00  0.00     0.026 C 
HETATM    7  C14 UNL     1       7.435  19.709  19.269  1.00  0.00     0.019 C 
HETATM    8  C15 UNL     1       8.733  19.235  19.821  1.00  0.00    -0.021 C 
HETATM    9  C16 UNL     1       9.830  19.715  18.858  1.00  0.00     0.017 C 
HETATM   10  C17 UNL     1       8.750  17.716  19.723  1.00  0.00     0.017 C 
HETATM   11  C18 UNL     1       9.072  19.735  21.167  1.00  0.00     0.130 C 
HETATM   12  C19 UNL     1       7.918  20.105  22.055  1.00  0.00     0.022 C 
HETATM   13  C20 UNL     1       7.512  18.885  22.870  1.00  0.00     0.013 C 
HETATM   14  C21 UNL     1       6.751  20.746  21.358  1.00  0.00    -0.006 C 
HETATM   15  C22 UNL     1       5.586  19.763  21.402  1.00  0.00     0.019 C 
ENDROOT
BRANCH   1  16
HETATM   16  O5  UNL     1       5.802  21.802  23.329  1.00  0.00    -0.338 OA
BRANCH  16  17
HETATM   17  C3  UNL     1       6.445  22.558  24.286  1.00  0.00     0.371 C 
BRANCH  17  18
HETATM   18  O1  UNL     1       7.731  22.062  24.560  1.00  0.00    -0.344 OA
BRANCH  18  19
HETATM   19  C2  UNL     1       8.683  23.062  24.587  1.00  0.00     0.168 C 
HETATM   20  C1  UNL     1      10.013  22.651  24.032  1.00  0.00     0.033 C 
ENDBRANCH  18  19
ENDBRANCH  17  18
BRANCH  17  21
HETATM   21  N1  UNL     1       6.638  23.946  23.937  1.00  0.00    -0.337 N 
ATOM     22  H1  UNL     1       7.492  24.213  23.447  1.00  0.00     0.164 HD
BRANCH  21  23
HETATM   23  C4  UNL     1       5.684  24.957  24.249  1.00  0.00     0.111 A 
HETATM   24  C5  UNL     1       4.890  25.624  23.430  1.00  0.00     0.179 A 
HETATM   25  O2  UNL     1       4.094  26.534  24.103  1.00  0.00    -0.282 OA
HETATM   26  C6  UNL     1       4.378  26.470  25.480  1.00  0.00     0.340 A 
HETATM   27  O3  UNL     1       3.839  27.159  26.385  1.00  0.00    -0.255 OA
HETATM   28  C7  UNL     1       5.407  25.452  25.583  1.00  0.00     0.275 A 
HETATM   29  O4  UNL     1       5.943  25.084  26.650  1.00  0.00    -0.279 OA
ENDBRANCH  21  23
ENDBRANCH  17  21
ENDBRANCH  16  17
ENDBRANCH   1  16
BRANCH   5  30
HETATM   30  O6  UNL     1       6.603  22.120  17.943  1.00  0.00    -0.395 OA
ATOM     31  H6  UNL     1       6.051  21.879  17.209  1.00  0.00     0.210 HD
ENDBRANCH   5  30
BRANCH  11  32
HETATM   32  O7  UNL     1      10.011  20.778  21.134  1.00  0.00    -0.394 OA
ATOM     33  H7  UNL     1      10.726  20.645  21.745  1.00  0.00     0.210 HD
ENDBRANCH  11  32
TORSDOF 8
ENDMDL
MODEL 2
REMARK VINA RESULT: -8.429912318      0.689      1.242
REMARK  8 active torsions:
REMARK  status: ('A' for Active; 'I' for Inactive)
REMARK    1  A    between atoms: C2_2  and  O1_3 
REMARK    2  A    between atoms: O1_3  and  C3_4 
REMARK    3  A    between atoms: C3_4  and  N1_5 
REMARK    4  A    between atoms: C3_4  and  O5_14 
REMARK    5  A    between atoms: N1_5  and  C4_7 
REMARK    6  A    between atoms: O5_14  and  C8_15 
REMARK    7  A    between atoms: C12_19  and  O6_20 
REMARK    8  A    between atoms: C18_27  and  O7_28 
ROOT
HETATM    1  C8  UNL     1       6.270  22.396  21.891  1.00  0.00     0.139 C 
HETATM    2  C9  UNL     1       5.185  23.086  21.115  1.00  0.00     0.014 C 
HETATM    3  C10 UNL     1       3.823  22.786  21.737  1.00  0.00     0.012 C 
HETATM    4  C11 UNL     1       5.154  22.905  19.659  1.00  0.00     0.039 C 
HETATM    5  C12 UNL     1       5.799  21.677  19.111  1.00  0.00     0.123 C 
HETATM    6  C13 UNL     1       6.931  21.149  19.922  1.00  0.00     0.026 C 
HETATM    7  C14 UNL     1       7.174  19.718  19.420  1.00  0.00     0.019 C 
HETATM    8  C15 UNL     1       8.490  19.281  19.959  1.00  0.00    -0.021 C 
HETATM    9  C16 UNL     1       9.540  19.591  18.880  1.00  0.00     0.017 C 
HETATM   10  C17 UNL     1       8.464  17.764  20.070  1.00  0.00     0.017 C 
HETATM   11  C18 UNL     1       8.921  19.949  21.203  1.00  0.00     0.130 C 
HETATM   12  C19 UNL     1       7.831  20.473  22.093  1.00  0.00     0.022 C 
HETATM   13  C20 UNL     1       7.444  19.389  23.089  1.00  0.00     0.013 C 
HETATM   14  C21 UNL     1       6.641  21.051  21.381  1.00  0.00    -0.006 C 
HETATM   15  C22 UNL     1       5.457  20.122  21.624  1.00  0.00     0.019 C 
ENDROOT
BRANCH   1  16
HETATM   16  O5  UNL     1       5.837  22.396  23.238  1.00  0.00    -0.338 OA
BRANCH  16  17
HETATM   17  C3  UNL     1       6.514  23.296  24.032  1.00  0.00     0.371 C 
BRANCH  17  18
HETATM   18  O1  UNL     1       7.863  23.407  23.653  1.00  0.00    -0.344 OA
BRANCH  18  19
HETATM   19  C2  UNL     1       8.723  23.001  24.654  1.00  0.00     0.168 C 
HETATM   20  C1  UNL     1      10.040  22.488  24.154  1.00  0.00     0.033 C 
ENDBRANCH  18  19
ENDBRANCH  17  18
BRANCH  17  21
HETATM   21  N1  UNL     1       5.997  24.644  24.002  1.00  0.00    -0.337 N 
ATOM     22  H1  UNL     1       6.027  25.160  23.122  1.00  0.00     0.164 HD
BRANCH  21  23
HETATM   23  C4  UNL     1       5.447  25.281  25.151  1.00  0.00     0.111 A 
HETATM   24  C5  UNL     1       5.746  25.088  26.425  1.00  0.00     0.179 A 
HETATM   25  O2  UNL     1       4.998  25.897  27.262  1.00  0.00    -0.282 OA
HETATM   26  C6  UNL     1       4.133  26.693  26.489  1.00  0.00     0.340 A 
HETATM   27  O3  UNL     1       3.312  27.542  26.925  1.00  0.00    -0.255 OA
HETATM   28  C7  UNL     1       4.417  26.300  25.121  1.00  0.00     0.275 A 
HETATM   29  O4  UNL     1       3.856  26.775  24.111  1.00  0.00    -0.279 OA
ENDBRANCH  21  23
ENDBRANCH  17  21
ENDBRANCH  16  17
ENDBRANCH   1  16
BRANCH   5  30
HETATM   30  O6  UNL     1       6.325  21.953  17.823  1.00  0.00    -0.395 OA
ATOM     31  H6  UNL     1       7.145  22.423  17.910  1.00  0.00     0.210 HD
ENDBRANCH   5  30
BRANCH  11  32
HETATM   32  O7  UNL     1       9.882  20.946  20.975  1.00  0.00    -0.394 OA
ATOM     33  H7  UNL     1       9.517  21.822  21.019  1.00  0.00     0.210 HD
ENDBRANCH  11  32
TORSDOF 8
ENDMDL
MODEL 3
REMARK VINA RESULT: -8.193639920      2.638      6.867
REMARK  8 active torsions:
REMARK  status: ('A' for Active; 'I' for Inactive)
REMARK    1  A    between atoms: C2_2  and  O1_3 
REMARK    2  A    between atoms: O1_3  and  C3_4 
REMARK    3  A    between atoms: C3_4  and  N1_5 
REMARK    4  A    between atoms: C3_4  and  O5_14 
REMARK    5  A    between atoms: N1_5  and  C4_7 
REMARK    6  A    between atoms: O5_14  and  C8_15 
REMARK    7  A    between atoms: C12_19  and  O6_20 
REMARK    8  A    between atoms: C18_27  and  O7_28 
ROOT
HETATM    1  C8  UNL     1       4.679  22.104  21.141  1.00  0.00     0.139 C 
HETATM    2  C9  UNL     1       4.977  21.671  19.735  1.00  0.00     0.014 C 
HETATM    3  C10 UNL     1       5.949  22.650  19.078  1.00  0.00     0.012 C 
HETATM    4  C11 UNL     1       3.844  21.375  18.848  1.00  0.00     0.039 C 
HETATM    5  C12 UNL     1       2.539  22.020  19.172  1.00  0.00     0.123 C 
HETATM    6  C13 UNL     1       2.323  22.306  20.618  1.00  0.00     0.026 C 
HETATM    7  C14 UNL     1       1.150  23.295  20.678  1.00  0.00     0.019 C 
HETATM    8  C15 UNL     1       0.690  23.344  22.092  1.00  0.00    -0.021 C 
HETATM    9  C16 UNL     1      -0.459  22.332  22.225  1.00  0.00     0.017 C 
HETATM   10  C17 UNL     1       0.052  24.707  22.324  1.00  0.00     0.017 C 
HETATM   11  C18 UNL     1       1.707  22.998  23.105  1.00  0.00     0.130 C 
HETATM   12  C19 UNL     1       3.139  23.242  22.725  1.00  0.00     0.022 C 
HETATM   13  C20 UNL     1       3.531  24.649  23.157  1.00  0.00     0.013 C 
HETATM   14  C21 UNL     1       3.479  22.967  21.287  1.00  0.00    -0.006 C 
HETATM   15  C22 UNL     1       3.786  24.302  20.617  1.00  0.00     0.019 C 
ENDROOT
BRANCH   1  16
HETATM   16  O5  UNL     1       5.872  22.700  21.618  1.00  0.00    -0.338 OA
BRANCH  16  17
HETATM   17  C3  UNL     1       6.547  21.919  22.531  1.00  0.00     0.371 C 
BRANCH  17  18
HETATM   18  O1  UNL     1       6.063  22.111  23.836  1.00  0.00    -0.344 OA
BRANCH  18  19
HETATM   19  C2  UNL     1       6.695  23.156  24.481  1.00  0.00     0.168 C 
HETATM   20  C1  UNL     1       8.157  22.930  24.718  1.00  0.00     0.033 C 
ENDBRANCH  18  19
ENDBRANCH  17  18
BRANCH  17  21
HETATM   21  N1  UNL     1       6.459  20.496  22.298  1.00  0.00    -0.337 N 
ATOM     22  H1  UNL     1       5.691  19.977  22.723  1.00  0.00     0.164 HD
BRANCH  21  23
HETATM   23  C4  UNL     1       7.404  19.789  21.499  1.00  0.00     0.111 A 
HETATM   24  C5  UNL     1       8.723  19.882  21.504  1.00  0.00     0.179 A 
HETATM   25  O2  UNL     1       9.307  19.031  20.581  1.00  0.00    -0.282 OA
HETATM   26  C6  UNL     1       8.300  18.314  19.909  1.00  0.00     0.340 A 
HETATM   27  O3  UNL     1       8.474  17.454  19.006  1.00  0.00    -0.255 OA
HETATM   28  C7  UNL     1       7.065  18.799  20.497  1.00  0.00     0.275 A 
HETATM   29  O4  UNL     1       5.922  18.412  20.175  1.00  0.00    -0.279 OA
ENDBRANCH  21  23
ENDBRANCH  17  21
ENDBRANCH  16  17
ENDBRANCH   1  16
BRANCH   5  30
HETATM   30  O6  UNL     1       1.478  21.170  18.770  1.00  0.00    -0.395 OA
ATOM     31  H6  UNL     1       0.658  21.500  19.118  1.00  0.00     0.210 HD
ENDBRANCH   5  30
BRANCH  11  32
HETATM   32  O7  UNL     1       1.553  21.693  23.599  1.00  0.00    -0.394 OA
ATOM     33  H7  UNL     1       1.914  21.589  24.472  1.00  0.00     0.210 HD
ENDBRANCH  11  32
TORSDOF 8
ENDMDL
MODEL 4
REMARK VINA RESULT: -7.895362180      1.594      3.172
REMARK  8 active torsions:
REMARK  status: ('A' for Active; 'I' for Inactive)
REMARK    1  A    between atoms: C2_2  and  O1_3 
REMARK    2  A    between atoms: O1_3  and  C3_4 
REMARK    3  A    between atoms: C3_4  and  N1_5 
REMARK    4  A    between atoms: C3_4  and  O5_14 
REMARK    5  A    between atoms: N1_5  and  C4_7 
REMARK    6  A    between atoms: O5_14  and  C8_15 
REMARK    7  A    between atoms: C12_19  and  O6_20 
REMARK    8  A    between atoms: C18_27  and  O7_28 
ROOT
HETATM    1  C8  UNL     1       5.340  23.028  21.704  1.00  0.00     0.139 C 
HETATM    2  C9  UNL     1       4.616  23.103  20.391  1.00  0.00     0.014 C 
HETATM    3  C10 UNL     1       3.139  22.764  20.586  1.00  0.00     0.012 C 
HETATM    4  C11 UNL     1       5.181  22.375  19.248  1.00  0.00     0.039 C 
HETATM    5  C12 UNL     1       6.063  21.211  19.550  1.00  0.00     0.123 C 
HETATM    6  C13 UNL     1       6.806  21.306  20.837  1.00  0.00     0.026 C 
HETATM    7  C14 UNL     1       7.315  19.888  21.132  1.00  0.00     0.019 C 
HETATM    8  C15 UNL     1       8.330  20.002  22.214  1.00  0.00    -0.021 C 
HETATM    9  C16 UNL     1       9.703  20.102  21.530  1.00  0.00     0.017 C 
HETATM   10  C17 UNL     1       8.353  18.680  22.968  1.00  0.00     0.017 C 
HETATM   11  C18 UNL     1       8.187  21.174  23.099  1.00  0.00     0.130 C 
HETATM   12  C19 UNL     1       6.803  21.738  23.244  1.00  0.00     0.022 C 
HETATM   13  C20 UNL     1       6.116  21.062  24.423  1.00  0.00     0.013 C 
HETATM   14  C21 UNL     1       5.964  21.713  21.998  1.00  0.00    -0.006 C 
HETATM   15  C22 UNL     1       4.840  20.706  22.214  1.00  0.00     0.019 C 
ENDROOT
BRANCH   1  16
HETATM   16  O5  UNL     1       4.405  23.447  22.681  1.00  0.00    -0.338 OA
BRANCH  16  17
HETATM   17  C3  UNL     1       4.168  24.804  22.666  1.00  0.00     0.371 C 
BRANCH  17  18
HETATM   18  O1  UNL     1       2.919  25.118  23.228  1.00  0.00    -0.344 OA
BRANCH  18  19
HETATM   19  C2  UNL     1       2.161  23.992  23.483  1.00  0.00     0.168 C 
HETATM   20  C1  UNL     1       0.728  24.113  23.061  1.00  0.00     0.033 C 
ENDBRANCH  18  19
ENDBRANCH  17  18
BRANCH  17  21
HETATM   21  N1  UNL     1       5.125  25.599  23.398  1.00  0.00    -0.337 N 
ATOM     22  H1  UNL     1       5.664  26.303  22.894  1.00  0.00     0.164 HD
BRANCH  21  23
HETATM   23  C4  UNL     1       5.347  25.438  24.796  1.00  0.00     0.111 A 
HETATM   24  C5  UNL     1       6.167  24.603  25.412  1.00  0.00     0.179 A 
HETATM   25  O2  UNL     1       6.110  24.738  26.788  1.00  0.00    -0.282 OA
HETATM   26  C6  UNL     1       5.181  25.742  27.118  1.00  0.00     0.340 A 
HETATM   27  O3  UNL     1       4.878  26.125  28.278  1.00  0.00    -0.255 OA
HETATM   28  C7  UNL     1       4.682  26.200  25.834  1.00  0.00     0.275 A 
HETATM   29  O4  UNL     1       3.828  27.098  25.680  1.00  0.00    -0.279 OA
ENDBRANCH  21  23
ENDBRANCH  17  21
ENDBRANCH  16  17
ENDBRANCH   1  16
BRANCH   5  30
HETATM   30  O6  UNL     1       7.042  21.083  18.532  1.00  0.00    -0.395 OA
ATOM     31  H6  UNL     1       6.786  21.602  17.779  1.00  0.00     0.210 HD
ENDBRANCH   5  30
BRANCH  11  32
HETATM   32  O7  UNL     1       9.097  22.197  22.790  1.00  0.00    -0.394 OA
ATOM     33  H7  UNL     1       9.939  21.863  22.504  1.00  0.00     0.210 HD
ENDBRANCH  11  32
TORSDOF 8
ENDMDL
MODEL 5
REMARK VINA RESULT: -7.836581060      4.083      7.019
REMARK  8 active torsions:
REMARK  status: ('A' for Active; 'I' for Inactive)
REMARK    1  A    between atoms: C2_2  and  O1_3 
REMARK    2  A    between atoms: O1_3  and  C3_4 
REMARK    3  A    between atoms: C3_4  and  N1_5 
REMARK    4  A    between atoms: C3_4  and  O5_14 
REMARK    5  A    between atoms: N1_5  and  C4_7 
REMARK    6  A    between atoms: O5_14  and  C8_15 
REMARK    7  A    between atoms: C12_19  and  O6_20 
REMARK    8  A    between atoms: C18_27  and  O7_28 
ROOT
HETATM    1  C8  UNL     1       4.109  22.166  21.108  1.00  0.00     0.139 C 
HETATM    2  C9  UNL     1       4.027  23.022  22.339  1.00  0.00     0.014 C 
HETATM    3  C10 UNL     1       4.073  24.500  21.956  1.00  0.00     0.012 C 
HETATM    4  C11 UNL     1       4.949  22.732  23.445  1.00  0.00     0.039 C 
HETATM    5  C12 UNL     1       6.220  22.030  23.106  1.00  0.00     0.123 C 
HETATM    6  C13 UNL     1       6.142  21.130  21.922  1.00  0.00     0.026 C 
HETATM    7  C14 UNL     1       7.595  20.836  21.523  1.00  0.00     0.019 C 
HETATM    8  C15 UNL     1       7.567  19.693  20.571  1.00  0.00    -0.021 C 
HETATM    9  C16 UNL     1       7.781  18.416  21.400  1.00  0.00     0.017 C 
HETATM   10  C17 UNL     1       8.795  19.803  19.679  1.00  0.00     0.017 C 
HETATM   11  C18 UNL     1       6.311  19.526  19.814  1.00  0.00     0.130 C 
HETATM   12  C19 UNL     1       5.494  20.766  19.591  1.00  0.00     0.022 C 
HETATM   13  C20 UNL     1       5.921  21.409  18.279  1.00  0.00     0.013 C 
HETATM   14  C21 UNL     1       5.483  21.743  20.733  1.00  0.00    -0.006 C 
HETATM   15  C22 UNL     1       6.245  22.987  20.290  1.00  0.00     0.019 C 
ENDROOT
BRANCH   1  16
HETATM   16  O5  UNL     1       3.439  22.890  20.093  1.00  0.00    -0.338 OA
BRANCH  16  17
HETATM   17  C3  UNL     1       2.289  22.274  19.649  1.00  0.00     0.371 C 
BRANCH  17  18
HETATM   18  O1  UNL     1       1.146  22.796  20.277  1.00  0.00    -0.344 OA
BRANCH  18  19
HETATM   19  C2  UNL     1       0.970  24.140  20.013  1.00  0.00     0.168 C 
HETATM   20  C1  UNL     1      -0.465  24.572  19.974  1.00  0.00     0.033 C 
ENDBRANCH  18  19
ENDBRANCH  17  18
BRANCH  17  21
HETATM   21  N1  UNL     1       2.038  22.402  18.233  1.00  0.00    -0.337 N 
ATOM     22  H1  UNL     1       2.384  23.229  17.747  1.00  0.00     0.164 HD
BRANCH  21  23
HETATM   23  C4  UNL     1       1.324  21.420  17.487  1.00  0.00     0.111 A 
HETATM   24  C5  UNL     1       1.564  20.123  17.388  1.00  0.00     0.179 A 
HETATM   25  O2  UNL     1       0.650  19.487  16.567  1.00  0.00    -0.282 OA
HETATM   26  C6  UNL     1      -0.272  20.431  16.079  1.00  0.00     0.340 A 
HETATM   27  O3  UNL     1      -1.238  20.198  15.306  1.00  0.00    -0.255 OA
HETATM   28  C7  UNL     1       0.157  21.685  16.670  1.00  0.00     0.275 A 
HETATM   29  O4  UNL     1      -0.402  22.787  16.488  1.00  0.00    -0.279 OA
ENDBRANCH  21  23
ENDBRANCH  17  21
ENDBRANCH  16  17
ENDBRANCH   1  16
BRANCH   5  30
HETATM   30  O6  UNL     1       6.618  21.218  24.199  1.00  0.00    -0.395 OA
ATOM     31  H6  UNL     1       5.897  20.654  24.453  1.00  0.00     0.210 HD
ENDBRANCH   5  30
BRANCH  11  32
HETATM   32  O7  UNL     1       5.503  18.500  20.330  1.00  0.00    -0.394 OA
ATOM     33  H7  UNL     1       4.887  18.164  19.689  1.00  0.00     0.210 HD
ENDBRANCH  11  32
TORSDOF 8
ENDMDL
