MODEL 1
REMARK VINA RESULT: -7.766440329      0.000      0.000
REMARK  9 active torsions:
REMARK  status: ('A' for Active; 'I' for Inactive)
REMARK    1  A    between atoms: O1_2  and  C2_3 
REMARK    2  A    between atoms: C2_3  and  O3_5 
REMARK    3  A    between atoms: O3_5  and  C3_6 
REMARK    4  A    between atoms: C8_13  and  C10_15 
REMARK    5  A    between atoms: C10_15  and  C11_16 
REMARK    6  A    between atoms: C15_21  and  O7_22 
REMARK    7  A    between atoms: C16_24  and  O8_25 
REMARK    8  A    between atoms: C17_27  and  C18_28 
REMARK    9  A    between atoms: C18_28  and  C19_29 
ROOT
HETATM    1  C3  UNL     1       3.306  22.079  20.148  1.00  0.00     0.100 C 
HETATM    2  C4  UNL     1       2.924  20.970  20.829  1.00  0.00     0.089 C 
HETATM    3  C5  UNL     1       3.508  20.828  22.155  1.00  0.00     0.186 C 
HETATM    4  O4  UNL     1       2.968  20.006  22.955  1.00  0.00    -0.290 OA
HETATM    5  C6  UNL     1       4.689  21.622  22.542  1.00  0.00     0.130 C 
HETATM    6  C7  UNL     1       5.567  20.911  23.547  1.00  0.00     0.055 C 
HETATM    7  O5  UNL     1       4.142  22.793  23.128  1.00  0.00    -0.357 OA
HETATM    8  C8  UNL     1       3.800  23.645  22.077  1.00  0.00     0.102 C 
HETATM    9  C9  UNL     1       2.341  23.998  22.135  1.00  0.00     0.050 C 
HETATM   10  C16 UNL     1       4.260  23.020  20.804  1.00  0.00     0.145 C 
HETATM   11  C17 UNL     1       5.410  22.143  21.343  1.00  0.00     0.075 C 
ENDROOT
BRANCH   8  12
HETATM   12  C10 UNL     1       4.676  24.882  22.283  1.00  0.00     0.109 C 
BRANCH  12  13
HETATM   13  C11 UNL     1       4.714  25.398  23.645  1.00  0.00     0.089 A 
HETATM   14  O6  UNL     1       4.014  26.431  24.126  1.00  0.00    -0.324 OA
HETATM   15  C12 UNL     1       4.273  26.646  25.379  1.00  0.00     0.151 A 
HETATM   16  C13 UNL     1       5.198  25.723  25.812  1.00  0.00    -0.004 A 
HETATM   17  C14 UNL     1       5.785  25.588  27.162  1.00  0.00     0.053 C 
HETATM   18  C15 UNL     1       5.476  24.934  24.715  1.00  0.00     0.103 A 
BRANCH  18  19
HETATM   19  O7  UNL     1       6.355  23.890  24.744  1.00  0.00    -0.358 OA
ATOM     20  H7  UNL     1       6.209  23.001  25.045  1.00  0.00     0.217 HD
ENDBRANCH  18  19
ENDBRANCH  12  13
ENDBRANCH   8  12
BRANCH  10  21
HETATM   21  O8  UNL     1       4.760  23.944  19.890  1.00  0.00    -0.379 OA
ATOM     22  H8  UNL     1       4.491  24.827  20.115  1.00  0.00     0.211 HD
ENDBRANCH  10  21
BRANCH   1  23
HETATM   23  O3  UNL     1       2.786  22.238  18.907  1.00  0.00    -0.257 OA
BRANCH  23  24
HETATM   24  C2  UNL     1       1.556  22.426  18.407  1.00  0.00     0.411 C 
HETATM   25  O2  UNL     1       0.770  23.257  18.902  1.00  0.00    -0.229 OA
BRANCH  24  26
HETATM   26  O1  UNL     1       1.047  21.716  17.296  1.00  0.00    -0.303 OA
HETATM   27  C1  UNL     1       1.302  20.332  17.156  1.00  0.00     0.215 C 
ENDBRANCH  24  26
ENDBRANCH  23  24
ENDBRANCH   1  23
BRANCH  11  28
HETATM   28  C18 UNL     1       5.959  21.194  20.364  1.00  0.00     0.039 C 
BRANCH  28  29
HETATM   29  C19 UNL     1       7.455  21.074  20.378  1.00  0.00    -0.024 C 
HETATM   30  C20 UNL     1       8.097  19.965  20.721  1.00  0.00    -0.091 C 
HETATM   31  C21 UNL     1       9.594  19.974  20.695  1.00  0.00     0.042 C 
HETATM   32  C22 UNL     1       7.406  18.736  21.119  1.00  0.00     0.042 C 
ENDBRANCH  28  29
ENDBRANCH  11  28
TORSDOF 9
ENDMDL
MODEL 2
REMARK VINA RESULT: -7.363934819      2.300      5.741
REMARK  9 active torsions:
REMARK  status: ('A' for Active; 'I' for Inactive)
REMARK    1  A    between atoms: O1_2  and  C2_3 
REMARK    2  A    between atoms: C2_3  and  O3_5 
REMARK    3  A    between atoms: O3_5  and  C3_6 
REMARK    4  A    between atoms: C8_13  and  C10_15 
REMARK    5  A    between atoms: C10_15  and  C11_16 
REMARK    6  A    between atoms: C15_21  and  O7_22 
REMARK    7  A    between atoms: C16_24  and  O8_25 
REMARK    8  A    between atoms: C17_27  and  C18_28 
REMARK    9  A    between atoms: C18_28  and  C19_29 
ROOT
HETATM    1  C3  UNL     1       4.726  20.765  19.978  1.00  0.00     0.100 C 
HETATM    2  C4  UNL     1       4.381  20.025  21.061  1.00  0.00     0.089 C 
HETATM    3  C5  UNL     1       3.171  20.459  21.746  1.00  0.00     0.186 C 
HETATM    4  O4  UNL     1       2.625  19.649  22.554  1.00  0.00    -0.290 OA
HETATM    5  C6  UNL     1       2.612  21.801  21.499  1.00  0.00     0.130 C 
HETATM    6  C7  UNL     1       1.884  22.360  22.700  1.00  0.00     0.055 C 
HETATM    7  O5  UNL     1       1.696  21.603  20.434  1.00  0.00    -0.357 OA
HETATM    8  C8  UNL     1       2.445  21.597  19.256  1.00  0.00     0.102 C 
HETATM    9  C9  UNL     1       2.239  20.314  18.503  1.00  0.00     0.050 C 
HETATM   10  C16 UNL     1       3.858  21.920  19.604  1.00  0.00     0.145 C 
HETATM   11  C17 UNL     1       3.633  22.715  20.907  1.00  0.00     0.075 C 
ENDROOT
BRANCH   8  12
HETATM   12  C10 UNL     1       1.921  22.794  18.460  1.00  0.00     0.109 C 
BRANCH  12  13
HETATM   13  C11 UNL     1       0.568  23.220  18.796  1.00  0.00     0.089 A 
HETATM   14  O6  UNL     1      -0.570  22.714  18.309  1.00  0.00    -0.324 OA
HETATM   15  C12 UNL     1      -1.612  23.312  18.801  1.00  0.00     0.151 A 
HETATM   16  C13 UNL     1      -1.197  24.287  19.680  1.00  0.00    -0.004 A 
HETATM   17  C14 UNL     1      -2.034  25.214  20.471  1.00  0.00     0.053 C 
HETATM   18  C15 UNL     1       0.181  24.228  19.677  1.00  0.00     0.103 A 
BRANCH  18  19
HETATM   19  O7  UNL     1       0.971  25.044  20.434  1.00  0.00    -0.358 OA
ATOM     20  H7  UNL     1       0.980  25.993  20.468  1.00  0.00     0.217 HD
ENDBRANCH  18  19
ENDBRANCH  12  13
ENDBRANCH   8  12
BRANCH  10  21
HETATM   21  O8  UNL     1       4.484  22.729  18.659  1.00  0.00    -0.379 OA
ATOM     22  H8  UNL     1       5.249  23.156  19.028  1.00  0.00     0.211 HD
ENDBRANCH  10  21
BRANCH   1  23
HETATM   23  O3  UNL     1       5.850  20.392  19.321  1.00  0.00    -0.257 OA
BRANCH  23  24
HETATM   24  C2  UNL     1       7.164  20.425  19.589  1.00  0.00     0.411 C 
HETATM   25  O2  UNL     1       7.646  21.243  20.396  1.00  0.00    -0.229 OA
BRANCH  24  26
HETATM   26  O1  UNL     1       8.105  19.554  18.994  1.00  0.00    -0.303 OA
HETATM   27  C1  UNL     1       8.225  18.218  19.445  1.00  0.00     0.215 C 
ENDBRANCH  24  26
ENDBRANCH  23  24
ENDBRANCH   1  23
BRANCH  11  28
HETATM   28  C18 UNL     1       4.862  23.006  21.660  1.00  0.00     0.039 C 
BRANCH  28  29
HETATM   29  C19 UNL     1       4.756  24.164  22.609  1.00  0.00    -0.024 C 
HETATM   30  C20 UNL     1       5.480  24.272  23.715  1.00  0.00    -0.091 C 
HETATM   31  C21 UNL     1       5.280  25.478  24.579  1.00  0.00     0.042 C 
HETATM   32  C22 UNL     1       6.466  23.268  24.122  1.00  0.00     0.042 C 
ENDBRANCH  28  29
ENDBRANCH  11  28
TORSDOF 9
ENDMDL
MODEL 3
REMARK VINA RESULT: -7.328906916      2.062      6.046
REMARK  9 active torsions:
REMARK  status: ('A' for Active; 'I' for Inactive)
REMARK    1  A    between atoms: O1_2  and  C2_3 
REMARK    2  A    between atoms: C2_3  and  O3_5 
REMARK    3  A    between atoms: O3_5  and  C3_6 
REMARK    4  A    between atoms: C8_13  and  C10_15 
REMARK    5  A    between atoms: C10_15  and  C11_16 
REMARK    6  A    between atoms: C15_21  and  O7_22 
REMARK    7  A    between atoms: C16_24  and  O8_25 
REMARK    8  A    between atoms: C17_27  and  C18_28 
REMARK    9  A    between atoms: C18_28  and  C19_29 
ROOT
HETATM    1  C3  UNL     1       5.632  21.404  21.405  1.00  0.00     0.100 C 
HETATM    2  C4  UNL     1       5.176  20.853  22.556  1.00  0.00     0.089 C 
HETATM    3  C5  UNL     1       3.789  21.155  22.879  1.00  0.00     0.186 C 
HETATM    4  O4  UNL     1       3.214  20.436  23.751  1.00  0.00    -0.290 OA
HETATM    5  C6  UNL     1       3.089  22.265  22.206  1.00  0.00     0.130 C 
HETATM    6  C7  UNL     1       2.026  22.897  23.076  1.00  0.00     0.055 C 
HETATM    7  O5  UNL     1       2.483  21.657  21.076  1.00  0.00    -0.357 OA
HETATM    8  C8  UNL     1       3.471  21.563  20.094  1.00  0.00     0.102 C 
HETATM    9  C9  UNL     1       3.653  20.135  19.662  1.00  0.00     0.050 C 
HETATM   10  C16 UNL     1       4.696  22.243  20.601  1.00  0.00     0.145 C 
HETATM   11  C17 UNL     1       4.054  23.229  21.601  1.00  0.00     0.075 C 
ENDROOT
BRANCH   8  12
HETATM   12  C10 UNL     1       2.952  22.426  18.942  1.00  0.00     0.109 C 
BRANCH  12  13
HETATM   13  C11 UNL     1       1.521  22.700  18.966  1.00  0.00     0.089 A 
HETATM   14  O6  UNL     1       0.551  21.908  18.498  1.00  0.00    -0.324 OA
HETATM   15  C12 UNL     1      -0.623  22.437  18.661  1.00  0.00     0.151 A 
HETATM   16  C13 UNL     1      -0.483  23.660  19.275  1.00  0.00    -0.004 A 
HETATM   17  C14 UNL     1      -1.546  24.614  19.657  1.00  0.00     0.053 C 
HETATM   18  C15 UNL     1       0.873  23.826  19.468  1.00  0.00     0.103 A 
BRANCH  18  19
HETATM   19  O7  UNL     1       1.419  24.929  20.060  1.00  0.00    -0.358 OA
ATOM     20  H7  UNL     1       0.982  25.616  20.549  1.00  0.00     0.217 HD
ENDBRANCH  18  19
ENDBRANCH  12  13
ENDBRANCH   8  12
BRANCH  10  21
HETATM   21  O8  UNL     1       5.379  22.949  19.614  1.00  0.00    -0.379 OA
ATOM     22  H8  UNL     1       5.723  23.767  19.956  1.00  0.00     0.211 HD
ENDBRANCH  10  21
BRANCH   1  23
HETATM   23  O3  UNL     1       6.922  21.147  21.078  1.00  0.00    -0.257 OA
BRANCH  23  24
HETATM   24  C2  UNL     1       7.539  20.437  20.122  1.00  0.00     0.411 C 
HETATM   25  O2  UNL     1       7.155  20.466  18.936  1.00  0.00    -0.229 OA
BRANCH  24  26
HETATM   26  O1  UNL     1       8.657  19.607  20.364  1.00  0.00    -0.303 OA
HETATM   27  C1  UNL     1       9.957  20.160  20.420  1.00  0.00     0.215 C 
ENDBRANCH  24  26
ENDBRANCH  23  24
ENDBRANCH   1  23
BRANCH  11  28
HETATM   28  C18 UNL     1       5.016  23.925  22.467  1.00  0.00     0.039 C 
BRANCH  28  29
HETATM   29  C19 UNL     1       4.428  25.030  23.296  1.00  0.00    -0.024 C 
HETATM   30  C20 UNL     1       4.878  25.363  24.498  1.00  0.00    -0.091 C 
HETATM   31  C21 UNL     1       4.203  26.484  25.224  1.00  0.00     0.042 C 
HETATM   32  C22 UNL     1       6.007  24.685  25.141  1.00  0.00     0.042 C 
ENDBRANCH  28  29
ENDBRANCH  11  28
TORSDOF 9
ENDMDL
MODEL 4
REMARK VINA RESULT: -7.232984770      2.238      6.819
REMARK  9 active torsions:
REMARK  status: ('A' for Active; 'I' for Inactive)
REMARK    1  A    between atoms: O1_2  and  C2_3 
REMARK    2  A    between atoms: C2_3  and  O3_5 
REMARK    3  A    between atoms: O3_5  and  C3_6 
REMARK    4  A    between atoms: C8_13  and  C10_15 
REMARK    5  A    between atoms: C10_15  and  C11_16 
REMARK    6  A    between atoms: C15_21  and  O7_22 
REMARK    7  A    between atoms: C16_24  and  O8_25 
REMARK    8  A    between atoms: C17_27  and  C18_28 
REMARK    9  A    between atoms: C18_28  and  C19_29 
ROOT
HETATM    1  C3  UNL     1       3.496  23.985  22.182  1.00  0.00     0.100 C 
HETATM    2  C4  UNL     1       2.497  23.809  23.081  1.00  0.00     0.089 C 
HETATM    3  C5  UNL     1       1.569  22.730  22.772  1.00  0.00     0.186 C 
HETATM    4  O4  UNL     1       0.817  22.311  23.702  1.00  0.00    -0.290 OA
HETATM    5  C6  UNL     1       1.518  22.153  21.415  1.00  0.00     0.130 C 
HETATM    6  C7  UNL     1       0.145  21.634  21.054  1.00  0.00     0.055 C 
HETATM    7  O5  UNL     1       2.441  21.077  21.462  1.00  0.00    -0.357 OA
HETATM    8  C8  UNL     1       3.710  21.628  21.279  1.00  0.00     0.102 C 
HETATM    9  C9  UNL     1       4.606  21.289  22.436  1.00  0.00     0.050 C 
HETATM   10  C16 UNL     1       3.548  23.082  20.995  1.00  0.00     0.145 C 
HETATM   11  C17 UNL     1       2.120  23.077  20.409  1.00  0.00     0.075 C 
ENDROOT
BRANCH   8  12
HETATM   12  C10 UNL     1       4.221  20.997  19.982  1.00  0.00     0.109 C 
BRANCH  12  13
HETATM   13  C11 UNL     1       5.637  20.652  19.974  1.00  0.00     0.089 A 
HETATM   14  O6  UNL     1       6.655  21.461  20.285  1.00  0.00    -0.324 OA
HETATM   15  C12 UNL     1       7.799  20.859  20.176  1.00  0.00     0.151 A 
HETATM   16  C13 UNL     1       7.587  19.561  19.769  1.00  0.00    -0.004 A 
HETATM   17  C14 UNL     1       8.595  18.511  19.514  1.00  0.00     0.053 C 
HETATM   18  C15 UNL     1       6.219  19.431  19.641  1.00  0.00     0.103 A 
BRANCH  18  19
HETATM   19  O7  UNL     1       5.606  18.274  19.255  1.00  0.00    -0.358 OA
ATOM     20  H7  UNL     1       6.004  17.446  19.014  1.00  0.00     0.217 HD
ENDBRANCH  18  19
ENDBRANCH  12  13
ENDBRANCH   8  12
BRANCH  10  21
HETATM   21  O8  UNL     1       4.446  23.557  20.043  1.00  0.00    -0.379 OA
ATOM     22  H8  UNL     1       3.989  23.913  19.290  1.00  0.00     0.211 HD
ENDBRANCH  10  21
BRANCH   1  23
HETATM   23  O3  UNL     1       4.373  24.986  22.436  1.00  0.00    -0.257 OA
BRANCH  23  24
HETATM   24  C2  UNL     1       4.694  25.720  23.512  1.00  0.00     0.411 C 
HETATM   25  O2  UNL     1       3.967  26.654  23.905  1.00  0.00    -0.229 OA
BRANCH  24  26
HETATM   26  O1  UNL     1       5.858  25.508  24.284  1.00  0.00    -0.303 OA
HETATM   27  C1  UNL     1       6.285  24.194  24.585  1.00  0.00     0.215 C 
ENDBRANCH  24  26
ENDBRANCH  23  24
ENDBRANCH   1  23
BRANCH  11  28
HETATM   28  C18 UNL     1       1.538  24.414  20.220  1.00  0.00     0.039 C 
BRANCH  28  29
HETATM   29  C19 UNL     1       0.127  24.416  19.705  1.00  0.00    -0.024 C 
HETATM   30  C20 UNL     1      -0.899  24.909  20.385  1.00  0.00    -0.091 C 
HETATM   31  C21 UNL     1      -2.258  24.851  19.761  1.00  0.00     0.042 C 
HETATM   32  C22 UNL     1      -0.758  25.509  21.715  1.00  0.00     0.042 C 
ENDBRANCH  28  29
ENDBRANCH  11  28
TORSDOF 9
ENDMDL
MODEL 5
REMARK VINA RESULT: -7.192367096      2.186      6.799
REMARK  9 active torsions:
REMARK  status: ('A' for Active; 'I' for Inactive)
REMARK    1  A    between atoms: O1_2  and  C2_3 
REMARK    2  A    between atoms: C2_3  and  O3_5 
REMARK    3  A    between atoms: O3_5  and  C3_6 
REMARK    4  A    between atoms: C8_13  and  C10_15 
REMARK    5  A    between atoms: C10_15  and  C11_16 
REMARK    6  A    between atoms: C15_21  and  O7_22 
REMARK    7  A    between atoms: C16_24  and  O8_25 
REMARK    8  A    between atoms: C17_27  and  C18_28 
REMARK    9  A    between atoms: C18_28  and  C19_29 
ROOT
HETATM    1  C3  UNL     1       3.397  23.942  22.160  1.00  0.00     0.100 C 
HETATM    2  C4  UNL     1       2.422  23.820  23.094  1.00  0.00     0.089 C 
HETATM    3  C5  UNL     1       1.445  22.772  22.834  1.00  0.00     0.186 C 
HETATM    4  O4  UNL     1       0.708  22.398  23.796  1.00  0.00    -0.290 OA
HETATM    5  C6  UNL     1       1.329  22.173  21.492  1.00  0.00     0.130 C 
HETATM    6  C7  UNL     1      -0.074  21.699  21.184  1.00  0.00     0.055 C 
HETATM    7  O5  UNL     1       2.212  21.063  21.530  1.00  0.00    -0.357 OA
HETATM    8  C8  UNL     1       3.494  21.562  21.297  1.00  0.00     0.102 C 
HETATM    9  C9  UNL     1       4.414  21.211  22.431  1.00  0.00     0.050 C 
HETATM   10  C16 UNL     1       3.377  23.016  20.989  1.00  0.00     0.145 C 
HETATM   11  C17 UNL     1       1.931  23.055  20.449  1.00  0.00     0.075 C 
ENDROOT
BRANCH   8  12
HETATM   12  C10 UNL     1       3.939  20.889  19.997  1.00  0.00     0.109 C 
BRANCH  12  13
HETATM   13  C11 UNL     1       5.212  20.183  20.066  1.00  0.00     0.089 A 
HETATM   14  O6  UNL     1       5.386  18.869  20.241  1.00  0.00    -0.324 OA
HETATM   15  C12 UNL     1       6.643  18.548  20.263  1.00  0.00     0.151 A 
HETATM   16  C13 UNL     1       7.400  19.685  20.095  1.00  0.00    -0.004 A 
HETATM   17  C14 UNL     1       8.873  19.800  20.055  1.00  0.00     0.053 C 
HETATM   18  C15 UNL     1       6.494  20.719  19.970  1.00  0.00     0.103 A 
BRANCH  18  19
HETATM   19  O7  UNL     1       6.860  22.021  19.782  1.00  0.00    -0.358 OA
ATOM     20  H7  UNL     1       7.210  22.635  20.417  1.00  0.00     0.217 HD
ENDBRANCH  18  19
ENDBRANCH  12  13
ENDBRANCH   8  12
BRANCH  10  21
HETATM   21  O8  UNL     1       4.261  23.440  20.001  1.00  0.00    -0.379 OA
ATOM     22  H8  UNL     1       3.793  23.791  19.252  1.00  0.00     0.211 HD
ENDBRANCH  10  21
BRANCH   1  23
HETATM   23  O3  UNL     1       4.319  24.913  22.367  1.00  0.00    -0.257 OA
BRANCH  23  24
HETATM   24  C2  UNL     1       4.688  25.667  23.413  1.00  0.00     0.411 C 
HETATM   25  O2  UNL     1       3.980  26.608  23.822  1.00  0.00    -0.229 OA
BRANCH  24  26
HETATM   26  O1  UNL     1       5.888  25.471  24.133  1.00  0.00    -0.303 OA
HETATM   27  C1  UNL     1       6.273  24.171  24.537  1.00  0.00     0.215 C 
ENDBRANCH  24  26
ENDBRANCH  23  24
ENDBRANCH   1  23
BRANCH  11  28
HETATM   28  C18 UNL     1       1.394  24.409  20.253  1.00  0.00     0.039 C 
BRANCH  28  29
HETATM   29  C19 UNL     1      -0.015  24.455  19.734  1.00  0.00    -0.024 C 
HETATM   30  C20 UNL     1      -1.028  24.974  20.414  1.00  0.00    -0.091 C 
HETATM   31  C21 UNL     1      -2.386  24.958  19.786  1.00  0.00     0.042 C 
HETATM   32  C22 UNL     1      -0.873  25.565  21.746  1.00  0.00     0.042 C 
ENDBRANCH  28  29
ENDBRANCH  11  28
TORSDOF 9
ENDMDL
