MODEL 1
REMARK VINA RESULT: -8.565832874      0.000      0.000
REMARK  6 active torsions:
REMARK  status: ('A' for Active; 'I' for Inactive)
REMARK    1  A    between atoms: O1_2  and  C2_3 
REMARK    2  A    between atoms: C6_7  and  C7_8 
REMARK    3  A    between atoms: C7_8  and  C8_9 
REMARK    4  A    between atoms: C8_9  and  N1_10 
REMARK    5  A    between atoms: N1_10  and  C9_12 
REMARK    6  A    between atoms: C12_17  and  N3_18 
ROOT
HETATM    1  N1  UNL     1      68.607  -6.658  33.706  1.00  0.00    -0.355 N 
ATOM      2  H1  UNL     1      68.185  -6.803  34.624  1.00  0.00     0.166 HD
ENDROOT
BRANCH   1   3
HETATM    3  C8  UNL     1      68.508  -5.307  33.489  1.00  0.00     0.067 C 
BRANCH   3   4
HETATM    4  C7  UNL     1      68.680  -4.900  32.052  1.00  0.00     0.083 C 
BRANCH   4   5
HETATM    5  C6  UNL     1      69.482  -3.641  31.934  1.00  0.00    -0.051 A 
HETATM    6  C5  UNL     1      70.750  -3.714  31.401  1.00  0.00     0.007 A 
HETATM    7  C4  UNL     1      71.528  -2.576  31.272  1.00  0.00     0.003 A 
HETATM    8  C3  UNL     1      71.025  -1.345  31.687  1.00  0.00     0.037 A 
HETATM    9  C2  UNL     1      69.758  -1.254  32.223  1.00  0.00     0.068 A 
HETATM   10  C13 UNL     1      69.017  -2.416  32.332  1.00  0.00     0.044 A 
BRANCH   9  11
HETATM   11  O1  UNL     1      69.219  -0.032  32.651  1.00  0.00    -0.356 OA
HETATM   12  C1  UNL     1      67.838   0.195  32.460  1.00  0.00     0.210 C 
ENDBRANCH   9  11
ENDBRANCH   4   5
ENDBRANCH   3   4
ENDBRANCH   1   3
BRANCH   1  13
HETATM   13  C9  UNL     1      68.951  -7.773  33.348  1.00  0.00     0.121 A 
HETATM   14  C10 UNL     1      70.236  -7.916  32.761  1.00  0.00     0.066 A 
HETATM   15  C11 UNL     1      70.605  -9.165  32.365  1.00  0.00     0.110 A 
HETATM   16  N2  UNL     1      69.805 -10.242  32.512  1.00  0.00    -0.202 N 
HETATM   17  C12 UNL     1      68.597 -10.061  33.072  1.00  0.00     0.677 A 
ATOM     18  H2  UNL     1      70.108 -11.166  32.205  1.00  0.00     0.183 HD
HETATM   19  N4  UNL     1      68.169  -8.857  33.484  1.00  0.00    -0.177 N 
ATOM     20  H4  UNL     1      67.244  -8.764  33.905  1.00  0.00     0.185 HD
BRANCH  17  21
HETATM   21  N3  UNL     1      67.821 -11.111  33.212  1.00  0.00    -0.234 N 
ATOM     22  H32 UNL     1      67.933 -11.910  32.587  1.00  0.00     0.174 HD
ATOM     23  H31 UNL     1      67.122 -11.092  33.954  1.00  0.00     0.174 HD
ENDBRANCH  17  21
ENDBRANCH   1  13
TORSDOF 6
ENDMDL
MODEL 2
REMARK VINA RESULT: -8.501839719      3.876      7.631
REMARK  6 active torsions:
REMARK  status: ('A' for Active; 'I' for Inactive)
REMARK    1  A    between atoms: O1_2  and  C2_3 
REMARK    2  A    between atoms: C6_7  and  C7_8 
REMARK    3  A    between atoms: C7_8  and  C8_9 
REMARK    4  A    between atoms: C8_9  and  N1_10 
REMARK    5  A    between atoms: N1_10  and  C9_12 
REMARK    6  A    between atoms: C12_17  and  N3_18 
ROOT
HETATM    1  N1  UNL     1      68.345  -3.675  32.465  1.00  0.00    -0.355 N 
ATOM      2  H1  UNL     1      67.552  -3.434  33.059  1.00  0.00     0.166 HD
ENDROOT
BRANCH   1   3
HETATM    3  C8  UNL     1      68.297  -5.043  32.362  1.00  0.00     0.067 C 
BRANCH   3   4
HETATM    4  C7  UNL     1      68.618  -5.767  33.640  1.00  0.00     0.083 C 
BRANCH   4   5
HETATM    5  C6  UNL     1      68.958  -7.203  33.383  1.00  0.00    -0.051 A 
HETATM    6  C5  UNL     1      70.284  -7.553  33.252  1.00  0.00     0.007 A 
HETATM    7  C4  UNL     1      70.646  -8.869  33.013  1.00  0.00     0.003 A 
HETATM    8  C3  UNL     1      69.661  -9.846  32.904  1.00  0.00     0.037 A 
HETATM    9  C2  UNL     1      68.329  -9.513  33.032  1.00  0.00     0.068 A 
HETATM   10  C13 UNL     1      68.014  -8.188  33.270  1.00  0.00     0.044 A 
BRANCH   9  11
HETATM   11  O1  UNL     1      67.310 -10.472  32.929  1.00  0.00    -0.356 OA
HETATM   12  C1  UNL     1      67.598 -11.801  33.307  1.00  0.00     0.210 C 
ENDBRANCH   9  11
ENDBRANCH   4   5
ENDBRANCH   3   4
ENDBRANCH   1   3
BRANCH   1  13
HETATM   13  C9  UNL     1      68.866  -2.605  32.198  1.00  0.00     0.121 A 
HETATM   14  C10 UNL     1      70.136  -2.622  31.562  1.00  0.00     0.066 A 
HETATM   15  C11 UNL     1      70.704  -1.420  31.271  1.00  0.00     0.110 A 
HETATM   16  N2  UNL     1      70.110  -0.243  31.562  1.00  0.00    -0.202 N 
HETATM   17  C12 UNL     1      68.908  -0.273  32.163  1.00  0.00     0.677 A 
ATOM     18  H2  UNL     1      70.559   0.642  31.332  1.00  0.00     0.183 HD
HETATM   19  N4  UNL     1      68.291  -1.423  32.479  1.00  0.00    -0.177 N 
ATOM     20  H4  UNL     1      67.379  -1.400  32.935  1.00  0.00     0.185 HD
BRANCH  17  21
HETATM   21  N3  UNL     1      68.333   0.873  32.444  1.00  0.00    -0.234 N 
ATOM     22  H32 UNL     1      68.233   1.164  33.417  1.00  0.00     0.174 HD
ATOM     23  H31 UNL     1      68.002   1.444  31.668  1.00  0.00     0.174 HD
ENDBRANCH  17  21
ENDBRANCH   1  13
TORSDOF 6
ENDMDL
MODEL 3
REMARK VINA RESULT: -8.398496859      3.979      7.701
REMARK  6 active torsions:
REMARK  status: ('A' for Active; 'I' for Inactive)
REMARK    1  A    between atoms: O1_2  and  C2_3 
REMARK    2  A    between atoms: C6_7  and  C7_8 
REMARK    3  A    between atoms: C7_8  and  C8_9 
REMARK    4  A    between atoms: C8_9  and  N1_10 
REMARK    5  A    between atoms: N1_10  and  C9_12 
REMARK    6  A    between atoms: C12_17  and  N3_18 
ROOT
HETATM    1  N1  UNL     1      68.241  -3.591  31.932  1.00  0.00    -0.355 N 
ATOM      2  H1  UNL     1      67.483  -3.606  31.250  1.00  0.00     0.166 HD
ENDROOT
BRANCH   1   3
HETATM    3  C8  UNL     1      68.215  -4.838  32.506  1.00  0.00     0.067 C 
BRANCH   3   4
HETATM    4  C7  UNL     1      68.856  -5.912  31.672  1.00  0.00     0.083 C 
BRANCH   4   5
HETATM    5  C6  UNL     1      69.172  -7.123  32.493  1.00  0.00    -0.051 A 
HETATM    6  C5  UNL     1      69.004  -7.058  33.858  1.00  0.00     0.007 A 
HETATM    7  C4  UNL     1      69.283  -8.153  34.658  1.00  0.00     0.003 A 
HETATM    8  C3  UNL     1      69.739  -9.334  34.076  1.00  0.00     0.037 A 
HETATM    9  C2  UNL     1      69.913  -9.417  32.711  1.00  0.00     0.068 A 
HETATM   10  C13 UNL     1      69.622  -8.298  31.952  1.00  0.00     0.044 A 
BRANCH   9  11
HETATM   11  O1  UNL     1      70.370 -10.589  32.091  1.00  0.00    -0.356 OA
HETATM   12  C1  UNL     1      69.741 -11.810  32.416  1.00  0.00     0.210 C 
ENDBRANCH   9  11
ENDBRANCH   4   5
ENDBRANCH   3   4
ENDBRANCH   1   3
BRANCH   1  13
HETATM   13  C9  UNL     1      68.721  -2.473  31.833  1.00  0.00     0.121 A 
HETATM   14  C10 UNL     1      70.021  -2.355  31.275  1.00  0.00     0.066 A 
HETATM   15  C11 UNL     1      70.544  -1.102  31.172  1.00  0.00     0.110 A 
HETATM   16  N2  UNL     1      69.877   0.001  31.573  1.00  0.00    -0.202 N 
HETATM   17  C12 UNL     1      68.649  -0.157  32.095  1.00  0.00     0.677 A 
ATOM     18  H2  UNL     1      70.294   0.927  31.483  1.00  0.00     0.183 HD
HETATM   19  N4  UNL     1      68.074  -1.364  32.227  1.00  0.00    -0.177 N 
ATOM     20  H4  UNL     1      67.139  -1.438  32.628  1.00  0.00     0.185 HD
BRANCH  17  21
HETATM   21  N3  UNL     1      68.004   0.918  32.484  1.00  0.00    -0.234 N 
ATOM     22  H32 UNL     1      68.494   1.811  32.536  1.00  0.00     0.174 HD
ATOM     23  H31 UNL     1      67.018   0.822  32.725  1.00  0.00     0.174 HD
ENDBRANCH  17  21
ENDBRANCH   1  13
TORSDOF 6
ENDMDL
MODEL 4
REMARK VINA RESULT: -8.321040852      0.816      1.519
REMARK  6 active torsions:
REMARK  status: ('A' for Active; 'I' for Inactive)
REMARK    1  A    between atoms: O1_2  and  C2_3 
REMARK    2  A    between atoms: C6_7  and  C7_8 
REMARK    3  A    between atoms: C7_8  and  C8_9 
REMARK    4  A    between atoms: C8_9  and  N1_10 
REMARK    5  A    between atoms: N1_10  and  C9_12 
REMARK    6  A    between atoms: C12_17  and  N3_18 
ROOT
HETATM    1  N1  UNL     1      68.671  -6.675  33.625  1.00  0.00    -0.355 N 
ATOM      2  H1  UNL     1      68.281  -6.836  34.554  1.00  0.00     0.166 HD
ENDROOT
BRANCH   1   3
HETATM    3  C8  UNL     1      68.577  -5.318  33.440  1.00  0.00     0.067 C 
BRANCH   3   4
HETATM    4  C7  UNL     1      68.722  -4.881  32.009  1.00  0.00     0.083 C 
BRANCH   4   5
HETATM    5  C6  UNL     1      69.506  -3.610  31.905  1.00  0.00    -0.051 A 
HETATM    6  C5  UNL     1      70.764  -3.654  31.346  1.00  0.00     0.007 A 
HETATM    7  C4  UNL     1      71.526  -2.503  31.228  1.00  0.00     0.003 A 
HETATM    8  C3  UNL     1      71.015  -1.289  31.680  1.00  0.00     0.037 A 
HETATM    9  C2  UNL     1      69.758  -1.226  32.242  1.00  0.00     0.068 A 
HETATM   10  C13 UNL     1      69.034  -2.400  32.339  1.00  0.00     0.044 A 
BRANCH   9  11
HETATM   11  O1  UNL     1      69.212  -0.021  32.708  1.00  0.00    -0.356 OA
HETATM   12  C1  UNL     1      67.854   0.252  32.431  1.00  0.00     0.210 C 
ENDBRANCH   9  11
ENDBRANCH   4   5
ENDBRANCH   3   4
ENDBRANCH   1   3
BRANCH   1  13
HETATM   13  C9  UNL     1      68.991  -7.785  33.231  1.00  0.00     0.121 A 
HETATM   14  C10 UNL     1      68.183  -8.887  33.619  1.00  0.00     0.066 A 
HETATM   15  C11 UNL     1      68.552 -10.118  33.171  1.00  0.00     0.110 A 
HETATM   16  N2  UNL     1      69.635 -10.315  32.390  1.00  0.00    -0.202 N 
HETATM   17  C12 UNL     1      70.370  -9.244  32.045  1.00  0.00     0.677 A 
ATOM     18  H2  UNL     1      69.887 -11.250  32.069  1.00  0.00     0.183 HD
HETATM   19  N4  UNL     1      70.064  -8.002  32.452  1.00  0.00    -0.177 N 
ATOM     20  H4  UNL     1      70.650  -7.217  32.168  1.00  0.00     0.185 HD
BRANCH  17  21
HETATM   21  N3  UNL     1      71.422  -9.440  31.285  1.00  0.00    -0.234 N 
ATOM     22  H32 UNL     1      71.298  -9.671  30.299  1.00  0.00     0.174 HD
ATOM     23  H31 UNL     1      72.344  -9.353  31.714  1.00  0.00     0.174 HD
ENDBRANCH  17  21
ENDBRANCH   1  13
TORSDOF 6
ENDMDL
MODEL 5
REMARK VINA RESULT: -8.234460258      1.152      1.429
REMARK  6 active torsions:
REMARK  status: ('A' for Active; 'I' for Inactive)
REMARK    1  A    between atoms: O1_2  and  C2_3 
REMARK    2  A    between atoms: C6_7  and  C7_8 
REMARK    3  A    between atoms: C7_8  and  C8_9 
REMARK    4  A    between atoms: C8_9  and  N1_10 
REMARK    5  A    between atoms: N1_10  and  C9_12 
REMARK    6  A    between atoms: C12_17  and  N3_18 
ROOT
HETATM    1  N1  UNL     1      68.865  -6.622  31.719  1.00  0.00    -0.355 N 
ATOM      2  H1  UNL     1      68.873  -6.976  30.763  1.00  0.00     0.166 HD
ENDROOT
BRANCH   1   3
HETATM    3  C8  UNL     1      68.522  -5.299  31.595  1.00  0.00     0.067 C 
BRANCH   3   4
HETATM    4  C7  UNL     1      68.869  -4.458  32.792  1.00  0.00     0.083 C 
BRANCH   4   5
HETATM    5  C6  UNL     1      69.552  -3.188  32.388  1.00  0.00    -0.051 A 
HETATM    6  C5  UNL     1      70.758  -3.269  31.727  1.00  0.00     0.007 A 
HETATM    7  C4  UNL     1      71.425  -2.121  31.333  1.00  0.00     0.003 A 
HETATM    8  C3  UNL     1      70.871  -0.873  31.608  1.00  0.00     0.037 A 
HETATM    9  C2  UNL     1      69.665  -0.774  32.269  1.00  0.00     0.068 A 
HETATM   10  C13 UNL     1      69.035  -1.946  32.643  1.00  0.00     0.044 A 
BRANCH   9  11
HETATM   11  O1  UNL     1      69.078   0.466  32.562  1.00  0.00    -0.356 OA
HETATM   12  C1  UNL     1      67.723   0.665  32.219  1.00  0.00     0.210 C 
ENDBRANCH   9  11
ENDBRANCH   4   5
ENDBRANCH   3   4
ENDBRANCH   1   3
BRANCH   1  13
HETATM   13  C9  UNL     1      69.165  -7.585  32.406  1.00  0.00     0.121 A 
HETATM   14  C10 UNL     1      69.106  -7.441  33.817  1.00  0.00     0.066 A 
HETATM   15  C11 UNL     1      69.444  -8.523  34.569  1.00  0.00     0.110 A 
HETATM   16  N2  UNL     1      69.823  -9.699  34.026  1.00  0.00    -0.202 N 
HETATM   17  C12 UNL     1      69.865  -9.792  32.686  1.00  0.00     0.677 A 
ATOM     18  H2  UNL     1      70.071 -10.494  34.615  1.00  0.00     0.183 HD
HETATM   19  N4  UNL     1      69.545  -8.763  31.884  1.00  0.00    -0.177 N 
ATOM     20  H4  UNL     1      69.591  -8.878  30.871  1.00  0.00     0.185 HD
BRANCH  17  21
HETATM   21  N3  UNL     1      70.234 -10.937  32.161  1.00  0.00    -0.234 N 
ATOM     22  H32 UNL     1      71.055 -11.420  32.526  1.00  0.00     0.174 HD
ATOM     23  H31 UNL     1      69.678 -11.312  31.393  1.00  0.00     0.174 HD
ENDBRANCH  17  21
ENDBRANCH   1  13
TORSDOF 6
ENDMDL
