MODEL 1
REMARK VINA RESULT: -8.501286728      0.000      0.000
REMARK  7 active torsions:
REMARK  status: ('A' for Active; 'I' for Inactive)
REMARK    1  A    between atoms: N1_1  and  C1_5 
REMARK    2  A    between atoms: C1_5  and  C2_6 
REMARK    3  A    between atoms: C1_5  and  C12_16 
REMARK    4  A    between atoms: C2_6  and  C3_7 
REMARK    5  A    between atoms: C12_16  and  O1_17 
REMARK    6  A    between atoms: C12_16  and  N2_19 
REMARK    7  A    between atoms: N2_19  and  C13_21 
ROOT
HETATM    1  C1  UNL     1      69.027  -7.663  32.566  1.00  0.00     0.235 C 
ENDROOT
BRANCH   1   2
HETATM    2  N1  UNL     1      69.719  -8.222  31.378  1.00  0.00    -0.071 N 
ATOM      3  H13 UNL     1      69.070  -8.653  30.720  1.00  0.00     0.274 HD
ATOM      4  H12 UNL     1      70.083  -7.493  30.765  1.00  0.00     0.274 HD
ATOM      5  H11 UNL     1      70.447  -8.869  31.683  1.00  0.00     0.274 HD
ENDBRANCH   1   2
BRANCH   1   6
HETATM    6  C2  UNL     1      69.896  -6.627  33.206  1.00  0.00     0.075 C 
BRANCH   6   7
HETATM    7  C3  UNL     1      69.671  -5.289  32.553  1.00  0.00    -0.056 A 
HETATM    8  C4  UNL     1      68.391  -4.916  32.207  1.00  0.00     0.007 A 
HETATM    9  C5  UNL     1      68.194  -3.681  31.629  1.00  0.00     0.008 A 
HETATM   10  C6  UNL     1      69.279  -2.813  31.397  1.00  0.00    -0.052 A 
HETATM   11  C7  UNL     1      70.551  -3.188  31.744  1.00  0.00    -0.051 A 
HETATM   12  C11 UNL     1      69.342  -1.458  30.797  1.00  0.00     0.039 C 
HETATM   13  C8  UNL     1      70.721  -4.436  32.322  1.00  0.00     0.014 A 
HETATM   14  C9  UNL     1      71.533  -2.092  31.414  1.00  0.00     0.039 C 
HETATM   15  C10 UNL     1      70.595  -0.877  31.395  1.00  0.00     0.009 C 
ENDBRANCH   6   7
ENDBRANCH   1   6
BRANCH   1  16
HETATM   16  C12 UNL     1      68.670  -8.852  33.380  1.00  0.00     0.244 C 
BRANCH  16  17
HETATM   17  O1  UNL     1      69.758  -9.045  34.283  1.00  0.00    -0.375 OA
ATOM     18  H1  UNL     1      70.276  -9.752  33.916  1.00  0.00     0.212 HD
ENDBRANCH  16  17
BRANCH  16  19
HETATM   19  N2  UNL     1      68.220 -10.024  32.809  1.00  0.00    -0.391 N 
ATOM     20  H2  UNL     1      67.946 -10.015  31.827  1.00  0.00     0.156 HD
BRANCH  19  21
HETATM   21  C13 UNL     1      68.124 -11.239  33.528  1.00  0.00     0.079 A 
HETATM   22  C14 UNL     1      67.797 -12.510  32.728  1.00  0.00     0.027 A 
HETATM   23  C15 UNL     1      66.783 -11.905  33.668  1.00  0.00     0.027 A 
ENDBRANCH  19  21
ENDBRANCH  16  19
ENDBRANCH   1  16
TORSDOF 7
ENDMDL
MODEL 2
REMARK VINA RESULT: -8.166011601      3.305      7.176
REMARK  7 active torsions:
REMARK  status: ('A' for Active; 'I' for Inactive)
REMARK    1  A    between atoms: N1_1  and  C1_5 
REMARK    2  A    between atoms: C1_5  and  C2_6 
REMARK    3  A    between atoms: C1_5  and  C12_16 
REMARK    4  A    between atoms: C2_6  and  C3_7 
REMARK    5  A    between atoms: C12_16  and  O1_17 
REMARK    6  A    between atoms: C12_16  and  N2_19 
REMARK    7  A    between atoms: N2_19  and  C13_21 
ROOT
HETATM    1  C1  UNL     1      70.127  -3.092  31.743  1.00  0.00     0.235 C 
ENDROOT
BRANCH   1   2
HETATM    2  N1  UNL     1      70.498  -2.446  30.459  1.00  0.00    -0.071 N 
ATOM      3  H13 UNL     1      70.121  -2.945  29.653  1.00  0.00     0.274 HD
ATOM      4  H12 UNL     1      70.015  -1.559  30.319  1.00  0.00     0.274 HD
ATOM      5  H11 UNL     1      71.512  -2.346  30.411  1.00  0.00     0.274 HD
ENDBRANCH   1   2
BRANCH   1   6
HETATM    6  C2  UNL     1      68.846  -3.844  31.569  1.00  0.00     0.075 C 
BRANCH   6   7
HETATM    7  C3  UNL     1      68.910  -5.153  32.311  1.00  0.00    -0.056 A 
HETATM    8  C4  UNL     1      68.351  -5.244  33.565  1.00  0.00     0.007 A 
HETATM    9  C5  UNL     1      68.397  -6.452  34.226  1.00  0.00     0.008 A 
HETATM   10  C6  UNL     1      69.004  -7.575  33.632  1.00  0.00    -0.052 A 
HETATM   11  C7  UNL     1      69.560  -7.480  32.381  1.00  0.00    -0.051 A 
HETATM   12  C11 UNL     1      69.192  -8.964  34.118  1.00  0.00     0.039 C 
HETATM   13  C8  UNL     1      69.500  -6.253  31.740  1.00  0.00     0.014 A 
HETATM   14  C9  UNL     1      70.130  -8.810  31.954  1.00  0.00     0.039 C 
HETATM   15  C10 UNL     1      69.316  -9.759  32.846  1.00  0.00     0.009 C 
ENDBRANCH   6   7
ENDBRANCH   1   6
BRANCH   1  16
HETATM   16  C12 UNL     1      70.141  -1.984  32.732  1.00  0.00     0.244 C 
BRANCH  16  17
HETATM   17  O1  UNL     1      71.297  -2.203  33.541  1.00  0.00    -0.375 OA
ATOM     18  H1  UNL     1      70.969  -2.485  34.388  1.00  0.00     0.212 HD
ENDBRANCH  16  17
BRANCH  16  19
HETATM   19  N2  UNL     1      69.023  -1.636  33.460  1.00  0.00    -0.391 N 
ATOM     20  H2  UNL     1      68.720  -2.251  34.215  1.00  0.00     0.156 HD
BRANCH  19  21
HETATM   21  C13 UNL     1      68.276  -0.461  33.203  1.00  0.00     0.079 A 
HETATM   22  C14 UNL     1      67.377  -0.454  31.956  1.00  0.00     0.027 A 
HETATM   23  C15 UNL     1      68.629   0.387  32.013  1.00  0.00     0.027 A 
ENDBRANCH  19  21
ENDBRANCH  16  19
ENDBRANCH   1  16
TORSDOF 7
ENDMDL
MODEL 3
REMARK VINA RESULT: -8.078053964      1.323      1.476
REMARK  7 active torsions:
REMARK  status: ('A' for Active; 'I' for Inactive)
REMARK    1  A    between atoms: N1_1  and  C1_5 
REMARK    2  A    between atoms: C1_5  and  C2_6 
REMARK    3  A    between atoms: C1_5  and  C12_16 
REMARK    4  A    between atoms: C2_6  and  C3_7 
REMARK    5  A    between atoms: C12_16  and  O1_17 
REMARK    6  A    between atoms: C12_16  and  N2_19 
REMARK    7  A    between atoms: N2_19  and  C13_21 
ROOT
HETATM    1  C1  UNL     1      69.705  -7.144  33.105  1.00  0.00     0.235 C 
ENDROOT
BRANCH   1   2
HETATM    2  N1  UNL     1      68.957  -6.999  34.380  1.00  0.00    -0.071 N 
ATOM      3  H13 UNL     1      68.559  -7.883  34.697  1.00  0.00     0.274 HD
ATOM      4  H12 UNL     1      69.576  -6.826  35.172  1.00  0.00     0.274 HD
ATOM      5  H11 UNL     1      68.250  -6.271  34.276  1.00  0.00     0.274 HD
ENDBRANCH   1   2
BRANCH   1   6
HETATM    6  C2  UNL     1      68.867  -6.633  31.977  1.00  0.00     0.075 C 
BRANCH   6   7
HETATM    7  C3  UNL     1      69.082  -5.154  31.802  1.00  0.00    -0.056 A 
HETATM    8  C4  UNL     1      67.997  -4.307  31.834  1.00  0.00     0.007 A 
HETATM    9  C5  UNL     1      68.208  -2.952  31.693  1.00  0.00     0.008 A 
HETATM   10  C6  UNL     1      69.508  -2.440  31.521  1.00  0.00    -0.052 A 
HETATM   11  C7  UNL     1      70.586  -3.287  31.490  1.00  0.00    -0.051 A 
HETATM   12  C11 UNL     1      70.003  -1.054  31.343  1.00  0.00     0.039 C 
HETATM   13  C8  UNL     1      70.346  -4.644  31.632  1.00  0.00     0.014 A 
HETATM   14  C9  UNL     1      71.865  -2.508  31.313  1.00  0.00     0.039 C 
HETATM   15  C10 UNL     1      71.424  -1.132  31.832  1.00  0.00     0.009 C 
ENDBRANCH   6   7
ENDBRANCH   1   6
BRANCH   1  16
HETATM   16  C12 UNL     1      70.102  -8.574  33.070  1.00  0.00     0.244 C 
BRANCH  16  17
HETATM   17  O1  UNL     1      70.531  -8.823  31.731  1.00  0.00    -0.375 OA
ATOM     18  H1  UNL     1      69.936  -9.480  31.388  1.00  0.00     0.212 HD
ENDBRANCH  16  17
BRANCH  16  19
HETATM   19  N2  UNL     1      69.298  -9.572  33.580  1.00  0.00    -0.391 N 
ATOM     20  H2  UNL     1      69.314  -9.747  34.584  1.00  0.00     0.156 HD
BRANCH  19  21
HETATM   21  C13 UNL     1      68.451 -10.364  32.768  1.00  0.00     0.079 A 
HETATM   22  C14 UNL     1      67.468 -11.306  33.480  1.00  0.00     0.027 A 
HETATM   23  C15 UNL     1      68.656 -11.852  32.726  1.00  0.00     0.027 A 
ENDBRANCH  19  21
ENDBRANCH  16  19
ENDBRANCH   1  16
TORSDOF 7
ENDMDL
MODEL 4
REMARK VINA RESULT: -8.004883622      1.352      2.057
REMARK  7 active torsions:
REMARK  status: ('A' for Active; 'I' for Inactive)
REMARK    1  A    between atoms: N1_1  and  C1_5 
REMARK    2  A    between atoms: C1_5  and  C2_6 
REMARK    3  A    between atoms: C1_5  and  C12_16 
REMARK    4  A    between atoms: C2_6  and  C3_7 
REMARK    5  A    between atoms: C12_16  and  O1_17 
REMARK    6  A    between atoms: C12_16  and  N2_19 
REMARK    7  A    between atoms: N2_19  and  C13_21 
ROOT
HETATM    1  C1  UNL     1      69.638  -7.131  33.240  1.00  0.00     0.235 C 
ENDROOT
BRANCH   1   2
HETATM    2  N1  UNL     1      68.974  -7.374  34.546  1.00  0.00    -0.071 N 
ATOM      3  H13 UNL     1      68.463  -6.556  34.878  1.00  0.00     0.274 HD
ATOM      4  H12 UNL     1      68.185  -8.015  34.464  1.00  0.00     0.274 HD
ATOM      5  H11 UNL     1      69.667  -7.698  35.222  1.00  0.00     0.274 HD
ENDBRANCH   1   2
BRANCH   1   6
HETATM    6  C2  UNL     1      68.724  -6.340  32.358  1.00  0.00     0.075 C 
BRANCH   6   7
HETATM    7  C3  UNL     1      69.275  -4.953  32.156  1.00  0.00    -0.056 A 
HETATM    8  C4  UNL     1      70.604  -4.711  32.420  1.00  0.00     0.007 A 
HETATM    9  C5  UNL     1      71.102  -3.443  32.211  1.00  0.00     0.008 A 
HETATM   10  C6  UNL     1      70.269  -2.412  31.735  1.00  0.00    -0.052 A 
HETATM   11  C7  UNL     1      68.946  -2.657  31.473  1.00  0.00    -0.051 A 
HETATM   12  C11 UNL     1      70.544  -0.986  31.436  1.00  0.00     0.039 C 
HETATM   13  C8  UNL     1      68.471  -3.941  31.693  1.00  0.00     0.014 A 
HETATM   14  C9  UNL     1      68.269  -1.411  30.961  1.00  0.00     0.039 C 
HETATM   15  C10 UNL     1      69.482  -0.636  30.428  1.00  0.00     0.009 C 
ENDBRANCH   6   7
ENDBRANCH   1   6
BRANCH   1  16
HETATM   16  C12 UNL     1      70.040  -8.481  32.771  1.00  0.00     0.244 C 
BRANCH  16  17
HETATM   17  O1  UNL     1      69.960  -8.436  31.347  1.00  0.00    -0.375 OA
ATOM     18  H1  UNL     1      70.764  -8.831  31.031  1.00  0.00     0.212 HD
ENDBRANCH  16  17
BRANCH  16  19
HETATM   19  N2  UNL     1      69.511  -9.633  33.312  1.00  0.00    -0.391 N 
ATOM     20  H2  UNL     1      69.783  -9.899  34.258  1.00  0.00     0.156 HD
BRANCH  19  21
HETATM   21  C13 UNL     1      68.605 -10.463  32.608  1.00  0.00     0.079 A 
HETATM   22  C14 UNL     1      67.517 -11.176  33.427  1.00  0.00     0.027 A 
HETATM   23  C15 UNL     1      68.659 -11.951  32.817  1.00  0.00     0.027 A 
ENDBRANCH  19  21
ENDBRANCH  16  19
ENDBRANCH   1  16
TORSDOF 7
ENDMDL
MODEL 5
REMARK VINA RESULT: -7.960123016      1.798      2.358
REMARK  7 active torsions:
REMARK  status: ('A' for Active; 'I' for Inactive)
REMARK    1  A    between atoms: N1_1  and  C1_5 
REMARK    2  A    between atoms: C1_5  and  C2_6 
REMARK    3  A    between atoms: C1_5  and  C12_16 
REMARK    4  A    between atoms: C2_6  and  C3_7 
REMARK    5  A    between atoms: C12_16  and  O1_17 
REMARK    6  A    between atoms: C12_16  and  N2_19 
REMARK    7  A    between atoms: N2_19  and  C13_21 
ROOT
HETATM    1  C1  UNL     1      69.852  -9.116  32.335  1.00  0.00     0.235 C 
ENDROOT
BRANCH   1   2
HETATM    2  N1  UNL     1      71.066  -9.299  31.501  1.00  0.00    -0.071 N 
ATOM      3  H13 UNL     1      71.863  -8.772  31.858  1.00  0.00     0.274 HD
ATOM      4  H12 UNL     1      71.459 -10.235  31.591  1.00  0.00     0.274 HD
ATOM      5  H11 UNL     1      70.850  -9.063  30.532  1.00  0.00     0.274 HD
ENDBRANCH   1   2
BRANCH   1   6
HETATM    6  C2  UNL     1      70.192  -8.287  33.533  1.00  0.00     0.075 C 
BRANCH   6   7
HETATM    7  C3  UNL     1      69.721  -6.871  33.332  1.00  0.00    -0.056 A 
HETATM    8  C4  UNL     1      68.501  -6.489  33.844  1.00  0.00     0.007 A 
HETATM    9  C5  UNL     1      68.089  -5.185  33.672  1.00  0.00     0.008 A 
HETATM   10  C6  UNL     1      68.899  -4.259  32.986  1.00  0.00    -0.052 A 
HETATM   11  C7  UNL     1      70.113  -4.644  32.478  1.00  0.00    -0.051 A 
HETATM   12  C11 UNL     1      68.695  -2.825  32.663  1.00  0.00     0.039 C 
HETATM   13  C8  UNL     1      70.502  -5.961  32.664  1.00  0.00     0.014 A 
HETATM   14  C9  UNL     1      70.798  -3.480  31.806  1.00  0.00     0.039 C 
HETATM   15  C10 UNL     1      70.100  -2.306  32.507  1.00  0.00     0.009 C 
ENDBRANCH   6   7
ENDBRANCH   1   6
BRANCH   1  16
HETATM   16  C12 UNL     1      69.357 -10.495  32.576  1.00  0.00     0.244 C 
BRANCH  16  17
HETATM   17  O1  UNL     1      68.571 -10.422  33.766  1.00  0.00    -0.375 OA
ATOM     18  H1  UNL     1      68.417  -9.496  33.916  1.00  0.00     0.212 HD
ENDBRANCH  16  17
BRANCH  16  19
HETATM   19  N2  UNL     1      70.193 -11.592  32.541  1.00  0.00    -0.391 N 
ATOM     20  H2  UNL     1      71.179 -11.462  32.766  1.00  0.00     0.156 HD
BRANCH  19  21
HETATM   21  C13 UNL     1      69.740 -12.890  32.204  1.00  0.00     0.079 A 
HETATM   22  C14 UNL     1      70.652 -14.072  32.566  1.00  0.00     0.027 A 
HETATM   23  C15 UNL     1      70.453 -13.660  31.128  1.00  0.00     0.027 A 
ENDBRANCH  19  21
ENDBRANCH  16  19
ENDBRANCH   1  16
TORSDOF 7
ENDMDL
