MODEL 1
REMARK VINA RESULT: -8.733717663      0.000      0.000
REMARK  5 active torsions:
REMARK  status: ('A' for Active; 'I' for Inactive)
REMARK    1  A    between atoms: N3_4  and  C2_6 
REMARK    2  A    between atoms: C2_6  and  C3_7 
REMARK    3  A    between atoms: C3_7  and  O1_8 
REMARK    4  A    between atoms: O1_8  and  C4_9 
REMARK    5  A    between atoms: C7_12  and  C8_13 
ROOT
HETATM    1  C4  UNL     1      69.301  -6.043  32.785  1.00  0.00     0.068 A 
HETATM    2  C5  UNL     1      69.138  -6.702  33.973  1.00  0.00     0.037 A 
HETATM    3  C6  UNL     1      68.995  -8.084  33.995  1.00  0.00     0.016 A 
HETATM    4  C7  UNL     1      69.012  -8.839  32.846  1.00  0.00    -0.009 A 
HETATM    5  C13 UNL     1      69.181  -8.123  31.656  1.00  0.00     0.016 A 
HETATM    6  C14 UNL     1      69.323  -6.760  31.622  1.00  0.00     0.037 A 
ENDROOT
BRANCH   1   7
HETATM    7  O1  UNL     1      69.438  -4.663  32.839  1.00  0.00    -0.350 OA
BRANCH   7   8
HETATM    8  C3  UNL     1      70.086  -3.882  31.887  1.00  0.00     0.195 C 
BRANCH   8   9
HETATM    9  C2  UNL     1      70.501  -2.579  32.571  1.00  0.00     0.148 C 
BRANCH   9  10
HETATM   10  N3  UNL     1      69.379  -1.851  33.081  1.00  0.00    -0.365 N 
HETATM   11  C1  UNL     1      68.815  -0.854  32.512  1.00  0.00     0.197 C 
HETATM   12  N1  UNL     1      69.313  -0.393  31.264  1.00  0.00    -0.067 NA
HETATM   13  N2  UNL     1      67.715  -0.251  33.158  1.00  0.00    -0.067 NA
ATOM     14  H3  UNL     1      68.997  -2.154  33.977  1.00  0.00     0.161 HD
ENDBRANCH   9  10
ENDBRANCH   8   9
ENDBRANCH   7   8
ENDBRANCH   1   7
BRANCH   4  15
HETATM   15  C8  UNL     1      68.867 -10.285  32.810  1.00  0.00     0.042 A 
HETATM   16  C9  UNL     1      67.695 -10.874  33.175  1.00  0.00     0.030 A 
HETATM   17  C10 UNL     1      67.589 -12.259  33.130  1.00  0.00     0.004 A 
HETATM   18  C11 UNL     1      68.680 -12.976  32.718  1.00  0.00     0.017 A 
HETATM   19  C12 UNL     1      69.845 -12.342  32.358  1.00  0.00     0.088 A 
HETATM   20  N4  UNL     1      69.915 -11.012  32.412  1.00  0.00    -0.365 N 
ATOM     21  H4  UNL     1      70.780 -10.544  32.145  1.00  0.00     0.165 HD
ENDBRANCH   4  15
TORSDOF 5
ENDMDL
MODEL 2
REMARK VINA RESULT: -8.709258955      0.087      1.081
REMARK  5 active torsions:
REMARK  status: ('A' for Active; 'I' for Inactive)
REMARK    1  A    between atoms: N3_4  and  C2_6 
REMARK    2  A    between atoms: C2_6  and  C3_7 
REMARK    3  A    between atoms: C3_7  and  O1_8 
REMARK    4  A    between atoms: O1_8  and  C4_9 
REMARK    5  A    between atoms: C7_12  and  C8_13 
ROOT
HETATM    1  C4  UNL     1      69.243  -5.988  32.900  1.00  0.00     0.068 A 
HETATM    2  C5  UNL     1      69.369  -6.644  31.706  1.00  0.00     0.037 A 
HETATM    3  C6  UNL     1      69.255  -8.028  31.651  1.00  0.00     0.016 A 
HETATM    4  C7  UNL     1      69.011  -8.787  32.772  1.00  0.00    -0.009 A 
HETATM    5  C13 UNL     1      68.890  -8.073  33.969  1.00  0.00     0.016 A 
HETATM    6  C14 UNL     1      69.001  -6.708  34.036  1.00  0.00     0.037 A 
ENDROOT
BRANCH   1   7
HETATM    7  O1  UNL     1      69.369  -4.606  32.881  1.00  0.00    -0.350 OA
BRANCH   7   8
HETATM    8  C3  UNL     1      70.078  -3.877  31.932  1.00  0.00     0.195 C 
BRANCH   8   9
HETATM    9  C2  UNL     1      70.504  -2.564  32.589  1.00  0.00     0.148 C 
BRANCH   9  10
HETATM   10  N3  UNL     1      69.390  -1.828  33.107  1.00  0.00    -0.365 N 
HETATM   11  C1  UNL     1      68.801  -0.854  32.521  1.00  0.00     0.197 C 
HETATM   12  N1  UNL     1      69.261  -0.431  31.246  1.00  0.00    -0.067 NA
HETATM   13  N2  UNL     1      67.714  -0.240  33.177  1.00  0.00    -0.067 NA
ATOM     14  H3  UNL     1      69.035  -2.104  34.022  1.00  0.00     0.161 HD
ENDBRANCH   9  10
ENDBRANCH   8   9
ENDBRANCH   7   8
ENDBRANCH   1   7
BRANCH   4  15
HETATM   15  C8  UNL     1      68.883 -10.234  32.772  1.00  0.00     0.042 A 
HETATM   16  C9  UNL     1      67.716 -10.828  33.148  1.00  0.00     0.030 A 
HETATM   17  C10 UNL     1      67.626 -12.215  33.137  1.00  0.00     0.004 A 
HETATM   18  C11 UNL     1      68.726 -12.929  32.744  1.00  0.00     0.017 A 
HETATM   19  C12 UNL     1      69.885 -12.291  32.372  1.00  0.00     0.088 A 
HETATM   20  N4  UNL     1      69.940 -10.960  32.393  1.00  0.00    -0.365 N 
ATOM     21  H4  UNL     1      70.800 -10.488  32.116  1.00  0.00     0.165 HD
ENDBRANCH   4  15
TORSDOF 5
ENDMDL
MODEL 3
REMARK VINA RESULT: -8.657450438      1.679      8.589
REMARK  5 active torsions:
REMARK  status: ('A' for Active; 'I' for Inactive)
REMARK    1  A    between atoms: N3_4  and  C2_6 
REMARK    2  A    between atoms: C2_6  and  C3_7 
REMARK    3  A    between atoms: C3_7  and  O1_8 
REMARK    4  A    between atoms: O1_8  and  C4_9 
REMARK    5  A    between atoms: C7_12  and  C8_13 
ROOT
HETATM    1  C4  UNL     1      68.589  -7.277  33.051  1.00  0.00     0.068 A 
HETATM    2  C5  UNL     1      69.093  -6.999  31.810  1.00  0.00     0.037 A 
HETATM    3  C6  UNL     1      69.339  -5.685  31.431  1.00  0.00     0.016 A 
HETATM    4  C7  UNL     1      69.093  -4.624  32.272  1.00  0.00    -0.009 A 
HETATM    5  C13 UNL     1      68.578  -4.957  33.529  1.00  0.00     0.016 A 
HETATM    6  C14 UNL     1      68.332  -6.249  33.914  1.00  0.00     0.037 A 
ENDROOT
BRANCH   1   7
HETATM    7  O1  UNL     1      68.368  -8.612  33.361  1.00  0.00    -0.350 OA
BRANCH   7   8
HETATM    8  C3  UNL     1      69.361  -9.561  33.581  1.00  0.00     0.195 C 
BRANCH   8   9
HETATM    9  C2  UNL     1      68.970 -10.820  32.805  1.00  0.00     0.148 C 
BRANCH   9  10
HETATM   10  N3  UNL     1      70.110 -11.568  32.371  1.00  0.00    -0.365 N 
HETATM   11  C1  UNL     1      70.116 -12.812  32.070  1.00  0.00     0.197 C 
HETATM   12  N1  UNL     1      68.911 -13.555  32.164  1.00  0.00    -0.067 NA
HETATM   13  N2  UNL     1      71.335 -13.392  31.658  1.00  0.00    -0.067 NA
ATOM     14  H3  UNL     1      70.994 -11.065  32.294  1.00  0.00     0.161 HD
ENDBRANCH   9  10
ENDBRANCH   8   9
ENDBRANCH   7   8
ENDBRANCH   1   7
BRANCH   4  15
HETATM   15  C8  UNL     1      69.332  -3.232  31.928  1.00  0.00     0.042 A 
HETATM   16  C9  UNL     1      70.567  -2.817  31.533  1.00  0.00     0.030 A 
HETATM   17  C10 UNL     1      70.761  -1.478  31.212  1.00  0.00     0.004 A 
HETATM   18  C11 UNL     1      69.692  -0.629  31.309  1.00  0.00     0.017 A 
HETATM   19  C12 UNL     1      68.461  -1.090  31.712  1.00  0.00     0.088 A 
HETATM   20  N4  UNL     1      68.306  -2.379  32.013  1.00  0.00    -0.365 N 
ATOM     21  H4  UNL     1      67.393  -2.719  32.312  1.00  0.00     0.165 HD
ENDBRANCH   4  15
TORSDOF 5
ENDMDL
MODEL 4
REMARK VINA RESULT: -8.610390577      1.667      8.528
REMARK  5 active torsions:
REMARK  status: ('A' for Active; 'I' for Inactive)
REMARK    1  A    between atoms: N3_4  and  C2_6 
REMARK    2  A    between atoms: C2_6  and  C3_7 
REMARK    3  A    between atoms: C3_7  and  O1_8 
REMARK    4  A    between atoms: O1_8  and  C4_9 
REMARK    5  A    between atoms: C7_12  and  C8_13 
ROOT
HETATM    1  C4  UNL     1      68.600  -7.300  32.964  1.00  0.00     0.068 A 
HETATM    2  C5  UNL     1      68.343  -6.335  33.899  1.00  0.00     0.037 A 
HETATM    3  C6  UNL     1      68.583  -4.997  33.611  1.00  0.00     0.016 A 
HETATM    4  C7  UNL     1      69.080  -4.589  32.395  1.00  0.00    -0.009 A 
HETATM    5  C13 UNL     1      69.327  -5.610  31.470  1.00  0.00     0.016 A 
HETATM    6  C14 UNL     1      69.093  -6.933  31.744  1.00  0.00     0.037 A 
ENDROOT
BRANCH   1   7
HETATM    7  O1  UNL     1      68.335  -8.615  33.320  1.00  0.00    -0.350 OA
BRANCH   7   8
HETATM    8  C3  UNL     1      69.296  -9.579  33.606  1.00  0.00     0.195 C 
BRANCH   8   9
HETATM    9  C2  UNL     1      68.933 -10.835  32.813  1.00  0.00     0.148 C 
BRANCH   9  10
HETATM   10  N3  UNL     1      70.090 -11.561  32.383  1.00  0.00    -0.365 N 
HETATM   11  C1  UNL     1      70.116 -12.798  32.058  1.00  0.00     0.197 C 
HETATM   12  N1  UNL     1      68.918 -13.557  32.116  1.00  0.00    -0.067 NA
HETATM   13  N2  UNL     1      71.348 -13.355  31.654  1.00  0.00    -0.067 NA
ATOM     14  H3  UNL     1      70.969 -11.046  32.332  1.00  0.00     0.161 HD
ENDBRANCH   9  10
ENDBRANCH   8   9
ENDBRANCH   7   8
ENDBRANCH   1   7
BRANCH   4  15
HETATM   15  C8  UNL     1      69.350  -3.206  32.040  1.00  0.00     0.042 A 
HETATM   16  C9  UNL     1      70.606  -2.811  31.694  1.00  0.00     0.030 A 
HETATM   17  C10 UNL     1      70.831  -1.480  31.361  1.00  0.00     0.004 A 
HETATM   18  C11 UNL     1      69.769  -0.618  31.396  1.00  0.00     0.017 A 
HETATM   19  C12 UNL     1      68.516  -1.058  31.751  1.00  0.00     0.088 A 
HETATM   20  N4  UNL     1      68.332  -2.340  32.065  1.00  0.00    -0.365 N 
ATOM     21  H4  UNL     1      67.402  -2.665  32.328  1.00  0.00     0.165 HD
ENDBRANCH   4  15
TORSDOF 5
ENDMDL
MODEL 5
REMARK VINA RESULT: -8.597914766      1.951      8.360
REMARK  5 active torsions:
REMARK  status: ('A' for Active; 'I' for Inactive)
REMARK    1  A    between atoms: N3_4  and  C2_6 
REMARK    2  A    between atoms: C2_6  and  C3_7 
REMARK    3  A    between atoms: C3_7  and  O1_8 
REMARK    4  A    between atoms: O1_8  and  C4_9 
REMARK    5  A    between atoms: C7_12  and  C8_13 
ROOT
HETATM    1  C4  UNL     1      69.052  -8.650  33.005  1.00  0.00     0.068 A 
HETATM    2  C5  UNL     1      68.947  -7.728  34.011  1.00  0.00     0.037 A 
HETATM    3  C6  UNL     1      69.040  -6.370  33.731  1.00  0.00     0.016 A 
HETATM    4  C7  UNL     1      69.236  -5.899  32.454  1.00  0.00    -0.009 A 
HETATM    5  C13 UNL     1      69.337  -6.877  31.458  1.00  0.00     0.016 A 
HETATM    6  C14 UNL     1      69.247  -8.219  31.723  1.00  0.00     0.037 A 
ENDROOT
BRANCH   1   7
HETATM    7  O1  UNL     1      68.949  -9.988  33.357  1.00  0.00    -0.350 OA
BRANCH   7   8
HETATM    8  C3  UNL     1      67.809 -10.772  33.214  1.00  0.00     0.195 C 
BRANCH   8   9
HETATM    9  C2  UNL     1      68.268 -12.181  32.838  1.00  0.00     0.148 C 
BRANCH   9  10
HETATM   10  N3  UNL     1      69.561 -12.187  32.224  1.00  0.00    -0.365 N 
HETATM   11  C1  UNL     1      70.289 -13.221  32.026  1.00  0.00     0.197 C 
HETATM   12  N1  UNL     1      69.813 -14.494  32.439  1.00  0.00    -0.067 NA
HETATM   13  N2  UNL     1      71.542 -13.045  31.403  1.00  0.00    -0.067 NA
ATOM     14  H3  UNL     1      69.934 -11.289  31.916  1.00  0.00     0.161 HD
ENDBRANCH   9  10
ENDBRANCH   8   9
ENDBRANCH   7   8
ENDBRANCH   1   7
BRANCH   4  15
HETATM   15  C8  UNL     1      69.340  -4.492  32.104  1.00  0.00     0.042 A 
HETATM   16  C9  UNL     1      70.556  -3.920  31.884  1.00  0.00     0.030 A 
HETATM   17  C10 UNL     1      70.621  -2.571  31.552  1.00  0.00     0.004 A 
HETATM   18  C11 UNL     1      69.448  -1.872  31.462  1.00  0.00     0.017 A 
HETATM   19  C12 UNL     1      68.241  -2.488  31.692  1.00  0.00     0.088 A 
HETATM   20  N4  UNL     1      68.211  -3.783  32.008  1.00  0.00    -0.365 N 
ATOM     21  H4  UNL     1      67.315  -4.238  32.179  1.00  0.00     0.165 HD
ENDBRANCH   4  15
TORSDOF 5
ENDMDL
