MODEL 1
REMARK VINA RESULT: -6.930196509      0.000      0.000
REMARK  4 active torsions:
REMARK  status: ('A' for Active; 'I' for Inactive)
REMARK    1  A    between atoms: N1_2  and  C2_5 
REMARK    2  A    between atoms: C2_5  and  C3_6 
REMARK    3  A    between atoms: C3_6  and  C4_7 
REMARK    4  A    between atoms: N2_10  and  C7_11 
ROOT
HETATM    1  C7  UNL     1      -4.779   6.088  10.807  1.00  0.00     0.103 C 
HETATM    2  N3  UNL     1      -4.951   4.892  11.215  1.00  0.00    -0.323 N 
ATOM      3  H3  UNL     1      -5.399   4.158  10.666  1.00  0.00     0.166 HD
HETATM    4  C8  UNL     1      -4.427   4.704  12.561  1.00  0.00     0.253 C 
HETATM    5  C9  UNL     1      -3.557   3.445  12.455  1.00  0.00     0.134 C 
HETATM    6  C10 UNL     1      -4.408   2.226  12.513  1.00  0.00     0.090 A 
HETATM    7  C11 UNL     1      -5.195   1.853  11.289  1.00  0.00     0.049 C 
HETATM    8  O1  UNL     1      -3.679   1.048  13.064  1.00  0.00    -0.369 OA
HETATM    9  C12 UNL     1      -4.733   1.647  13.753  1.00  0.00     0.157 A 
HETATM   10  C13 UNL     1      -4.343   2.352  15.009  1.00  0.00     0.038 C 
HETATM   11  C14 UNL     1      -5.362   3.339  15.488  1.00  0.00     0.040 C 
HETATM   12  C15 UNL     1      -5.304   4.671  14.725  1.00  0.00     0.059 C 
HETATM   13  C16 UNL     1      -4.094   5.392  15.222  1.00  0.00     0.045 C 
HETATM   14  C17 UNL     1      -6.512   5.456  15.270  1.00  0.00     0.045 C 
HETATM   15  O2  UNL     1      -5.467   4.564  13.401  1.00  0.00    -0.328 OA
HETATM   16  O3  UNL     1      -3.649   5.830  12.714  1.00  0.00    -0.331 OA
HETATM   17  C18 UNL     1      -4.109   6.824  11.887  1.00  0.00     0.249 C 
ENDROOT
BRANCH   1  18
HETATM   18  N2  UNL     1      -5.170   6.628   9.528  1.00  0.00    -0.369 N 
HETATM   19  C6  UNL     1      -6.348   7.437   9.417  1.00  0.00     0.124 C 
HETATM   20  C5  UNL     1      -7.075   7.102   8.155  1.00  0.00     0.024 C 
HETATM   21  C4  UNL     1      -6.196   7.250   6.955  1.00  0.00    -0.010 C 
HETATM   22  C20 UNL     1      -4.947   6.402   7.057  1.00  0.00     0.024 C 
HETATM   23  C19 UNL     1      -4.355   6.347   8.410  1.00  0.00     0.124 C 
BRANCH  21  24
HETATM   24  C3  UNL     1      -5.873   8.677   6.618  1.00  0.00     0.032 C 
BRANCH  24  25
HETATM   25  C2  UNL     1      -7.083   9.561   6.786  1.00  0.00     0.232 C 
BRANCH  25  26
HETATM   26  N1  UNL     1      -7.879   9.586   5.560  1.00  0.00    -0.079 N 
HETATM   27  C1  UNL     1      -9.188  10.122   5.918  1.00  0.00     0.266 C 
ATOM     28  H12 UNL     1      -7.930   8.680   5.094  1.00  0.00     0.276 HD
ATOM     29  H11 UNL     1      -7.431  10.095   4.799  1.00  0.00     0.276 HD
ENDBRANCH  25  26
ENDBRANCH  24  25
ENDBRANCH  21  24
ENDBRANCH   1  18
TORSDOF 4
ENDMDL
MODEL 2
REMARK VINA RESULT: -6.733972538      4.205      8.391
REMARK  4 active torsions:
REMARK  status: ('A' for Active; 'I' for Inactive)
REMARK    1  A    between atoms: N1_2  and  C2_5 
REMARK    2  A    between atoms: C2_5  and  C3_6 
REMARK    3  A    between atoms: C3_6  and  C4_7 
REMARK    4  A    between atoms: N2_10  and  C7_11 
ROOT
HETATM    1  C7  UNL     1      -3.258   5.985  13.377  1.00  0.00     0.103 C 
HETATM    2  N3  UNL     1      -2.687   7.015  13.868  1.00  0.00    -0.323 N 
ATOM      3  H3  UNL     1      -2.726   7.278  14.852  1.00  0.00     0.166 HD
HETATM    4  C8  UNL     1      -1.972   7.768  12.847  1.00  0.00     0.253 C 
HETATM    5  C9  UNL     1      -0.577   7.985  13.447  1.00  0.00     0.134 C 
HETATM    6  C10 UNL     1      -0.600   9.123  14.405  1.00  0.00     0.090 A 
HETATM    7  C11 UNL     1      -1.208   8.894  15.760  1.00  0.00     0.049 C 
HETATM    8  O1  UNL     1       0.723   9.802  14.515  1.00  0.00    -0.369 OA
HETATM    9  C12 UNL     1      -0.383  10.436  13.952  1.00  0.00     0.157 A 
HETATM   10  C13 UNL     1      -0.281  10.691  12.485  1.00  0.00     0.038 C 
HETATM   11  C14 UNL     1      -1.600  10.950  11.825  1.00  0.00     0.040 C 
HETATM   12  C15 UNL     1      -2.386   9.660  11.543  1.00  0.00     0.059 C 
HETATM   13  C16 UNL     1      -1.720   9.001  10.381  1.00  0.00     0.045 C 
HETATM   14  C17 UNL     1      -3.742  10.169  11.015  1.00  0.00     0.045 C 
HETATM   15  O2  UNL     1      -2.640   8.913  12.624  1.00  0.00    -0.328 OA
HETATM   16  O3  UNL     1      -1.928   6.860  11.812  1.00  0.00    -0.331 OA
HETATM   17  C18 UNL     1      -2.965   5.969  11.938  1.00  0.00     0.249 C 
ENDROOT
BRANCH   1  18
HETATM   18  N2  UNL     1      -4.048   5.013  14.093  1.00  0.00    -0.369 N 
HETATM   19  C6  UNL     1      -3.792   3.613  13.926  1.00  0.00     0.124 C 
HETATM   20  C5  UNL     1      -5.084   2.864  13.882  1.00  0.00     0.024 C 
HETATM   21  C4  UNL     1      -5.917   3.125  15.094  1.00  0.00    -0.010 C 
HETATM   22  C20 UNL     1      -6.197   4.600  15.283  1.00  0.00     0.024 C 
HETATM   23  C19 UNL     1      -5.058   5.485  14.959  1.00  0.00     0.124 C 
BRANCH  21  24
HETATM   24  C3  UNL     1      -5.374   2.498  16.345  1.00  0.00     0.032 C 
BRANCH  24  25
HETATM   25  C2  UNL     1      -5.208   1.009  16.176  1.00  0.00     0.232 C 
BRANCH  25  26
HETATM   26  N1  UNL     1      -5.869   0.288  17.263  1.00  0.00    -0.079 N 
HETATM   27  C1  UNL     1      -7.182   0.897  17.436  1.00  0.00     0.266 C 
ATOM     28  H12 UNL     1      -5.320   0.265  18.122  1.00  0.00     0.276 HD
ATOM     29  H11 UNL     1      -5.909  -0.720  17.111  1.00  0.00     0.276 HD
ENDBRANCH  25  26
ENDBRANCH  24  25
ENDBRANCH  21  24
ENDBRANCH   1  18
TORSDOF 4
ENDMDL
MODEL 3
REMARK VINA RESULT: -6.709099965      2.597      8.135
REMARK  4 active torsions:
REMARK  status: ('A' for Active; 'I' for Inactive)
REMARK    1  A    between atoms: N1_2  and  C2_5 
REMARK    2  A    between atoms: C2_5  and  C3_6 
REMARK    3  A    between atoms: C3_6  and  C4_7 
REMARK    4  A    between atoms: N2_10  and  C7_11 
ROOT
HETATM    1  C7  UNL     1      -4.630   5.955  11.618  1.00  0.00     0.103 C 
HETATM    2  N3  UNL     1      -5.504   6.401  10.804  1.00  0.00    -0.323 N 
ATOM      3  H3  UNL     1      -6.510   6.282  10.920  1.00  0.00     0.166 HD
HETATM    4  C8  UNL     1      -4.885   7.104   9.688  1.00  0.00     0.253 C 
HETATM    5  C9  UNL     1      -5.641   8.437   9.617  1.00  0.00     0.134 C 
HETATM    6  C10 UNL     1      -6.937   8.257   8.909  1.00  0.00     0.090 A 
HETATM    7  C11 UNL     1      -8.063   7.594   9.653  1.00  0.00     0.049 C 
HETATM    8  O1  UNL     1      -7.397   9.504   8.235  1.00  0.00    -0.369 OA
HETATM    9  C12 UNL     1      -7.005   8.381   7.510  1.00  0.00     0.157 A 
HETATM   10  C13 UNL     1      -5.741   8.544   6.733  1.00  0.00     0.038 C 
HETATM   11  C14 UNL     1      -5.106   7.247   6.336  1.00  0.00     0.040 C 
HETATM   12  C15 UNL     1      -4.315   6.597   7.481  1.00  0.00     0.059 C 
HETATM   13  C16 UNL     1      -3.056   7.387   7.629  1.00  0.00     0.045 C 
HETATM   14  C17 UNL     1      -3.888   5.235   6.902  1.00  0.00     0.045 C 
HETATM   15  O2  UNL     1      -5.030   6.350   8.585  1.00  0.00    -0.328 OA
HETATM   16  O3  UNL     1      -3.602   7.288  10.154  1.00  0.00    -0.331 OA
HETATM   17  C18 UNL     1      -3.311   6.330  11.092  1.00  0.00     0.249 C 
ENDROOT
BRANCH   1  18
HETATM   18  N2  UNL     1      -4.879   5.214  12.832  1.00  0.00    -0.369 N 
HETATM   19  C6  UNL     1      -5.781   5.731  13.818  1.00  0.00     0.124 C 
HETATM   20  C5  UNL     1      -5.239   5.470  15.186  1.00  0.00     0.024 C 
HETATM   21  C4  UNL     1      -4.966   4.018  15.404  1.00  0.00    -0.010 C 
HETATM   22  C20 UNL     1      -4.014   3.457  14.370  1.00  0.00     0.024 C 
HETATM   23  C19 UNL     1      -4.223   3.977  13.002  1.00  0.00     0.124 C 
BRANCH  21  24
HETATM   24  C3  UNL     1      -6.208   3.182  15.527  1.00  0.00     0.032 C 
BRANCH  24  25
HETATM   25  C2  UNL     1      -6.900   3.433  16.843  1.00  0.00     0.232 C 
BRANCH  25  26
HETATM   26  N1  UNL     1      -6.685   2.316  17.761  1.00  0.00    -0.079 N 
HETATM   27  C1  UNL     1      -7.369   1.162  17.188  1.00  0.00     0.266 C 
ATOM     28  H12 UNL     1      -6.973   2.520  18.718  1.00  0.00     0.276 HD
ATOM     29  H11 UNL     1      -5.700   2.142  17.959  1.00  0.00     0.276 HD
ENDBRANCH  25  26
ENDBRANCH  24  25
ENDBRANCH  21  24
ENDBRANCH   1  18
TORSDOF 4
ENDMDL
MODEL 4
REMARK VINA RESULT: -6.703569032      2.706      8.233
REMARK  4 active torsions:
REMARK  status: ('A' for Active; 'I' for Inactive)
REMARK    1  A    between atoms: N1_2  and  C2_5 
REMARK    2  A    between atoms: C2_5  and  C3_6 
REMARK    3  A    between atoms: C3_6  and  C4_7 
REMARK    4  A    between atoms: N2_10  and  C7_11 
ROOT
HETATM    1  C7  UNL     1      -4.148   5.008  12.455  1.00  0.00     0.103 C 
HETATM    2  N3  UNL     1      -4.930   5.850  11.901  1.00  0.00    -0.323 N 
ATOM      3  H3  UNL     1      -5.927   5.924  12.103  1.00  0.00     0.166 HD
HETATM    4  C8  UNL     1      -4.222   6.691  10.946  1.00  0.00     0.253 C 
HETATM    5  C9  UNL     1      -4.633   8.119  11.324  1.00  0.00     0.134 C 
HETATM    6  C10 UNL     1      -5.971   8.437  10.757  1.00  0.00     0.090 A 
HETATM    7  C11 UNL     1      -7.181   7.851  11.428  1.00  0.00     0.049 C 
HETATM    8  O1  UNL     1      -6.150   9.895  10.500  1.00  0.00    -0.369 OA
HETATM    9  C12 UNL     1      -6.083   8.969   9.460  1.00  0.00     0.157 A 
HETATM   10  C13 UNL     1      -4.862   9.068   8.607  1.00  0.00     0.038 C 
HETATM   11  C14 UNL     1      -4.585   7.835   7.805  1.00  0.00     0.040 C 
HETATM   12  C15 UNL     1      -3.914   6.727   8.631  1.00  0.00     0.059 C 
HETATM   13  C16 UNL     1      -2.495   7.146   8.830  1.00  0.00     0.045 C 
HETATM   14  C17 UNL     1      -3.865   5.530   7.663  1.00  0.00     0.045 C 
HETATM   15  O2  UNL     1      -4.607   6.336   9.708  1.00  0.00    -0.328 OA
HETATM   16  O3  UNL     1      -2.909   6.449  11.284  1.00  0.00    -0.331 OA
HETATM   17  C18 UNL     1      -2.808   5.222  11.891  1.00  0.00     0.249 C 
ENDROOT
BRANCH   1  18
HETATM   18  N2  UNL     1      -4.503   4.024  13.449  1.00  0.00    -0.369 N 
HETATM   19  C6  UNL     1      -4.521   4.377  14.837  1.00  0.00     0.124 C 
HETATM   20  C5  UNL     1      -3.966   3.254  15.652  1.00  0.00     0.024 C 
HETATM   21  C4  UNL     1      -4.699   1.976  15.404  1.00  0.00    -0.010 C 
HETATM   22  C20 UNL     1      -4.689   1.590  13.941  1.00  0.00     0.024 C 
HETATM   23  C19 UNL     1      -4.839   2.726  13.008  1.00  0.00     0.124 C 
BRANCH  21  24
HETATM   24  C3  UNL     1      -6.088   1.958  15.974  1.00  0.00     0.032 C 
BRANCH  24  25
HETATM   25  C2  UNL     1      -6.286   0.769  16.879  1.00  0.00     0.232 C 
BRANCH  25  26
HETATM   26  N1  UNL     1      -5.839   1.073  18.238  1.00  0.00    -0.079 N 
HETATM   27  C1  UNL     1      -6.489   2.320  18.626  1.00  0.00     0.266 C 
ATOM     28  H12 UNL     1      -4.824   1.103  18.330  1.00  0.00     0.276 HD
ATOM     29  H11 UNL     1      -6.005   0.312  18.896  1.00  0.00     0.276 HD
ENDBRANCH  25  26
ENDBRANCH  24  25
ENDBRANCH  21  24
ENDBRANCH   1  18
TORSDOF 4
ENDMDL
MODEL 5
REMARK VINA RESULT: -6.695829381      1.722      2.057
REMARK  4 active torsions:
REMARK  status: ('A' for Active; 'I' for Inactive)
REMARK    1  A    between atoms: N1_2  and  C2_5 
REMARK    2  A    between atoms: C2_5  and  C3_6 
REMARK    3  A    between atoms: C3_6  and  C4_7 
REMARK    4  A    between atoms: N2_10  and  C7_11 
ROOT
HETATM    1  C7  UNL     1      -4.207   5.639  10.672  1.00  0.00     0.103 C 
HETATM    2  N3  UNL     1      -4.537   4.499  11.139  1.00  0.00    -0.323 N 
ATOM      3  H3  UNL     1      -4.995   3.768  10.595  1.00  0.00     0.166 HD
HETATM    4  C8  UNL     1      -4.177   4.371  12.544  1.00  0.00     0.253 C 
HETATM    5  C9  UNL     1      -3.430   3.034  12.622  1.00  0.00     0.134 C 
HETATM    6  C10 UNL     1      -4.398   1.905  12.668  1.00  0.00     0.090 A 
HETATM    7  C11 UNL     1      -5.086   1.510  11.392  1.00  0.00     0.049 C 
HETATM    8  O1  UNL     1      -3.850   0.713  13.376  1.00  0.00    -0.369 OA
HETATM    9  C12 UNL     1      -4.905   1.456  13.900  1.00  0.00     0.157 A 
HETATM   10  C13 UNL     1      -4.581   2.220  15.141  1.00  0.00     0.038 C 
HETATM   11  C14 UNL     1      -5.542   3.330  15.435  1.00  0.00     0.040 C 
HETATM   12  C15 UNL     1      -5.274   4.587  14.595  1.00  0.00     0.059 C 
HETATM   13  C16 UNL     1      -4.058   5.233  15.173  1.00  0.00     0.045 C 
HETATM   14  C17 UNL     1      -6.450   5.518  14.947  1.00  0.00     0.045 C 
HETATM   15  O2  UNL     1      -5.308   4.392  13.271  1.00  0.00    -0.328 OA
HETATM   16  O3  UNL     1      -3.312   5.430  12.706  1.00  0.00    -0.331 OA
HETATM   17  C18 UNL     1      -3.584   6.394  11.767  1.00  0.00     0.249 C 
ENDROOT
BRANCH   1  18
HETATM   18  N2  UNL     1      -4.407   6.111   9.323  1.00  0.00    -0.369 N 
HETATM   19  C6  UNL     1      -5.419   7.086   9.044  1.00  0.00     0.124 C 
HETATM   20  C5  UNL     1      -6.100   6.755   7.756  1.00  0.00     0.024 C 
HETATM   21  C4  UNL     1      -5.125   6.642   6.629  1.00  0.00    -0.010 C 
HETATM   22  C20 UNL     1      -4.050   5.614   6.909  1.00  0.00     0.024 C 
HETATM   23  C19 UNL     1      -3.574   5.594   8.308  1.00  0.00     0.124 C 
BRANCH  21  24
HETATM   24  C3  UNL     1      -4.539   7.957   6.204  1.00  0.00     0.032 C 
BRANCH  24  25
HETATM   25  C2  UNL     1      -3.189   7.765   5.561  1.00  0.00     0.232 C 
BRANCH  25  26
HETATM   26  N1  UNL     1      -2.255   8.801   6.000  1.00  0.00    -0.079 N 
HETATM   27  C1  UNL     1      -2.703   9.242   7.316  1.00  0.00     0.266 C 
ATOM     28  H12 UNL     1      -2.159   9.565   5.331  1.00  0.00     0.276 HD
ATOM     29  H11 UNL     1      -1.282   8.497   5.988  1.00  0.00     0.276 HD
ENDBRANCH  25  26
ENDBRANCH  24  25
ENDBRANCH  21  24
ENDBRANCH   1  18
TORSDOF 4
ENDMDL
