MODEL 1
REMARK VINA RESULT: -8.198305350      0.000      0.000
REMARK  4 active torsions:
REMARK  status: ('A' for Active; 'I' for Inactive)
REMARK    1  A    between atoms: O1_2  and  C2_3 
REMARK    2  A    between atoms: C4_5  and  C5_6 
REMARK    3  A    between atoms: C8_9  and  C9_10 
REMARK    4  A    between atoms: C9_10  and  O2_11 
ROOT
HETATM    1  C5  UNL     1      -3.870   5.423  14.495  1.00  0.00     0.056 C 
HETATM    2  C6  UNL     1      -4.947   5.976  13.598  1.00  0.00     0.015 C 
HETATM    3  C7  UNL     1      -4.576   6.131  12.166  1.00  0.00     0.041 C 
HETATM    4  C8  UNL     1      -3.109   6.543  11.975  1.00  0.00     0.085 C 
HETATM    5  C10 UNL     1      -2.973   7.961  12.326  1.00  0.00     0.072 C 
HETATM    6  C11 UNL     1      -1.736   8.395  13.009  1.00  0.00     0.125 C 
HETATM    7  C12 UNL     1      -2.080   9.129  14.318  1.00  0.00     0.034 C 
HETATM    8  C13 UNL     1      -2.461   7.900  15.162  1.00  0.00     0.037 C 
HETATM    9  C14 UNL     1      -1.731   6.785  14.559  1.00  0.00     0.157 C 
HETATM   10  O3  UNL     1      -0.953   7.375  13.529  1.00  0.00    -0.377 OA
HETATM   11  C15 UNL     1      -2.477   5.625  14.011  1.00  0.00     0.092 C 
HETATM   12  C16 UNL     1      -1.680   4.370  14.434  1.00  0.00     0.049 C 
HETATM   13  O4  UNL     1      -2.360   5.630  12.621  1.00  0.00    -0.364 OA
ENDROOT
BRANCH   1  14
HETATM   14  C4  UNL     1      -4.235   4.005  14.754  1.00  0.00    -0.045 A 
HETATM   15  C3  UNL     1      -4.367   3.102  13.724  1.00  0.00     0.047 A 
HETATM   16  C2  UNL     1      -4.705   1.802  13.972  1.00  0.00     0.104 A 
HETATM   17  C19 UNL     1      -4.926   1.354  15.262  1.00  0.00     0.138 A 
HETATM   18  C18 UNL     1      -4.801   2.240  16.310  1.00  0.00     0.108 A 
HETATM   19  O5  UNL     1      -5.279   0.106  15.810  1.00  0.00    -0.320 OA
HETATM   20  C17 UNL     1      -4.459   3.536  16.026  1.00  0.00     0.047 A 
HETATM   21  O6  UNL     1      -5.081   1.512  17.480  1.00  0.00    -0.323 OA
HETATM   22  C20 UNL     1      -5.839   0.351  17.110  1.00  0.00     0.352 C 
BRANCH  16  23
HETATM   23  O1  UNL     1      -4.848   0.851  12.942  1.00  0.00    -0.353 OA
HETATM   24  C1  UNL     1      -5.080   1.360  11.643  1.00  0.00     0.210 C 
ENDBRANCH  16  23
ENDBRANCH   1  14
BRANCH   4  25
HETATM   25  C9  UNL     1      -2.851   6.346  10.472  1.00  0.00     0.202 C 
BRANCH  25  26
HETATM   26  O2  UNL     1      -1.541   5.880  10.272  1.00  0.00    -0.398 OA
ATOM     27  H2  UNL     1      -1.093   6.440   9.647  1.00  0.00     0.209 HD
ENDBRANCH  25  26
ENDBRANCH   4  25
TORSDOF 4
ENDMDL
MODEL 2
REMARK VINA RESULT: -8.074594490      0.678      2.180
REMARK  4 active torsions:
REMARK  status: ('A' for Active; 'I' for Inactive)
REMARK    1  A    between atoms: O1_2  and  C2_3 
REMARK    2  A    between atoms: C4_5  and  C5_6 
REMARK    3  A    between atoms: C8_9  and  C9_10 
REMARK    4  A    between atoms: C9_10  and  O2_11 
ROOT
HETATM    1  C5  UNL     1      -3.806   5.412  14.376  1.00  0.00     0.056 C 
HETATM    2  C6  UNL     1      -4.938   5.986  13.565  1.00  0.00     0.015 C 
HETATM    3  C7  UNL     1      -4.622   6.295  12.145  1.00  0.00     0.041 C 
HETATM    4  C8  UNL     1      -3.187   6.806  11.955  1.00  0.00     0.085 C 
HETATM    5  C10 UNL     1      -3.115   8.189  12.436  1.00  0.00     0.072 C 
HETATM    6  C11 UNL     1      -1.883   8.626  13.125  1.00  0.00     0.125 C 
HETATM    7  C12 UNL     1      -2.224   9.214  14.507  1.00  0.00     0.034 C 
HETATM    8  C13 UNL     1      -2.511   7.891  15.239  1.00  0.00     0.037 C 
HETATM    9  C14 UNL     1      -1.742   6.880  14.514  1.00  0.00     0.157 C 
HETATM   10  O3  UNL     1      -1.030   7.608  13.525  1.00  0.00    -0.377 OA
HETATM   11  C15 UNL     1      -2.441   5.737  13.877  1.00  0.00     0.092 C 
HETATM   12  C16 UNL     1      -1.566   4.495  14.156  1.00  0.00     0.049 C 
HETATM   13  O4  UNL     1      -2.369   5.879  12.492  1.00  0.00    -0.364 OA
ENDROOT
BRANCH   1  14
HETATM   14  C4  UNL     1      -4.086   3.957  14.508  1.00  0.00    -0.045 A 
HETATM   15  C3  UNL     1      -4.208   3.363  15.743  1.00  0.00     0.047 A 
HETATM   16  C2  UNL     1      -4.462   2.025  15.853  1.00  0.00     0.104 A 
HETATM   17  C19 UNL     1      -4.603   1.229  14.732  1.00  0.00     0.138 A 
HETATM   18  C18 UNL     1      -4.485   1.802  13.484  1.00  0.00     0.108 A 
HETATM   19  O5  UNL     1      -4.861  -0.142  14.539  1.00  0.00    -0.320 OA
HETATM   20  C17 UNL     1      -4.230   3.146  13.409  1.00  0.00     0.047 A 
HETATM   21  O6  UNL     1      -4.672   0.766  12.553  1.00  0.00    -0.323 OA
HETATM   22  C20 UNL     1      -4.414  -0.480  13.217  1.00  0.00     0.352 C 
BRANCH  16  23
HETATM   23  O1  UNL     1      -4.594   1.384  17.102  1.00  0.00    -0.353 OA
HETATM   24  C1  UNL     1      -5.904   1.287  17.624  1.00  0.00     0.210 C 
ENDBRANCH  16  23
ENDBRANCH   1  14
BRANCH   4  25
HETATM   25  C9  UNL     1      -2.966   6.765  10.434  1.00  0.00     0.202 C 
BRANCH  25  26
HETATM   26  O2  UNL     1      -1.667   6.307  10.154  1.00  0.00    -0.398 OA
ATOM     27  H2  UNL     1      -1.184   6.978   9.686  1.00  0.00     0.209 HD
ENDBRANCH  25  26
ENDBRANCH   4  25
TORSDOF 4
ENDMDL
MODEL 3
REMARK VINA RESULT: -8.009362895      1.332      1.393
REMARK  4 active torsions:
REMARK  status: ('A' for Active; 'I' for Inactive)
REMARK    1  A    between atoms: O1_2  and  C2_3 
REMARK    2  A    between atoms: C4_5  and  C5_6 
REMARK    3  A    between atoms: C8_9  and  C9_10 
REMARK    4  A    between atoms: C9_10  and  O2_11 
ROOT
HETATM    1  C5  UNL     1      -4.158   5.024  14.035  1.00  0.00     0.056 C 
HETATM    2  C6  UNL     1      -4.895   5.191  12.731  1.00  0.00     0.015 C 
HETATM    3  C7  UNL     1      -4.128   4.841  11.507  1.00  0.00     0.041 C 
HETATM    4  C8  UNL     1      -2.640   5.204  11.616  1.00  0.00     0.085 C 
HETATM    5  C10 UNL     1      -2.501   6.657  11.477  1.00  0.00     0.072 C 
HETATM    6  C11 UNL     1      -1.477   7.342  12.293  1.00  0.00     0.125 C 
HETATM    7  C12 UNL     1      -2.118   8.481  13.107  1.00  0.00     0.034 C 
HETATM    8  C13 UNL     1      -2.810   7.618  14.177  1.00  0.00     0.037 C 
HETATM    9  C14 UNL     1      -2.026   6.384  14.237  1.00  0.00     0.157 C 
HETATM   10  O3  UNL     1      -0.949   6.596  13.337  1.00  0.00    -0.377 OA
HETATM   11  C15 UNL     1      -2.673   5.084  13.935  1.00  0.00     0.092 C 
HETATM   12  C16 UNL     1      -2.123   4.084  14.976  1.00  0.00     0.049 C 
HETATM   13  O4  UNL     1      -2.172   4.601  12.726  1.00  0.00    -0.364 OA
ENDROOT
BRANCH   1  14
HETATM   14  C4  UNL     1      -4.685   3.778  14.653  1.00  0.00    -0.045 A 
HETATM   15  C3  UNL     1      -4.324   2.537  14.179  1.00  0.00     0.047 A 
HETATM   16  C2  UNL     1      -4.817   1.400  14.751  1.00  0.00     0.104 A 
HETATM   17  C19 UNL     1      -5.692   1.457  15.821  1.00  0.00     0.138 A 
HETATM   18  C18 UNL     1      -6.069   2.689  16.312  1.00  0.00     0.108 A 
HETATM   19  O5  UNL     1      -6.347   0.480  16.594  1.00  0.00    -0.320 OA
HETATM   20  C17 UNL     1      -5.555   3.810  15.715  1.00  0.00     0.047 A 
HETATM   21  O6  UNL     1      -6.949   2.437  17.378  1.00  0.00    -0.323 OA
HETATM   22  C20 UNL     1      -7.478   1.112  17.215  1.00  0.00     0.352 C 
BRANCH  16  23
HETATM   23  O1  UNL     1      -4.467   0.114  14.292  1.00  0.00    -0.353 OA
HETATM   24  C1  UNL     1      -4.310  -0.035  12.895  1.00  0.00     0.210 C 
ENDBRANCH  16  23
ENDBRANCH   1  14
BRANCH   4  25
HETATM   25  C9  UNL     1      -1.986   4.495  10.418  1.00  0.00     0.202 C 
BRANCH  25  26
HETATM   26  O2  UNL     1      -2.752   3.376  10.051  1.00  0.00    -0.398 OA
ATOM     27  H2  UNL     1      -2.683   2.706  10.721  1.00  0.00     0.209 HD
ENDBRANCH  25  26
ENDBRANCH   4  25
TORSDOF 4
ENDMDL
MODEL 4
REMARK VINA RESULT: -7.858572777      1.732      6.569
REMARK  4 active torsions:
REMARK  status: ('A' for Active; 'I' for Inactive)
REMARK    1  A    between atoms: O1_2  and  C2_3 
REMARK    2  A    between atoms: C4_5  and  C5_6 
REMARK    3  A    between atoms: C8_9  and  C9_10 
REMARK    4  A    between atoms: C9_10  and  O2_11 
ROOT
HETATM    1  C5  UNL     1      -3.967   5.409  12.952  1.00  0.00     0.056 C 
HETATM    2  C6  UNL     1      -5.234   5.447  13.766  1.00  0.00     0.015 C 
HETATM    3  C7  UNL     1      -5.241   4.599  14.987  1.00  0.00     0.041 C 
HETATM    4  C8  UNL     1      -4.470   3.284  14.801  1.00  0.00     0.085 C 
HETATM    5  C10 UNL     1      -5.280   2.380  13.978  1.00  0.00     0.072 C 
HETATM    6  C11 UNL     1      -4.585   1.509  13.007  1.00  0.00     0.125 C 
HETATM    7  C12 UNL     1      -5.171   1.710  11.597  1.00  0.00     0.034 C 
HETATM    8  C13 UNL     1      -4.520   3.069  11.284  1.00  0.00     0.037 C 
HETATM    9  C14 UNL     1      -3.311   3.109  12.105  1.00  0.00     0.157 C 
HETATM   10  O3  UNL     1      -3.265   1.843  12.744  1.00  0.00    -0.377 OA
HETATM   11  C15 UNL     1      -3.144   4.180  13.119  1.00  0.00     0.092 C 
HETATM   12  C16 UNL     1      -1.667   4.626  13.025  1.00  0.00     0.049 C 
HETATM   13  O4  UNL     1      -3.231   3.614  14.391  1.00  0.00    -0.364 OA
ENDROOT
BRANCH   1  14
HETATM   14  C4  UNL     1      -3.249   6.678  13.243  1.00  0.00    -0.045 A 
HETATM   15  C3  UNL     1      -3.041   7.623  12.264  1.00  0.00     0.047 A 
HETATM   16  C2  UNL     1      -2.378   8.784  12.541  1.00  0.00     0.104 A 
HETATM   17  C19 UNL     1      -1.895   9.047  13.810  1.00  0.00     0.138 A 
HETATM   18  C18 UNL     1      -2.091   8.116  14.808  1.00  0.00     0.108 A 
HETATM   19  O5  UNL     1      -1.192  10.126  14.379  1.00  0.00    -0.320 OA
HETATM   20  C17 UNL     1      -2.761   6.962  14.496  1.00  0.00     0.047 A 
HETATM   21  O6  UNL     1      -1.501   8.648  15.967  1.00  0.00    -0.323 OA
HETATM   22  C20 UNL     1      -0.545   9.639  15.565  1.00  0.00     0.352 C 
BRANCH  16  23
HETATM   23  O1  UNL     1      -2.149   9.772  11.563  1.00  0.00    -0.353 OA
HETATM   24  C1  UNL     1      -3.280  10.497  11.123  1.00  0.00     0.210 C 
ENDBRANCH  16  23
ENDBRANCH   1  14
BRANCH   4  25
HETATM   25  C9  UNL     1      -4.331   2.719  16.224  1.00  0.00     0.202 C 
BRANCH  25  26
HETATM   26  O2  UNL     1      -3.569   1.539  16.194  1.00  0.00    -0.398 OA
ATOM     27  H2  UNL     1      -3.123   1.423  17.026  1.00  0.00     0.209 HD
ENDBRANCH  25  26
ENDBRANCH   4  25
TORSDOF 4
ENDMDL
MODEL 5
REMARK VINA RESULT: -7.321912507      2.459      3.500
REMARK  4 active torsions:
REMARK  status: ('A' for Active; 'I' for Inactive)
REMARK    1  A    between atoms: O1_2  and  C2_3 
REMARK    2  A    between atoms: C4_5  and  C5_6 
REMARK    3  A    between atoms: C8_9  and  C9_10 
REMARK    4  A    between atoms: C9_10  and  O2_11 
ROOT
HETATM    1  C5  UNL     1      -3.923   4.602  12.464  1.00  0.00     0.056 C 
HETATM    2  C6  UNL     1      -4.235   6.014  12.889  1.00  0.00     0.015 C 
HETATM    3  C7  UNL     1      -5.347   6.676  12.157  1.00  0.00     0.041 C 
HETATM    4  C8  UNL     1      -5.407   6.273  10.677  1.00  0.00     0.085 C 
HETATM    5  C10 UNL     1      -4.322   6.955   9.963  1.00  0.00     0.072 C 
HETATM    6  C11 UNL     1      -3.635   6.226   8.876  1.00  0.00     0.125 C 
HETATM    7  C12 UNL     1      -2.116   6.204   9.127  1.00  0.00     0.034 C 
HETATM    8  C13 UNL     1      -2.097   5.144  10.243  1.00  0.00     0.037 C 
HETATM    9  C14 UNL     1      -3.295   4.336  10.021  1.00  0.00     0.157 C 
HETATM   10  O3  UNL     1      -3.870   4.859   8.833  1.00  0.00    -0.377 OA
HETATM   11  C15 UNL     1      -4.335   4.253  11.077  1.00  0.00     0.092 C 
HETATM   12  C16 UNL     1      -4.785   2.775  11.112  1.00  0.00     0.049 C 
HETATM   13  O4  UNL     1      -5.474   4.929  10.642  1.00  0.00    -0.364 OA
ENDROOT
BRANCH   1  14
HETATM   14  C4  UNL     1      -4.490   3.719  13.518  1.00  0.00    -0.045 A 
HETATM   15  C3  UNL     1      -4.228   2.367  13.534  1.00  0.00     0.047 A 
HETATM   16  C2  UNL     1      -4.756   1.564  14.504  1.00  0.00     0.104 A 
HETATM   17  C19 UNL     1      -5.567   2.081  15.498  1.00  0.00     0.138 A 
HETATM   18  C18 UNL     1      -5.844   3.431  15.502  1.00  0.00     0.108 A 
HETATM   19  O5  UNL     1      -6.237   1.513  16.599  1.00  0.00    -0.320 OA
HETATM   20  C17 UNL     1      -5.298   4.208  14.515  1.00  0.00     0.047 A 
HETATM   21  O6  UNL     1      -6.680   3.660  16.609  1.00  0.00    -0.323 OA
HETATM   22  C20 UNL     1      -7.293   2.413  16.968  1.00  0.00     0.352 C 
BRANCH  16  23
HETATM   23  O1  UNL     1      -4.508   0.178  14.551  1.00  0.00    -0.353 OA
HETATM   24  C1  UNL     1      -4.242  -0.457  13.315  1.00  0.00     0.210 C 
ENDBRANCH  16  23
ENDBRANCH   1  14
BRANCH   4  25
HETATM   25  C9  UNL     1      -6.768   6.799  10.193  1.00  0.00     0.202 C 
BRANCH  25  26
HETATM   26  O2  UNL     1      -7.107   6.190   8.973  1.00  0.00    -0.398 OA
ATOM     27  H2  UNL     1      -7.513   6.827   8.398  1.00  0.00     0.209 HD
ENDBRANCH  25  26
ENDBRANCH   4  25
TORSDOF 4
ENDMDL
