MODEL 1
REMARK VINA RESULT: -7.072294032      0.000      0.000
REMARK  6 active torsions:
REMARK  status: ('A' for Active; 'I' for Inactive)
REMARK    1  A    between atoms: O1_2  and  C2_3 
REMARK    2  A    between atoms: C2_3  and  C3_5 
REMARK    3  A    between atoms: C10_12  and  O3_13 
REMARK    4  A    between atoms: C18_21  and  O4_22 
REMARK    5  A    between atoms: C18_21  and  O5_24 
REMARK    6  A    between atoms: O5_24  and  C19_25 
ROOT
HETATM    1  C3  UNL     1      -3.940   5.760  12.125  1.00  0.00     0.105 C 
HETATM    2  C4  UNL     1      -2.695   6.314  12.741  1.00  0.00     0.032 C 
HETATM    3  C5  UNL     1      -4.691   4.837  13.059  1.00  0.00     0.013 C 
HETATM    4  C6  UNL     1      -5.076   5.424  14.368  1.00  0.00     0.007 C 
HETATM    5  C7  UNL     1      -4.761   4.464  15.519  1.00  0.00     0.012 C 
HETATM    6  C8  UNL     1      -5.268   3.083  15.283  1.00  0.00    -0.014 C 
HETATM    7  C9  UNL     1      -6.768   3.037  15.514  1.00  0.00     0.018 C 
HETATM    8  C10 UNL     1      -4.539   2.059  16.099  1.00  0.00     0.129 C 
HETATM    9  C12 UNL     1      -4.880   0.772  15.384  1.00  0.00     0.033 C 
HETATM   10  C13 UNL     1      -4.605   1.182  13.929  1.00  0.00     0.008 C 
HETATM   11  C14 UNL     1      -5.027   2.594  13.869  1.00  0.00     0.001 C 
HETATM   12  C15 UNL     1      -3.962   3.527  13.283  1.00  0.00    -0.004 C 
HETATM   13  C16 UNL     1      -3.395   2.898  12.074  1.00  0.00     0.011 C 
HETATM   14  C17 UNL     1      -2.746   3.844  11.090  1.00  0.00     0.070 C 
HETATM   15  C18 UNL     1      -3.719   4.975  10.855  1.00  0.00     0.187 C 
ENDROOT
BRANCH   1  16
HETATM   16  C2  UNL     1      -4.894   6.863  11.802  1.00  0.00     0.272 C 
HETATM   17  O2  UNL     1      -4.517   8.060  11.733  1.00  0.00    -0.264 OA
BRANCH  16  18
HETATM   18  O1  UNL     1      -6.240   6.635  11.560  1.00  0.00    -0.326 OA
HETATM   19  C1  UNL     1      -7.145   7.717  11.477  1.00  0.00     0.213 C 
ENDBRANCH  16  18
ENDBRANCH   1  16
BRANCH  15  20
HETATM   20  O4  UNL     1      -4.959   4.265  10.689  1.00  0.00    -0.364 OA
ATOM     21  H4  UNL     1      -5.613   4.950  10.771  1.00  0.00     0.213 HD
ENDBRANCH  15  20
BRANCH  15  22
HETATM   22  O5  UNL     1      -3.573   5.652   9.687  1.00  0.00    -0.289 OA
BRANCH  22  23
HETATM   23  C19 UNL     1      -3.303   5.335   8.415  1.00  0.00     0.401 C 
HETATM   24  O6  UNL     1      -4.097   4.639   7.789  1.00  0.00    -0.276 OA
ENDBRANCH  22  23
ENDBRANCH  15  22
BRANCH   8  25
HETATM   25  O3  UNL     1      -4.960   1.989  17.413  1.00  0.00    -0.390 OA
HETATM   26  C11 UNL     1      -5.674   0.783  17.544  1.00  0.00     0.202 C 
ENDBRANCH   8  25
TORSDOF 6
ENDMDL
MODEL 2
REMARK VINA RESULT: -7.006450610      2.105      6.548
REMARK  6 active torsions:
REMARK  status: ('A' for Active; 'I' for Inactive)
REMARK    1  A    between atoms: O1_2  and  C2_3 
REMARK    2  A    between atoms: C2_3  and  C3_5 
REMARK    3  A    between atoms: C10_12  and  O3_13 
REMARK    4  A    between atoms: C18_21  and  O4_22 
REMARK    5  A    between atoms: C18_21  and  O5_24 
REMARK    6  A    between atoms: O5_24  and  C19_25 
ROOT
HETATM    1  C3  UNL     1      -3.163   4.551  13.201  1.00  0.00     0.105 C 
HETATM    2  C4  UNL     1      -2.178   5.400  13.940  1.00  0.00     0.032 C 
HETATM    3  C5  UNL     1      -3.897   5.317  12.123  1.00  0.00     0.013 C 
HETATM    4  C6  UNL     1      -3.037   5.974  11.104  1.00  0.00     0.007 C 
HETATM    5  C7  UNL     1      -3.496   7.411  10.837  1.00  0.00     0.012 C 
HETATM    6  C8  UNL     1      -4.959   7.519  10.579  1.00  0.00    -0.014 C 
HETATM    7  C9  UNL     1      -5.271   7.045   9.171  1.00  0.00     0.018 C 
HETATM    8  C10 UNL     1      -5.485   8.898  10.841  1.00  0.00     0.129 C 
HETATM    9  C12 UNL     1      -6.973   8.658  10.963  1.00  0.00     0.033 C 
HETATM   10  C13 UNL     1      -6.982   7.454  11.916  1.00  0.00     0.008 C 
HETATM   11  C14 UNL     1      -5.793   6.675  11.521  1.00  0.00     0.001 C 
HETATM   12  C15 UNL     1      -4.871   6.328  12.695  1.00  0.00    -0.004 C 
HETATM   13  C16 UNL     1      -5.697   5.850  13.821  1.00  0.00     0.011 C 
HETATM   14  C17 UNL     1      -4.980   4.989  14.836  1.00  0.00     0.070 C 
HETATM   15  C18 UNL     1      -4.231   3.928  14.066  1.00  0.00     0.187 C 
ENDROOT
BRANCH   1  16
HETATM   16  C2  UNL     1      -2.463   3.439  12.493  1.00  0.00     0.272 C 
HETATM   17  O2  UNL     1      -3.072   2.673  11.704  1.00  0.00    -0.264 OA
BRANCH  16  18
HETATM   18  O1  UNL     1      -1.110   3.185  12.662  1.00  0.00    -0.326 OA
HETATM   19  C1  UNL     1      -0.198   3.437  11.613  1.00  0.00     0.213 C 
ENDBRANCH  16  18
ENDBRANCH   1  16
BRANCH  15  20
HETATM   20  O4  UNL     1      -5.220   3.504  13.112  1.00  0.00    -0.364 OA
ATOM     21  H4  UNL     1      -5.703   4.303  12.931  1.00  0.00     0.213 HD
ENDBRANCH  15  20
BRANCH  15  22
HETATM   22  O5  UNL     1      -3.934   2.794  14.752  1.00  0.00    -0.289 OA
BRANCH  22  23
HETATM   23  C19 UNL     1      -4.260   2.271  15.941  1.00  0.00     0.401 C 
HETATM   24  O6  UNL     1      -3.556   1.387  16.419  1.00  0.00    -0.276 OA
ENDBRANCH  22  23
ENDBRANCH  15  22
BRANCH   8  25
HETATM   25  O3  UNL     1      -5.239   9.793   9.818  1.00  0.00    -0.390 OA
HETATM   26  C11 UNL     1      -6.238  10.782   9.898  1.00  0.00     0.202 C 
ENDBRANCH   8  25
TORSDOF 6
ENDMDL
MODEL 3
REMARK VINA RESULT: -6.759340660      2.569      5.691
REMARK  6 active torsions:
REMARK  status: ('A' for Active; 'I' for Inactive)
REMARK    1  A    between atoms: O1_2  and  C2_3 
REMARK    2  A    between atoms: C2_3  and  C3_5 
REMARK    3  A    between atoms: C10_12  and  O3_13 
REMARK    4  A    between atoms: C18_21  and  O4_22 
REMARK    5  A    between atoms: C18_21  and  O5_24 
REMARK    6  A    between atoms: O5_24  and  C19_25 
ROOT
HETATM    1  C3  UNL     1      -3.031   4.251  11.951  1.00  0.00     0.105 C 
HETATM    2  C4  UNL     1      -1.841   3.370  12.164  1.00  0.00     0.032 C 
HETATM    3  C5  UNL     1      -2.741   5.704  12.257  1.00  0.00     0.013 C 
HETATM    4  C6  UNL     1      -1.612   6.306  11.500  1.00  0.00     0.007 C 
HETATM    5  C7  UNL     1      -0.698   7.117  12.424  1.00  0.00     0.012 C 
HETATM    6  C8  UNL     1      -1.443   8.070  13.294  1.00  0.00    -0.014 C 
HETATM    7  C9  UNL     1      -1.874   9.279  12.483  1.00  0.00     0.018 C 
HETATM    8  C10 UNL     1      -0.666   8.456  14.515  1.00  0.00     0.129 C 
HETATM    9  C12 UNL     1      -1.741   9.015  15.419  1.00  0.00     0.033 C 
HETATM   10  C13 UNL     1      -2.806   7.916  15.294  1.00  0.00     0.008 C 
HETATM   11  C14 UNL     1      -2.700   7.472  13.891  1.00  0.00     0.001 C 
HETATM   12  C15 UNL     1      -2.551   5.954  13.740  1.00  0.00    -0.004 C 
HETATM   13  C16 UNL     1      -3.527   5.292  14.627  1.00  0.00     0.011 C 
HETATM   14  C17 UNL     1      -3.897   3.876  14.248  1.00  0.00     0.070 C 
HETATM   15  C18 UNL     1      -4.240   3.887  12.778  1.00  0.00     0.187 C 
ENDROOT
BRANCH   1  16
HETATM   16  C2  UNL     1      -3.449   4.221  10.518  1.00  0.00     0.272 C 
HETATM   17  O2  UNL     1      -2.919   3.434   9.694  1.00  0.00    -0.264 OA
BRANCH  16  18
HETATM   18  O1  UNL     1      -4.440   5.050  10.015  1.00  0.00    -0.326 OA
HETATM   19  C1  UNL     1      -4.190   5.861   8.885  1.00  0.00     0.213 C 
ENDBRANCH  16  18
ENDBRANCH   1  16
BRANCH  15  20
HETATM   20  O4  UNL     1      -5.069   5.058  12.678  1.00  0.00    -0.364 OA
ATOM     21  H4  UNL     1      -5.565   4.905  11.882  1.00  0.00     0.213 HD
ENDBRANCH  15  20
BRANCH  15  22
HETATM   22  O5  UNL     1      -5.044   2.882  12.348  1.00  0.00    -0.289 OA
BRANCH  22  23
HETATM   23  C19 UNL     1      -4.948   1.551  12.228  1.00  0.00     0.401 C 
HETATM   24  O6  UNL     1      -5.410   1.004  11.231  1.00  0.00    -0.276 OA
ENDBRANCH  22  23
ENDBRANCH  15  22
BRANCH   8  25
HETATM   25  O3  UNL     1       0.296   9.420  14.283  1.00  0.00    -0.390 OA
HETATM   26  C11 UNL     1       0.208  10.343  15.343  1.00  0.00     0.202 C 
ENDBRANCH   8  25
TORSDOF 6
ENDMDL
MODEL 4
REMARK VINA RESULT: -6.700688226      1.924      6.598
REMARK  6 active torsions:
REMARK  status: ('A' for Active; 'I' for Inactive)
REMARK    1  A    between atoms: O1_2  and  C2_3 
REMARK    2  A    between atoms: C2_3  and  C3_5 
REMARK    3  A    between atoms: C10_12  and  O3_13 
REMARK    4  A    between atoms: C18_21  and  O4_22 
REMARK    5  A    between atoms: C18_21  and  O5_24 
REMARK    6  A    between atoms: O5_24  and  C19_25 
ROOT
HETATM    1  C3  UNL     1      -4.556   2.718  14.989  1.00  0.00     0.105 C 
HETATM    2  C4  UNL     1      -3.474   3.048  15.967  1.00  0.00     0.032 C 
HETATM    3  C5  UNL     1      -4.395   3.448  13.674  1.00  0.00     0.013 C 
HETATM    4  C6  UNL     1      -3.099   3.236  12.978  1.00  0.00     0.007 C 
HETATM    5  C7  UNL     1      -2.520   4.561  12.472  1.00  0.00     0.012 C 
HETATM    6  C8  UNL     1      -3.508   5.379  11.713  1.00  0.00    -0.014 C 
HETATM    7  C9  UNL     1      -3.692   4.805  10.320  1.00  0.00     0.018 C 
HETATM    8  C10 UNL     1      -3.144   6.832  11.683  1.00  0.00     0.129 C 
HETATM    9  C12 UNL     1      -4.451   7.485  11.294  1.00  0.00     0.033 C 
HETATM   10  C13 UNL     1      -5.411   6.779  12.263  1.00  0.00     0.008 C 
HETATM   11  C14 UNL     1      -4.878   5.407  12.360  1.00  0.00     0.001 C 
HETATM   12  C15 UNL     1      -4.667   4.933  13.802  1.00  0.00    -0.004 C 
HETATM   13  C16 UNL     1      -5.856   5.297  14.598  1.00  0.00     0.011 C 
HETATM   14  C17 UNL     1      -6.072   4.484  15.855  1.00  0.00     0.070 C 
HETATM   15  C18 UNL     1      -5.953   3.030  15.467  1.00  0.00     0.187 C 
ENDROOT
BRANCH   1  16
HETATM   16  C2  UNL     1      -4.520   1.265  14.646  1.00  0.00     0.272 C 
HETATM   17  O2  UNL     1      -4.091   0.407  15.459  1.00  0.00    -0.264 OA
BRANCH  16  18
HETATM   18  O1  UNL     1      -4.956   0.778  13.423  1.00  0.00    -0.326 OA
HETATM   19  C1  UNL     1      -4.294  -0.308  12.809  1.00  0.00     0.213 C 
ENDBRANCH  16  18
ENDBRANCH   1  16
BRANCH  15  20
HETATM   20  O4  UNL     1      -6.731   2.984  14.258  1.00  0.00    -0.364 OA
ATOM     21  H4  UNL     1      -6.630   3.859  13.903  1.00  0.00     0.213 HD
ENDBRANCH  15  20
BRANCH  15  22
HETATM   22  O5  UNL     1      -6.574   2.144  16.287  1.00  0.00    -0.289 OA
BRANCH  22  23
HETATM   23  C19 UNL     1      -6.623   1.919  17.606  1.00  0.00     0.401 C 
HETATM   24  O6  UNL     1      -5.745   1.243  18.133  1.00  0.00    -0.276 OA
ENDBRANCH  22  23
ENDBRANCH  15  22
BRANCH   8  25
HETATM   25  O3  UNL     1      -2.171   7.144  10.752  1.00  0.00    -0.390 OA
HETATM   26  C11 UNL     1      -1.229   7.958  11.410  1.00  0.00     0.202 C 
ENDBRANCH   8  25
TORSDOF 6
ENDMDL
MODEL 5
REMARK VINA RESULT: -6.602126669      2.508      6.389
REMARK  6 active torsions:
REMARK  status: ('A' for Active; 'I' for Inactive)
REMARK    1  A    between atoms: O1_2  and  C2_3 
REMARK    2  A    between atoms: C2_3  and  C3_5 
REMARK    3  A    between atoms: C10_12  and  O3_13 
REMARK    4  A    between atoms: C18_21  and  O4_22 
REMARK    5  A    between atoms: C18_21  and  O5_24 
REMARK    6  A    between atoms: O5_24  and  C19_25 
ROOT
HETATM    1  C3  UNL     1      -4.255   3.596  14.425  1.00  0.00     0.105 C 
HETATM    2  C4  UNL     1      -3.393   3.169  15.570  1.00  0.00     0.032 C 
HETATM    3  C5  UNL     1      -3.501   4.417  13.403  1.00  0.00     0.013 C 
HETATM    4  C6  UNL     1      -2.296   3.770  12.823  1.00  0.00     0.007 C 
HETATM    5  C7  UNL     1      -1.110   4.739  12.789  1.00  0.00     0.012 C 
HETATM    6  C8  UNL     1      -1.453   6.061  12.194  1.00  0.00    -0.014 C 
HETATM    7  C9  UNL     1      -1.536   5.942  10.683  1.00  0.00     0.018 C 
HETATM    8  C10 UNL     1      -0.510   7.144  12.625  1.00  0.00     0.129 C 
HETATM    9  C12 UNL     1      -1.288   8.398  12.300  1.00  0.00     0.033 C 
HETATM   10  C13 UNL     1      -2.652   8.045  12.911  1.00  0.00     0.008 C 
HETATM   11  C14 UNL     1      -2.790   6.596  12.666  1.00  0.00     0.001 C 
HETATM   12  C15 UNL     1      -3.139   5.794  13.924  1.00  0.00    -0.004 C 
HETATM   13  C16 UNL     1      -4.209   6.500  14.655  1.00  0.00     0.011 C 
HETATM   14  C17 UNL     1      -5.033   5.646  15.591  1.00  0.00     0.070 C 
HETATM   15  C18 UNL     1      -5.456   4.422  14.816  1.00  0.00     0.187 C 
ENDROOT
BRANCH   1  16
HETATM   16  C2  UNL     1      -4.761   2.403  13.684  1.00  0.00     0.272 C 
HETATM   17  O2  UNL     1      -4.549   1.233  14.094  1.00  0.00    -0.264 OA
BRANCH  16  18
HETATM   18  O1  UNL     1      -5.490   2.511  12.509  1.00  0.00    -0.326 OA
HETATM   19  C1  UNL     1      -5.172   1.704  11.393  1.00  0.00     0.213 C 
ENDBRANCH  16  18
ENDBRANCH   1  16
BRANCH  15  20
HETATM   20  O4  UNL     1      -5.879   4.997  13.567  1.00  0.00    -0.364 OA
ATOM     21  H4  UNL     1      -5.058   5.192  13.130  1.00  0.00     0.213 HD
ENDBRANCH  15  20
BRANCH  15  22
HETATM   22  O5  UNL     1      -6.565   3.784  15.271  1.00  0.00    -0.289 OA
BRANCH  22  23
HETATM   23  C19 UNL     1      -6.969   3.261  16.436  1.00  0.00     0.401 C 
HETATM   24  O6  UNL     1      -6.912   2.046  16.599  1.00  0.00    -0.276 OA
ENDBRANCH  22  23
ENDBRANCH  15  22
BRANCH   8  25
HETATM   25  O3  UNL     1       0.688   7.145  11.938  1.00  0.00    -0.390 OA
HETATM   26  C11 UNL     1       1.485   8.150  12.519  1.00  0.00     0.202 C 
ENDBRANCH   8  25
TORSDOF 6
ENDMDL
