MODEL 1
REMARK VINA RESULT: -6.976618631      0.000      0.000
REMARK  5 active torsions:
REMARK  status: ('A' for Active; 'I' for Inactive)
REMARK    1  A    between atoms: C4_4  and  C5_5 
REMARK    2  A    between atoms: C5_5  and  O2_7 
REMARK    3  A    between atoms: O2_7  and  C6_8 
REMARK    4  A    between atoms: C7_9  and  C8_10 
REMARK    5  A    between atoms: C12_16  and  O5_17 
ROOT
HETATM    1  C6  UNL     1      -4.325   4.954  12.467  1.00  0.00     0.191 C 
HETATM    2  C7  UNL     1      -3.348   5.427  13.475  1.00  0.00     0.114 C 
HETATM    3  O3  UNL     1      -3.626   4.822  14.724  1.00  0.00    -0.303 OA
HETATM    4  C11 UNL     1      -3.922   3.474  14.777  1.00  0.00     0.296 C 
HETATM    5  O4  UNL     1      -3.528   2.756  15.726  1.00  0.00    -0.262 OA
HETATM    6  C12 UNL     1      -4.710   2.884  13.700  1.00  0.00     0.164 C 
HETATM    7  C13 UNL     1      -4.503   1.435  13.435  1.00  0.00     0.050 C 
HETATM    8  C14 UNL     1      -4.928   1.303  11.966  1.00  0.00     0.005 C 
HETATM    9  C15 UNL     1      -4.866   2.725  11.388  1.00  0.00     0.027 C 
HETATM   10  C16 UNL     1      -4.136   3.464  12.409  1.00  0.00     0.079 C 
HETATM   11  S1  UNL     1      -2.345   3.334  12.319  1.00  0.00    -0.145 SA
HETATM   12  C17 UNL     1      -1.965   4.967  13.070  1.00  0.00     0.082 C 
HETATM   13  C18 UNL     1      -1.081   4.685  14.267  1.00  0.00     0.024 C 
ENDROOT
BRANCH   1  14
HETATM   14  O2  UNL     1      -4.242   5.552  11.200  1.00  0.00    -0.308 OA
BRANCH  14  15
HETATM   15  C5  UNL     1      -5.295   6.232  10.603  1.00  0.00     0.283 C 
HETATM   16  O1  UNL     1      -6.284   5.556  10.236  1.00  0.00    -0.260 OA
BRANCH  15  17
HETATM   17  C4  UNL     1      -5.304   7.652  10.389  1.00  0.00     0.084 C 
HETATM   18  C2  UNL     1      -6.232   8.429  10.888  1.00  0.00    -0.082 C 
HETATM   19  C1  UNL     1      -6.160   9.916  10.608  1.00  0.00     0.043 C 
HETATM   20  C3  UNL     1      -7.371   8.004  11.714  1.00  0.00     0.043 C 
ENDBRANCH  15  17
ENDBRANCH  14  15
ENDBRANCH   1  14
BRANCH   2  21
HETATM   21  C8  UNL     1      -3.377   6.923  13.563  1.00  0.00     0.016 C 
HETATM   22  C9  UNL     1      -3.184   7.450  14.940  1.00  0.00     0.012 C 
HETATM   23  C10 UNL     1      -2.381   7.595  12.649  1.00  0.00     0.012 C 
ENDBRANCH   2  21
BRANCH   6  24
HETATM   24  O5  UNL     1      -6.055   3.246  13.741  1.00  0.00    -0.378 OA
ATOM     25  H5  UNL     1      -6.570   2.859  13.043  1.00  0.00     0.211 HD
ENDBRANCH   6  24
TORSDOF 5
ENDMDL
MODEL 2
REMARK VINA RESULT: -6.742051146      2.101      3.041
REMARK  5 active torsions:
REMARK  status: ('A' for Active; 'I' for Inactive)
REMARK    1  A    between atoms: C4_4  and  C5_5 
REMARK    2  A    between atoms: C5_5  and  O2_7 
REMARK    3  A    between atoms: O2_7  and  C6_8 
REMARK    4  A    between atoms: C7_9  and  C8_10 
REMARK    5  A    between atoms: C12_16  and  O5_17 
ROOT
HETATM    1  C6  UNL     1      -4.454   5.515  11.999  1.00  0.00     0.191 C 
HETATM    2  C7  UNL     1      -3.853   5.044  13.267  1.00  0.00     0.114 C 
HETATM    3  O3  UNL     1      -3.352   3.730  13.095  1.00  0.00    -0.303 OA
HETATM    4  C11 UNL     1      -2.642   3.417  11.954  1.00  0.00     0.296 C 
HETATM    5  O4  UNL     1      -1.663   2.636  11.988  1.00  0.00    -0.262 OA
HETATM    6  C12 UNL     1      -3.048   4.014  10.685  1.00  0.00     0.164 C 
HETATM    7  C13 UNL     1      -1.989   4.182   9.654  1.00  0.00     0.050 C 
HETATM    8  C14 UNL     1      -2.539   5.331   8.798  1.00  0.00     0.005 C 
HETATM    9  C15 UNL     1      -3.586   6.036   9.676  1.00  0.00     0.027 C 
HETATM   10  C16 UNL     1      -3.333   5.482  10.999  1.00  0.00     0.079 C 
HETATM   11  S1  UNL     1      -2.007   6.271  11.922  1.00  0.00    -0.145 SA
HETATM   12  C17 UNL     1      -2.665   5.918  13.601  1.00  0.00     0.082 C 
HETATM   13  C18 UNL     1      -1.577   5.156  14.327  1.00  0.00     0.024 C 
ENDROOT
BRANCH   1  14
HETATM   14  O2  UNL     1      -5.092   6.764  12.046  1.00  0.00    -0.308 OA
BRANCH  14  15
HETATM   15  C5  UNL     1      -6.436   6.951  11.753  1.00  0.00     0.283 C 
HETATM   16  O1  UNL     1      -7.256   6.811  12.690  1.00  0.00    -0.260 OA
BRANCH  15  17
HETATM   17  C4  UNL     1      -6.924   7.291  10.446  1.00  0.00     0.084 C 
HETATM   18  C2  UNL     1      -6.806   8.495   9.946  1.00  0.00    -0.082 C 
HETATM   19  C1  UNL     1      -7.352   8.761   8.559  1.00  0.00     0.043 C 
HETATM   20  C3  UNL     1      -6.183   9.653  10.603  1.00  0.00     0.043 C 
ENDBRANCH  15  17
ENDBRANCH  14  15
ENDBRANCH   1  14
BRANCH   2  21
HETATM   21  C8  UNL     1      -4.859   5.114  14.376  1.00  0.00     0.016 C 
HETATM   22  C9  UNL     1      -4.996   3.850  15.147  1.00  0.00     0.012 C 
HETATM   23  C10 UNL     1      -4.601   6.241  15.347  1.00  0.00     0.012 C 
ENDBRANCH   2  21
BRANCH   6  24
HETATM   24  O5  UNL     1      -4.228   3.475  10.176  1.00  0.00    -0.378 OA
ATOM     25  H5  UNL     1      -4.548   3.931   9.407  1.00  0.00     0.211 HD
ENDBRANCH   6  24
TORSDOF 5
ENDMDL
MODEL 3
REMARK VINA RESULT: -6.715562508      2.136      3.409
REMARK  5 active torsions:
REMARK  status: ('A' for Active; 'I' for Inactive)
REMARK    1  A    between atoms: C4_4  and  C5_5 
REMARK    2  A    between atoms: C5_5  and  O2_7 
REMARK    3  A    between atoms: O2_7  and  C6_8 
REMARK    4  A    between atoms: C7_9  and  C8_10 
REMARK    5  A    between atoms: C12_16  and  O5_17 
ROOT
HETATM    1  C6  UNL     1      -3.575   5.247  11.828  1.00  0.00     0.191 C 
HETATM    2  C7  UNL     1      -3.362   4.536  13.108  1.00  0.00     0.114 C 
HETATM    3  O3  UNL     1      -2.710   3.303  12.862  1.00  0.00    -0.303 OA
HETATM    4  C11 UNL     1      -1.649   3.259  11.980  1.00  0.00     0.296 C 
HETATM    5  O4  UNL     1      -0.661   2.516  12.184  1.00  0.00    -0.262 OA
HETATM    6  C12 UNL     1      -1.689   4.099  10.788  1.00  0.00     0.164 C 
HETATM    7  C13 UNL     1      -0.380   4.511  10.214  1.00  0.00     0.050 C 
HETATM    8  C14 UNL     1      -0.739   5.800   9.461  1.00  0.00     0.005 C 
HETATM    9  C15 UNL     1      -2.072   6.273  10.063  1.00  0.00     0.027 C 
HETATM   10  C16 UNL     1      -2.198   5.459  11.265  1.00  0.00     0.079 C 
HETATM   11  S1  UNL     1      -1.313   6.071  12.705  1.00  0.00    -0.145 SA
HETATM   12  C17 UNL     1      -2.430   5.353  13.975  1.00  0.00     0.082 C 
HETATM   13  C18 UNL     1      -1.559   4.485  14.858  1.00  0.00     0.024 C 
ENDROOT
BRANCH   1  14
HETATM   14  O2  UNL     1      -4.311   6.440  11.900  1.00  0.00    -0.308 OA
BRANCH  14  15
HETATM   15  C5  UNL     1      -5.461   6.679  11.160  1.00  0.00     0.283 C 
HETATM   16  O1  UNL     1      -5.934   5.721  10.504  1.00  0.00    -0.260 OA
BRANCH  15  17
HETATM   17  C4  UNL     1      -6.124   7.951  11.109  1.00  0.00     0.084 C 
HETATM   18  C2  UNL     1      -5.674   8.947  10.389  1.00  0.00    -0.082 C 
HETATM   19  C1  UNL     1      -6.440  10.253  10.397  1.00  0.00     0.043 C 
HETATM   20  C3  UNL     1      -4.468   8.937   9.548  1.00  0.00     0.043 C 
ENDBRANCH  15  17
ENDBRANCH  14  15
ENDBRANCH   1  14
BRANCH   2  21
HETATM   21  C8  UNL     1      -4.669   4.341  13.817  1.00  0.00     0.016 C 
HETATM   22  C9  UNL     1      -4.892   2.953  14.300  1.00  0.00     0.012 C 
HETATM   23  C10 UNL     1      -4.867   5.289  14.975  1.00  0.00     0.012 C 
ENDBRANCH   2  21
BRANCH   6  24
HETATM   24  O5  UNL     1      -2.591   3.647   9.826  1.00  0.00    -0.378 OA
ATOM     25  H5  UNL     1      -2.441   4.021   8.966  1.00  0.00     0.211 HD
ENDBRANCH   6  24
TORSDOF 5
ENDMDL
MODEL 4
REMARK VINA RESULT: -6.664625297      1.980      2.745
REMARK  5 active torsions:
REMARK  status: ('A' for Active; 'I' for Inactive)
REMARK    1  A    between atoms: C4_4  and  C5_5 
REMARK    2  A    between atoms: C5_5  and  O2_7 
REMARK    3  A    between atoms: O2_7  and  C6_8 
REMARK    4  A    between atoms: C7_9  and  C8_10 
REMARK    5  A    between atoms: C12_16  and  O5_17 
ROOT
HETATM    1  C6  UNL     1      -4.723   5.855  12.633  1.00  0.00     0.191 C 
HETATM    2  C7  UNL     1      -3.466   5.691  11.870  1.00  0.00     0.114 C 
HETATM    3  O3  UNL     1      -2.367   5.677  12.763  1.00  0.00    -0.303 OA
HETATM    4  C11 UNL     1      -2.447   4.944  13.930  1.00  0.00     0.296 C 
HETATM    5  O4  UNL     1      -1.453   4.335  14.389  1.00  0.00    -0.262 OA
HETATM    6  C12 UNL     1      -3.723   4.884  14.637  1.00  0.00     0.164 C 
HETATM    7  C13 UNL     1      -3.971   3.676  15.470  1.00  0.00     0.050 C 
HETATM    8  C14 UNL     1      -5.504   3.618  15.521  1.00  0.00     0.005 C 
HETATM    9  C15 UNL     1      -5.990   4.473  14.340  1.00  0.00     0.027 C 
HETATM   10  C16 UNL     1      -4.779   4.668  13.554  1.00  0.00     0.079 C 
HETATM   11  S1  UNL     1      -4.366   3.325  12.432  1.00  0.00    -0.145 SA
HETATM   12  C17 UNL     1      -3.481   4.343  11.184  1.00  0.00     0.082 C 
HETATM   13  C18 UNL     1      -2.095   3.745  11.061  1.00  0.00     0.024 C 
ENDROOT
BRANCH   1  14
HETATM   14  O2  UNL     1      -5.893   5.995  11.872  1.00  0.00    -0.308 OA
BRANCH  14  15
HETATM   15  C5  UNL     1      -6.732   7.099  11.950  1.00  0.00     0.283 C 
HETATM   16  O1  UNL     1      -7.727   7.015  12.706  1.00  0.00    -0.260 OA
BRANCH  15  17
HETATM   17  C4  UNL     1      -6.516   8.314  11.215  1.00  0.00     0.084 C 
HETATM   18  C2  UNL     1      -6.907   8.460   9.975  1.00  0.00    -0.082 C 
HETATM   19  C1  UNL     1      -6.636   9.778   9.280  1.00  0.00     0.043 C 
HETATM   20  C3  UNL     1      -7.599   7.454   9.156  1.00  0.00     0.043 C 
ENDBRANCH  15  17
ENDBRANCH  14  15
ENDBRANCH   1  14
BRANCH   2  21
HETATM   21  C8  UNL     1      -3.336   6.777  10.845  1.00  0.00     0.016 C 
HETATM   22  C9  UNL     1      -1.992   7.414  10.809  1.00  0.00     0.012 C 
HETATM   23  C10 UNL     1      -3.690   6.327   9.448  1.00  0.00     0.012 C 
ENDBRANCH   2  21
BRANCH   6  24
HETATM   24  O5  UNL     1      -4.049   6.073  15.286  1.00  0.00    -0.378 OA
ATOM     25  H5  UNL     1      -3.660   6.148  16.149  1.00  0.00     0.211 HD
ENDBRANCH   6  24
TORSDOF 5
ENDMDL
MODEL 5
REMARK VINA RESULT: -6.610264225      2.174      5.658
REMARK  5 active torsions:
REMARK  status: ('A' for Active; 'I' for Inactive)
REMARK    1  A    between atoms: C4_4  and  C5_5 
REMARK    2  A    between atoms: C5_5  and  O2_7 
REMARK    3  A    between atoms: O2_7  and  C6_8 
REMARK    4  A    between atoms: C7_9  and  C8_10 
REMARK    5  A    between atoms: C12_16  and  O5_17 
ROOT
HETATM    1  C6  UNL     1      -4.337   4.641  13.673  1.00  0.00     0.191 C 
HETATM    2  C7  UNL     1      -3.750   3.817  12.592  1.00  0.00     0.114 C 
HETATM    3  O3  UNL     1      -3.566   4.613  11.436  1.00  0.00    -0.303 OA
HETATM    4  C11 UNL     1      -3.039   5.883  11.560  1.00  0.00     0.296 C 
HETATM    5  O4  UNL     1      -2.256   6.352  10.702  1.00  0.00    -0.262 OA
HETATM    6  C12 UNL     1      -3.408   6.687  12.721  1.00  0.00     0.164 C 
HETATM    7  C13 UNL     1      -2.428   7.715  13.163  1.00  0.00     0.050 C 
HETATM    8  C14 UNL     1      -2.781   7.894  14.645  1.00  0.00     0.005 C 
HETATM    9  C15 UNL     1      -3.571   6.636  15.037  1.00  0.00     0.027 C 
HETATM   10  C16 UNL     1      -3.337   5.737  13.915  1.00  0.00     0.079 C 
HETATM   11  S1  UNL     1      -1.798   4.809  13.980  1.00  0.00    -0.145 SA
HETATM   12  C17 UNL     1      -2.376   3.353  13.021  1.00  0.00     0.082 C 
HETATM   13  C18 UNL     1      -1.425   3.217  11.850  1.00  0.00     0.024 C 
ENDROOT
BRANCH   1  14
HETATM   14  O2  UNL     1      -4.678   3.961  14.852  1.00  0.00    -0.308 OA
BRANCH  14  15
HETATM   15  C5  UNL     1      -5.975   3.875  15.340  1.00  0.00     0.283 C 
HETATM   16  O1  UNL     1      -6.910   4.093  14.534  1.00  0.00    -0.260 OA
BRANCH  15  17
HETATM   17  C4  UNL     1      -6.292   3.553  16.703  1.00  0.00     0.084 C 
HETATM   18  C2  UNL     1      -6.155   2.345  17.187  1.00  0.00    -0.082 C 
HETATM   19  C1  UNL     1      -6.514   2.101  18.638  1.00  0.00     0.043 C 
HETATM   20  C3  UNL     1      -5.678   1.163  16.455  1.00  0.00     0.043 C 
ENDBRANCH  15  17
ENDBRANCH  14  15
ENDBRANCH   1  14
BRANCH   2  21
HETATM   21  C8  UNL     1      -4.621   2.628  12.316  1.00  0.00     0.016 C 
HETATM   22  C9  UNL     1      -4.761   2.306  10.871  1.00  0.00     0.012 C 
HETATM   23  C10 UNL     1      -4.179   1.382  13.044  1.00  0.00     0.012 C 
ENDBRANCH   2  21
BRANCH   6  24
HETATM   24  O5  UNL     1      -4.715   7.166  12.664  1.00  0.00    -0.378 OA
ATOM     25  H5  UNL     1      -5.221   6.794  11.951  1.00  0.00     0.211 HD
ENDBRANCH   6  24
TORSDOF 5
ENDMDL
