MODEL 1
REMARK VINA RESULT: -8.288216021      0.000      0.000
REMARK  5 active torsions:
REMARK  status: ('A' for Active; 'I' for Inactive)
REMARK    1  A    between atoms: C3_3  and  C4_4 
REMARK    2  A    between atoms: C4_4  and  O2_6 
REMARK    3  A    between atoms: O2_6  and  C5_7 
REMARK    4  A    between atoms: C12_15  and  O4_16 
REMARK    5  A    between atoms: O4_16  and  C13_17 
ROOT
HETATM    1  C5  UNL     1      -4.227   3.319  12.648  1.00  0.00     0.142 C 
HETATM    2  C6  UNL     1      -2.932   3.982  12.967  1.00  0.00     0.076 C 
HETATM    3  C7  UNL     1      -3.128   5.337  13.565  1.00  0.00     0.110 A 
HETATM    4  C8  UNL     1      -3.044   6.532  12.924  1.00  0.00     0.209 A 
HETATM    5  O3  UNL     1      -1.960   6.071  13.810  1.00  0.00    -0.372 OA
HETATM    6  C9  UNL     1      -3.994   5.145  14.812  1.00  0.00     0.160 C 
HETATM    7  C10 UNL     1      -5.415   5.209  14.399  1.00  0.00     0.043 C 
HETATM    8  C11 UNL     1      -6.029   3.836  14.327  1.00  0.00     0.030 C 
HETATM    9  C12 UNL     1      -5.769   3.183  15.695  1.00  0.00     0.171 C 
HETATM   10  C15 UNL     1      -4.372   2.879  15.127  1.00  0.00     0.091 C 
HETATM   11  C16 UNL     1      -3.780   1.599  15.620  1.00  0.00     0.049 C 
HETATM   12  O6  UNL     1      -3.593   3.959  15.382  1.00  0.00    -0.369 OA
HETATM   13  C17 UNL     1      -5.026   2.845  13.784  1.00  0.00     0.059 C 
ENDROOT
BRANCH   1  14
HETATM   14  O2  UNL     1      -3.926   2.190  11.812  1.00  0.00    -0.312 OA
BRANCH  14  15
HETATM   15  C4  UNL     1      -4.876   1.301  11.384  1.00  0.00     0.282 C 
HETATM   16  O1  UNL     1      -5.964   1.740  10.977  1.00  0.00    -0.260 OA
BRANCH  15  17
HETATM   17  C3  UNL     1      -4.562  -0.134  11.428  1.00  0.00     0.077 C 
HETATM   18  C2  UNL     1      -3.327  -0.580  11.420  1.00  0.00    -0.025 C 
HETATM   19  C1  UNL     1      -3.073  -2.031  11.465  1.00  0.00     0.036 C 
ENDBRANCH  15  17
ENDBRANCH  14  15
ENDBRANCH   1  14
BRANCH   9  20
HETATM   20  O4  UNL     1      -6.451   1.974  15.878  1.00  0.00    -0.313 OA
BRANCH  20  21
HETATM   21  C13 UNL     1      -6.572   1.360  17.107  1.00  0.00     0.255 C 
HETATM   22  C14 UNL     1      -6.329   2.065  18.400  1.00  0.00     0.126 C 
HETATM   23  O5  UNL     1      -6.905   0.151  17.142  1.00  0.00    -0.266 OA
ENDBRANCH  20  21
ENDBRANCH   9  20
TORSDOF 5
ENDMDL
MODEL 2
REMARK VINA RESULT: -7.837703899      1.830      4.967
REMARK  5 active torsions:
REMARK  status: ('A' for Active; 'I' for Inactive)
REMARK    1  A    between atoms: C3_3  and  C4_4 
REMARK    2  A    between atoms: C4_4  and  O2_6 
REMARK    3  A    between atoms: O2_6  and  C5_7 
REMARK    4  A    between atoms: C12_15  and  O4_16 
REMARK    5  A    between atoms: O4_16  and  C13_17 
ROOT
HETATM    1  C5  UNL     1      -3.178   4.243  13.648  1.00  0.00     0.142 C 
HETATM    2  C6  UNL     1      -3.979   4.664  12.466  1.00  0.00     0.076 C 
HETATM    3  C7  UNL     1      -4.253   3.525  11.539  1.00  0.00     0.110 A 
HETATM    4  C8  UNL     1      -3.587   3.226  10.394  1.00  0.00     0.209 A 
HETATM    5  O3  UNL     1      -4.923   3.851  10.352  1.00  0.00    -0.372 OA
HETATM    6  C9  UNL     1      -4.971   2.453  12.364  1.00  0.00     0.160 C 
HETATM    7  C10 UNL     1      -3.943   1.592  12.992  1.00  0.00     0.043 C 
HETATM    8  C11 UNL     1      -3.758   1.928  14.447  1.00  0.00     0.030 C 
HETATM    9  C12 UNL     1      -5.158   1.854  15.080  1.00  0.00     0.171 C 
HETATM   10  C15 UNL     1      -5.341   3.268  14.503  1.00  0.00     0.091 C 
HETATM   11  C16 UNL     1      -6.200   4.160  15.339  1.00  0.00     0.049 C 
HETATM   12  O6  UNL     1      -5.798   3.125  13.234  1.00  0.00    -0.369 OA
HETATM   13  C17 UNL     1      -3.863   3.421  14.654  1.00  0.00     0.059 C 
ENDROOT
BRANCH   1  14
HETATM   14  O2  UNL     1      -2.716   5.442  14.292  1.00  0.00    -0.312 OA
BRANCH  14  15
HETATM   15  C4  UNL     1      -1.704   6.217  13.792  1.00  0.00     0.282 C 
HETATM   16  O1  UNL     1      -0.751   5.660  13.221  1.00  0.00    -0.260 OA
BRANCH  15  17
HETATM   17  C3  UNL     1      -1.792   7.674  13.956  1.00  0.00     0.077 C 
HETATM   18  C2  UNL     1      -1.303   8.291  15.008  1.00  0.00    -0.025 C 
HETATM   19  C1  UNL     1      -1.421   9.755  15.119  1.00  0.00     0.036 C 
ENDBRANCH  15  17
ENDBRANCH  14  15
ENDBRANCH   1  14
BRANCH   9  20
HETATM   20  O4  UNL     1      -5.147   1.939  16.479  1.00  0.00    -0.313 OA
BRANCH  20  21
HETATM   21  C13 UNL     1      -5.904   1.118  17.286  1.00  0.00     0.255 C 
HETATM   22  C14 UNL     1      -7.391   1.022  17.189  1.00  0.00     0.126 C 
HETATM   23  O5  UNL     1      -5.317   0.415  18.144  1.00  0.00    -0.266 OA
ENDBRANCH  20  21
ENDBRANCH   9  20
TORSDOF 5
ENDMDL
MODEL 3
REMARK VINA RESULT: -7.653262181      2.382      5.648
REMARK  5 active torsions:
REMARK  status: ('A' for Active; 'I' for Inactive)
REMARK    1  A    between atoms: C3_3  and  C4_4 
REMARK    2  A    between atoms: C4_4  and  O2_6 
REMARK    3  A    between atoms: O2_6  and  C5_7 
REMARK    4  A    between atoms: C12_15  and  O4_16 
REMARK    5  A    between atoms: O4_16  and  C13_17 
ROOT
HETATM    1  C5  UNL     1      -3.950   2.942  14.297  1.00  0.00     0.142 C 
HETATM    2  C6  UNL     1      -5.319   3.341  13.869  1.00  0.00     0.076 C 
HETATM    3  C7  UNL     1      -5.595   4.783  14.140  1.00  0.00     0.110 A 
HETATM    4  C8  UNL     1      -6.281   5.299  15.192  1.00  0.00     0.209 A 
HETATM    5  O3  UNL     1      -6.895   5.221  13.853  1.00  0.00    -0.372 OA
HETATM    6  C9  UNL     1      -4.513   5.581  13.407  1.00  0.00     0.160 C 
HETATM    7  C10 UNL     1      -3.348   5.714  14.313  1.00  0.00     0.043 C 
HETATM    8  C11 UNL     1      -2.247   4.760  13.937  1.00  0.00     0.030 C 
HETATM    9  C12 UNL     1      -1.957   5.013  12.447  1.00  0.00     0.171 C 
HETATM   10  C15 UNL     1      -3.181   4.115  12.201  1.00  0.00     0.091 C 
HETATM   11  C16 UNL     1      -3.089   3.288  10.960  1.00  0.00     0.049 C 
HETATM   12  O6  UNL     1      -4.276   4.916  12.227  1.00  0.00    -0.369 OA
HETATM   13  C17 UNL     1      -2.832   3.441  13.487  1.00  0.00     0.059 C 
ENDROOT
BRANCH   1  14
HETATM   14  O2  UNL     1      -3.905   1.506  14.282  1.00  0.00    -0.312 OA
BRANCH  14  15
HETATM   15  C4  UNL     1      -4.442   0.730  15.274  1.00  0.00     0.282 C 
HETATM   16  O1  UNL     1      -4.630  -0.478  15.052  1.00  0.00    -0.260 OA
BRANCH  15  17
HETATM   17  C3  UNL     1      -4.773   1.365  16.557  1.00  0.00     0.077 C 
HETATM   18  C2  UNL     1      -5.980   1.317  17.072  1.00  0.00    -0.025 C 
HETATM   19  C1  UNL     1      -6.253   1.972  18.363  1.00  0.00     0.036 C 
ENDBRANCH  15  17
ENDBRANCH  14  15
ENDBRANCH   1  14
BRANCH   9  20
HETATM   20  O4  UNL     1      -0.815   4.352  11.978  1.00  0.00    -0.313 OA
BRANCH  20  21
HETATM   21  C13 UNL     1       0.381   4.997  11.740  1.00  0.00     0.255 C 
HETATM   22  C14 UNL     1       1.534   4.351  11.045  1.00  0.00     0.126 C 
HETATM   23  O5  UNL     1       0.507   6.184  12.124  1.00  0.00    -0.266 OA
ENDBRANCH  20  21
ENDBRANCH   9  20
TORSDOF 5
ENDMDL
MODEL 4
REMARK VINA RESULT: -7.473986039      2.700      4.715
REMARK  5 active torsions:
REMARK  status: ('A' for Active; 'I' for Inactive)
REMARK    1  A    between atoms: C3_3  and  C4_4 
REMARK    2  A    between atoms: C4_4  and  O2_6 
REMARK    3  A    between atoms: O2_6  and  C5_7 
REMARK    4  A    between atoms: C12_15  and  O4_16 
REMARK    5  A    between atoms: O4_16  and  C13_17 
ROOT
HETATM    1  C5  UNL     1      -4.281   5.438  12.470  1.00  0.00     0.142 C 
HETATM    2  C6  UNL     1      -3.316   5.097  11.388  1.00  0.00     0.076 C 
HETATM    3  C7  UNL     1      -1.898   5.198  11.848  1.00  0.00     0.110 A 
HETATM    4  C8  UNL     1      -1.045   6.234  11.640  1.00  0.00     0.209 A 
HETATM    5  O3  UNL     1      -0.921   4.984  10.866  1.00  0.00    -0.372 OA
HETATM    6  C9  UNL     1      -1.761   4.263  13.052  1.00  0.00     0.160 C 
HETATM    7  C10 UNL     1      -2.127   5.023  14.269  1.00  0.00     0.043 C 
HETATM    8  C11 UNL     1      -3.512   4.673  14.741  1.00  0.00     0.030 C 
HETATM    9  C12 UNL     1      -3.535   3.142  14.888  1.00  0.00     0.171 C 
HETATM   10  C15 UNL     1      -3.765   3.139  13.367  1.00  0.00     0.091 C 
HETATM   11  C16 UNL     1      -4.625   2.017  12.884  1.00  0.00     0.049 C 
HETATM   12  O6  UNL     1      -2.543   3.164  12.779  1.00  0.00    -0.369 OA
HETATM   13  C17 UNL     1      -4.428   4.463  13.557  1.00  0.00     0.059 C 
ENDROOT
BRANCH   1  14
HETATM   14  O2  UNL     1      -5.565   5.612  11.849  1.00  0.00    -0.312 OA
BRANCH  14  15
HETATM   15  C4  UNL     1      -6.297   6.764  11.952  1.00  0.00     0.282 C 
HETATM   16  O1  UNL     1      -7.409   6.718  12.504  1.00  0.00    -0.260 OA
BRANCH  15  17
HETATM   17  C3  UNL     1      -5.731   8.004  11.403  1.00  0.00     0.077 C 
HETATM   18  C2  UNL     1      -6.482   9.028  11.069  1.00  0.00    -0.025 C 
HETATM   19  C1  UNL     1      -5.860  10.247  10.523  1.00  0.00     0.036 C 
ENDBRANCH  15  17
ENDBRANCH  14  15
ENDBRANCH   1  14
BRANCH   9  20
HETATM   20  O4  UNL     1      -4.689   2.655  15.516  1.00  0.00    -0.313 OA
BRANCH  20  21
HETATM   21  C13 UNL     1      -4.659   1.671  16.482  1.00  0.00     0.255 C 
HETATM   22  C14 UNL     1      -5.717   1.517  17.524  1.00  0.00     0.126 C 
HETATM   23  O5  UNL     1      -3.699   0.865  16.484  1.00  0.00    -0.266 OA
ENDBRANCH  20  21
ENDBRANCH   9  20
TORSDOF 5
ENDMDL
MODEL 5
REMARK VINA RESULT: -7.378593774      1.700      2.202
REMARK  5 active torsions:
REMARK  status: ('A' for Active; 'I' for Inactive)
REMARK    1  A    between atoms: C3_3  and  C4_4 
REMARK    2  A    between atoms: C4_4  and  O2_6 
REMARK    3  A    between atoms: O2_6  and  C5_7 
REMARK    4  A    between atoms: C12_15  and  O4_16 
REMARK    5  A    between atoms: O4_16  and  C13_17 
ROOT
HETATM    1  C5  UNL     1      -3.626   3.124  12.765  1.00  0.00     0.142 C 
HETATM    2  C6  UNL     1      -2.795   4.296  13.159  1.00  0.00     0.076 C 
HETATM    3  C7  UNL     1      -3.628   5.501  13.451  1.00  0.00     0.110 A 
HETATM    4  C8  UNL     1      -3.870   6.547  12.619  1.00  0.00     0.209 A 
HETATM    5  O3  UNL     1      -2.921   6.676  13.740  1.00  0.00    -0.372 OA
HETATM    6  C9  UNL     1      -4.609   5.099  14.555  1.00  0.00     0.160 C 
HETATM    7  C10 UNL     1      -5.812   4.521  13.912  1.00  0.00     0.043 C 
HETATM    8  C11 UNL     1      -5.815   3.019  14.002  1.00  0.00     0.030 C 
HETATM    9  C12 UNL     1      -5.637   2.682  15.492  1.00  0.00     0.171 C 
HETATM   10  C15 UNL     1      -4.142   2.928  15.225  1.00  0.00     0.091 C 
HETATM   11  C16 UNL     1      -3.230   2.071  16.041  1.00  0.00     0.049 C 
HETATM   12  O6  UNL     1      -3.920   4.256  15.396  1.00  0.00    -0.369 OA
HETATM   13  C17 UNL     1      -4.412   2.484  13.826  1.00  0.00     0.059 C 
ENDROOT
BRANCH   1  14
HETATM   14  O2  UNL     1      -2.732   2.141  12.216  1.00  0.00    -0.312 OA
BRANCH  14  15
HETATM   15  C4  UNL     1      -2.596   1.922  10.872  1.00  0.00     0.282 C 
HETATM   16  O1  UNL     1      -3.435   1.209  10.295  1.00  0.00    -0.260 OA
BRANCH  15  17
HETATM   17  C3  UNL     1      -1.460   2.539  10.173  1.00  0.00     0.077 C 
HETATM   18  C2  UNL     1      -0.385   2.946  10.808  1.00  0.00    -0.025 C 
HETATM   19  C1  UNL     1       0.723   3.559  10.055  1.00  0.00     0.036 C 
ENDBRANCH  15  17
ENDBRANCH  14  15
ENDBRANCH   1  14
BRANCH   9  20
HETATM   20  O4  UNL     1      -5.822   1.325  15.787  1.00  0.00    -0.313 OA
BRANCH  20  21
HETATM   21  C13 UNL     1      -6.031   0.857  17.067  1.00  0.00     0.255 C 
HETATM   22  C14 UNL     1      -6.333   1.751  18.225  1.00  0.00     0.126 C 
HETATM   23  O5  UNL     1      -5.967  -0.379  17.271  1.00  0.00    -0.266 OA
ENDBRANCH  20  21
ENDBRANCH   9  20
TORSDOF 5
ENDMDL
