MODEL 1
REMARK VINA RESULT: -8.496217674      0.000      0.000
REMARK  4 active torsions:
REMARK  status: ('A' for Active; 'I' for Inactive)
REMARK    1  A    between atoms: C11_11  and  O1_12 
REMARK    2  A    between atoms: C12_14  and  O2_15 
REMARK    3  A    between atoms: O2_15  and  C13_16 
REMARK    4  A    between atoms: C13_16  and  C14_18 
ROOT
HETATM    1  C1  UNL     1      -2.011   0.200  11.363  1.00  0.00     0.019 C 
HETATM    2  C2  UNL     1      -2.681   1.322  11.547  1.00  0.00    -0.029 C 
HETATM    3  C3  UNL     1      -2.241   2.586  10.944  1.00  0.00     0.156 C 
HETATM    4  C4  UNL     1      -1.089   2.662  10.066  1.00  0.00     0.040 C 
HETATM    5  C5  UNL     1      -1.290   3.745   9.035  1.00  0.00     0.044 C 
HETATM    6  C6  UNL     1      -2.048   4.933   9.347  1.00  0.00     0.101 C 
HETATM    7  C7  UNL     1      -1.134   6.162   9.172  1.00  0.00     0.049 C 
HETATM    8  C8  UNL     1      -2.676   5.117  10.707  1.00  0.00     0.112 C 
HETATM    9  C9  UNL     1      -3.801   4.160  10.769  1.00  0.00     0.206 C 
HETATM   10  C10 UNL     1      -4.334   3.752  12.070  1.00  0.00     0.106 C 
HETATM   11  C11 UNL     1      -4.925   2.337  12.034  1.00  0.00     0.157 C 
HETATM   12  C12 UNL     1      -3.913   1.269  12.395  1.00  0.00     0.191 C 
HETATM   13  O4  UNL     1      -4.762   4.641   9.848  1.00  0.00    -0.170 OA
HETATM   14  O5  UNL     1      -4.176   4.492   8.662  1.00  0.00    -0.063 OA
HETATM   15  O6  UNL     1      -3.124   5.194   8.462  1.00  0.00    -0.200 OA
HETATM   16  O7  UNL     1      -3.351   2.969  10.151  1.00  0.00    -0.342 OA
ENDROOT
BRANCH  12  17
HETATM   17  O2  UNL     1      -3.626   1.379  13.764  1.00  0.00    -0.308 OA
BRANCH  17  18
HETATM   18  C13 UNL     1      -4.420   0.866  14.776  1.00  0.00     0.263 C 
HETATM   19  O3  UNL     1      -4.787  -0.324  14.674  1.00  0.00    -0.265 OA
BRANCH  18  20
HETATM   20  C14 UNL     1      -4.848   1.648  15.952  1.00  0.00     0.077 C 
HETATM   21  C15 UNL     1      -5.533   0.713  16.921  1.00  0.00     0.020 C 
HETATM   22  C16 UNL     1      -5.799   2.757  15.558  1.00  0.00     0.020 C 
ENDBRANCH  18  20
ENDBRANCH  17  18
ENDBRANCH  12  17
BRANCH  11  23
HETATM   23  O1  UNL     1      -5.492   2.119  10.777  1.00  0.00    -0.392 OA
ATOM     24  H1  UNL     1      -4.947   1.504  10.300  1.00  0.00     0.210 HD
ENDBRANCH  11  23
TORSDOF 4
ENDMDL
MODEL 2
REMARK VINA RESULT: -7.882126376      1.645      6.202
REMARK  4 active torsions:
REMARK  status: ('A' for Active; 'I' for Inactive)
REMARK    1  A    between atoms: C11_11  and  O1_12 
REMARK    2  A    between atoms: C12_14  and  O2_15 
REMARK    3  A    between atoms: O2_15  and  C13_16 
REMARK    4  A    between atoms: C13_16  and  C14_18 
ROOT
HETATM    1  C1  UNL     1      -3.251   0.471  10.815  1.00  0.00     0.019 C 
HETATM    2  C2  UNL     1      -3.579   1.480  11.601  1.00  0.00    -0.029 C 
HETATM    3  C3  UNL     1      -4.197   1.258  12.914  1.00  0.00     0.156 C 
HETATM    4  C4  UNL     1      -4.422  -0.072  13.447  1.00  0.00     0.040 C 
HETATM    5  C5  UNL     1      -4.308  -0.057  14.952  1.00  0.00     0.044 C 
HETATM    6  C6  UNL     1      -4.694   1.107  15.712  1.00  0.00     0.101 C 
HETATM    7  C7  UNL     1      -5.823   0.710  16.684  1.00  0.00     0.049 C 
HETATM    8  C8  UNL     1      -5.204   2.349  15.023  1.00  0.00     0.112 C 
HETATM    9  C9  UNL     1      -4.035   2.950  14.348  1.00  0.00     0.206 C 
HETATM   10  C10 UNL     1      -4.239   3.885  13.240  1.00  0.00     0.106 C 
HETATM   11  C11 UNL     1      -3.079   3.856  12.237  1.00  0.00     0.157 C 
HETATM   12  C12 UNL     1      -3.301   2.866  11.112  1.00  0.00     0.191 C 
HETATM   13  O4  UNL     1      -3.194   3.420  15.385  1.00  0.00    -0.170 OA
HETATM   14  O5  UNL     1      -2.779   2.310  15.992  1.00  0.00    -0.063 OA
HETATM   15  O6  UNL     1      -3.683   1.611  16.569  1.00  0.00    -0.200 OA
HETATM   16  O7  UNL     1      -3.286   1.878  13.807  1.00  0.00    -0.342 OA
ENDROOT
BRANCH  12  17
HETATM   17  O2  UNL     1      -4.323   3.358  10.288  1.00  0.00    -0.308 OA
BRANCH  17  18
HETATM   18  C13 UNL     1      -4.364   4.642   9.770  1.00  0.00     0.263 C 
HETATM   19  O3  UNL     1      -5.364   5.340  10.038  1.00  0.00    -0.265 OA
BRANCH  18  20
HETATM   20  C14 UNL     1      -3.296   5.216   8.928  1.00  0.00     0.077 C 
HETATM   21  C15 UNL     1      -2.928   6.571   9.485  1.00  0.00     0.020 C 
HETATM   22  C16 UNL     1      -3.749   5.362   7.492  1.00  0.00     0.020 C 
ENDBRANCH  18  20
ENDBRANCH  17  18
ENDBRANCH  12  17
BRANCH  11  23
HETATM   23  O1  UNL     1      -1.894   3.606  12.930  1.00  0.00    -0.392 OA
ATOM     24  H1  UNL     1      -1.263   4.282  12.711  1.00  0.00     0.210 HD
ENDBRANCH  11  23
TORSDOF 4
ENDMDL
MODEL 3
REMARK VINA RESULT: -7.811049378      1.749      6.101
REMARK  4 active torsions:
REMARK  status: ('A' for Active; 'I' for Inactive)
REMARK    1  A    between atoms: C11_11  and  O1_12 
REMARK    2  A    between atoms: C12_14  and  O2_15 
REMARK    3  A    between atoms: O2_15  and  C13_16 
REMARK    4  A    between atoms: C13_16  and  C14_18 
ROOT
HETATM    1  C1  UNL     1      -3.343   0.889  10.734  1.00  0.00     0.019 C 
HETATM    2  C2  UNL     1      -3.637   1.828  11.614  1.00  0.00    -0.029 C 
HETATM    3  C3  UNL     1      -4.233   1.501  12.915  1.00  0.00     0.156 C 
HETATM    4  C4  UNL     1      -4.473   0.133  13.331  1.00  0.00     0.040 C 
HETATM    5  C5  UNL     1      -4.330   0.010  14.828  1.00  0.00     0.044 C 
HETATM    6  C6  UNL     1      -4.679   1.108  15.698  1.00  0.00     0.101 C 
HETATM    7  C7  UNL     1      -5.795   0.645  16.654  1.00  0.00     0.049 C 
HETATM    8  C8  UNL     1      -5.179   2.415  15.133  1.00  0.00     0.112 C 
HETATM    9  C9  UNL     1      -4.012   3.054  14.490  1.00  0.00     0.206 C 
HETATM   10  C10 UNL     1      -4.219   4.088  13.475  1.00  0.00     0.106 C 
HETATM   11  C11 UNL     1      -3.080   4.130  12.449  1.00  0.00     0.157 C 
HETATM   12  C12 UNL     1      -3.342   3.248  11.245  1.00  0.00     0.191 C 
HETATM   13  O4  UNL     1      -3.142   3.415  15.547  1.00  0.00    -0.170 OA
HETATM   14  O5  UNL     1      -2.736   2.248  16.043  1.00  0.00    -0.063 OA
HETATM   15  O6  UNL     1      -3.641   1.516  16.575  1.00  0.00    -0.200 OA
HETATM   16  O7  UNL     1      -3.294   2.022  13.840  1.00  0.00    -0.342 OA
ENDROOT
BRANCH  12  17
HETATM   17  O2  UNL     1      -4.371   3.830  10.489  1.00  0.00    -0.308 OA
BRANCH  17  18
HETATM   18  C13 UNL     1      -4.179   4.785   9.505  1.00  0.00     0.263 C 
HETATM   19  O3  UNL     1      -3.700   4.402   8.417  1.00  0.00    -0.265 OA
BRANCH  18  20
HETATM   20  C14 UNL     1      -4.508   6.213   9.679  1.00  0.00     0.077 C 
HETATM   21  C15 UNL     1      -3.233   6.958  10.000  1.00  0.00     0.020 C 
HETATM   22  C16 UNL     1      -5.508   6.413  10.795  1.00  0.00     0.020 C 
ENDBRANCH  18  20
ENDBRANCH  17  18
ENDBRANCH  12  17
BRANCH  11  23
HETATM   23  O1  UNL     1      -1.886   3.798  13.092  1.00  0.00    -0.392 OA
ATOM     24  H1  UNL     1      -2.089   3.280  13.863  1.00  0.00     0.210 HD
ENDBRANCH  11  23
TORSDOF 4
ENDMDL
MODEL 4
REMARK VINA RESULT: -7.808006523      1.520      1.744
REMARK  4 active torsions:
REMARK  status: ('A' for Active; 'I' for Inactive)
REMARK    1  A    between atoms: C11_11  and  O1_12 
REMARK    2  A    between atoms: C12_14  and  O2_15 
REMARK    3  A    between atoms: O2_15  and  C13_16 
REMARK    4  A    between atoms: C13_16  and  C14_18 
ROOT
HETATM    1  C1  UNL     1      -3.990   0.167  11.938  1.00  0.00     0.019 C 
HETATM    2  C2  UNL     1      -3.614   1.361  12.361  1.00  0.00    -0.029 C 
HETATM    3  C3  UNL     1      -2.476   2.064  11.758  1.00  0.00     0.156 C 
HETATM    4  C4  UNL     1      -1.744   1.523  10.630  1.00  0.00     0.040 C 
HETATM    5  C5  UNL     1      -1.225   2.641   9.759  1.00  0.00     0.044 C 
HETATM    6  C6  UNL     1      -0.847   3.910  10.331  1.00  0.00     0.101 C 
HETATM    7  C7  UNL     1       0.642   4.168  10.023  1.00  0.00     0.049 C 
HETATM    8  C8  UNL     1      -0.976   4.162  11.814  1.00  0.00     0.112 C 
HETATM    9  C9  UNL     1      -2.425   4.263  12.085  1.00  0.00     0.206 C 
HETATM   10  C10 UNL     1      -2.925   4.055  13.445  1.00  0.00     0.106 C 
HETATM   11  C11 UNL     1      -4.353   3.494  13.458  1.00  0.00     0.157 C 
HETATM   12  C12 UNL     1      -4.389   1.980  13.481  1.00  0.00     0.191 C 
HETATM   13  O4  UNL     1      -2.847   5.465  11.466  1.00  0.00    -0.170 OA
HETATM   14  O5  UNL     1      -2.699   5.226  10.165  1.00  0.00    -0.063 OA
HETATM   15  O6  UNL     1      -1.501   5.031   9.760  1.00  0.00    -0.200 OA
HETATM   16  O7  UNL     1      -3.054   3.272  11.293  1.00  0.00    -0.342 OA
ENDROOT
BRANCH  12  17
HETATM   17  O2  UNL     1      -3.947   1.549  14.741  1.00  0.00    -0.308 OA
BRANCH  17  18
HETATM   18  C13 UNL     1      -4.723   0.844  15.646  1.00  0.00     0.263 C 
HETATM   19  O3  UNL     1      -4.874  -0.379  15.446  1.00  0.00    -0.265 OA
BRANCH  18  20
HETATM   20  C14 UNL     1      -5.371   1.463  16.819  1.00  0.00     0.077 C 
HETATM   21  C15 UNL     1      -5.945   0.362  17.680  1.00  0.00     0.020 C 
HETATM   22  C16 UNL     1      -6.474   2.409  16.401  1.00  0.00     0.020 C 
ENDBRANCH  18  20
ENDBRANCH  17  18
ENDBRANCH  12  17
BRANCH  11  23
HETATM   23  O1  UNL     1      -5.050   4.019  12.368  1.00  0.00    -0.392 OA
ATOM     24  H1  UNL     1      -4.431   4.452  11.791  1.00  0.00     0.210 HD
ENDBRANCH  11  23
TORSDOF 4
ENDMDL
MODEL 5
REMARK VINA RESULT: -7.682343666      1.837      2.834
REMARK  4 active torsions:
REMARK  status: ('A' for Active; 'I' for Inactive)
REMARK    1  A    between atoms: C11_11  and  O1_12 
REMARK    2  A    between atoms: C12_14  and  O2_15 
REMARK    3  A    between atoms: O2_15  and  C13_16 
REMARK    4  A    between atoms: C13_16  and  C14_18 
ROOT
HETATM    1  C1  UNL     1      -3.144   3.462  15.368  1.00  0.00     0.019 C 
HETATM    2  C2  UNL     1      -3.710   2.931  14.299  1.00  0.00    -0.029 C 
HETATM    3  C3  UNL     1      -3.813   3.674  13.038  1.00  0.00     0.156 C 
HETATM    4  C4  UNL     1      -3.247   4.999  12.874  1.00  0.00     0.040 C 
HETATM    5  C5  UNL     1      -2.795   5.202  11.448  1.00  0.00     0.044 C 
HETATM    6  C6  UNL     1      -3.489   4.566  10.355  1.00  0.00     0.101 C 
HETATM    7  C7  UNL     1      -4.024   5.658   9.408  1.00  0.00     0.049 C 
HETATM    8  C8  UNL     1      -4.675   3.667  10.607  1.00  0.00     0.112 C 
HETATM    9  C9  UNL     1      -4.131   2.436  11.218  1.00  0.00     0.206 C 
HETATM   10  C10 UNL     1      -5.013   1.559  11.991  1.00  0.00     0.106 C 
HETATM   11  C11 UNL     1      -4.257   0.801  13.089  1.00  0.00     0.157 C 
HETATM   12  C12 UNL     1      -4.248   1.540  14.412  1.00  0.00     0.191 C 
HETATM   13  O4  UNL     1      -3.391   1.796  10.195  1.00  0.00    -0.170 OA
HETATM   14  O5  UNL     1      -2.368   2.619   9.974  1.00  0.00    -0.063 OA
HETATM   15  O6  UNL     1      -2.664   3.776   9.514  1.00  0.00    -0.200 OA
HETATM   16  O7  UNL     1      -3.120   2.847  12.119  1.00  0.00    -0.342 OA
ENDROOT
BRANCH  12  17
HETATM   17  O2  UNL     1      -5.546   1.508  14.943  1.00  0.00    -0.308 OA
BRANCH  17  18
HETATM   18  C13 UNL     1      -5.862   1.066  16.216  1.00  0.00     0.263 C 
HETATM   19  O3  UNL     1      -5.393  -0.033  16.578  1.00  0.00    -0.265 OA
BRANCH  18  20
HETATM   20  C14 UNL     1      -6.716   1.823  17.153  1.00  0.00     0.077 C 
HETATM   21  C15 UNL     1      -6.885   3.224  16.615  1.00  0.00     0.020 C 
HETATM   22  C16 UNL     1      -6.100   1.879  18.533  1.00  0.00     0.020 C 
ENDBRANCH  18  20
ENDBRANCH  17  18
ENDBRANCH  12  17
BRANCH  11  23
HETATM   23  O1  UNL     1      -2.967   0.522  12.635  1.00  0.00    -0.392 OA
ATOM     24  H1  UNL     1      -2.449   1.318  12.681  1.00  0.00     0.210 HD
ENDBRANCH  11  23
TORSDOF 4
ENDMDL
