MODEL 1
REMARK VINA RESULT: -7.774955484      0.000      0.000
REMARK  4 active torsions:
REMARK  status: ('A' for Active; 'I' for Inactive)
REMARK    1  A    between atoms: O1_1  and  C1_3 
REMARK    2  A    between atoms: C1_3  and  O2_4 
REMARK    3  A    between atoms: O2_4  and  C2_5 
REMARK    4  A    between atoms: N3_19  and  C11_20 
ROOT
HETATM    1  C1  UNL     1      -3.702   2.567  15.288  1.00  0.00     0.280 C 
HETATM    2  C6  UNL     1      -3.144   3.913  15.013  1.00  0.00     0.107 C 
HETATM    3  C7  UNL     1      -3.400   4.509  13.666  1.00  0.00    -0.000 C 
HETATM    4  C8  UNL     1      -4.104   5.869  13.796  1.00  0.00     0.011 C 
HETATM    5  C9  UNL     1      -4.142   6.496  12.426  1.00  0.00     0.061 C 
HETATM    6  C10 UNL     1      -3.070   6.087  11.523  1.00  0.00     0.051 A 
HETATM    7  N1  UNL     1      -2.231   6.941  10.922  1.00  0.00    -0.288 N 
ATOM      8  H1  UNL     1      -2.232   7.957  11.019  1.00  0.00     0.188 HD
HETATM    9  N2  UNL     1      -1.411   6.237  10.192  1.00  0.00    -0.240 N 
ATOM     10  H2  UNL     1      -0.663   6.632   9.623  1.00  0.00     0.208 HD
HETATM   11  N3  UNL     1      -1.676   4.945  10.285  1.00  0.00    -0.275 N 
HETATM   12  C14 UNL     1      -2.719   4.816  11.118  1.00  0.00     0.054 A 
HETATM   13  C15 UNL     1      -3.280   3.485  11.452  1.00  0.00     0.068 C 
HETATM   14  C16 UNL     1      -4.153   3.676  12.699  1.00  0.00     0.020 C 
HETATM   15  C17 UNL     1      -4.559   2.327  13.249  1.00  0.00     0.179 C 
HETATM   16  O4  UNL     1      -3.586   1.811  14.096  1.00  0.00    -0.332 OA
ENDROOT
BRANCH   1  17
HETATM   17  O1  UNL     1      -2.864   1.943  16.255  1.00  0.00    -0.343 OA
ATOM     18  H1  UNL     1      -1.981   2.290  16.199  1.00  0.00     0.215 HD
ENDBRANCH   1  17
BRANCH   1  19
HETATM   19  O2  UNL     1      -5.006   2.590  15.729  1.00  0.00    -0.325 OA
BRANCH  19  20
HETATM   20  C2  UNL     1      -5.277   1.852  16.847  1.00  0.00     0.153 C 
HETATM   21  C3  UNL     1      -6.613   2.264  17.408  1.00  0.00     0.060 C 
HETATM   22  C4  UNL     1      -7.483   1.078  17.064  1.00  0.00     0.170 C 
HETATM   23  O3  UNL     1      -6.618   0.010  17.277  1.00  0.00    -0.389 OA
HETATM   24  C5  UNL     1      -5.522   0.383  16.496  1.00  0.00     0.199 C 
ENDBRANCH  19  20
ENDBRANCH   1  19
BRANCH  11  25
HETATM   25  C11 UNL     1      -0.924   3.938   9.580  1.00  0.00     0.109 A 
HETATM   26  C12 UNL     1       0.438   4.196   9.067  1.00  0.00     0.029 A 
HETATM   27  C13 UNL     1       0.300   3.447  10.348  1.00  0.00     0.029 A 
ENDBRANCH  11  25
TORSDOF 4
ENDMDL
MODEL 2
REMARK VINA RESULT: -7.344157413      3.781      7.669
REMARK  4 active torsions:
REMARK  status: ('A' for Active; 'I' for Inactive)
REMARK    1  A    between atoms: O1_1  and  C1_3 
REMARK    2  A    between atoms: C1_3  and  O2_4 
REMARK    3  A    between atoms: O2_4  and  C2_5 
REMARK    4  A    between atoms: N3_19  and  C11_20 
ROOT
HETATM    1  C1  UNL     1      -0.318   4.340  11.252  1.00  0.00     0.280 C 
HETATM    2  C6  UNL     1      -0.430   2.877  11.458  1.00  0.00     0.107 C 
HETATM    3  C7  UNL     1      -1.800   2.280  11.468  1.00  0.00    -0.000 C 
HETATM    4  C8  UNL     1      -1.925   1.181  10.400  1.00  0.00     0.011 C 
HETATM    5  C9  UNL     1      -3.249   0.492  10.605  1.00  0.00     0.061 C 
HETATM    6  C10 UNL     1      -3.762   0.522  11.972  1.00  0.00     0.051 A 
HETATM    7  N1  UNL     1      -4.086  -0.572  12.673  1.00  0.00    -0.288 N 
ATOM      8  H1  UNL     1      -4.014  -1.538  12.352  1.00  0.00     0.188 HD
HETATM    9  N2  UNL     1      -4.509  -0.177  13.842  1.00  0.00    -0.240 N 
ATOM     10  H2  UNL     1      -4.822  -0.804  14.583  1.00  0.00     0.208 HD
HETATM   11  N3  UNL     1      -4.478   1.141  13.943  1.00  0.00    -0.275 N 
HETATM   12  C14 UNL     1      -4.012   1.613  12.777  1.00  0.00     0.054 A 
HETATM   13  C15 UNL     1      -3.845   3.068  12.546  1.00  0.00     0.068 C 
HETATM   14  C16 UNL     1      -2.938   3.217  11.317  1.00  0.00     0.020 C 
HETATM   15  C17 UNL     1      -2.517   4.661  11.166  1.00  0.00     0.179 C 
HETATM   16  O4  UNL     1      -1.397   4.947  11.938  1.00  0.00    -0.332 OA
ENDROOT
BRANCH   1  17
HETATM   17  O1  UNL     1       0.876   4.775  11.895  1.00  0.00    -0.343 OA
ATOM     18  H1  UNL     1       1.438   4.033  12.084  1.00  0.00     0.215 HD
ENDBRANCH   1  17
BRANCH   1  19
HETATM   19  O2  UNL     1      -0.308   4.712   9.926  1.00  0.00    -0.325 OA
BRANCH  19  20
HETATM   20  C2  UNL     1       0.314   3.852   9.064  1.00  0.00     0.153 C 
HETATM   21  C3  UNL     1      -0.540   3.671   7.836  1.00  0.00     0.060 C 
HETATM   22  C4  UNL     1       0.238   4.436   6.791  1.00  0.00     0.170 C 
HETATM   23  O3  UNL     1       1.554   4.131   7.125  1.00  0.00    -0.389 OA
HETATM   24  C5  UNL     1       1.582   4.476   8.477  1.00  0.00     0.199 C 
ENDBRANCH  19  20
ENDBRANCH   1  19
BRANCH  11  25
HETATM   25  C11 UNL     1      -4.891   1.847  15.129  1.00  0.00     0.109 A 
HETATM   26  C12 UNL     1      -5.108   1.152  16.415  1.00  0.00     0.029 A 
HETATM   27  C13 UNL     1      -3.823   1.880  16.218  1.00  0.00     0.029 A 
ENDBRANCH  11  25
TORSDOF 4
ENDMDL
MODEL 3
REMARK VINA RESULT: -6.958489664      3.756      7.156
REMARK  4 active torsions:
REMARK  status: ('A' for Active; 'I' for Inactive)
REMARK    1  A    between atoms: O1_1  and  C1_3 
REMARK    2  A    between atoms: C1_3  and  O2_4 
REMARK    3  A    between atoms: O2_4  and  C2_5 
REMARK    4  A    between atoms: N3_19  and  C11_20 
ROOT
HETATM    1  C1  UNL     1      -2.763   6.220  13.942  1.00  0.00     0.280 C 
HETATM    2  C6  UNL     1      -2.273   4.830  13.786  1.00  0.00     0.107 C 
HETATM    3  C7  UNL     1      -3.292   3.744  13.668  1.00  0.00    -0.000 C 
HETATM    4  C8  UNL     1      -3.097   2.950  12.366  1.00  0.00     0.011 C 
HETATM    5  C9  UNL     1      -4.018   1.758  12.415  1.00  0.00     0.061 C 
HETATM    6  C10 UNL     1      -4.347   1.279  13.755  1.00  0.00     0.051 A 
HETATM    7  N1  UNL     1      -4.138   0.023  14.173  1.00  0.00    -0.288 N 
ATOM      8  H1  UNL     1      -3.733  -0.735  13.624  1.00  0.00     0.188 HD
HETATM    9  N2  UNL     1      -4.549  -0.052  15.408  1.00  0.00    -0.240 N 
ATOM     10  H2  UNL     1      -4.508  -0.897  15.978  1.00  0.00     0.208 HD
HETATM   11  N3  UNL     1      -5.023   1.109  15.827  1.00  0.00    -0.275 N 
HETATM   12  C14 UNL     1      -4.910   1.971  14.806  1.00  0.00     0.054 A 
HETATM   13  C15 UNL     1      -5.349   3.381  14.935  1.00  0.00     0.068 C 
HETATM   14  C16 UNL     1      -4.715   4.148  13.767  1.00  0.00     0.020 C 
HETATM   15  C17 UNL     1      -4.909   5.634  13.968  1.00  0.00     0.179 C 
HETATM   16  O4  UNL     1      -3.910   6.173  14.770  1.00  0.00    -0.332 OA
ENDROOT
BRANCH   1  17
HETATM   17  O1  UNL     1      -1.769   6.949  14.655  1.00  0.00    -0.343 OA
ATOM     18  H1  UNL     1      -1.010   7.099  14.104  1.00  0.00     0.215 HD
ENDBRANCH   1  17
BRANCH   1  19
HETATM   19  O2  UNL     1      -3.046   6.843  12.747  1.00  0.00    -0.325 OA
BRANCH  19  20
HETATM   20  C2  UNL     1      -2.154   6.634  11.732  1.00  0.00     0.153 C 
HETATM   21  C3  UNL     1      -2.900   6.232  10.486  1.00  0.00     0.060 C 
HETATM   22  C4  UNL     1      -2.773   7.468   9.626  1.00  0.00     0.170 C 
HETATM   23  O3  UNL     1      -1.474   7.882   9.901  1.00  0.00    -0.389 OA
HETATM   24  C5  UNL     1      -1.494   7.943  11.295  1.00  0.00     0.199 C 
ENDBRANCH  19  20
ENDBRANCH   1  19
BRANCH  11  25
HETATM   25  C11 UNL     1      -5.544   1.310  17.156  1.00  0.00     0.109 A 
HETATM   26  C12 UNL     1      -6.587   2.317  17.442  1.00  0.00     0.029 A 
HETATM   27  C13 UNL     1      -7.005   0.893  17.304  1.00  0.00     0.029 A 
ENDBRANCH  11  25
TORSDOF 4
ENDMDL
MODEL 4
REMARK VINA RESULT: -6.837963333      3.779      7.260
REMARK  4 active torsions:
REMARK  status: ('A' for Active; 'I' for Inactive)
REMARK    1  A    between atoms: O1_1  and  C1_3 
REMARK    2  A    between atoms: C1_3  and  O2_4 
REMARK    3  A    between atoms: O2_4  and  C2_5 
REMARK    4  A    between atoms: N3_19  and  C11_20 
ROOT
HETATM    1  C1  UNL     1      -2.593   5.713  12.485  1.00  0.00     0.280 C 
HETATM    2  C6  UNL     1      -2.166   4.299  12.611  1.00  0.00     0.107 C 
HETATM    3  C7  UNL     1      -3.226   3.271  12.837  1.00  0.00    -0.000 C 
HETATM    4  C8  UNL     1      -3.185   2.194  11.741  1.00  0.00     0.011 C 
HETATM    5  C9  UNL     1      -4.135   1.095  12.143  1.00  0.00     0.061 C 
HETATM    6  C10 UNL     1      -4.347   0.950  13.581  1.00  0.00     0.051 A 
HETATM    7  N1  UNL     1      -4.140  -0.188  14.257  1.00  0.00    -0.288 N 
ATOM      8  H1  UNL     1      -3.815  -1.071  13.865  1.00  0.00     0.188 HD
HETATM    9  N2  UNL     1      -4.430   0.041  15.508  1.00  0.00    -0.240 N 
ATOM     10  H2  UNL     1      -4.362  -0.654  16.251  1.00  0.00     0.208 HD
HETATM   11  N3  UNL     1      -4.823   1.291  15.687  1.00  0.00    -0.275 N 
HETATM   12  C14 UNL     1      -4.782   1.892  14.489  1.00  0.00     0.054 A 
HETATM   13  C15 UNL     1      -5.161   3.316  14.328  1.00  0.00     0.068 C 
HETATM   14  C16 UNL     1      -4.619   3.763  12.964  1.00  0.00     0.020 C 
HETATM   15  C17 UNL     1      -4.744   5.265  12.833  1.00  0.00     0.179 C 
HETATM   16  O4  UNL     1      -3.655   5.917  13.399  1.00  0.00    -0.332 OA
ENDROOT
BRANCH   1  17
HETATM   17  O1  UNL     1      -1.511   6.530  12.922  1.00  0.00    -0.343 OA
ATOM     18  H1  UNL     1      -0.942   6.039  13.503  1.00  0.00     0.215 HD
ENDBRANCH   1  17
BRANCH   1  19
HETATM   19  O2  UNL     1      -2.970   6.063  11.209  1.00  0.00    -0.325 OA
BRANCH  19  20
HETATM   20  C2  UNL     1      -2.262   5.488  10.191  1.00  0.00     0.153 C 
HETATM   21  C3  UNL     1      -3.217   4.916   9.177  1.00  0.00     0.060 C 
HETATM   22  C4  UNL     1      -3.070   5.878   8.021  1.00  0.00     0.170 C 
HETATM   23  O3  UNL     1      -1.706   6.149   8.039  1.00  0.00    -0.389 OA
HETATM   24  C5  UNL     1      -1.521   6.542   9.366  1.00  0.00     0.199 C 
ENDBRANCH  19  20
ENDBRANCH   1  19
BRANCH  11  25
HETATM   25  C11 UNL     1      -5.206   1.815  16.974  1.00  0.00     0.109 A 
HETATM   26  C12 UNL     1      -6.588   2.253  17.260  1.00  0.00     0.029 A 
HETATM   27  C13 UNL     1      -6.165   0.906  17.738  1.00  0.00     0.029 A 
ENDBRANCH  11  25
TORSDOF 4
ENDMDL
MODEL 5
REMARK VINA RESULT: -6.795730586      3.962      7.912
REMARK  4 active torsions:
REMARK  status: ('A' for Active; 'I' for Inactive)
REMARK    1  A    between atoms: O1_1  and  C1_3 
REMARK    2  A    between atoms: C1_3  and  O2_4 
REMARK    3  A    between atoms: O2_4  and  C2_5 
REMARK    4  A    between atoms: N3_19  and  C11_20 
ROOT
HETATM    1  C1  UNL     1      -0.877   3.852  10.277  1.00  0.00     0.280 C 
HETATM    2  C6  UNL     1      -0.926   2.556  10.994  1.00  0.00     0.107 C 
HETATM    3  C7  UNL     1      -2.271   2.008  11.348  1.00  0.00    -0.000 C 
HETATM    4  C8  UNL     1      -2.464   0.605  10.751  1.00  0.00     0.011 C 
HETATM    5  C9  UNL     1      -3.742   0.039  11.315  1.00  0.00     0.061 C 
HETATM    6  C10 UNL     1      -4.124   0.551  12.629  1.00  0.00     0.051 A 
HETATM    7  N1  UNL     1      -4.346  -0.224  13.698  1.00  0.00    -0.288 N 
ATOM      8  H1  UNL     1      -4.277  -1.241  13.730  1.00  0.00     0.188 HD
HETATM    9  N2  UNL     1      -4.667   0.559  14.690  1.00  0.00    -0.240 N 
ATOM     10  H2  UNL     1      -4.890   0.234  15.631  1.00  0.00     0.208 HD
HETATM   11  N3  UNL     1      -4.666   1.828  14.318  1.00  0.00    -0.275 N 
HETATM   12  C14 UNL     1      -4.327   1.857  13.021  1.00  0.00     0.054 A 
HETATM   13  C15 UNL     1      -4.226   3.137  12.279  1.00  0.00     0.068 C 
HETATM   14  C16 UNL     1      -3.446   2.839  10.993  1.00  0.00     0.020 C 
HETATM   15  C17 UNL     1      -3.084   4.136  10.304  1.00  0.00     0.179 C 
HETATM   16  O4  UNL     1      -1.905   4.668  10.811  1.00  0.00    -0.332 OA
ENDROOT
BRANCH   1  17
HETATM   17  O1  UNL     1       0.358   4.479  10.606  1.00  0.00    -0.343 OA
ATOM     18  H1  UNL     1       0.404   5.343  10.214  1.00  0.00     0.215 HD
ENDBRANCH   1  17
BRANCH   1  19
HETATM   19  O2  UNL     1      -1.005   3.734   8.912  1.00  0.00    -0.325 OA
BRANCH  19  20
HETATM   20  C2  UNL     1      -0.242   4.583   8.159  1.00  0.00     0.153 C 
HETATM   21  C3  UNL     1       0.509   3.793   7.120  1.00  0.00     0.060 C 
HETATM   22  C4  UNL     1      -0.214   4.171   5.848  1.00  0.00     0.170 C 
HETATM   23  O3  UNL     1      -0.477   5.521   6.053  1.00  0.00    -0.389 OA
HETATM   24  C5  UNL     1      -1.116   5.493   7.293  1.00  0.00     0.199 C 
ENDBRANCH  19  20
ENDBRANCH   1  19
BRANCH  11  25
HETATM   25  C11 UNL     1      -4.986   2.908  15.217  1.00  0.00     0.109 A 
HETATM   26  C12 UNL     1      -6.219   3.710  15.068  1.00  0.00     0.029 A 
HETATM   27  C13 UNL     1      -6.205   2.628  16.092  1.00  0.00     0.029 A 
ENDBRANCH  11  25
TORSDOF 4
ENDMDL
