MODEL 1
REMARK VINA RESULT: -8.882441937      0.000      0.000
REMARK  13 active torsions:
REMARK  status: ('A' for Active; 'I' for Inactive)
REMARK    1  A    between atoms: C2_2  and  C3_3 
REMARK    2  A    between atoms: C3_3  and  C4_4 
REMARK       I    between atoms: C4_4  and  N1_6 
REMARK       I    between atoms: N1_6  and  C5_7 
REMARK    3  A    between atoms: N1_6  and  C14_21 
REMARK    4  A    between atoms: C5_7  and  C6_9 
REMARK    5  A    between atoms: C6_9  and  O3_10 
REMARK    6  A    between atoms: O3_10  and  C7_11 
REMARK    7  A    between atoms: C10_14  and  C11_15 
REMARK    8  A    between atoms: C16_26  and  C17_27 
REMARK    9  A    between atoms: C17_27  and  C18_28 
REMARK   10  A    between atoms: C18_28  and  C19_29 
REMARK   11  A    between atoms: C19_29  and  C20_30 
REMARK   12  A    between atoms: C20_30  and  C21_32 
REMARK   13  A    between atoms: C20_30  and  C24_35 
ROOT
HETATM    1  C4  UNL     1     -67.037 -12.318  21.936  1.00  0.00     0.232 C 
HETATM    2  O1  UNL     1     -66.645 -13.371  22.540  1.00  0.00    -0.273 OA
HETATM    3  N1  UNL     1     -66.268 -11.734  20.890  1.00  0.00    -0.237 N 
HETATM    4  C5  UNL     1     -65.061 -12.333  20.514  1.00  0.00     0.256 C 
HETATM    5  O2  UNL     1     -64.358 -11.863  19.597  1.00  0.00    -0.270 OA
ENDROOT
BRANCH   3   6
HETATM    6  C14 UNL     1     -66.732 -10.539  20.217  1.00  0.00     0.114 C 
HETATM    7  N2  UNL     1     -66.132  -9.433  20.439  1.00  0.00    -0.254 N 
HETATM    8  O6  UNL     1     -66.471  -8.265  19.873  1.00  0.00    -0.279 OA
ATOM      9  H2  UNL     1     -65.344  -9.439  21.086  1.00  0.00     0.195 HD
HETATM   10  C15 UNL     1     -67.841  -8.079  19.492  1.00  0.00     0.206 C 
HETATM   11  C16 UNL     1     -68.170  -9.266  18.644  1.00  0.00     0.019 C 
HETATM   12  C25 UNL     1     -67.870 -10.593  19.293  1.00  0.00     0.085 C 
BRANCH  11  13
HETATM   13  C17 UNL     1     -69.542  -9.226  18.017  1.00  0.00     0.007 C 
BRANCH  13  14
HETATM   14  C18 UNL     1     -70.557  -8.539  18.859  1.00  0.00     0.004 C 
BRANCH  14  15
HETATM   15  C19 UNL     1     -71.409  -9.383  19.732  1.00  0.00     0.053 C 
BRANCH  15  16
HETATM   16  C20 UNL     1     -72.837  -9.536  19.413  1.00  0.00     0.203 C 
HETATM   17  F1  UNL     1     -73.076  -9.236  18.082  1.00  0.00    -0.233 F 
BRANCH  16  18
HETATM   18  C21 UNL     1     -73.662  -8.541  20.215  1.00  0.00     0.034 A 
HETATM   19  C22 UNL     1     -75.099  -8.352  19.888  1.00  0.00     0.008 A 
HETATM   20  C23 UNL     1     -74.127  -7.255  19.589  1.00  0.00     0.008 A 
ENDBRANCH  16  18
BRANCH  16  21
HETATM   21  C24 UNL     1     -73.398 -10.905  19.730  1.00  0.00     0.423 C 
HETATM   22  F2  UNL     1     -74.351 -11.305  18.845  1.00  0.00    -0.167 F 
HETATM   23  F3  UNL     1     -73.769 -11.007  21.049  1.00  0.00    -0.167 F 
HETATM   24  F4  UNL     1     -72.322 -11.793  19.575  1.00  0.00    -0.167 F 
ENDBRANCH  16  21
ENDBRANCH  15  16
ENDBRANCH  14  15
ENDBRANCH  13  14
ENDBRANCH  11  13
ENDBRANCH   3   6
BRANCH   1  25
HETATM   25  C3  UNL     1     -68.331 -11.795  22.431  1.00  0.00     0.103 C 
BRANCH  25  26
HETATM   26  C2  UNL     1     -69.505 -12.475  21.685  1.00  0.00     0.005 C 
HETATM   27  C1  UNL     1     -70.774 -12.257  22.453  1.00  0.00     0.005 C 
ENDBRANCH  25  26
ENDBRANCH   1  25
BRANCH   4  28
HETATM   28  C6  UNL     1     -64.536 -13.552  21.167  1.00  0.00     0.279 C 
BRANCH  28  29
HETATM   29  O3  UNL     1     -64.224 -14.542  20.178  1.00  0.00    -0.340 OA
BRANCH  29  30
HETATM   30  C7  UNL     1     -65.175 -15.358  19.630  1.00  0.00     0.091 A 
HETATM   31  C8  UNL     1     -66.483 -14.982  19.404  1.00  0.00     0.039 A 
HETATM   32  C9  UNL     1     -67.404 -15.846  18.850  1.00  0.00     0.021 A 
HETATM   33  C10 UNL     1     -67.016 -17.125  18.507  1.00  0.00     0.042 A 
HETATM   34  C12 UNL     1     -65.718 -17.536  18.718  1.00  0.00     0.045 A 
HETATM   35  C13 UNL     1     -64.821 -16.636  19.279  1.00  0.00     0.068 A 
HETATM   36 CL1  UNL     1     -63.158 -17.172  19.548  1.00  0.00    -0.081 Cl
BRANCH  33  37
HETATM   37  C11 UNL     1     -67.944 -18.083  17.916  1.00  0.00     0.209 C 
HETATM   38  O4  UNL     1     -67.888 -18.246  16.663  1.00  0.00    -0.644 OA
HETATM   39  O5  UNL     1     -68.849 -18.785  18.690  1.00  0.00    -0.644 OA
ENDBRANCH  33  37
ENDBRANCH  29  30
ENDBRANCH  28  29
ENDBRANCH   4  28
TORSDOF 13
ENDMDL
MODEL 2
REMARK VINA RESULT: -8.830982409      4.763      8.940
REMARK  13 active torsions:
REMARK  status: ('A' for Active; 'I' for Inactive)
REMARK    1  A    between atoms: C2_2  and  C3_3 
REMARK    2  A    between atoms: C3_3  and  C4_4 
REMARK       I    between atoms: C4_4  and  N1_6 
REMARK       I    between atoms: N1_6  and  C5_7 
REMARK    3  A    between atoms: N1_6  and  C14_21 
REMARK    4  A    between atoms: C5_7  and  C6_9 
REMARK    5  A    between atoms: C6_9  and  O3_10 
REMARK    6  A    between atoms: O3_10  and  C7_11 
REMARK    7  A    between atoms: C10_14  and  C11_15 
REMARK    8  A    between atoms: C16_26  and  C17_27 
REMARK    9  A    between atoms: C17_27  and  C18_28 
REMARK   10  A    between atoms: C18_28  and  C19_29 
REMARK   11  A    between atoms: C19_29  and  C20_30 
REMARK   12  A    between atoms: C20_30  and  C21_32 
REMARK   13  A    between atoms: C20_30  and  C24_35 
ROOT
HETATM    1  C4  UNL     1     -72.607 -12.382  21.039  1.00  0.00     0.232 C 
HETATM    2  O1  UNL     1     -73.338 -11.389  21.362  1.00  0.00    -0.273 OA
HETATM    3  N1  UNL     1     -72.281 -12.652  19.680  1.00  0.00    -0.237 N 
HETATM    4  C5  UNL     1     -72.768 -11.803  18.680  1.00  0.00     0.256 C 
HETATM    5  O2  UNL     1     -72.501 -11.993  17.476  1.00  0.00    -0.270 OA
ENDROOT
BRANCH   3   6
HETATM    6  C14 UNL     1     -71.447 -13.785  19.336  1.00  0.00     0.114 C 
HETATM    7  N2  UNL     1     -72.008 -14.885  19.008  1.00  0.00    -0.254 N 
HETATM    8  O6  UNL     1     -71.340 -15.999  18.669  1.00  0.00    -0.279 OA
ATOM      9  H2  UNL     1     -73.027 -14.920  19.003  1.00  0.00     0.195 HD
HETATM   10  C15 UNL     1     -70.034 -16.193  19.229  1.00  0.00     0.206 C 
HETATM   11  C16 UNL     1     -69.288 -14.936  18.914  1.00  0.00     0.019 C 
HETATM   12  C25 UNL     1     -69.985 -13.675  19.357  1.00  0.00     0.085 C 
BRANCH  11  13
HETATM   13  C17 UNL     1     -67.830 -14.959  19.303  1.00  0.00     0.007 C 
BRANCH  13  14
HETATM   14  C18 UNL     1     -67.257 -13.605  19.526  1.00  0.00     0.004 C 
BRANCH  14  15
HETATM   15  C19 UNL     1     -66.678 -13.318  20.861  1.00  0.00     0.053 C 
BRANCH  15  16
HETATM   16  C20 UNL     1     -66.141 -11.976  21.137  1.00  0.00     0.203 C 
HETATM   17  F1  UNL     1     -66.620 -11.494  22.344  1.00  0.00    -0.233 F 
BRANCH  16  18
HETATM   18  C21 UNL     1     -66.620 -10.993  20.080  1.00  0.00     0.034 A 
HETATM   19  C22 UNL     1     -66.511  -9.533  20.337  1.00  0.00     0.008 A 
HETATM   20  C23 UNL     1     -67.861 -10.174  20.306  1.00  0.00     0.008 A 
ENDBRANCH  16  18
BRANCH  16  21
HETATM   21  C24 UNL     1     -64.629 -11.902  21.129  1.00  0.00     0.423 C 
HETATM   22  F2  UNL     1     -64.133 -11.104  22.114  1.00  0.00    -0.167 F 
HETATM   23  F3  UNL     1     -64.142 -11.627  19.875  1.00  0.00    -0.167 F 
HETATM   24  F4  UNL     1     -64.192 -13.203  21.423  1.00  0.00    -0.167 F 
ENDBRANCH  16  21
ENDBRANCH  15  16
ENDBRANCH  14  15
ENDBRANCH  13  14
ENDBRANCH  11  13
ENDBRANCH   3   6
BRANCH   1  25
HETATM   25  C3  UNL     1     -72.156 -13.191  22.195  1.00  0.00     0.103 C 
BRANCH  25  26
HETATM   26  C2  UNL     1     -71.255 -12.342  23.124  1.00  0.00     0.005 C 
HETATM   27  C1  UNL     1     -69.877 -12.260  22.538  1.00  0.00     0.005 C 
ENDBRANCH  25  26
ENDBRANCH   1  25
BRANCH   4  28
HETATM   28  C6  UNL     1     -73.625 -10.633  18.972  1.00  0.00     0.279 C 
BRANCH  28  29
HETATM   29  O3  UNL     1     -73.168  -9.495  18.229  1.00  0.00    -0.340 OA
BRANCH  29  30
HETATM   30  C7  UNL     1     -72.353  -8.541  18.774  1.00  0.00     0.091 A 
HETATM   31  C8  UNL     1     -70.975  -8.584  18.734  1.00  0.00     0.039 A 
HETATM   32  C9  UNL     1     -70.200  -7.595  19.301  1.00  0.00     0.021 A 
HETATM   33  C10 UNL     1     -70.809  -6.527  19.927  1.00  0.00     0.042 A 
HETATM   34  C12 UNL     1     -72.184  -6.451  19.985  1.00  0.00     0.045 A 
HETATM   35  C13 UNL     1     -72.930  -7.467  19.403  1.00  0.00     0.068 A 
HETATM   36 CL1  UNL     1     -74.692  -7.361  19.484  1.00  0.00    -0.081 Cl
BRANCH  33  37
HETATM   37  C11 UNL     1     -70.042  -5.451  20.544  1.00  0.00     0.209 C 
HETATM   38  O4  UNL     1     -70.668  -4.657  21.304  1.00  0.00    -0.644 OA
HETATM   39  O5  UNL     1     -68.687  -5.302  20.311  1.00  0.00    -0.644 OA
ENDBRANCH  33  37
ENDBRANCH  29  30
ENDBRANCH  28  29
ENDBRANCH   4  28
TORSDOF 13
ENDMDL
MODEL 3
REMARK VINA RESULT: -8.766119993      4.206      7.481
REMARK  13 active torsions:
REMARK  status: ('A' for Active; 'I' for Inactive)
REMARK    1  A    between atoms: C2_2  and  C3_3 
REMARK    2  A    between atoms: C3_3  and  C4_4 
REMARK       I    between atoms: C4_4  and  N1_6 
REMARK       I    between atoms: N1_6  and  C5_7 
REMARK    3  A    between atoms: N1_6  and  C14_21 
REMARK    4  A    between atoms: C5_7  and  C6_9 
REMARK    5  A    between atoms: C6_9  and  O3_10 
REMARK    6  A    between atoms: O3_10  and  C7_11 
REMARK    7  A    between atoms: C10_14  and  C11_15 
REMARK    8  A    between atoms: C16_26  and  C17_27 
REMARK    9  A    between atoms: C17_27  and  C18_28 
REMARK   10  A    between atoms: C18_28  and  C19_29 
REMARK   11  A    between atoms: C19_29  and  C20_30 
REMARK   12  A    between atoms: C20_30  and  C21_32 
REMARK   13  A    between atoms: C20_30  and  C24_35 
ROOT
HETATM    1  C4  UNL     1     -69.122 -10.605  20.074  1.00  0.00     0.232 C 
HETATM    2  O1  UNL     1     -70.235 -10.061  19.775  1.00  0.00    -0.273 OA
HETATM    3  N1  UNL     1     -69.015 -11.531  21.150  1.00  0.00    -0.237 N 
HETATM    4  C5  UNL     1     -70.159 -11.854  21.888  1.00  0.00     0.256 C 
HETATM    5  O2  UNL     1     -70.118 -12.668  22.833  1.00  0.00    -0.270 OA
ENDROOT
BRANCH   3   6
HETATM    6  C14 UNL     1     -67.741 -12.139  21.472  1.00  0.00     0.114 C 
HETATM    7  N2  UNL     1     -67.174 -11.833  22.575  1.00  0.00    -0.254 N 
HETATM    8  O6  UNL     1     -65.996 -12.333  22.980  1.00  0.00    -0.279 OA
ATOM      9  H2  UNL     1     -67.646 -11.168  23.187  1.00  0.00     0.195 HD
HETATM   10  C15 UNL     1     -65.058 -12.736  21.973  1.00  0.00     0.206 C 
HETATM   11  C16 UNL     1     -65.821 -13.664  21.084  1.00  0.00     0.019 C 
HETATM   12  C25 UNL     1     -67.112 -13.093  20.553  1.00  0.00     0.085 C 
BRANCH  11  13
HETATM   13  C17 UNL     1     -64.993 -14.321  20.006  1.00  0.00     0.007 C 
BRANCH  13  14
HETATM   14  C18 UNL     1     -65.197 -15.792  19.918  1.00  0.00     0.004 C 
BRANCH  14  15
HETATM   15  C19 UNL     1     -65.581 -16.353  18.600  1.00  0.00     0.053 C 
BRANCH  15  16
HETATM   16  C20 UNL     1     -66.770 -17.216  18.507  1.00  0.00     0.203 C 
HETATM   17  F1  UNL     1     -67.232 -17.273  17.202  1.00  0.00    -0.233 F 
BRANCH  16  18
HETATM   18  C21 UNL     1     -67.909 -16.627  19.324  1.00  0.00     0.034 A 
HETATM   19  C22 UNL     1     -69.314 -16.933  18.946  1.00  0.00     0.008 A 
HETATM   20  C23 UNL     1     -68.785 -15.548  18.747  1.00  0.00     0.008 A 
ENDBRANCH  16  18
BRANCH  16  21
HETATM   21  C24 UNL     1     -66.556 -18.620  19.028  1.00  0.00     0.423 C 
HETATM   22  F2  UNL     1     -67.025 -18.792  20.294  1.00  0.00    -0.167 F 
HETATM   23  F3  UNL     1     -65.261 -19.039  18.840  1.00  0.00    -0.167 F 
HETATM   24  F4  UNL     1     -67.340 -19.445  18.206  1.00  0.00    -0.167 F 
ENDBRANCH  16  21
ENDBRANCH  15  16
ENDBRANCH  14  15
ENDBRANCH  13  14
ENDBRANCH  11  13
ENDBRANCH   3   6
BRANCH   1  25
HETATM   25  C3  UNL     1     -67.998 -10.178  19.209  1.00  0.00     0.103 C 
BRANCH  25  26
HETATM   26  C2  UNL     1     -67.712  -8.670  19.405  1.00  0.00     0.005 C 
HETATM   27  C1  UNL     1     -67.878  -7.959  18.095  1.00  0.00     0.005 C 
ENDBRANCH  25  26
ENDBRANCH   1  25
BRANCH   4  28
HETATM   28  C6  UNL     1     -71.486 -11.263  21.606  1.00  0.00     0.279 C 
BRANCH  28  29
HETATM   29  O3  UNL     1     -72.423 -12.298  21.279  1.00  0.00    -0.340 OA
BRANCH  29  30
HETATM   30  C7  UNL     1     -72.552 -12.799  20.013  1.00  0.00     0.091 A 
HETATM   31  C8  UNL     1     -73.011 -12.072  18.934  1.00  0.00     0.039 A 
HETATM   32  C9  UNL     1     -73.122 -12.628  17.677  1.00  0.00     0.021 A 
HETATM   33  C10 UNL     1     -72.766 -13.946  17.481  1.00  0.00     0.042 A 
HETATM   34  C12 UNL     1     -72.303 -14.703  18.536  1.00  0.00     0.045 A 
HETATM   35  C13 UNL     1     -72.205 -14.107  19.787  1.00  0.00     0.068 A 
HETATM   36 CL1  UNL     1     -71.611 -15.085  21.134  1.00  0.00    -0.081 Cl
BRANCH  33  37
HETATM   37  C11 UNL     1     -72.861 -14.588  16.176  1.00  0.00     0.209 C 
HETATM   38  O4  UNL     1     -73.877 -14.320  15.472  1.00  0.00    -0.644 OA
HETATM   39  O5  UNL     1     -71.884 -15.454  15.722  1.00  0.00    -0.644 OA
ENDBRANCH  33  37
ENDBRANCH  29  30
ENDBRANCH  28  29
ENDBRANCH   4  28
TORSDOF 13
ENDMDL
MODEL 4
REMARK VINA RESULT: -8.765300903      4.061      6.301
REMARK  13 active torsions:
REMARK  status: ('A' for Active; 'I' for Inactive)
REMARK    1  A    between atoms: C2_2  and  C3_3 
REMARK    2  A    between atoms: C3_3  and  C4_4 
REMARK       I    between atoms: C4_4  and  N1_6 
REMARK       I    between atoms: N1_6  and  C5_7 
REMARK    3  A    between atoms: N1_6  and  C14_21 
REMARK    4  A    between atoms: C5_7  and  C6_9 
REMARK    5  A    between atoms: C6_9  and  O3_10 
REMARK    6  A    between atoms: O3_10  and  C7_11 
REMARK    7  A    between atoms: C10_14  and  C11_15 
REMARK    8  A    between atoms: C16_26  and  C17_27 
REMARK    9  A    between atoms: C17_27  and  C18_28 
REMARK   10  A    between atoms: C18_28  and  C19_29 
REMARK   11  A    between atoms: C19_29  and  C20_30 
REMARK   12  A    between atoms: C20_30  and  C21_32 
REMARK   13  A    between atoms: C20_30  and  C24_35 
ROOT
HETATM    1  C4  UNL     1     -71.693 -15.213  18.177  1.00  0.00     0.232 C 
HETATM    2  O1  UNL     1     -71.613 -16.481  18.064  1.00  0.00    -0.273 OA
HETATM    3  N1  UNL     1     -71.696 -14.581  19.452  1.00  0.00    -0.237 N 
HETATM    4  C5  UNL     1     -71.600 -15.369  20.604  1.00  0.00     0.256 C 
HETATM    5  O2  UNL     1     -71.589 -14.860  21.744  1.00  0.00    -0.270 OA
ENDROOT
BRANCH   3   6
HETATM    6  C14 UNL     1     -71.787 -13.140  19.557  1.00  0.00     0.114 C 
HETATM    7  N2  UNL     1     -72.934 -12.605  19.731  1.00  0.00    -0.254 N 
HETATM    8  O6  UNL     1     -73.141 -11.284  19.843  1.00  0.00    -0.279 OA
ATOM      9  H2  UNL     1     -73.744 -13.222  19.789  1.00  0.00     0.195 HD
HETATM   10  C15 UNL     1     -72.219 -10.405  19.185  1.00  0.00     0.206 C 
HETATM   11  C16 UNL     1     -70.868 -10.836  19.659  1.00  0.00     0.019 C 
HETATM   12  C25 UNL     1     -70.585 -12.304  19.470  1.00  0.00     0.085 C 
BRANCH  11  13
HETATM   13  C17 UNL     1     -69.731  -9.962  19.189  1.00  0.00     0.007 C 
BRANCH  13  14
HETATM   14  C18 UNL     1     -68.572 -10.731  18.664  1.00  0.00     0.004 C 
BRANCH  14  15
HETATM   15  C19 UNL     1     -67.242 -10.460  19.262  1.00  0.00     0.053 C 
BRANCH  15  16
HETATM   16  C20 UNL     1     -66.565 -11.523  20.021  1.00  0.00     0.203 C 
HETATM   17  F1  UNL     1     -67.063 -12.768  19.672  1.00  0.00    -0.233 F 
BRANCH  16  18
HETATM   18  C21 UNL     1     -66.849 -11.366  21.507  1.00  0.00     0.034 A 
HETATM   19  C22 UNL     1     -66.610 -12.513  22.422  1.00  0.00     0.008 A 
HETATM   20  C23 UNL     1     -68.013 -12.079  22.141  1.00  0.00     0.008 A 
ENDBRANCH  16  18
BRANCH  16  21
HETATM   21  C24 UNL     1     -65.059 -11.523  19.876  1.00  0.00     0.423 C 
HETATM   22  F2  UNL     1     -64.421 -11.030  20.972  1.00  0.00    -0.167 F 
HETATM   23  F3  UNL     1     -64.665 -10.958  18.687  1.00  0.00    -0.167 F 
HETATM   24  F4  UNL     1     -64.694 -12.875  19.786  1.00  0.00    -0.167 F 
ENDBRANCH  16  21
ENDBRANCH  15  16
ENDBRANCH  14  15
ENDBRANCH  13  14
ENDBRANCH  11  13
ENDBRANCH   3   6
BRANCH   1  25
HETATM   25  C3  UNL     1     -71.782 -14.505  16.879  1.00  0.00     0.103 C 
BRANCH  25  26
HETATM   26  C2  UNL     1     -73.219 -14.599  16.313  1.00  0.00     0.005 C 
HETATM   27  C1  UNL     1     -73.915 -13.284  16.503  1.00  0.00     0.005 C 
ENDBRANCH  25  26
ENDBRANCH   1  25
BRANCH   4  28
HETATM   28  C6  UNL     1     -71.508 -16.845  20.559  1.00  0.00     0.279 C 
BRANCH  28  29
HETATM   29  O3  UNL     1     -70.171 -17.261  20.871  1.00  0.00    -0.340 OA
BRANCH  29  30
HETATM   30  C7  UNL     1     -69.397 -17.966  19.991  1.00  0.00     0.091 A 
HETATM   31  C8  UNL     1     -69.479 -19.331  19.807  1.00  0.00     0.039 A 
HETATM   32  C9  UNL     1     -68.672 -19.993  18.906  1.00  0.00     0.021 A 
HETATM   33  C10 UNL     1     -67.756 -19.280  18.161  1.00  0.00     0.042 A 
HETATM   34  C12 UNL     1     -67.647 -17.915  18.317  1.00  0.00     0.045 A 
HETATM   35  C13 UNL     1     -68.477 -17.285  19.235  1.00  0.00     0.068 A 
HETATM   36 CL1  UNL     1     -68.330 -15.534  19.430  1.00  0.00    -0.081 Cl
BRANCH  33  37
HETATM   37  C11 UNL     1     -66.877 -19.925  17.192  1.00  0.00     0.209 C 
HETATM   38  O4  UNL     1     -66.084 -20.808  17.628  1.00  0.00    -0.644 OA
HETATM   39  O5  UNL     1     -66.906 -19.588  15.851  1.00  0.00    -0.644 OA
ENDBRANCH  33  37
ENDBRANCH  29  30
ENDBRANCH  28  29
ENDBRANCH   4  28
TORSDOF 13
ENDMDL
MODEL 5
REMARK VINA RESULT: -8.753759623      4.459      8.483
REMARK  13 active torsions:
REMARK  status: ('A' for Active; 'I' for Inactive)
REMARK    1  A    between atoms: C2_2  and  C3_3 
REMARK    2  A    between atoms: C3_3  and  C4_4 
REMARK       I    between atoms: C4_4  and  N1_6 
REMARK       I    between atoms: N1_6  and  C5_7 
REMARK    3  A    between atoms: N1_6  and  C14_21 
REMARK    4  A    between atoms: C5_7  and  C6_9 
REMARK    5  A    between atoms: C6_9  and  O3_10 
REMARK    6  A    between atoms: O3_10  and  C7_11 
REMARK    7  A    between atoms: C10_14  and  C11_15 
REMARK    8  A    between atoms: C16_26  and  C17_27 
REMARK    9  A    between atoms: C17_27  and  C18_28 
REMARK   10  A    between atoms: C18_28  and  C19_29 
REMARK   11  A    between atoms: C19_29  and  C20_30 
REMARK   12  A    between atoms: C20_30  and  C21_32 
REMARK   13  A    between atoms: C20_30  and  C24_35 
ROOT
HETATM    1  C4  UNL     1     -71.796 -13.681  18.346  1.00  0.00     0.232 C 
HETATM    2  O1  UNL     1     -72.585 -12.681  18.404  1.00  0.00    -0.273 OA
HETATM    3  N1  UNL     1     -71.400 -14.382  19.519  1.00  0.00    -0.237 N 
HETATM    4  C5  UNL     1     -71.895 -13.968  20.761  1.00  0.00     0.256 C 
HETATM    5  O2  UNL     1     -71.585 -14.557  21.817  1.00  0.00    -0.270 OA
ENDROOT
BRANCH   3   6
HETATM    6  C14 UNL     1     -70.504 -15.516  19.431  1.00  0.00     0.114 C 
HETATM    7  N2  UNL     1     -71.000 -16.692  19.384  1.00  0.00    -0.254 N 
HETATM    8  O6  UNL     1     -70.270 -17.815  19.300  1.00  0.00    -0.279 OA
ATOM      9  H2  UNL     1     -72.015 -16.784  19.412  1.00  0.00     0.195 HD
HETATM   10  C15 UNL     1     -68.949 -17.797  19.857  1.00  0.00     0.206 C 
HETATM   11  C16 UNL     1     -68.284 -16.610  19.238  1.00  0.00     0.019 C 
HETATM   12  C25 UNL     1     -69.050 -15.321  19.390  1.00  0.00     0.085 C 
BRANCH  11  13
HETATM   13  C17 UNL     1     -66.823 -16.458  19.585  1.00  0.00     0.007 C 
BRANCH  13  14
HETATM   14  C18 UNL     1     -66.294 -15.092  19.332  1.00  0.00     0.004 C 
BRANCH  14  15
HETATM   15  C19 UNL     1     -65.403 -14.499  20.360  1.00  0.00     0.053 C 
BRANCH  15  16
HETATM   16  C20 UNL     1     -65.732 -13.178  20.919  1.00  0.00     0.203 C 
HETATM   17  F1  UNL     1     -67.093 -12.934  20.833  1.00  0.00    -0.233 F 
BRANCH  16  18
HETATM   18  C21 UNL     1     -65.063 -12.083  20.102  1.00  0.00     0.034 A 
HETATM   19  C22 UNL     1     -65.594 -10.697  20.166  1.00  0.00     0.008 A 
HETATM   20  C23 UNL     1     -65.759 -11.488  18.908  1.00  0.00     0.008 A 
ENDBRANCH  16  18
BRANCH  16  21
HETATM   21  C24 UNL     1     -65.273 -12.981  22.347  1.00  0.00     0.423 C 
HETATM   22  F2  UNL     1     -65.159 -14.151  23.033  1.00  0.00    -0.167 F 
HETATM   23  F3  UNL     1     -66.012 -12.017  22.988  1.00  0.00    -0.167 F 
HETATM   24  F4  UNL     1     -63.975 -12.455  22.252  1.00  0.00    -0.167 F 
ENDBRANCH  16  21
ENDBRANCH  15  16
ENDBRANCH  14  15
ENDBRANCH  13  14
ENDBRANCH  11  13
ENDBRANCH   3   6
BRANCH   1  25
HETATM   25  C3  UNL     1     -71.355 -14.013  16.971  1.00  0.00     0.103 C 
BRANCH  25  26
HETATM   26  C2  UNL     1     -72.308 -15.057  16.340  1.00  0.00     0.005 C 
HETATM   27  C1  UNL     1     -73.538 -14.364  15.834  1.00  0.00     0.005 C 
ENDBRANCH  25  26
ENDBRANCH   1  25
BRANCH   4  28
HETATM   28  C6  UNL     1     -72.811 -12.816  20.913  1.00  0.00     0.279 C 
BRANCH  28  29
HETATM   29  O3  UNL     1     -72.147 -11.752  21.609  1.00  0.00    -0.340 OA
BRANCH  29  30
HETATM   30  C7  UNL     1     -71.261 -10.912  20.994  1.00  0.00     0.091 A 
HETATM   31  C8  UNL     1     -69.912 -11.167  20.864  1.00  0.00     0.039 A 
HETATM   32  C9  UNL     1     -69.061 -10.284  20.234  1.00  0.00     0.021 A 
HETATM   33  C10 UNL     1     -69.563  -9.109  19.714  1.00  0.00     0.042 A 
HETATM   34  C12 UNL     1     -70.906  -8.820  19.825  1.00  0.00     0.045 A 
HETATM   35  C13 UNL     1     -71.730  -9.735  20.467  1.00  0.00     0.068 A 
HETATM   36 CL1  UNL     1     -73.451  -9.356  20.606  1.00  0.00    -0.081 Cl
BRANCH  33  37
HETATM   37  C11 UNL     1     -68.713  -8.137  19.037  1.00  0.00     0.209 C 
HETATM   38  O4  UNL     1     -68.179  -8.495  17.947  1.00  0.00    -0.644 OA
HETATM   39  O5  UNL     1     -68.498  -6.875  19.559  1.00  0.00    -0.644 OA
ENDBRANCH  33  37
ENDBRANCH  29  30
ENDBRANCH  28  29
ENDBRANCH   4  28
TORSDOF 13
ENDMDL
