MODEL 1
REMARK VINA RESULT: -7.206586474      0.000      0.000
REMARK  11 active torsions:
REMARK  status: ('A' for Active; 'I' for Inactive)
REMARK    1  A    between atoms: C2_2  and  O1_3 
REMARK    2  A    between atoms: O1_3  and  C3_4 
REMARK    3  A    between atoms: C3_4  and  C4_6 
REMARK    4  A    between atoms: C5_7  and  C6_8 
REMARK    5  A    between atoms: C9_11  and  O3_12 
REMARK    6  A    between atoms: O3_12  and  C10_13 
REMARK    7  A    between atoms: C10_13  and  C11_14 
REMARK    8  A    between atoms: C10_13  and  C12_16 
REMARK    9  A    between atoms: C13_18  and  O4_19 
REMARK   10  A    between atoms: C16_22  and  C17_23 
REMARK   11  A    between atoms: C18_26  and  C19_27 
ROOT
HETATM    1  C4  UNL     1     -71.024 -11.116  21.611  1.00  0.00     0.104 C 
HETATM    2  C5  UNL     1     -72.190 -10.521  20.805  1.00  0.00     0.048 C 
HETATM    3  C16 UNL     1     -71.723 -11.554  19.714  1.00  0.00     0.105 C 
HETATM    4  C18 UNL     1     -70.420 -11.381  20.319  1.00  0.00     0.052 C 
ENDROOT
BRANCH   2   5
HETATM    5  C6  UNL     1     -72.079  -9.143  20.358  1.00  0.00    -0.049 A 
HETATM    6  C7  UNL     1     -73.117  -8.359  19.910  1.00  0.00     0.010 A 
HETATM    7  C8  UNL     1     -72.862  -7.062  19.518  1.00  0.00     0.040 A 
HETATM    8  C9  UNL     1     -71.589  -6.522  19.561  1.00  0.00     0.102 A 
HETATM    9  C13 UNL     1     -70.512  -7.302  20.014  1.00  0.00     0.102 A 
HETATM   10  C15 UNL     1     -70.794  -8.584  20.396  1.00  0.00     0.047 A 
BRANCH   8  11
HETATM   11  O3  UNL     1     -71.298  -5.248  19.183  1.00  0.00    -0.338 OA
BRANCH  11  12
HETATM   12  C10 UNL     1     -71.785  -4.091  19.787  1.00  0.00     0.186 C 
BRANCH  12  13
HETATM   13  C11 UNL     1     -70.857  -3.602  20.903  1.00  0.00     0.257 C 
HETATM   14  F1  UNL     1     -71.003  -4.464  21.969  1.00  0.00    -0.253 F 
ENDBRANCH  12  13
BRANCH  12  15
HETATM   15  C12 UNL     1     -71.744  -2.986  18.726  1.00  0.00     0.257 C 
HETATM   16  F2  UNL     1     -70.927  -3.467  17.695  1.00  0.00    -0.253 F 
ENDBRANCH  12  15
ENDBRANCH  11  12
ENDBRANCH   8  11
BRANCH   9  17
HETATM   17  O4  UNL     1     -69.238  -6.753  20.054  1.00  0.00    -0.353 OA
HETATM   18  C14 UNL     1     -68.254  -7.161  19.126  1.00  0.00     0.210 C 
ENDBRANCH   9  17
ENDBRANCH   2   5
BRANCH   1  19
HETATM   19  C3  UNL     1     -71.596 -12.140  22.481  1.00  0.00     0.264 C 
HETATM   20  O2  UNL     1     -71.181 -13.234  22.854  1.00  0.00    -0.265 OA
BRANCH  19  21
HETATM   21  O1  UNL     1     -72.883 -11.817  22.996  1.00  0.00    -0.322 OA
BRANCH  21  22
HETATM   22  C2  UNL     1     -73.860 -12.817  23.197  1.00  0.00     0.174 C 
HETATM   23  C1  UNL     1     -74.948 -12.318  24.098  1.00  0.00     0.034 C 
ENDBRANCH  21  22
ENDBRANCH  19  21
ENDBRANCH   1  19
BRANCH   3  24
HETATM   24  C17 UNL     1     -72.562 -12.721  19.776  1.00  0.00     0.178 C 
HETATM   25  O5  UNL     1     -73.842 -12.546  19.664  1.00  0.00    -0.648 OA
HETATM   26  O6  UNL     1     -72.230 -14.052  19.935  1.00  0.00    -0.648 OA
ENDBRANCH   3  24
BRANCH   4  27
HETATM   27  C19 UNL     1     -69.255 -12.233  20.074  1.00  0.00     0.001 A 
HETATM   28  C20 UNL     1     -69.119 -12.859  18.851  1.00  0.00     0.084 A 
HETATM   29 CL1  UNL     1     -70.190 -12.757  17.429  1.00  0.00    -0.076 Cl
HETATM   30  S1  UNL     1     -67.650 -13.712  18.990  1.00  0.00    -0.063 SA
HETATM   31  C21 UNL     1     -67.235 -13.267  20.567  1.00  0.00     0.098 A 
HETATM   32 CL2  UNL     1     -65.786 -13.775  21.455  1.00  0.00    -0.074 Cl
HETATM   33  C22 UNL     1     -68.260 -12.448  20.968  1.00  0.00     0.071 A 
HETATM   34 CL3  UNL     1     -68.091 -11.677  22.590  1.00  0.00    -0.081 Cl
ENDBRANCH   4  27
TORSDOF 11
ENDMDL
MODEL 2
REMARK VINA RESULT: -7.153660511      2.101      3.945
REMARK  11 active torsions:
REMARK  status: ('A' for Active; 'I' for Inactive)
REMARK    1  A    between atoms: C2_2  and  O1_3 
REMARK    2  A    between atoms: O1_3  and  C3_4 
REMARK    3  A    between atoms: C3_4  and  C4_6 
REMARK    4  A    between atoms: C5_7  and  C6_8 
REMARK    5  A    between atoms: C9_11  and  O3_12 
REMARK    6  A    between atoms: O3_12  and  C10_13 
REMARK    7  A    between atoms: C10_13  and  C11_14 
REMARK    8  A    between atoms: C10_13  and  C12_16 
REMARK    9  A    between atoms: C13_18  and  O4_19 
REMARK   10  A    between atoms: C16_22  and  C17_23 
REMARK   11  A    between atoms: C18_26  and  C19_27 
ROOT
HETATM    1  C4  UNL     1     -70.089 -11.557  20.043  1.00  0.00     0.104 C 
HETATM    2  C5  UNL     1     -70.779 -10.473  20.887  1.00  0.00     0.048 C 
HETATM    3  C16 UNL     1     -72.075 -11.302  20.562  1.00  0.00     0.105 C 
HETATM    4  C18 UNL     1     -71.362 -11.667  19.357  1.00  0.00     0.052 C 
ENDROOT
BRANCH   2   5
HETATM    5  C6  UNL     1     -70.828  -9.121  20.354  1.00  0.00    -0.049 A 
HETATM    6  C7  UNL     1     -69.741  -8.372  19.967  1.00  0.00     0.010 A 
HETATM    7  C8  UNL     1     -69.939  -7.099  19.476  1.00  0.00     0.040 A 
HETATM    8  C9  UNL     1     -71.203  -6.549  19.360  1.00  0.00     0.102 A 
HETATM    9  C13 UNL     1     -72.330  -7.294  19.749  1.00  0.00     0.102 A 
HETATM   10  C15 UNL     1     -72.103  -8.553  20.232  1.00  0.00     0.047 A 
BRANCH   8  11
HETATM   11  O3  UNL     1     -71.439  -5.299  18.881  1.00  0.00    -0.338 OA
BRANCH  11  12
HETATM   12  C10 UNL     1     -70.912  -4.118  19.400  1.00  0.00     0.186 C 
BRANCH  12  13
HETATM   13  C11 UNL     1     -71.110  -2.940  18.442  1.00  0.00     0.257 C 
HETATM   14  F1  UNL     1     -70.595  -3.312  17.218  1.00  0.00    -0.253 F 
ENDBRANCH  12  13
BRANCH  12  15
HETATM   15  C12 UNL     1     -71.746  -3.766  20.636  1.00  0.00     0.257 C 
HETATM   16  F2  UNL     1     -71.082  -4.334  21.730  1.00  0.00    -0.253 F 
ENDBRANCH  12  15
ENDBRANCH  11  12
ENDBRANCH   8  11
BRANCH   9  17
HETATM   17  O4  UNL     1     -73.595  -6.735  19.630  1.00  0.00    -0.353 OA
HETATM   18  C14 UNL     1     -74.741  -7.559  19.612  1.00  0.00     0.210 C 
ENDBRANCH   9  17
ENDBRANCH   2   5
BRANCH   1  19
HETATM   19  C3  UNL     1     -69.568 -12.548  20.981  1.00  0.00     0.264 C 
HETATM   20  O2  UNL     1     -69.613 -13.775  20.997  1.00  0.00    -0.265 OA
BRANCH  19  21
HETATM   21  O1  UNL     1     -68.877 -11.993  22.094  1.00  0.00    -0.322 OA
BRANCH  21  22
HETATM   22  C2  UNL     1     -67.485 -12.175  22.252  1.00  0.00     0.174 C 
HETATM   23  C1  UNL     1     -66.733 -11.003  21.696  1.00  0.00     0.034 C 
ENDBRANCH  21  22
ENDBRANCH  19  21
ENDBRANCH   1  19
BRANCH   3  24
HETATM   24  C17 UNL     1     -72.386 -12.153  21.680  1.00  0.00     0.178 C 
HETATM   25  O5  UNL     1     -72.356 -11.624  22.863  1.00  0.00    -0.648 OA
HETATM   26  O6  UNL     1     -72.732 -13.489  21.715  1.00  0.00    -0.648 OA
ENDBRANCH   3  24
BRANCH   4  27
HETATM   27  C19 UNL     1     -71.752 -12.736  18.436  1.00  0.00     0.001 A 
HETATM   28  C20 UNL     1     -73.084 -12.896  18.108  1.00  0.00     0.084 A 
HETATM   29 CL1  UNL     1     -74.480 -11.923  18.640  1.00  0.00    -0.076 Cl
HETATM   30  S1  UNL     1     -73.083 -14.210  17.023  1.00  0.00    -0.063 SA
HETATM   31  C21 UNL     1     -71.423 -14.529  16.998  1.00  0.00     0.098 A 
HETATM   32 CL2  UNL     1     -70.612 -15.802  16.065  1.00  0.00    -0.074 Cl
HETATM   33  C22 UNL     1     -70.886 -13.594  17.846  1.00  0.00     0.071 A 
HETATM   34 CL3  UNL     1     -69.086 -13.559  17.975  1.00  0.00    -0.081 Cl
ENDBRANCH   4  27
TORSDOF 11
ENDMDL
MODEL 3
REMARK VINA RESULT: -7.153616620      2.073      3.418
REMARK  11 active torsions:
REMARK  status: ('A' for Active; 'I' for Inactive)
REMARK    1  A    between atoms: C2_2  and  O1_3 
REMARK    2  A    between atoms: O1_3  and  C3_4 
REMARK    3  A    between atoms: C3_4  and  C4_6 
REMARK    4  A    between atoms: C5_7  and  C6_8 
REMARK    5  A    between atoms: C9_11  and  O3_12 
REMARK    6  A    between atoms: O3_12  and  C10_13 
REMARK    7  A    between atoms: C10_13  and  C11_14 
REMARK    8  A    between atoms: C10_13  and  C12_16 
REMARK    9  A    between atoms: C13_18  and  O4_19 
REMARK   10  A    between atoms: C16_22  and  C17_23 
REMARK   11  A    between atoms: C18_26  and  C19_27 
ROOT
HETATM    1  C4  UNL     1     -70.234 -11.665  20.053  1.00  0.00     0.104 C 
HETATM    2  C5  UNL     1     -70.941 -10.603  20.912  1.00  0.00     0.048 C 
HETATM    3  C16 UNL     1     -72.230 -11.422  20.537  1.00  0.00     0.105 C 
HETATM    4  C18 UNL     1     -71.492 -11.755  19.338  1.00  0.00     0.052 C 
ENDROOT
BRANCH   2   5
HETATM    5  C6  UNL     1     -70.978  -9.237  20.415  1.00  0.00    -0.049 A 
HETATM    6  C7  UNL     1     -72.115  -8.496  20.193  1.00  0.00     0.010 A 
HETATM    7  C8  UNL     1     -71.998  -7.206  19.720  1.00  0.00     0.040 A 
HETATM    8  C9  UNL     1     -70.767  -6.632  19.460  1.00  0.00     0.102 A 
HETATM    9  C13 UNL     1     -69.590  -7.369  19.678  1.00  0.00     0.102 A 
HETATM   10  C15 UNL     1     -69.737  -8.645  20.148  1.00  0.00     0.047 A 
BRANCH   8  11
HETATM   11  O3  UNL     1     -70.610  -5.365  18.992  1.00  0.00    -0.338 OA
BRANCH  11  12
HETATM   12  C10 UNL     1     -70.929  -4.199  19.686  1.00  0.00     0.186 C 
BRANCH  12  13
HETATM   13  C11 UNL     1     -69.858  -3.846  20.722  1.00  0.00     0.257 C 
HETATM   14  F1  UNL     1     -70.065  -4.652  21.821  1.00  0.00    -0.253 F 
ENDBRANCH  12  13
BRANCH  12  15
HETATM   15  C12 UNL     1     -70.888  -3.054  18.669  1.00  0.00     0.257 C 
HETATM   16  F2  UNL     1     -70.581  -3.639  17.434  1.00  0.00    -0.253 F 
ENDBRANCH  12  15
ENDBRANCH  11  12
ENDBRANCH   8  11
BRANCH   9  17
HETATM   17  O4  UNL     1     -68.358  -6.786  19.414  1.00  0.00    -0.353 OA
HETATM   18  C14 UNL     1     -67.255  -7.585  19.041  1.00  0.00     0.210 C 
ENDBRANCH   9  17
ENDBRANCH   2   5
BRANCH   1  19
HETATM   19  C3  UNL     1     -69.733 -12.682  20.975  1.00  0.00     0.264 C 
HETATM   20  O2  UNL     1     -69.759 -13.909  20.945  1.00  0.00    -0.265 OA
BRANCH  19  21
HETATM   21  O1  UNL     1     -69.094 -12.157  22.133  1.00  0.00    -0.322 OA
BRANCH  21  22
HETATM   22  C2  UNL     1     -67.692 -12.241  22.292  1.00  0.00     0.174 C 
HETATM   23  C1  UNL     1     -67.012 -11.112  21.577  1.00  0.00     0.034 C 
ENDBRANCH  21  22
ENDBRANCH  19  21
ENDBRANCH   1  19
BRANCH   3  24
HETATM   24  C17 UNL     1     -72.565 -12.303  21.625  1.00  0.00     0.178 C 
HETATM   25  O5  UNL     1     -72.712 -11.775  22.800  1.00  0.00    -0.648 OA
HETATM   26  O6  UNL     1     -72.773 -13.667  21.637  1.00  0.00    -0.648 OA
ENDBRANCH   3  24
BRANCH   4  27
HETATM   27  C19 UNL     1     -71.863 -12.798  18.380  1.00  0.00     0.001 A 
HETATM   28  C20 UNL     1     -73.187 -12.947  18.019  1.00  0.00     0.084 A 
HETATM   29 CL1  UNL     1     -74.593 -11.985  18.546  1.00  0.00    -0.076 Cl
HETATM   30  S1  UNL     1     -73.164 -14.231  16.900  1.00  0.00    -0.063 SA
HETATM   31  C21 UNL     1     -71.505 -14.553  16.903  1.00  0.00     0.098 A 
HETATM   32 CL2  UNL     1     -70.675 -15.802  15.954  1.00  0.00    -0.074 Cl
HETATM   33  C22 UNL     1     -70.985 -13.642  17.787  1.00  0.00     0.071 A 
HETATM   34 CL3  UNL     1     -69.189 -13.614  17.956  1.00  0.00    -0.081 Cl
ENDBRANCH   4  27
TORSDOF 11
ENDMDL
MODEL 4
REMARK VINA RESULT: -7.114005197      4.781      8.811
REMARK  11 active torsions:
REMARK  status: ('A' for Active; 'I' for Inactive)
REMARK    1  A    between atoms: C2_2  and  O1_3 
REMARK    2  A    between atoms: O1_3  and  C3_4 
REMARK    3  A    between atoms: C3_4  and  C4_6 
REMARK    4  A    between atoms: C5_7  and  C6_8 
REMARK    5  A    between atoms: C9_11  and  O3_12 
REMARK    6  A    between atoms: O3_12  and  C10_13 
REMARK    7  A    between atoms: C10_13  and  C11_14 
REMARK    8  A    between atoms: C10_13  and  C12_16 
REMARK    9  A    between atoms: C13_18  and  O4_19 
REMARK   10  A    between atoms: C16_22  and  C17_23 
REMARK   11  A    between atoms: C18_26  and  C19_27 
ROOT
HETATM    1  C4  UNL     1     -70.154  -3.914  20.031  1.00  0.00     0.104 C 
HETATM    2  C5  UNL     1     -71.586  -4.331  19.658  1.00  0.00     0.048 C 
HETATM    3  C16 UNL     1     -71.926  -3.772  21.087  1.00  0.00     0.105 C 
HETATM    4  C18 UNL     1     -70.566  -4.154  21.401  1.00  0.00     0.052 C 
ENDROOT
BRANCH   2   5
HETATM    5  C6  UNL     1     -71.872  -5.750  19.527  1.00  0.00    -0.049 A 
HETATM    6  C7  UNL     1     -73.111  -6.333  19.651  1.00  0.00     0.010 A 
HETATM    7  C8  UNL     1     -73.233  -7.698  19.498  1.00  0.00     0.040 A 
HETATM    8  C9  UNL     1     -72.142  -8.503  19.224  1.00  0.00     0.102 A 
HETATM    9  C13 UNL     1     -70.865  -7.932  19.093  1.00  0.00     0.102 A 
HETATM   10  C15 UNL     1     -70.774  -6.576  19.248  1.00  0.00     0.047 A 
BRANCH   8  11
HETATM   11  O3  UNL     1     -72.222  -9.851  19.067  1.00  0.00    -0.338 OA
BRANCH  11  12
HETATM   12  C10 UNL     1     -73.395 -10.603  19.088  1.00  0.00     0.186 C 
BRANCH  12  13
HETATM   13  C11 UNL     1     -73.389 -11.692  18.011  1.00  0.00     0.257 C 
HETATM   14  F1  UNL     1     -74.589 -12.365  18.097  1.00  0.00    -0.253 F 
ENDBRANCH  12  13
BRANCH  12  15
HETATM   15  C12 UNL     1     -73.411 -11.362  20.418  1.00  0.00     0.257 C 
HETATM   16  F2  UNL     1     -73.826 -10.441  21.388  1.00  0.00    -0.253 F 
ENDBRANCH  12  15
ENDBRANCH  11  12
ENDBRANCH   8  11
BRANCH   9  17
HETATM   17  O4  UNL     1     -69.775  -8.746  18.817  1.00  0.00    -0.353 OA
HETATM   18  C14 UNL     1     -68.581  -8.193  18.305  1.00  0.00     0.210 C 
ENDBRANCH   9  17
ENDBRANCH   2   5
BRANCH   1  19
HETATM   19  C3  UNL     1     -69.941  -2.589  19.453  1.00  0.00     0.264 C 
HETATM   20  O2  UNL     1     -69.326  -1.603  19.849  1.00  0.00    -0.265 OA
BRANCH  19  21
HETATM   21  O1  UNL     1     -70.565  -2.396  18.189  1.00  0.00    -0.322 OA
BRANCH  21  22
HETATM   22  C2  UNL     1     -69.939  -1.636  17.176  1.00  0.00     0.174 C 
HETATM   23  C1  UNL     1     -70.252  -2.201  15.823  1.00  0.00     0.034 C 
ENDBRANCH  21  22
ENDBRANCH  19  21
ENDBRANCH   1  19
BRANCH   3  24
HETATM   24  C17 UNL     1     -72.447  -2.436  20.963  1.00  0.00     0.178 C 
HETATM   25  O5  UNL     1     -73.328  -2.220  20.036  1.00  0.00    -0.648 OA
HETATM   26  O6  UNL     1     -72.167  -1.297  21.690  1.00  0.00    -0.648 OA
ENDBRANCH   3  24
BRANCH   4  27
HETATM   27  C19 UNL     1     -69.832  -3.754  22.601  1.00  0.00     0.001 A 
HETATM   28  C20 UNL     1     -68.457  -3.632  22.546  1.00  0.00     0.084 A 
HETATM   29 CL1  UNL     1     -67.381  -3.869  21.145  1.00  0.00    -0.076 Cl
HETATM   30  S1  UNL     1     -68.026  -3.141  24.120  1.00  0.00    -0.063 SA
HETATM   31  C21 UNL     1     -69.568  -3.094  24.812  1.00  0.00     0.098 A 
HETATM   32 CL2  UNL     1     -69.954  -2.655  26.487  1.00  0.00    -0.074 Cl
HETATM   33  C22 UNL     1     -70.408  -3.465  23.794  1.00  0.00     0.071 A 
HETATM   34 CL3  UNL     1     -72.177  -3.411  24.144  1.00  0.00    -0.081 Cl
ENDBRANCH   4  27
TORSDOF 11
ENDMDL
MODEL 5
REMARK VINA RESULT: -7.080616342      5.912      9.932
REMARK  11 active torsions:
REMARK  status: ('A' for Active; 'I' for Inactive)
REMARK    1  A    between atoms: C2_2  and  O1_3 
REMARK    2  A    between atoms: O1_3  and  C3_4 
REMARK    3  A    between atoms: C3_4  and  C4_6 
REMARK    4  A    between atoms: C5_7  and  C6_8 
REMARK    5  A    between atoms: C9_11  and  O3_12 
REMARK    6  A    between atoms: O3_12  and  C10_13 
REMARK    7  A    between atoms: C10_13  and  C11_14 
REMARK    8  A    between atoms: C10_13  and  C12_16 
REMARK    9  A    between atoms: C13_18  and  O4_19 
REMARK   10  A    between atoms: C16_22  and  C17_23 
REMARK   11  A    between atoms: C18_26  and  C19_27 
ROOT
HETATM    1  C4  UNL     1     -67.493 -12.865  21.214  1.00  0.00     0.104 C 
HETATM    2  C5  UNL     1     -66.660 -13.414  20.044  1.00  0.00     0.048 C 
HETATM    3  C16 UNL     1     -67.567 -12.457  19.188  1.00  0.00     0.105 C 
HETATM    4  C18 UNL     1     -68.544 -12.689  20.229  1.00  0.00     0.052 C 
ENDROOT
BRANCH   2   5
HETATM    5  C6  UNL     1     -66.824 -14.813  19.685  1.00  0.00    -0.049 A 
HETATM    6  C7  UNL     1     -67.944 -15.368  19.110  1.00  0.00     0.010 A 
HETATM    7  C8  UNL     1     -67.958 -16.715  18.822  1.00  0.00     0.040 A 
HETATM    8  C9  UNL     1     -66.876 -17.532  19.096  1.00  0.00     0.102 A 
HETATM    9  C13 UNL     1     -65.720 -16.991  19.684  1.00  0.00     0.102 A 
HETATM   10  C15 UNL     1     -65.735 -15.652  19.958  1.00  0.00     0.047 A 
BRANCH   8  11
HETATM   11  O3  UNL     1     -66.852 -18.865  18.827  1.00  0.00    -0.338 OA
BRANCH  11  12
HETATM   12  C10 UNL     1     -67.657 -19.520  17.897  1.00  0.00     0.186 C 
BRANCH  12  13
HETATM   13  C11 UNL     1     -66.844 -20.476  17.019  1.00  0.00     0.257 C 
HETATM   14  F1  UNL     1     -65.714 -20.827  17.725  1.00  0.00    -0.253 F 
ENDBRANCH  12  13
BRANCH  12  15
HETATM   15  C12 UNL     1     -68.605 -20.424  18.692  1.00  0.00     0.257 C 
HETATM   16  F2  UNL     1     -68.131 -20.424  20.010  1.00  0.00    -0.253 F 
ENDBRANCH  12  15
ENDBRANCH  11  12
ENDBRANCH   8  11
BRANCH   9  17
HETATM   17  O4  UNL     1     -64.638 -17.817  19.955  1.00  0.00    -0.353 OA
HETATM   18  C14 UNL     1     -63.336 -17.442  19.558  1.00  0.00     0.210 C 
ENDBRANCH   9  17
ENDBRANCH   2   5
BRANCH   1  19
HETATM   19  C3  UNL     1     -66.720 -11.773  21.801  1.00  0.00     0.264 C 
HETATM   20  O2  UNL     1     -66.930 -10.567  21.890  1.00  0.00    -0.265 OA
BRANCH  19  21
HETATM   21  O1  UNL     1     -65.485 -12.178  22.380  1.00  0.00    -0.322 OA
BRANCH  21  22
HETATM   22  C2  UNL     1     -64.256 -11.668  21.904  1.00  0.00     0.174 C 
HETATM   23  C1  UNL     1     -63.348 -12.784  21.486  1.00  0.00     0.034 C 
ENDBRANCH  21  22
ENDBRANCH  19  21
ENDBRANCH   1  19
BRANCH   3  24
HETATM   24  C17 UNL     1     -66.852 -11.236  18.923  1.00  0.00     0.178 C 
HETATM   25  O5  UNL     1     -65.587 -11.329  18.652  1.00  0.00    -0.648 OA
HETATM   26  O6  UNL     1     -67.295  -9.929  18.900  1.00  0.00    -0.648 OA
ENDBRANCH   3  24
BRANCH   4  27
HETATM   27  C19 UNL     1     -69.777 -11.924  20.417  1.00  0.00     0.001 A 
HETATM   28  C20 UNL     1     -70.290 -11.768  21.690  1.00  0.00     0.084 A 
HETATM   29 CL1  UNL     1     -69.624 -12.362  23.233  1.00  0.00    -0.076 Cl
HETATM   30  S1  UNL     1     -71.686 -10.819  21.454  1.00  0.00    -0.063 SA
HETATM   31  C21 UNL     1     -71.598 -10.634  19.775  1.00  0.00     0.098 A 
HETATM   32 CL2  UNL     1     -72.741  -9.739  18.756  1.00  0.00    -0.074 Cl
HETATM   33  C22 UNL     1     -70.467 -11.323  19.418  1.00  0.00     0.071 A 
HETATM   34 CL3  UNL     1     -69.986 -11.241  17.681  1.00  0.00    -0.081 Cl
ENDBRANCH   4  27
TORSDOF 11
ENDMDL
