MODEL 1
REMARK VINA RESULT: -8.576621483      0.000      0.000
REMARK  10 active torsions:
REMARK  status: ('A' for Active; 'I' for Inactive)
REMARK    1  A    between atoms: O1_2  and  C2_3 
REMARK    2  A    between atoms: C2_3  and  C3_4 
REMARK    3  A    between atoms: C3_4  and  C4_5 
REMARK    4  A    between atoms: C4_5  and  C5_6 
REMARK       I    between atoms: C5_6  and  N1_8 
REMARK    5  A    between atoms: N1_8  and  S1_10 
REMARK    6  A    between atoms: S1_10  and  C6_13 
REMARK    7  A    between atoms: C13_23  and  C14_24 
REMARK    8  A    between atoms: C17_27  and  O5_28 
REMARK    9  A    between atoms: O5_28  and  C18_29 
REMARK   10  A    between atoms: C18_29  and  C19_32 
ROOT
HETATM    1  C4  UNL     1     -66.342 -11.235  20.977  1.00  0.00     0.052 A 
HETATM    2  C12 UNL     1     -67.109 -10.952  22.304  1.00  0.00     0.031 A 
HETATM    3  C13 UNL     1     -67.203 -12.213  21.573  1.00  0.00     0.045 A 
ENDROOT
BRANCH   1   4
HETATM    4  C3  UNL     1     -64.840 -11.292  21.162  1.00  0.00     0.046 C 
BRANCH   4   5
HETATM    5  C2  UNL     1     -64.114 -12.408  20.535  1.00  0.00     0.168 C 
BRANCH   5   6
HETATM    6  O1  UNL     1     -64.153 -13.629  21.151  1.00  0.00    -0.396 OA
HETATM    7  C1  UNL     1     -64.696 -14.629  20.357  1.00  0.00     0.201 C 
ENDBRANCH   5   6
ENDBRANCH   4   5
ENDBRANCH   1   4
BRANCH   1   8
HETATM    8  C5  UNL     1     -66.731 -10.220  19.959  1.00  0.00     0.240 C 
HETATM    9  O2  UNL     1     -66.164 -10.233  18.842  1.00  0.00    -0.272 OA
HETATM   10  N1  UNL     1     -67.700  -9.267  20.216  1.00  0.00    -0.249 N 
ATOM     11  H1  UNL     1     -68.125  -9.325  21.142  1.00  0.00     0.182 HD
BRANCH  10  12
HETATM   12  S1  UNL     1     -68.296  -8.014  19.232  1.00  0.00     0.268 S 
HETATM   13  O3  UNL     1     -67.712  -6.665  19.602  1.00  0.00    -0.200 OA
HETATM   14  O4  UNL     1     -67.991  -8.255  17.761  1.00  0.00    -0.200 OA
BRANCH  12  15
HETATM   15  C6  UNL     1     -70.033  -7.851  19.335  1.00  0.00     0.123 A 
HETATM   16  C7  UNL     1     -70.637  -6.712  19.818  1.00  0.00     0.060 A 
HETATM   17 CL1  UNL     1     -69.660  -5.403  20.476  1.00  0.00    -0.083 Cl
HETATM   18  C8  UNL     1     -72.013  -6.576  19.856  1.00  0.00     0.049 A 
HETATM   19  C9  UNL     1     -72.804  -7.614  19.397  1.00  0.00     0.037 A 
HETATM   20 CL2  UNL     1     -74.532  -7.395  19.462  1.00  0.00    -0.084 Cl
HETATM   21  C10 UNL     1     -72.217  -8.755  18.916  1.00  0.00     0.049 A 
HETATM   22  C11 UNL     1     -70.866  -8.867  18.887  1.00  0.00     0.060 A 
HETATM   23 CL3  UNL     1     -70.073 -10.318  18.280  1.00  0.00    -0.083 Cl
ENDBRANCH  12  15
ENDBRANCH  10  12
ENDBRANCH   1   8
BRANCH   3  24
HETATM   24  C14 UNL     1     -68.578 -12.598  21.111  1.00  0.00    -0.009 A 
HETATM   25  C15 UNL     1     -69.769 -12.043  21.510  1.00  0.00     0.018 A 
HETATM   26  C16 UNL     1     -70.887 -12.500  20.943  1.00  0.00     0.046 A 
HETATM   27  C17 UNL     1     -70.775 -13.482  20.008  1.00  0.00     0.116 A 
HETATM   28  S2  UNL     1     -69.069 -13.745  19.950  1.00  0.00    -0.070 SA
BRANCH  27  29
HETATM   29  O5  UNL     1     -71.768 -14.141  19.255  1.00  0.00    -0.276 OA
BRANCH  29  30
HETATM   30  C18 UNL     1     -72.000 -13.761  17.925  1.00  0.00     0.363 C 
HETATM   31  F1  UNL     1     -70.770 -13.684  17.299  1.00  0.00    -0.175 F 
HETATM   32  F2  UNL     1     -72.689 -14.770  17.245  1.00  0.00    -0.175 F 
BRANCH  30  33
HETATM   33  C19 UNL     1     -72.760 -12.503  17.727  1.00  0.00     0.089 A 
HETATM   34  C20 UNL     1     -73.843 -12.081  18.648  1.00  0.00     0.014 A 
HETATM   35  C21 UNL     1     -74.225 -12.634  17.320  1.00  0.00     0.014 A 
ENDBRANCH  30  33
ENDBRANCH  29  30
ENDBRANCH  27  29
ENDBRANCH   3  24
TORSDOF 10
ENDMDL
MODEL 2
REMARK VINA RESULT: -8.542757364      2.829      5.474
REMARK  10 active torsions:
REMARK  status: ('A' for Active; 'I' for Inactive)
REMARK    1  A    between atoms: O1_2  and  C2_3 
REMARK    2  A    between atoms: C2_3  and  C3_4 
REMARK    3  A    between atoms: C3_4  and  C4_5 
REMARK    4  A    between atoms: C4_5  and  C5_6 
REMARK       I    between atoms: C5_6  and  N1_8 
REMARK    5  A    between atoms: N1_8  and  S1_10 
REMARK    6  A    between atoms: S1_10  and  C6_13 
REMARK    7  A    between atoms: C13_23  and  C14_24 
REMARK    8  A    between atoms: C17_27  and  O5_28 
REMARK    9  A    between atoms: O5_28  and  C18_29 
REMARK   10  A    between atoms: C18_29  and  C19_32 
ROOT
HETATM    1  C4  UNL     1     -67.272 -12.487  19.892  1.00  0.00     0.052 A 
HETATM    2  C12 UNL     1     -67.448 -12.311  18.354  1.00  0.00     0.031 A 
HETATM    3  C13 UNL     1     -66.698 -11.378  19.190  1.00  0.00     0.045 A 
ENDROOT
BRANCH   1   4
HETATM    4  C3  UNL     1     -66.443 -13.701  20.257  1.00  0.00     0.046 C 
BRANCH   4   5
HETATM    5  C2  UNL     1     -65.264 -13.494  21.114  1.00  0.00     0.168 C 
BRANCH   5   6
HETATM    6  O1  UNL     1     -65.357 -12.578  22.126  1.00  0.00    -0.396 OA
HETATM    7  C1  UNL     1     -64.431 -11.550  22.024  1.00  0.00     0.201 C 
ENDBRANCH   5   6
ENDBRANCH   4   5
ENDBRANCH   1   4
BRANCH   1   8
HETATM    8  C5  UNL     1     -68.612 -12.523  20.540  1.00  0.00     0.240 C 
HETATM    9  O2  UNL     1     -68.786 -11.895  21.610  1.00  0.00    -0.272 OA
HETATM   10  N1  UNL     1     -69.666 -13.231  19.990  1.00  0.00    -0.249 N 
ATOM     11  H1  UNL     1     -69.453 -13.707  19.114  1.00  0.00     0.182 HD
BRANCH  10  12
HETATM   12  S1  UNL     1     -71.261 -13.431  20.545  1.00  0.00     0.268 S 
HETATM   13  O3  UNL     1     -71.986 -14.549  19.823  1.00  0.00    -0.200 OA
HETATM   14  O4  UNL     1     -71.309 -13.743  22.033  1.00  0.00    -0.200 OA
BRANCH  12  15
HETATM   15  C6  UNL     1     -72.229 -11.990  20.332  1.00  0.00     0.123 A 
HETATM   16  C7  UNL     1     -73.023 -11.485  21.336  1.00  0.00     0.060 A 
HETATM   17 CL1  UNL     1     -73.191 -12.356  22.857  1.00  0.00    -0.083 Cl
HETATM   18  C8  UNL     1     -73.752 -10.321  21.173  1.00  0.00     0.049 A 
HETATM   19  C9  UNL     1     -73.682  -9.647  19.967  1.00  0.00     0.037 A 
HETATM   20 CL2  UNL     1     -74.616  -8.183  19.809  1.00  0.00    -0.084 Cl
HETATM   21  C10 UNL     1     -72.897 -10.140  18.957  1.00  0.00     0.049 A 
HETATM   22  C11 UNL     1     -72.190 -11.282  19.139  1.00  0.00     0.060 A 
HETATM   23 CL3  UNL     1     -71.173 -11.951  17.865  1.00  0.00    -0.083 Cl
ENDBRANCH  12  15
ENDBRANCH  10  12
ENDBRANCH   1   8
BRANCH   3  24
HETATM   24  C14 UNL     1     -67.193  -9.962  19.193  1.00  0.00    -0.009 A 
HETATM   25  C15 UNL     1     -66.452  -8.828  19.421  1.00  0.00     0.018 A 
HETATM   26  C16 UNL     1     -67.076  -7.652  19.334  1.00  0.00     0.046 A 
HETATM   27  C17 UNL     1     -68.400  -7.651  19.023  1.00  0.00     0.116 A 
HETATM   28  S2  UNL     1     -68.743  -9.335  18.860  1.00  0.00    -0.070 SA
BRANCH  27  29
HETATM   29  O5  UNL     1     -69.298  -6.576  18.863  1.00  0.00    -0.276 OA
BRANCH  29  30
HETATM   30  C18 UNL     1     -70.492  -6.550  19.600  1.00  0.00     0.363 C 
HETATM   31  F1  UNL     1     -71.439  -7.245  18.871  1.00  0.00    -0.175 F 
HETATM   32  F2  UNL     1     -70.344  -7.276  20.786  1.00  0.00    -0.175 F 
BRANCH  30  33
HETATM   33  C19 UNL     1     -71.004  -5.208  19.970  1.00  0.00     0.089 A 
HETATM   34  C20 UNL     1     -72.395  -4.786  19.677  1.00  0.00     0.014 A 
HETATM   35  C21 UNL     1     -71.300  -4.240  18.828  1.00  0.00     0.014 A 
ENDBRANCH  30  33
ENDBRANCH  29  30
ENDBRANCH  27  29
ENDBRANCH   3  24
TORSDOF 10
ENDMDL
MODEL 3
REMARK VINA RESULT: -8.515813895      0.811      1.915
REMARK  10 active torsions:
REMARK  status: ('A' for Active; 'I' for Inactive)
REMARK    1  A    between atoms: O1_2  and  C2_3 
REMARK    2  A    between atoms: C2_3  and  C3_4 
REMARK    3  A    between atoms: C3_4  and  C4_5 
REMARK    4  A    between atoms: C4_5  and  C5_6 
REMARK       I    between atoms: C5_6  and  N1_8 
REMARK    5  A    between atoms: N1_8  and  S1_10 
REMARK    6  A    between atoms: S1_10  and  C6_13 
REMARK    7  A    between atoms: C13_23  and  C14_24 
REMARK    8  A    between atoms: C17_27  and  O5_28 
REMARK    9  A    between atoms: O5_28  and  C18_29 
REMARK   10  A    between atoms: C18_29  and  C19_32 
ROOT
HETATM    1  C4  UNL     1     -66.355 -11.252  20.955  1.00  0.00     0.052 A 
HETATM    2  C12 UNL     1     -67.080 -10.934  22.297  1.00  0.00     0.031 A 
HETATM    3  C13 UNL     1     -67.251 -12.187  21.568  1.00  0.00     0.045 A 
ENDROOT
BRANCH   1   4
HETATM    4  C3  UNL     1     -64.854 -11.382  21.110  1.00  0.00     0.046 C 
BRANCH   4   5
HETATM    5  C2  UNL     1     -64.236 -12.666  20.741  1.00  0.00     0.168 C 
BRANCH   5   6
HETATM    6  O1  UNL     1     -64.836 -13.413  19.765  1.00  0.00    -0.396 OA
HETATM    7  C1  UNL     1     -64.933 -14.760  20.085  1.00  0.00     0.201 C 
ENDBRANCH   5   6
ENDBRANCH   4   5
ENDBRANCH   1   4
BRANCH   1   8
HETATM    8  C5  UNL     1     -66.715 -10.219  19.945  1.00  0.00     0.240 C 
HETATM    9  O2  UNL     1     -66.103 -10.200  18.852  1.00  0.00    -0.272 OA
HETATM   10  N1  UNL     1     -67.704  -9.282  20.184  1.00  0.00    -0.249 N 
ATOM     11  H1  UNL     1     -68.165  -9.366  21.090  1.00  0.00     0.182 HD
BRANCH  10  12
HETATM   12  S1  UNL     1     -68.274  -8.014  19.205  1.00  0.00     0.268 S 
HETATM   13  O3  UNL     1     -67.703  -6.670  19.613  1.00  0.00    -0.200 OA
HETATM   14  O4  UNL     1     -67.928  -8.230  17.739  1.00  0.00    -0.200 OA
BRANCH  12  15
HETATM   15  C6  UNL     1     -70.014  -7.855  19.261  1.00  0.00     0.123 A 
HETATM   16  C7  UNL     1     -70.857  -8.872  18.872  1.00  0.00     0.060 A 
HETATM   17 CL1  UNL     1     -70.200 -10.350  18.178  1.00  0.00    -0.083 Cl
HETATM   18  C8  UNL     1     -72.232  -8.753  18.961  1.00  0.00     0.049 A 
HETATM   19  C9  UNL     1     -72.775  -7.579  19.451  1.00  0.00     0.037 A 
HETATM   20 CL2  UNL     1     -74.513  -7.476  19.545  1.00  0.00    -0.084 Cl
HETATM   21  C10 UNL     1     -71.948  -6.557  19.838  1.00  0.00     0.049 A 
HETATM   22  C11 UNL     1     -70.603  -6.696  19.745  1.00  0.00     0.060 A 
HETATM   23 CL3  UNL     1     -69.506  -5.404  20.228  1.00  0.00    -0.083 Cl
ENDBRANCH  12  15
ENDBRANCH  10  12
ENDBRANCH   1   8
BRANCH   3  24
HETATM   24  C14 UNL     1     -68.651 -12.504  21.135  1.00  0.00    -0.009 A 
HETATM   25  C15 UNL     1     -69.801 -11.861  21.520  1.00  0.00     0.018 A 
HETATM   26  C16 UNL     1     -70.952 -12.271  20.982  1.00  0.00     0.046 A 
HETATM   27  C17 UNL     1     -70.911 -13.294  20.087  1.00  0.00     0.116 A 
HETATM   28  S2  UNL     1     -69.225 -13.665  20.025  1.00  0.00    -0.070 SA
BRANCH  27  29
HETATM   29  O5  UNL     1     -71.951 -13.920  19.370  1.00  0.00    -0.276 OA
BRANCH  29  30
HETATM   30  C18 UNL     1     -72.086 -13.687  17.993  1.00  0.00     0.363 C 
HETATM   31  F1  UNL     1     -72.749 -12.482  17.845  1.00  0.00    -0.175 F 
HETATM   32  F2  UNL     1     -70.831 -13.482  17.411  1.00  0.00    -0.175 F 
BRANCH  30  33
HETATM   33  C19 UNL     1     -72.763 -14.750  17.212  1.00  0.00     0.089 A 
HETATM   34  C20 UNL     1     -72.305 -15.149  15.859  1.00  0.00     0.014 A 
HETATM   35  C21 UNL     1     -73.532 -14.314  15.968  1.00  0.00     0.014 A 
ENDBRANCH  30  33
ENDBRANCH  29  30
ENDBRANCH  27  29
ENDBRANCH   3  24
TORSDOF 10
ENDMDL
MODEL 4
REMARK VINA RESULT: -8.504576256      1.427      2.327
REMARK  10 active torsions:
REMARK  status: ('A' for Active; 'I' for Inactive)
REMARK    1  A    between atoms: O1_2  and  C2_3 
REMARK    2  A    between atoms: C2_3  and  C3_4 
REMARK    3  A    between atoms: C3_4  and  C4_5 
REMARK    4  A    between atoms: C4_5  and  C5_6 
REMARK       I    between atoms: C5_6  and  N1_8 
REMARK    5  A    between atoms: N1_8  and  S1_10 
REMARK    6  A    between atoms: S1_10  and  C6_13 
REMARK    7  A    between atoms: C13_23  and  C14_24 
REMARK    8  A    between atoms: C17_27  and  O5_28 
REMARK    9  A    between atoms: O5_28  and  C18_29 
REMARK   10  A    between atoms: C18_29  and  C19_32 
ROOT
HETATM    1  C4  UNL     1     -67.127 -11.460  20.947  1.00  0.00     0.052 A 
HETATM    2  C12 UNL     1     -68.302 -11.888  21.876  1.00  0.00     0.031 A 
HETATM    3  C13 UNL     1     -67.458 -12.838  21.158  1.00  0.00     0.045 A 
ENDROOT
BRANCH   1   4
HETATM    4  C3  UNL     1     -65.989 -10.800  21.697  1.00  0.00     0.046 C 
BRANCH   4   5
HETATM    5  C2  UNL     1     -64.907 -11.663  22.198  1.00  0.00     0.168 C 
BRANCH   5   6
HETATM    6  O1  UNL     1     -63.842 -11.905  21.373  1.00  0.00    -0.396 OA
HETATM    7  C1  UNL     1     -63.466 -13.240  21.338  1.00  0.00     0.201 C 
ENDBRANCH   5   6
ENDBRANCH   4   5
ENDBRANCH   1   4
BRANCH   1   8
HETATM    8  C5  UNL     1     -67.651 -10.583  19.863  1.00  0.00     0.240 C 
HETATM    9  O2  UNL     1     -67.536 -10.955  18.673  1.00  0.00    -0.272 OA
HETATM   10  N1  UNL     1     -68.260  -9.372  20.140  1.00  0.00    -0.249 N 
ATOM     11  H1  UNL     1     -68.328  -9.142  21.132  1.00  0.00     0.182 HD
BRANCH  10  12
HETATM   12  S1  UNL     1     -68.915  -8.208  19.088  1.00  0.00     0.268 S 
HETATM   13  O3  UNL     1     -68.351  -6.823  19.339  1.00  0.00    -0.200 OA
HETATM   14  O4  UNL     1     -68.650  -8.550  17.629  1.00  0.00    -0.200 OA
BRANCH  12  15
HETATM   15  C6  UNL     1     -70.652  -8.074  19.235  1.00  0.00     0.123 A 
HETATM   16  C7  UNL     1     -71.493  -9.134  18.983  1.00  0.00     0.060 A 
HETATM   17 CL1  UNL     1     -70.846 -10.654  18.375  1.00  0.00    -0.083 Cl
HETATM   18  C8  UNL     1     -72.863  -9.031  19.143  1.00  0.00     0.049 A 
HETATM   19  C9  UNL     1     -73.402  -7.829  19.566  1.00  0.00     0.037 A 
HETATM   20 CL2  UNL     1     -75.133  -7.748  19.756  1.00  0.00    -0.084 Cl
HETATM   21  C10 UNL     1     -72.577  -6.764  19.817  1.00  0.00     0.049 A 
HETATM   22  C11 UNL     1     -71.236  -6.888  19.655  1.00  0.00     0.060 A 
HETATM   23 CL3  UNL     1     -70.142  -5.543  19.964  1.00  0.00    -0.083 Cl
ENDBRANCH  12  15
ENDBRANCH  10  12
ENDBRANCH   1   8
BRANCH   3  24
HETATM   24  C14 UNL     1     -68.168 -13.747  20.199  1.00  0.00    -0.009 A 
HETATM   25  C15 UNL     1     -67.605 -14.720  19.411  1.00  0.00     0.018 A 
HETATM   26  C16 UNL     1     -68.422 -15.456  18.655  1.00  0.00     0.046 A 
HETATM   27  C17 UNL     1     -69.756 -15.197  18.715  1.00  0.00     0.116 A 
HETATM   28  S2  UNL     1     -69.831 -13.900  19.852  1.00  0.00    -0.070 SA
BRANCH  27  29
HETATM   29  O5  UNL     1     -70.834 -15.807  18.041  1.00  0.00    -0.276 OA
BRANCH  29  30
HETATM   30  C18 UNL     1     -71.444 -15.148  16.963  1.00  0.00     0.363 C 
HETATM   31  F1  UNL     1     -70.710 -14.002  16.715  1.00  0.00    -0.175 F 
HETATM   32  F2  UNL     1     -71.323 -15.912  15.798  1.00  0.00    -0.175 F 
BRANCH  30  33
HETATM   33  C19 UNL     1     -72.880 -14.819  17.124  1.00  0.00     0.089 A 
HETATM   34  C20 UNL     1     -73.666 -14.161  16.052  1.00  0.00     0.014 A 
HETATM   35  C21 UNL     1     -73.247 -13.341  17.222  1.00  0.00     0.014 A 
ENDBRANCH  30  33
ENDBRANCH  29  30
ENDBRANCH  27  29
ENDBRANCH   3  24
TORSDOF 10
ENDMDL
MODEL 5
REMARK VINA RESULT: -8.396970889      3.371      5.416
REMARK  10 active torsions:
REMARK  status: ('A' for Active; 'I' for Inactive)
REMARK    1  A    between atoms: O1_2  and  C2_3 
REMARK    2  A    between atoms: C2_3  and  C3_4 
REMARK    3  A    between atoms: C3_4  and  C4_5 
REMARK    4  A    between atoms: C4_5  and  C5_6 
REMARK       I    between atoms: C5_6  and  N1_8 
REMARK    5  A    between atoms: N1_8  and  S1_10 
REMARK    6  A    between atoms: S1_10  and  C6_13 
REMARK    7  A    between atoms: C13_23  and  C14_24 
REMARK    8  A    between atoms: C17_27  and  O5_28 
REMARK    9  A    between atoms: O5_28  and  C18_29 
REMARK   10  A    between atoms: C18_29  and  C19_32 
ROOT
HETATM    1  C4  UNL     1     -66.365 -11.629  21.116  1.00  0.00     0.052 A 
HETATM    2  C12 UNL     1     -65.145 -12.246  21.864  1.00  0.00     0.031 A 
HETATM    3  C13 UNL     1     -65.437 -12.497  20.455  1.00  0.00     0.045 A 
ENDROOT
BRANCH   1   4
HETATM    4  C3  UNL     1     -66.273 -10.124  20.974  1.00  0.00     0.046 C 
BRANCH   4   5
HETATM    5  C2  UNL     1     -66.289  -9.562  19.614  1.00  0.00     0.168 C 
BRANCH   5   6
HETATM    6  O1  UNL     1     -66.411  -8.205  19.478  1.00  0.00    -0.396 OA
HETATM    7  C1  UNL     1     -67.295  -7.830  18.478  1.00  0.00     0.201 C 
ENDBRANCH   5   6
ENDBRANCH   4   5
ENDBRANCH   1   4
BRANCH   1   8
HETATM    8  C5  UNL     1     -67.622 -12.038  21.803  1.00  0.00     0.240 C 
HETATM    9  O2  UNL     1     -67.565 -12.419  22.995  1.00  0.00    -0.272 OA
HETATM   10  N1  UNL     1     -68.845 -12.008  21.159  1.00  0.00    -0.249 N 
ATOM     11  H1  UNL     1     -68.815 -11.676  20.194  1.00  0.00     0.182 HD
BRANCH  10  12
HETATM   12  S1  UNL     1     -70.392 -12.435  21.721  1.00  0.00     0.268 S 
HETATM   13  O3  UNL     1     -70.850 -13.776  21.184  1.00  0.00    -0.200 OA
HETATM   14  O4  UNL     1     -70.442 -12.512  23.240  1.00  0.00    -0.200 OA
BRANCH  12  15
HETATM   15  C6  UNL     1     -71.614 -11.271  21.266  1.00  0.00     0.123 A 
HETATM   16  C7  UNL     1     -71.333 -10.185  20.468  1.00  0.00     0.060 A 
HETATM   17 CL1  UNL     1     -69.677  -9.858  19.969  1.00  0.00    -0.083 Cl
HETATM   18  C8  UNL     1     -72.315  -9.292  20.078  1.00  0.00     0.049 A 
HETATM   19  C9  UNL     1     -73.616  -9.496  20.504  1.00  0.00     0.037 A 
HETATM   20 CL2  UNL     1     -74.819  -8.346  19.985  1.00  0.00    -0.084 Cl
HETATM   21  C10 UNL     1     -73.910 -10.571  21.302  1.00  0.00     0.049 A 
HETATM   22  C11 UNL     1     -72.932 -11.434  21.670  1.00  0.00     0.060 A 
HETATM   23 CL3  UNL     1     -73.268 -12.825  22.698  1.00  0.00    -0.083 Cl
ENDBRANCH  12  15
ENDBRANCH  10  12
ENDBRANCH   1   8
BRANCH   3  24
HETATM   24  C14 UNL     1     -65.662 -13.933  20.082  1.00  0.00    -0.009 A 
HETATM   25  C15 UNL     1     -64.767 -14.968  20.202  1.00  0.00     0.018 A 
HETATM   26  C16 UNL     1     -65.180 -16.188  19.854  1.00  0.00     0.046 A 
HETATM   27  C17 UNL     1     -66.457 -16.328  19.405  1.00  0.00     0.116 A 
HETATM   28  S2  UNL     1     -67.056 -14.711  19.483  1.00  0.00    -0.070 SA
BRANCH  27  29
HETATM   29  O5  UNL     1     -67.151 -17.478  18.978  1.00  0.00    -0.276 OA
BRANCH  29  30
HETATM   30  C18 UNL     1     -67.283 -17.743  17.607  1.00  0.00     0.363 C 
HETATM   31  F1  UNL     1     -68.423 -17.093  17.171  1.00  0.00    -0.175 F 
HETATM   32  F2  UNL     1     -66.234 -17.150  16.896  1.00  0.00    -0.175 F 
BRANCH  30  33
HETATM   33  C19 UNL     1     -67.321 -19.173  17.217  1.00  0.00     0.089 A 
HETATM   34  C20 UNL     1     -67.869 -20.222  18.112  1.00  0.00     0.014 A 
HETATM   35  C21 UNL     1     -66.390 -20.122  17.966  1.00  0.00     0.014 A 
ENDBRANCH  30  33
ENDBRANCH  29  30
ENDBRANCH  27  29
ENDBRANCH   3  24
TORSDOF 10
ENDMDL
