MODEL 1
REMARK VINA RESULT: -8.914301392      0.000      0.000
REMARK  12 active torsions:
REMARK  status: ('A' for Active; 'I' for Inactive)
REMARK    1  A    between atoms: C2_2  and  C3_3 
REMARK    2  A    between atoms: C3_3  and  C4_4 
REMARK    3  A    between atoms: C7_11  and  N3_12 
REMARK    4  A    between atoms: N3_12  and  C8_13 
REMARK    5  A    between atoms: N3_12  and  C10_15 
REMARK    6  A    between atoms: C10_15  and  C11_16 
REMARK    7  A    between atoms: C11_16  and  C12_17 
REMARK    8  A    between atoms: C12_17  and  C13_18 
REMARK    9  A    between atoms: C13_18  and  N4_19 
REMARK   10  A    between atoms: C20_30  and  C21_31 
REMARK   11  A    between atoms: C24_37  and  N7_38 
REMARK   12  A    between atoms: C25_41  and  C26_42 
ROOT
HETATM    1  N4  UNL     1     -66.474 -12.009  20.235  1.00  0.00     0.102 N 
HETATM    2  C14 UNL     1     -65.948 -10.714  19.895  1.00  0.00     0.293 C 
HETATM    3  C15 UNL     1     -66.987  -9.638  19.856  1.00  0.00     0.162 C 
HETATM    4  N5  UNL     1     -68.318  -9.990  20.214  1.00  0.00    -0.319 N 
HETATM    5  C16 UNL     1     -68.595 -11.091  20.894  1.00  0.00     0.119 A 
HETATM    6  N6  UNL     1     -69.847 -11.391  21.218  1.00  0.00    -0.342 N 
ATOM      7  H6  UNL     1     -70.039 -12.243  21.743  1.00  0.00     0.167 HD
HETATM    8  C17 UNL     1     -70.874 -10.579  20.861  1.00  0.00     0.069 A 
HETATM    9  C18 UNL     1     -72.182 -10.876  21.180  1.00  0.00     0.062 A 
HETATM   10 CL1  UNL     1     -72.547 -12.335  22.075  1.00  0.00    -0.082 Cl
HETATM   11  C19 UNL     1     -73.221 -10.053  20.808  1.00  0.00     0.042 A 
HETATM   12  C20 UNL     1     -72.968  -8.887  20.092  1.00  0.00     0.050 A 
HETATM   13  C22 UNL     1     -71.646  -8.593  19.775  1.00  0.00     0.034 A 
HETATM   14  C23 UNL     1     -70.597  -9.430  20.154  1.00  0.00     0.037 A 
HETATM   15  C24 UNL     1     -69.294  -9.122  19.819  1.00  0.00     0.115 A 
HETATM   16  C25 UNL     1     -67.467 -11.986  21.251  1.00  0.00     0.289 C 
ENDROOT
BRANCH   1  17
HETATM   17  C13 UNL     1     -66.815 -12.697  19.031  1.00  0.00     0.273 C 
BRANCH  17  18
HETATM   18  C12 UNL     1     -66.939 -14.196  19.189  1.00  0.00     0.032 C 
BRANCH  18  19
HETATM   19  C11 UNL     1     -65.622 -14.795  19.621  1.00  0.00     0.022 C 
BRANCH  19  20
HETATM   20  C10 UNL     1     -65.769 -16.048  20.419  1.00  0.00     0.124 C 
BRANCH  20  21
HETATM   21  N3  UNL     1     -65.432 -17.281  19.774  1.00  0.00    -0.367 N 
BRANCH  21  22
HETATM   22  C7  UNL     1     -66.320 -18.382  19.968  1.00  0.00     0.111 A 
HETATM   23  C4  UNL     1     -67.580 -18.445  19.493  1.00  0.00     0.001 A 
HETATM   24  C5  UNL     1     -68.339 -19.577  19.895  1.00  0.00     0.099 A 
HETATM   25  N1  UNL     1     -67.800 -20.497  20.689  1.00  0.00    -0.361 N 
HETATM   26  C6  UNL     1     -66.549 -20.424  21.152  1.00  0.00     0.181 A 
ATOM     27  H1  UNL     1     -68.370 -21.299  20.959  1.00  0.00     0.166 HD
HETATM   28  N2  UNL     1     -65.833 -19.359  20.775  1.00  0.00    -0.338 N 
ATOM     29  H2  UNL     1     -64.873 -19.276  21.111  1.00  0.00     0.168 HD
BRANCH  23  30
HETATM   30  C3  UNL     1     -68.251 -17.566  18.557  1.00  0.00     0.043 C 
BRANCH  30  31
HETATM   31  C2  UNL     1     -69.464 -16.870  19.080  1.00  0.00     0.000 C 
HETATM   32  C1  UNL     1     -70.137 -15.997  18.084  1.00  0.00     0.005 C 
ENDBRANCH  30  31
ENDBRANCH  23  30
ENDBRANCH  21  22
BRANCH  21  33
HETATM   33  C8  UNL     1     -64.253 -17.419  18.965  1.00  0.00     0.120 C 
HETATM   34  C9  UNL     1     -62.977 -17.455  19.723  1.00  0.00     0.026 C 
ENDBRANCH  21  33
ENDBRANCH  20  21
ENDBRANCH  19  20
ENDBRANCH  18  19
ENDBRANCH  17  18
ENDBRANCH   1  17
BRANCH  16  35
HETATM   35  C26 UNL     1     -66.797 -11.479  22.516  1.00  0.00     0.039 C 
HETATM   36  C27 UNL     1     -65.651 -12.412  22.892  1.00  0.00     0.007 C 
ENDBRANCH  16  35
BRANCH  15  37
HETATM   37  N7  UNL     1     -69.088  -8.046  19.166  1.00  0.00    -0.385 N 
ATOM     38  H72 UNL     1     -69.633  -7.223  19.425  1.00  0.00     0.157 HD
ATOM     39  H71 UNL     1     -68.415  -7.948  18.407  1.00  0.00     0.157 HD
ENDBRANCH  15  37
BRANCH  12  40
HETATM   40  C21 UNL     1     -74.084  -7.999  19.680  1.00  0.00     0.417 C 
HETATM   41  F1  UNL     1     -74.247  -8.138  18.311  1.00  0.00    -0.166 F 
HETATM   42  F2  UNL     1     -73.730  -6.681  19.941  1.00  0.00    -0.166 F 
HETATM   43  F3  UNL     1     -75.257  -8.298  20.311  1.00  0.00    -0.166 F 
ENDBRANCH  12  40
TORSDOF 12
ENDMDL
MODEL 2
REMARK VINA RESULT: -8.839143429      1.369      2.754
REMARK  12 active torsions:
REMARK  status: ('A' for Active; 'I' for Inactive)
REMARK    1  A    between atoms: C2_2  and  C3_3 
REMARK    2  A    between atoms: C3_3  and  C4_4 
REMARK    3  A    between atoms: C7_11  and  N3_12 
REMARK    4  A    between atoms: N3_12  and  C8_13 
REMARK    5  A    between atoms: N3_12  and  C10_15 
REMARK    6  A    between atoms: C10_15  and  C11_16 
REMARK    7  A    between atoms: C11_16  and  C12_17 
REMARK    8  A    between atoms: C12_17  and  C13_18 
REMARK    9  A    between atoms: C13_18  and  N4_19 
REMARK   10  A    between atoms: C20_30  and  C21_31 
REMARK   11  A    between atoms: C24_37  and  N7_38 
REMARK   12  A    between atoms: C25_41  and  C26_42 
ROOT
HETATM    1  N4  UNL     1     -66.482 -11.934  20.223  1.00  0.00     0.102 N 
HETATM    2  C14 UNL     1     -65.959 -10.638  19.881  1.00  0.00     0.293 C 
HETATM    3  C15 UNL     1     -67.000  -9.564  19.843  1.00  0.00     0.162 C 
HETATM    4  N5  UNL     1     -68.330  -9.918  20.203  1.00  0.00    -0.319 N 
HETATM    5  C16 UNL     1     -68.604 -11.020  20.884  1.00  0.00     0.119 A 
HETATM    6  N6  UNL     1     -69.855 -11.322  21.210  1.00  0.00    -0.342 N 
ATOM      7  H6  UNL     1     -70.045 -12.174  21.736  1.00  0.00     0.167 HD
HETATM    8  C17 UNL     1     -70.884 -10.512  20.854  1.00  0.00     0.069 A 
HETATM    9  C18 UNL     1     -72.191 -10.812  21.175  1.00  0.00     0.062 A 
HETATM   10 CL1  UNL     1     -72.551 -12.271  22.071  1.00  0.00    -0.082 Cl
HETATM   11  C19 UNL     1     -73.232  -9.991  20.803  1.00  0.00     0.042 A 
HETATM   12  C20 UNL     1     -72.982  -8.825  20.086  1.00  0.00     0.050 A 
HETATM   13  C22 UNL     1     -71.661  -8.529  19.768  1.00  0.00     0.034 A 
HETATM   14  C23 UNL     1     -70.611  -9.363  20.145  1.00  0.00     0.037 A 
HETATM   15  C24 UNL     1     -69.309  -9.053  19.809  1.00  0.00     0.115 A 
HETATM   16  C25 UNL     1     -67.474 -11.912  21.240  1.00  0.00     0.289 C 
ENDROOT
BRANCH   1  17
HETATM   17  C13 UNL     1     -66.823 -12.624  19.020  1.00  0.00     0.273 C 
BRANCH  17  18
HETATM   18  C12 UNL     1     -67.538 -13.938  19.241  1.00  0.00     0.032 C 
BRANCH  18  19
HETATM   19  C11 UNL     1     -68.959 -13.860  18.737  1.00  0.00     0.022 C 
BRANCH  19  20
HETATM   20  C10 UNL     1     -69.938 -14.592  19.593  1.00  0.00     0.124 C 
BRANCH  20  21
HETATM   21  N3  UNL     1     -70.443 -15.836  19.097  1.00  0.00    -0.367 N 
BRANCH  21  22
HETATM   22  C7  UNL     1     -69.818 -17.029  19.571  1.00  0.00     0.111 A 
HETATM   23  C4  UNL     1     -68.815 -17.673  18.942  1.00  0.00     0.001 A 
HETATM   24  C5  UNL     1     -68.410 -18.907  19.519  1.00  0.00     0.099 A 
HETATM   25  N1  UNL     1     -69.008 -19.360  20.616  1.00  0.00    -0.361 N 
HETATM   26  C6  UNL     1     -70.000 -18.712  21.232  1.00  0.00     0.181 A 
ATOM     27  H1  UNL     1     -68.694 -20.249  21.007  1.00  0.00     0.166 HD
HETATM   28  N2  UNL     1     -70.383 -17.551  20.690  1.00  0.00    -0.338 N 
ATOM     29  H2  UNL     1     -71.137 -17.031  21.139  1.00  0.00     0.168 HD
BRANCH  23  30
HETATM   30  C3  UNL     1     -68.025 -17.248  17.804  1.00  0.00     0.043 C 
BRANCH  30  31
HETATM   31  C2  UNL     1     -66.642 -17.807  17.733  1.00  0.00     0.000 C 
HETATM   32  C1  UNL     1     -65.586 -16.868  18.190  1.00  0.00     0.005 C 
ENDBRANCH  30  31
ENDBRANCH  23  30
ENDBRANCH  21  22
BRANCH  21  33
HETATM   33  C8  UNL     1     -71.531 -15.897  18.161  1.00  0.00     0.120 C 
HETATM   34  C9  UNL     1     -71.165 -15.580  16.758  1.00  0.00     0.026 C 
ENDBRANCH  21  33
ENDBRANCH  20  21
ENDBRANCH  19  20
ENDBRANCH  18  19
ENDBRANCH  17  18
ENDBRANCH   1  17
BRANCH  16  35
HETATM   35  C26 UNL     1     -66.803 -11.403  22.504  1.00  0.00     0.039 C 
HETATM   36  C27 UNL     1     -65.658 -12.336  22.882  1.00  0.00     0.007 C 
ENDBRANCH  16  35
BRANCH  15  37
HETATM   37  N7  UNL     1     -69.105  -7.977  19.155  1.00  0.00    -0.385 N 
ATOM     38  H72 UNL     1     -68.993  -8.050  18.144  1.00  0.00     0.157 HD
ATOM     39  H71 UNL     1     -69.050  -7.047  19.571  1.00  0.00     0.157 HD
ENDBRANCH  15  37
BRANCH  12  40
HETATM   40  C21 UNL     1     -74.100  -7.939  19.676  1.00  0.00     0.417 C 
HETATM   41  F1  UNL     1     -74.235  -8.044  18.300  1.00  0.00    -0.166 F 
HETATM   42  F2  UNL     1     -73.768  -6.624  19.978  1.00  0.00    -0.166 F 
HETATM   43  F3  UNL     1     -75.282  -8.269  20.275  1.00  0.00    -0.166 F 
ENDBRANCH  12  40
TORSDOF 12
ENDMDL
MODEL 3
REMARK VINA RESULT: -8.823071521      1.219      1.505
REMARK  12 active torsions:
REMARK  status: ('A' for Active; 'I' for Inactive)
REMARK    1  A    between atoms: C2_2  and  C3_3 
REMARK    2  A    between atoms: C3_3  and  C4_4 
REMARK    3  A    between atoms: C7_11  and  N3_12 
REMARK    4  A    between atoms: N3_12  and  C8_13 
REMARK    5  A    between atoms: N3_12  and  C10_15 
REMARK    6  A    between atoms: C10_15  and  C11_16 
REMARK    7  A    between atoms: C11_16  and  C12_17 
REMARK    8  A    between atoms: C12_17  and  C13_18 
REMARK    9  A    between atoms: C13_18  and  N4_19 
REMARK   10  A    between atoms: C20_30  and  C21_31 
REMARK   11  A    between atoms: C24_37  and  N7_38 
REMARK   12  A    between atoms: C25_41  and  C26_42 
ROOT
HETATM    1  N4  UNL     1     -66.560 -13.036  20.177  1.00  0.00     0.102 N 
HETATM    2  C14 UNL     1     -65.944 -11.901  19.545  1.00  0.00     0.293 C 
HETATM    3  C15 UNL     1     -66.857 -10.724  19.407  1.00  0.00     0.162 C 
HETATM    4  N5  UNL     1     -68.164 -10.832  19.959  1.00  0.00    -0.319 N 
HETATM    5  C16 UNL     1     -68.472 -11.750  20.860  1.00  0.00     0.119 A 
HETATM    6  N6  UNL     1     -69.699 -11.824  21.361  1.00  0.00    -0.342 N 
ATOM      7  H6  UNL     1     -69.917 -12.538  22.056  1.00  0.00     0.167 HD
HETATM    8  C17 UNL     1     -70.669 -10.962  20.962  1.00  0.00     0.069 A 
HETATM    9  C18 UNL     1     -71.952 -11.027  21.462  1.00  0.00     0.062 A 
HETATM   10 CL1  UNL     1     -72.359 -12.245  22.651  1.00  0.00    -0.082 Cl
HETATM   11  C19 UNL     1     -72.934 -10.156  21.047  1.00  0.00     0.042 A 
HETATM   12  C20 UNL     1     -72.647  -9.177  20.100  1.00  0.00     0.050 A 
HETATM   13  C22 UNL     1     -71.349  -9.117  19.601  1.00  0.00     0.034 A 
HETATM   14  C23 UNL     1     -70.359 -10.002  20.024  1.00  0.00     0.037 A 
HETATM   15  C24 UNL     1     -69.082  -9.929  19.507  1.00  0.00     0.115 A 
HETATM   16  C25 UNL     1     -67.412 -12.706  21.266  1.00  0.00     0.289 C 
ENDROOT
BRANCH   1  17
HETATM   17  C13 UNL     1     -67.120 -13.877  19.167  1.00  0.00     0.273 C 
BRANCH  17  18
HETATM   18  C12 UNL     1     -67.152 -15.345  19.531  1.00  0.00     0.032 C 
BRANCH  18  19
HETATM   19  C11 UNL     1     -65.831 -16.000  19.207  1.00  0.00     0.022 C 
BRANCH  19  20
HETATM   20  C10 UNL     1     -65.602 -17.279  19.944  1.00  0.00     0.124 C 
BRANCH  20  21
HETATM   21  N3  UNL     1     -66.299 -18.439  19.477  1.00  0.00    -0.367 N 
BRANCH  21  22
HETATM   22  C7  UNL     1     -66.866 -19.300  20.465  1.00  0.00     0.111 A 
HETATM   23  C4  UNL     1     -68.162 -19.299  20.833  1.00  0.00     0.001 A 
HETATM   24  C5  UNL     1     -68.502 -20.152  21.917  1.00  0.00     0.099 A 
HETATM   25  N1  UNL     1     -67.567 -20.893  22.503  1.00  0.00    -0.361 N 
HETATM   26  C6  UNL     1     -66.284 -20.886  22.129  1.00  0.00     0.181 A 
ATOM     27  H1  UNL     1     -67.842 -21.496  23.279  1.00  0.00     0.166 HD
HETATM   28  N2  UNL     1     -65.963 -20.083  21.109  1.00  0.00    -0.338 N 
ATOM     29  H2  UNL     1     -64.992 -20.058  20.799  1.00  0.00     0.168 HD
BRANCH  23  30
HETATM   30  C3  UNL     1     -69.286 -18.615  20.224  1.00  0.00     0.043 C 
BRANCH  30  31
HETATM   31  C2  UNL     1     -70.391 -18.234  21.154  1.00  0.00     0.000 C 
HETATM   32  C1  UNL     1     -71.063 -16.957  20.802  1.00  0.00     0.005 C 
ENDBRANCH  30  31
ENDBRANCH  23  30
ENDBRANCH  21  22
BRANCH  21  33
HETATM   33  C8  UNL     1     -66.429 -18.738  18.078  1.00  0.00     0.120 C 
HETATM   34  C9  UNL     1     -66.426 -20.184  17.746  1.00  0.00     0.026 C 
ENDBRANCH  21  33
ENDBRANCH  20  21
ENDBRANCH  19  20
ENDBRANCH  18  19
ENDBRANCH  17  18
ENDBRANCH   1  17
BRANCH  16  35
HETATM   35  C26 UNL     1     -66.540 -12.074  22.336  1.00  0.00     0.039 C 
HETATM   36  C27 UNL     1     -65.538 -13.103  22.847  1.00  0.00     0.007 C 
ENDBRANCH  16  35
BRANCH  15  37
HETATM   37  N7  UNL     1     -68.842  -9.021  18.643  1.00  0.00    -0.385 N 
ATOM     38  H72 UNL     1     -68.059  -9.168  18.006  1.00  0.00     0.157 HD
ATOM     39  H71 UNL     1     -69.380  -8.161  18.542  1.00  0.00     0.157 HD
ENDBRANCH  15  37
BRANCH  12  40
HETATM   40  C21 UNL     1     -73.702  -8.239  19.642  1.00  0.00     0.417 C 
HETATM   41  F1  UNL     1     -73.853  -8.414  18.275  1.00  0.00    -0.166 F 
HETATM   42  F2  UNL     1     -73.275  -6.936  19.866  1.00  0.00    -0.166 F 
HETATM   43  F3  UNL     1     -74.900  -8.449  20.263  1.00  0.00    -0.166 F 
ENDBRANCH  12  40
TORSDOF 12
ENDMDL
MODEL 4
REMARK VINA RESULT: -8.695233001      2.354      4.081
REMARK  12 active torsions:
REMARK  status: ('A' for Active; 'I' for Inactive)
REMARK    1  A    between atoms: C2_2  and  C3_3 
REMARK    2  A    between atoms: C3_3  and  C4_4 
REMARK    3  A    between atoms: C7_11  and  N3_12 
REMARK    4  A    between atoms: N3_12  and  C8_13 
REMARK    5  A    between atoms: N3_12  and  C10_15 
REMARK    6  A    between atoms: C10_15  and  C11_16 
REMARK    7  A    between atoms: C11_16  and  C12_17 
REMARK    8  A    between atoms: C12_17  and  C13_18 
REMARK    9  A    between atoms: C13_18  and  N4_19 
REMARK   10  A    between atoms: C20_30  and  C21_31 
REMARK   11  A    between atoms: C24_37  and  N7_38 
REMARK   12  A    between atoms: C25_41  and  C26_42 
ROOT
HETATM    1  N4  UNL     1     -66.340 -12.442  20.198  1.00  0.00     0.102 N 
HETATM    2  C14 UNL     1     -65.811 -11.253  19.588  1.00  0.00     0.293 C 
HETATM    3  C15 UNL     1     -66.811 -10.147  19.464  1.00  0.00     0.162 C 
HETATM    4  N5  UNL     1     -68.108 -10.364  20.008  1.00  0.00    -0.319 N 
HETATM    5  C16 UNL     1     -68.348 -11.318  20.892  1.00  0.00     0.119 A 
HETATM    6  N6  UNL     1     -69.568 -11.493  21.386  1.00  0.00    -0.342 N 
ATOM      7  H6  UNL     1     -69.732 -12.234  22.068  1.00  0.00     0.167 HD
HETATM    8  C17 UNL     1     -70.599 -10.702  20.996  1.00  0.00     0.069 A 
HETATM    9  C18 UNL     1     -71.875 -10.874  21.489  1.00  0.00     0.062 A 
HETATM   10 CL1  UNL     1     -72.192 -12.139  22.656  1.00  0.00    -0.082 Cl
HETATM   11  C19 UNL     1     -72.919 -10.073  21.083  1.00  0.00     0.042 A 
HETATM   12  C20 UNL     1     -72.705  -9.060  20.153  1.00  0.00     0.050 A 
HETATM   13  C22 UNL     1     -71.414  -8.893  19.662  1.00  0.00     0.034 A 
HETATM   14  C23 UNL     1     -70.360  -9.706  20.075  1.00  0.00     0.037 A 
HETATM   15  C24 UNL     1     -69.090  -9.527  19.565  1.00  0.00     0.115 A 
HETATM   16  C25 UNL     1     -67.219 -12.196  21.288  1.00  0.00     0.289 C 
ENDROOT
BRANCH   1  17
HETATM   17  C13 UNL     1     -66.830 -13.307  19.172  1.00  0.00     0.273 C 
BRANCH  17  18
HETATM   18  C12 UNL     1     -66.563 -14.775  19.419  1.00  0.00     0.032 C 
BRANCH  18  19
HETATM   19  C11 UNL     1     -67.807 -15.591  19.165  1.00  0.00     0.022 C 
BRANCH  19  20
HETATM   20  C10 UNL     1     -69.071 -14.807  19.287  1.00  0.00     0.124 C 
BRANCH  20  21
HETATM   21  N3  UNL     1     -70.302 -15.510  19.087  1.00  0.00    -0.367 N 
BRANCH  21  22
HETATM   22  C7  UNL     1     -71.018 -15.238  17.882  1.00  0.00     0.111 A 
HETATM   23  C4  UNL     1     -72.048 -14.374  17.778  1.00  0.00     0.001 A 
HETATM   24  C5  UNL     1     -72.701 -14.334  16.516  1.00  0.00     0.099 A 
HETATM   25  N1  UNL     1     -72.288 -15.116  15.524  1.00  0.00    -0.361 N 
HETATM   26  C6  UNL     1     -71.265 -15.967  15.639  1.00  0.00     0.181 A 
ATOM     27  H1  UNL     1     -72.777 -15.063  14.630  1.00  0.00     0.166 HD
HETATM   28  N2  UNL     1     -70.649 -16.007  16.825  1.00  0.00    -0.338 N 
ATOM     29  H2  UNL     1     -69.863 -16.646  16.943  1.00  0.00     0.168 HD
BRANCH  23  30
HETATM   30  C3  UNL     1     -72.535 -13.410  18.744  1.00  0.00     0.043 C 
BRANCH  30  31
HETATM   31  C2  UNL     1     -72.994 -12.105  18.180  1.00  0.00     0.000 C 
HETATM   32  C1  UNL     1     -74.425 -11.803  18.442  1.00  0.00     0.005 C 
ENDBRANCH  30  31
ENDBRANCH  23  30
ENDBRANCH  21  22
BRANCH  21  33
HETATM   33  C8  UNL     1     -70.807 -16.449  20.049  1.00  0.00     0.120 C 
HETATM   34  C9  UNL     1     -71.735 -15.874  21.055  1.00  0.00     0.026 C 
ENDBRANCH  21  33
ENDBRANCH  20  21
ENDBRANCH  19  20
ENDBRANCH  18  19
ENDBRANCH  17  18
ENDBRANCH   1  17
BRANCH  16  35
HETATM   35  C26 UNL     1     -66.402 -11.516  22.373  1.00  0.00     0.039 C 
HETATM   36  C27 UNL     1     -65.380 -12.502  22.930  1.00  0.00     0.007 C 
ENDBRANCH  16  35
BRANCH  15  37
HETATM   37  N7  UNL     1     -68.918  -8.589  18.718  1.00  0.00    -0.385 N 
ATOM     38  H72 UNL     1     -68.015  -8.115  18.713  1.00  0.00     0.157 HD
ATOM     39  H71 UNL     1     -69.617  -8.282  18.042  1.00  0.00     0.157 HD
ENDBRANCH  15  37
BRANCH  12  40
HETATM   40  C21 UNL     1     -73.827  -8.199  19.705  1.00  0.00     0.417 C 
HETATM   41  F1  UNL     1     -74.972  -8.628  20.359  1.00  0.00    -0.166 F 
HETATM   42  F2  UNL     1     -74.016  -8.378  18.341  1.00  0.00    -0.166 F 
HETATM   43  F3  UNL     1     -73.618  -6.877  19.976  1.00  0.00    -0.166 F 
ENDBRANCH  12  40
TORSDOF 12
ENDMDL
MODEL 5
REMARK VINA RESULT: -8.690480935      1.228      1.558
REMARK  12 active torsions:
REMARK  status: ('A' for Active; 'I' for Inactive)
REMARK    1  A    between atoms: C2_2  and  C3_3 
REMARK    2  A    between atoms: C3_3  and  C4_4 
REMARK    3  A    between atoms: C7_11  and  N3_12 
REMARK    4  A    between atoms: N3_12  and  C8_13 
REMARK    5  A    between atoms: N3_12  and  C10_15 
REMARK    6  A    between atoms: C10_15  and  C11_16 
REMARK    7  A    between atoms: C11_16  and  C12_17 
REMARK    8  A    between atoms: C12_17  and  C13_18 
REMARK    9  A    between atoms: C13_18  and  N4_19 
REMARK   10  A    between atoms: C20_30  and  C21_31 
REMARK   11  A    between atoms: C24_37  and  N7_38 
REMARK   12  A    between atoms: C25_41  and  C26_42 
ROOT
HETATM    1  N4  UNL     1     -66.796 -12.264  20.190  1.00  0.00     0.102 N 
HETATM    2  C14 UNL     1     -66.203 -11.002  19.839  1.00  0.00     0.293 C 
HETATM    3  C15 UNL     1     -67.181  -9.871  19.799  1.00  0.00     0.162 C 
HETATM    4  N5  UNL     1     -68.528 -10.148  20.168  1.00  0.00    -0.319 N 
HETATM    5  C16 UNL     1     -68.860 -11.229  20.855  1.00  0.00     0.119 A 
HETATM    6  N6  UNL     1     -70.124 -11.457  21.189  1.00  0.00    -0.342 N 
ATOM      7  H6  UNL     1     -70.360 -12.295  21.720  1.00  0.00     0.167 HD
HETATM    8  C17 UNL     1     -71.108 -10.593  20.833  1.00  0.00     0.069 A 
HETATM    9  C18 UNL     1     -72.428 -10.816  21.161  1.00  0.00     0.062 A 
HETATM   10 CL1  UNL     1     -72.866 -12.248  22.067  1.00  0.00    -0.082 Cl
HETATM   11  C19 UNL     1     -73.423  -9.940  20.790  1.00  0.00     0.042 A 
HETATM   12  C20 UNL     1     -73.111  -8.793  20.066  1.00  0.00     0.050 A 
HETATM   13  C22 UNL     1     -71.776  -8.574  19.740  1.00  0.00     0.034 A 
HETATM   14  C23 UNL     1     -70.773  -9.464  20.117  1.00  0.00     0.037 A 
HETATM   15  C24 UNL     1     -69.458  -9.230  19.773  1.00  0.00     0.115 A 
HETATM   16  C25 UNL     1     -67.780 -12.182  21.211  1.00  0.00     0.289 C 
ENDROOT
BRANCH   1  17
HETATM   17  C13 UNL     1     -67.182 -12.940  18.992  1.00  0.00     0.273 C 
BRANCH  17  18
HETATM   18  C12 UNL     1     -67.724 -14.334  19.214  1.00  0.00     0.032 C 
BRANCH  18  19
HETATM   19  C11 UNL     1     -66.600 -15.302  19.496  1.00  0.00     0.022 C 
BRANCH  19  20
HETATM   20  C10 UNL     1     -66.490 -16.400  18.491  1.00  0.00     0.124 C 
BRANCH  20  21
HETATM   21  N3  UNL     1     -66.203 -17.714  18.982  1.00  0.00    -0.367 N 
BRANCH  21  22
HETATM   22  C7  UNL     1     -67.084 -18.764  18.585  1.00  0.00     0.111 A 
HETATM   23  C4  UNL     1     -68.134 -19.201  19.309  1.00  0.00     0.001 A 
HETATM   24  C5  UNL     1     -68.816 -20.336  18.792  1.00  0.00     0.099 A 
HETATM   25  N1  UNL     1     -68.413 -20.899  17.658  1.00  0.00    -0.361 N 
HETATM   26  C6  UNL     1     -67.371 -20.456  16.948  1.00  0.00     0.181 A 
ATOM     27  H1  UNL     1     -68.925 -21.712  17.312  1.00  0.00     0.166 HD
HETATM   28  N2  UNL     1     -66.728 -19.389  17.434  1.00  0.00    -0.338 N 
ATOM     29  H2  UNL     1     -65.929 -19.027  16.913  1.00  0.00     0.168 HD
BRANCH  23  30
HETATM   30  C3  UNL     1     -68.727 -18.627  20.500  1.00  0.00     0.043 C 
BRANCH  30  31
HETATM   31  C2  UNL     1     -69.736 -17.552  20.265  1.00  0.00     0.000 C 
HETATM   32  C1  UNL     1     -70.971 -17.693  21.079  1.00  0.00     0.005 C 
ENDBRANCH  30  31
ENDBRANCH  23  30
ENDBRANCH  21  22
BRANCH  21  33
HETATM   33  C8  UNL     1     -65.080 -17.977  19.839  1.00  0.00     0.120 C 
HETATM   34  C9  UNL     1     -63.780 -17.467  19.338  1.00  0.00     0.026 C 
ENDBRANCH  21  33
ENDBRANCH  20  21
ENDBRANCH  19  20
ENDBRANCH  18  19
ENDBRANCH  17  18
ENDBRANCH   1  17
BRANCH  16  35
HETATM   35  C26 UNL     1     -67.076 -11.705  22.470  1.00  0.00     0.039 C 
HETATM   36  C27 UNL     1     -65.889 -12.616  22.762  1.00  0.00     0.007 C 
ENDBRANCH  16  35
BRANCH  15  37
HETATM   37  N7  UNL     1     -69.197  -8.171  19.113  1.00  0.00    -0.385 N 
ATOM     38  H72 UNL     1     -68.951  -8.274  18.128  1.00  0.00     0.157 HD
ATOM     39  H71 UNL     1     -69.219  -7.227  19.498  1.00  0.00     0.157 HD
ENDBRANCH  15  37
BRANCH  12  40
HETATM   40  C21 UNL     1     -74.179  -7.848  19.655  1.00  0.00     0.417 C 
HETATM   41  F1  UNL     1     -75.344  -8.223  20.307  1.00  0.00    -0.166 F 
HETATM   42  F2  UNL     1     -74.390  -7.972  18.288  1.00  0.00    -0.166 F 
HETATM   43  F3  UNL     1     -73.883  -6.551  19.964  1.00  0.00    -0.166 F 
ENDBRANCH  12  40
TORSDOF 12
ENDMDL
