MODEL 1
REMARK VINA RESULT: -9.116119671      0.000      0.000
REMARK  14 active torsions:
REMARK  status: ('A' for Active; 'I' for Inactive)
REMARK    1  A    between atoms: C3_3  and  C4_4 
REMARK    2  A    between atoms: C4_4  and  O1_5 
REMARK    3  A    between atoms: C6_8  and  C7_9 
REMARK    4  A    between atoms: C11_13  and  O2_14 
REMARK    5  A    between atoms: O2_14  and  C12_15 
REMARK    6  A    between atoms: N1_18  and  C15_19 
REMARK    7  A    between atoms: C15_19  and  C16_20 
REMARK    8  A    between atoms: C16_20  and  C17_21 
REMARK    9  A    between atoms: C17_21  and  C18_22 
REMARK   10  A    between atoms: C18_22  and  C19_25 
REMARK   11  A    between atoms: C21_30  and  C23_32 
REMARK   12  A    between atoms: C23_32  and  O4_34 
REMARK   13  A    between atoms: O4_34  and  C24_35 
REMARK   14  A    between atoms: C24_35  and  C25_36 
ROOT
HETATM    1  C12 UNL     1     -67.817 -12.477  19.826  1.00  0.00     0.150 C 
HETATM    2  C13 UNL     1     -68.451 -12.352  18.466  1.00  0.00     0.053 C 
HETATM    3  C14 UNL     1     -68.535 -10.889  18.097  1.00  0.00     0.119 C 
HETATM    4  N1  UNL     1     -69.557 -10.291  18.883  1.00  0.00    -0.411 N 
HETATM    5  C20 UNL     1     -69.859 -11.014  20.082  1.00  0.00     0.138 C 
HETATM    6  C21 UNL     1     -68.571 -11.558  20.736  1.00  0.00     0.086 C 
HETATM    7  C22 UNL     1     -67.811 -10.311  21.129  1.00  0.00     0.030 C 
ENDROOT
BRANCH   1   8
HETATM    8  O2  UNL     1     -67.538 -13.718  20.327  1.00  0.00    -0.343 OA
BRANCH   8   9
HETATM    9  C11 UNL     1     -66.522 -14.564  20.075  1.00  0.00     0.083 A 
HETATM   10  C6  UNL     1     -65.222 -14.324  20.474  1.00  0.00    -0.016 A 
HETATM   11  C5  UNL     1     -64.280 -15.321  20.140  1.00  0.00     0.020 A 
HETATM   12  C3  UNL     1     -64.602 -16.471  19.459  1.00  0.00    -0.028 A 
HETATM   13  C2  UNL     1     -65.895 -16.691  19.069  1.00  0.00    -0.045 A 
HETATM   14  C1  UNL     1     -66.314 -17.914  18.327  1.00  0.00     0.049 C 
HETATM   15  C28 UNL     1     -66.837 -15.747  19.375  1.00  0.00    -0.021 A 
HETATM   16  C29 UNL     1     -68.227 -15.973  18.931  1.00  0.00     0.052 C 
BRANCH  10  17
HETATM   17  C7  UNL     1     -64.804 -13.115  21.141  1.00  0.00    -0.021 C 
HETATM   18  C8  UNL     1     -64.595 -11.948  20.134  1.00  0.00     0.019 C 
HETATM   19  C9  UNL     1     -65.305 -12.664  22.422  1.00  0.00     0.019 C 
HETATM   20  C10 UNL     1     -63.255 -13.388  21.462  1.00  0.00     0.019 C 
ENDBRANCH  10  17
BRANCH  12  21
HETATM   21  C4  UNL     1     -63.581 -17.494  19.126  1.00  0.00     0.203 C 
BRANCH  21  22
HETATM   22  O1  UNL     1     -63.229 -18.241  20.250  1.00  0.00    -0.396 OA
ATOM     23  H1  UNL     1     -62.444 -18.751  20.092  1.00  0.00     0.209 HD
ENDBRANCH  21  22
ENDBRANCH  12  21
ENDBRANCH   8   9
ENDBRANCH   1   8
BRANCH   6  24
HETATM   24  C23 UNL     1     -68.998 -12.187  22.034  1.00  0.00     0.271 C 
HETATM   25  O3  UNL     1     -68.191 -12.185  22.974  1.00  0.00    -0.264 OA
BRANCH  24  26
HETATM   26  O4  UNL     1     -70.201 -12.748  22.222  1.00  0.00    -0.320 OA
BRANCH  26  27
HETATM   27  C24 UNL     1     -71.312 -12.558  22.953  1.00  0.00     0.182 C 
BRANCH  27  28
HETATM   28  C25 UNL     1     -72.640 -13.054  22.514  1.00  0.00     0.002 C 
HETATM   29  C26 UNL     1     -72.666 -13.004  20.953  1.00  0.00     0.011 C 
HETATM   30  C27 UNL     1     -73.809 -12.188  22.905  1.00  0.00     0.011 C 
ENDBRANCH  27  28
ENDBRANCH  26  27
ENDBRANCH  24  26
ENDBRANCH   6  24
BRANCH   4  31
HETATM   31  C15 UNL     1     -69.519  -8.874  18.990  1.00  0.00     0.117 C 
BRANCH  31  32
HETATM   32  C16 UNL     1     -70.851  -8.322  18.513  1.00  0.00     0.026 C 
BRANCH  32  33
HETATM   33  C17 UNL     1     -71.685  -7.808  19.663  1.00  0.00     0.090 C 
BRANCH  33  34
HETATM   34  C18 UNL     1     -73.135  -8.103  19.335  1.00  0.00     0.339 C 
HETATM   35  F1  UNL     1     -73.334  -8.297  17.993  1.00  0.00    -0.196 F 
HETATM   36  F2  UNL     1     -73.949  -7.028  19.710  1.00  0.00    -0.196 F 
BRANCH  34  37
HETATM   37  C19 UNL     1     -73.647  -9.294  20.142  1.00  0.00     0.454 C 
HETATM   38  F3  UNL     1     -72.728  -9.663  21.079  1.00  0.00    -0.165 F 
HETATM   39  F4  UNL     1     -73.874 -10.337  19.292  1.00  0.00    -0.165 F 
HETATM   40  F5  UNL     1     -74.825  -8.943  20.760  1.00  0.00    -0.165 F 
ENDBRANCH  34  37
ENDBRANCH  33  34
ENDBRANCH  32  33
ENDBRANCH  31  32
ENDBRANCH   4  31
TORSDOF 14
ENDMDL
MODEL 2
REMARK VINA RESULT: -9.070916573      1.693      3.611
REMARK  14 active torsions:
REMARK  status: ('A' for Active; 'I' for Inactive)
REMARK    1  A    between atoms: C3_3  and  C4_4 
REMARK    2  A    between atoms: C4_4  and  O1_5 
REMARK    3  A    between atoms: C6_8  and  C7_9 
REMARK    4  A    between atoms: C11_13  and  O2_14 
REMARK    5  A    between atoms: O2_14  and  C12_15 
REMARK    6  A    between atoms: N1_18  and  C15_19 
REMARK    7  A    between atoms: C15_19  and  C16_20 
REMARK    8  A    between atoms: C16_20  and  C17_21 
REMARK    9  A    between atoms: C17_21  and  C18_22 
REMARK   10  A    between atoms: C18_22  and  C19_25 
REMARK   11  A    between atoms: C21_30  and  C23_32 
REMARK   12  A    between atoms: C23_32  and  O4_34 
REMARK   13  A    between atoms: O4_34  and  C24_35 
REMARK   14  A    between atoms: C24_35  and  C25_36 
ROOT
HETATM    1  C12 UNL     1     -69.068 -12.648  20.357  1.00  0.00     0.150 C 
HETATM    2  C13 UNL     1     -69.280 -12.210  21.783  1.00  0.00     0.053 C 
HETATM    3  C14 UNL     1     -70.752 -12.304  22.110  1.00  0.00     0.119 C 
HETATM    4  N1  UNL     1     -71.425 -11.247  21.442  1.00  0.00    -0.411 N 
HETATM    5  C20 UNL     1     -70.708 -10.728  20.316  1.00  0.00     0.138 C 
HETATM    6  C21 UNL     1     -70.034 -11.866  19.521  1.00  0.00     0.086 C 
HETATM    7  C22 UNL     1     -71.196 -12.677  18.993  1.00  0.00     0.030 C 
ENDROOT
BRANCH   1   8
HETATM    8  O2  UNL     1     -67.797 -12.747  19.866  1.00  0.00    -0.343 OA
BRANCH   8   9
HETATM    9  C11 UNL     1     -66.935 -13.782  19.849  1.00  0.00     0.083 A 
HETATM   10  C6  UNL     1     -65.663 -13.715  20.381  1.00  0.00    -0.016 A 
HETATM   11  C5  UNL     1     -64.894 -14.895  20.292  1.00  0.00     0.020 A 
HETATM   12  C3  UNL     1     -65.350 -16.056  19.715  1.00  0.00    -0.028 A 
HETATM   13  C2  UNL     1     -66.613 -16.104  19.190  1.00  0.00    -0.045 A 
HETATM   14  C1  UNL     1     -67.171 -17.328  18.549  1.00  0.00     0.049 C 
HETATM   15  C28 UNL     1     -67.390 -14.980  19.258  1.00  0.00    -0.021 A 
HETATM   16  C29 UNL     1     -68.742 -15.023  18.668  1.00  0.00     0.052 C 
BRANCH  10  17
HETATM   17  C7  UNL     1     -65.100 -12.515  20.950  1.00  0.00    -0.021 C 
HETATM   18  C8  UNL     1     -64.773 -11.461  19.854  1.00  0.00     0.019 C 
HETATM   19  C9  UNL     1     -65.529 -11.911  22.194  1.00  0.00     0.019 C 
HETATM   20  C10 UNL     1     -63.588 -12.939  21.284  1.00  0.00     0.019 C 
ENDBRANCH  10  17
BRANCH  12  21
HETATM   21  C4  UNL     1     -64.509 -17.275  19.640  1.00  0.00     0.203 C 
BRANCH  21  22
HETATM   22  O1  UNL     1     -63.182 -16.994  19.966  1.00  0.00    -0.396 OA
ATOM     23  H1  UNL     1     -62.782 -17.718  20.433  1.00  0.00     0.209 HD
ENDBRANCH  21  22
ENDBRANCH  12  21
ENDBRANCH   8   9
ENDBRANCH   1   8
BRANCH   6  24
HETATM   24  C23 UNL     1     -69.419 -11.221  18.310  1.00  0.00     0.271 C 
HETATM   25  O3  UNL     1     -69.402 -11.866  17.253  1.00  0.00    -0.264 OA
BRANCH  24  26
HETATM   26  O4  UNL     1     -68.891  -9.989  18.318  1.00  0.00    -0.320 OA
BRANCH  26  27
HETATM   27  C24 UNL     1     -67.773  -9.359  18.720  1.00  0.00     0.182 C 
BRANCH  27  28
HETATM   28  C25 UNL     1     -67.592  -7.895  18.560  1.00  0.00     0.002 C 
HETATM   29  C26 UNL     1     -66.385  -7.471  19.456  1.00  0.00     0.011 C 
HETATM   30  C27 UNL     1     -68.723  -7.049  19.083  1.00  0.00     0.011 C 
ENDBRANCH  27  28
ENDBRANCH  26  27
ENDBRANCH  24  26
ENDBRANCH   6  24
BRANCH   4  31
HETATM   31  C15 UNL     1     -72.830 -11.397  21.284  1.00  0.00     0.117 C 
BRANCH  31  32
HETATM   32  C16 UNL     1     -73.275 -10.529  20.118  1.00  0.00     0.026 C 
BRANCH  32  33
HETATM   33  C17 UNL     1     -73.890  -9.234  20.593  1.00  0.00     0.090 C 
BRANCH  33  34
HETATM   34  C18 UNL     1     -73.818  -8.252  19.441  1.00  0.00     0.339 C 
HETATM   35  F1  UNL     1     -74.899  -7.409  19.411  1.00  0.00    -0.196 F 
HETATM   36  F2  UNL     1     -73.806  -8.932  18.218  1.00  0.00    -0.196 F 
BRANCH  34  37
HETATM   37  C19 UNL     1     -72.511  -7.464  19.474  1.00  0.00     0.454 C 
HETATM   38  F3  UNL     1     -71.815  -7.746  20.612  1.00  0.00    -0.165 F 
HETATM   39  F4  UNL     1     -72.799  -6.130  19.436  1.00  0.00    -0.165 F 
HETATM   40  F5  UNL     1     -71.757  -7.800  18.374  1.00  0.00    -0.165 F 
ENDBRANCH  34  37
ENDBRANCH  33  34
ENDBRANCH  32  33
ENDBRANCH  31  32
ENDBRANCH   4  31
TORSDOF 14
ENDMDL
MODEL 3
REMARK VINA RESULT: -8.929140638      1.405      1.991
REMARK  14 active torsions:
REMARK  status: ('A' for Active; 'I' for Inactive)
REMARK    1  A    between atoms: C3_3  and  C4_4 
REMARK    2  A    between atoms: C4_4  and  O1_5 
REMARK    3  A    between atoms: C6_8  and  C7_9 
REMARK    4  A    between atoms: C11_13  and  O2_14 
REMARK    5  A    between atoms: O2_14  and  C12_15 
REMARK    6  A    between atoms: N1_18  and  C15_19 
REMARK    7  A    between atoms: C15_19  and  C16_20 
REMARK    8  A    between atoms: C16_20  and  C17_21 
REMARK    9  A    between atoms: C17_21  and  C18_22 
REMARK   10  A    between atoms: C18_22  and  C19_25 
REMARK   11  A    between atoms: C21_30  and  C23_32 
REMARK   12  A    between atoms: C23_32  and  O4_34 
REMARK   13  A    between atoms: O4_34  and  C24_35 
REMARK   14  A    between atoms: C24_35  and  C25_36 
ROOT
HETATM    1  C12 UNL     1     -67.964 -12.151  20.077  1.00  0.00     0.150 C 
HETATM    2  C13 UNL     1     -67.375 -11.634  18.791  1.00  0.00     0.053 C 
HETATM    3  C14 UNL     1     -67.635 -10.148  18.696  1.00  0.00     0.119 C 
HETATM    4  N1  UNL     1     -69.013  -9.955  18.412  1.00  0.00    -0.411 N 
HETATM    5  C20 UNL     1     -69.838 -11.068  18.776  1.00  0.00     0.138 C 
HETATM    6  C21 UNL     1     -69.383 -11.674  20.121  1.00  0.00     0.086 C 
HETATM    7  C22 UNL     1     -69.635 -10.567  21.120  1.00  0.00     0.030 C 
ENDROOT
BRANCH   1   8
HETATM    8  O2  UNL     1     -67.761 -13.455  20.433  1.00  0.00    -0.343 OA
BRANCH   8   9
HETATM    9  C11 UNL     1     -66.756 -14.303  20.145  1.00  0.00     0.083 A 
HETATM   10  C6  UNL     1     -65.475 -14.150  20.636  1.00  0.00    -0.016 A 
HETATM   11  C5  UNL     1     -64.543 -15.137  20.246  1.00  0.00     0.020 A 
HETATM   12  C3  UNL     1     -64.857 -16.196  19.428  1.00  0.00    -0.028 A 
HETATM   13  C2  UNL     1     -66.131 -16.329  18.947  1.00  0.00    -0.045 A 
HETATM   14  C1  UNL     1     -66.541 -17.451  18.055  1.00  0.00     0.049 C 
HETATM   15  C28 UNL     1     -67.064 -15.393  19.304  1.00  0.00    -0.021 A 
HETATM   16  C29 UNL     1     -68.432 -15.523  18.764  1.00  0.00     0.052 C 
BRANCH  10  17
HETATM   17  C7  UNL     1     -65.062 -13.035  21.453  1.00  0.00    -0.021 C 
HETATM   18  C8  UNL     1     -64.633 -11.818  20.584  1.00  0.00     0.019 C 
HETATM   19  C9  UNL     1     -65.698 -12.640  22.691  1.00  0.00     0.019 C 
HETATM   20  C10 UNL     1     -63.595 -13.462  21.946  1.00  0.00     0.019 C 
ENDBRANCH  10  17
BRANCH  12  21
HETATM   21  C4  UNL     1     -63.847 -17.211  19.040  1.00  0.00     0.203 C 
BRANCH  21  22
HETATM   22  O1  UNL     1     -63.619 -18.117  20.076  1.00  0.00    -0.396 OA
ATOM     23  H1  UNL     1     -62.705 -18.120  20.334  1.00  0.00     0.209 HD
ENDBRANCH  21  22
ENDBRANCH  12  21
ENDBRANCH   8   9
ENDBRANCH   1   8
BRANCH   6  24
HETATM   24  C23 UNL     1     -70.384 -12.745  20.455  1.00  0.00     0.271 C 
HETATM   25  O3  UNL     1     -70.617 -12.971  21.650  1.00  0.00    -0.264 OA
BRANCH  24  26
HETATM   26  O4  UNL     1     -71.034 -13.463  19.528  1.00  0.00    -0.320 OA
BRANCH  26  27
HETATM   27  C24 UNL     1     -72.249 -13.535  18.959  1.00  0.00     0.182 C 
BRANCH  27  28
HETATM   28  C25 UNL     1     -72.432 -13.529  17.486  1.00  0.00     0.002 C 
HETATM   29  C26 UNL     1     -73.817 -12.872  17.188  1.00  0.00     0.011 C 
HETATM   30  C27 UNL     1     -72.551 -14.889  16.850  1.00  0.00     0.011 C 
ENDBRANCH  27  28
ENDBRANCH  26  27
ENDBRANCH  24  26
ENDBRANCH   6  24
BRANCH   4  31
HETATM   31  C15 UNL     1     -69.536  -8.662  18.688  1.00  0.00     0.117 C 
BRANCH  31  32
HETATM   32  C16 UNL     1     -71.027  -8.677  18.396  1.00  0.00     0.026 C 
BRANCH  32  33
HETATM   33  C17 UNL     1     -71.804  -7.891  19.426  1.00  0.00     0.090 C 
BRANCH  33  34
HETATM   34  C18 UNL     1     -73.276  -8.106  19.141  1.00  0.00     0.339 C 
HETATM   35  F1  UNL     1     -73.514  -8.372  17.818  1.00  0.00    -0.196 F 
HETATM   36  F2  UNL     1     -74.009  -6.957  19.457  1.00  0.00    -0.196 F 
BRANCH  34  37
HETATM   37  C19 UNL     1     -73.851  -9.205  20.032  1.00  0.00     0.454 C 
HETATM   38  F3  UNL     1     -74.084 -10.334  19.303  1.00  0.00    -0.165 F 
HETATM   39  F4  UNL     1     -75.023  -8.764  20.575  1.00  0.00    -0.165 F 
HETATM   40  F5  UNL     1     -72.955  -9.480  21.039  1.00  0.00    -0.165 F 
ENDBRANCH  34  37
ENDBRANCH  33  34
ENDBRANCH  32  33
ENDBRANCH  31  32
ENDBRANCH   4  31
TORSDOF 14
ENDMDL
MODEL 4
REMARK VINA RESULT: -8.790044799      1.611      3.313
REMARK  14 active torsions:
REMARK  status: ('A' for Active; 'I' for Inactive)
REMARK    1  A    between atoms: C3_3  and  C4_4 
REMARK    2  A    between atoms: C4_4  and  O1_5 
REMARK    3  A    between atoms: C6_8  and  C7_9 
REMARK    4  A    between atoms: C11_13  and  O2_14 
REMARK    5  A    between atoms: O2_14  and  C12_15 
REMARK    6  A    between atoms: N1_18  and  C15_19 
REMARK    7  A    between atoms: C15_19  and  C16_20 
REMARK    8  A    between atoms: C16_20  and  C17_21 
REMARK    9  A    between atoms: C17_21  and  C18_22 
REMARK   10  A    between atoms: C18_22  and  C19_25 
REMARK   11  A    between atoms: C21_30  and  C23_32 
REMARK   12  A    between atoms: C23_32  and  O4_34 
REMARK   13  A    between atoms: O4_34  and  C24_35 
REMARK   14  A    between atoms: C24_35  and  C25_36 
ROOT
HETATM    1  C12 UNL     1     -68.847 -12.690  19.657  1.00  0.00     0.150 C 
HETATM    2  C13 UNL     1     -69.747 -12.273  18.523  1.00  0.00     0.053 C 
HETATM    3  C14 UNL     1     -69.496 -10.817  18.210  1.00  0.00     0.119 C 
HETATM    4  N1  UNL     1     -70.061 -10.033  19.252  1.00  0.00    -0.411 N 
HETATM    5  C20 UNL     1     -70.239 -10.750  20.479  1.00  0.00     0.138 C 
HETATM    6  C21 UNL     1     -69.041 -11.685  20.750  1.00  0.00     0.086 C 
HETATM    7  C22 UNL     1     -67.877 -10.736  20.934  1.00  0.00     0.030 C 
ENDROOT
BRANCH   1   8
HETATM    8  O2  UNL     1     -68.820 -13.999  20.048  1.00  0.00    -0.343 OA
BRANCH   8   9
HETATM    9  C11 UNL     1     -68.480 -15.115  19.375  1.00  0.00     0.083 A 
HETATM   10  C6  UNL     1     -69.407 -15.997  18.857  1.00  0.00    -0.016 A 
HETATM   11  C5  UNL     1     -68.881 -17.110  18.167  1.00  0.00     0.020 A 
HETATM   12  C3  UNL     1     -67.534 -17.335  18.004  1.00  0.00    -0.028 A 
HETATM   13  C2  UNL     1     -66.629 -16.452  18.528  1.00  0.00    -0.045 A 
HETATM   14  C1  UNL     1     -65.157 -16.634  18.391  1.00  0.00     0.049 C 
HETATM   15  C28 UNL     1     -67.101 -15.359  19.203  1.00  0.00    -0.021 A 
HETATM   16  C29 UNL     1     -66.124 -14.421  19.790  1.00  0.00     0.052 C 
BRANCH  10  17
HETATM   17  C7  UNL     1     -70.831 -15.853  19.037  1.00  0.00    -0.021 C 
HETATM   18  C8  UNL     1     -71.190 -15.520  20.513  1.00  0.00     0.019 C 
HETATM   19  C9  UNL     1     -71.723 -15.219  18.090  1.00  0.00     0.019 C 
HETATM   20  C10 UNL     1     -71.358 -17.369  19.035  1.00  0.00     0.019 C 
ENDBRANCH  10  17
BRANCH  12  21
HETATM   21  C4  UNL     1     -67.022 -18.519  17.273  1.00  0.00     0.203 C 
BRANCH  21  22
HETATM   22  O1  UNL     1     -67.964 -18.998  16.364  1.00  0.00    -0.396 OA
ATOM     23  H1  UNL     1     -67.675 -19.810  15.964  1.00  0.00     0.209 HD
ENDBRANCH  21  22
ENDBRANCH  12  21
ENDBRANCH   8   9
ENDBRANCH   1   8
BRANCH   6  24
HETATM   24  C23 UNL     1     -69.281 -12.287  22.106  1.00  0.00     0.271 C 
HETATM   25  O3  UNL     1     -68.352 -12.263  22.925  1.00  0.00    -0.264 OA
BRANCH  24  26
HETATM   26  O4  UNL     1     -70.444 -12.845  22.472  1.00  0.00    -0.320 OA
BRANCH  26  27
HETATM   27  C24 UNL     1     -71.561 -12.527  23.148  1.00  0.00     0.182 C 
BRANCH  27  28
HETATM   28  C25 UNL     1     -72.769 -11.994  22.470  1.00  0.00     0.002 C 
HETATM   29  C26 UNL     1     -74.008 -12.412  23.323  1.00  0.00     0.011 C 
HETATM   30  C27 UNL     1     -73.062 -12.594  21.120  1.00  0.00     0.011 C 
ENDBRANCH  27  28
ENDBRANCH  26  27
ENDBRANCH  24  26
ENDBRANCH   6  24
BRANCH   4  31
HETATM   31  C15 UNL     1     -69.588  -8.698  19.362  1.00  0.00     0.117 C 
BRANCH  31  32
HETATM   32  C16 UNL     1     -70.683  -7.761  18.880  1.00  0.00     0.026 C 
BRANCH  32  33
HETATM   33  C17 UNL     1     -71.757  -7.576  19.926  1.00  0.00     0.090 C 
BRANCH  33  34
HETATM   34  C18 UNL     1     -73.089  -7.837  19.255  1.00  0.00     0.339 C 
HETATM   35  F1  UNL     1     -72.953  -8.089  17.914  1.00  0.00    -0.196 F 
HETATM   36  F2  UNL     1     -73.923  -6.720  19.370  1.00  0.00    -0.196 F 
BRANCH  34  37
HETATM   37  C19 UNL     1     -73.840  -8.970  19.950  1.00  0.00     0.454 C 
HETATM   38  F3  UNL     1     -73.993 -10.029  19.104  1.00  0.00    -0.165 F 
HETATM   39  F4  UNL     1     -75.068  -8.514  20.335  1.00  0.00    -0.165 F 
HETATM   40  F5  UNL     1     -73.130  -9.363  21.061  1.00  0.00    -0.165 F 
ENDBRANCH  34  37
ENDBRANCH  33  34
ENDBRANCH  32  33
ENDBRANCH  31  32
ENDBRANCH   4  31
TORSDOF 14
ENDMDL
MODEL 5
REMARK VINA RESULT: -8.766019688      4.273      8.858
REMARK  14 active torsions:
REMARK  status: ('A' for Active; 'I' for Inactive)
REMARK    1  A    between atoms: C3_3  and  C4_4 
REMARK    2  A    between atoms: C4_4  and  O1_5 
REMARK    3  A    between atoms: C6_8  and  C7_9 
REMARK    4  A    between atoms: C11_13  and  O2_14 
REMARK    5  A    between atoms: O2_14  and  C12_15 
REMARK    6  A    between atoms: N1_18  and  C15_19 
REMARK    7  A    between atoms: C15_19  and  C16_20 
REMARK    8  A    between atoms: C16_20  and  C17_21 
REMARK    9  A    between atoms: C17_21  and  C18_22 
REMARK   10  A    between atoms: C18_22  and  C19_25 
REMARK   11  A    between atoms: C21_30  and  C23_32 
REMARK   12  A    between atoms: C23_32  and  O4_34 
REMARK   13  A    between atoms: O4_34  and  C24_35 
REMARK   14  A    between atoms: C24_35  and  C25_36 
ROOT
HETATM    1  C12 UNL     1     -70.640 -11.701  19.766  1.00  0.00     0.150 C 
HETATM    2  C13 UNL     1     -70.046 -11.938  18.402  1.00  0.00     0.053 C 
HETATM    3  C14 UNL     1     -70.538 -13.267  17.879  1.00  0.00     0.119 C 
HETATM    4  N1  UNL     1     -69.878 -14.300  18.598  1.00  0.00    -0.411 N 
HETATM    5  C20 UNL     1     -69.367 -13.880  19.869  1.00  0.00     0.138 C 
HETATM    6  C21 UNL     1     -70.359 -12.930  20.574  1.00  0.00     0.086 C 
HETATM    7  C22 UNL     1     -71.572 -13.796  20.828  1.00  0.00     0.030 C 
ENDROOT
BRANCH   1   8
HETATM    8  O2  UNL     1     -70.421 -10.508  20.397  1.00  0.00    -0.343 OA
BRANCH   8   9
HETATM    9  C11 UNL     1     -70.806  -9.258  20.079  1.00  0.00     0.083 A 
HETATM   10  C6  UNL     1     -72.129  -8.876  19.980  1.00  0.00    -0.016 A 
HETATM   11  C5  UNL     1     -72.357  -7.523  19.651  1.00  0.00     0.020 A 
HETATM   12  C3  UNL     1     -71.349  -6.614  19.431  1.00  0.00    -0.028 A 
HETATM   13  C2  UNL     1     -70.043  -7.011  19.529  1.00  0.00    -0.045 A 
HETATM   14  C1  UNL     1     -68.901  -6.081  19.304  1.00  0.00     0.049 C 
HETATM   15  C28 UNL     1     -69.781  -8.316  19.849  1.00  0.00    -0.021 A 
HETATM   16  C29 UNL     1     -68.372  -8.749  19.929  1.00  0.00     0.052 C 
BRANCH  10  17
HETATM   17  C7  UNL     1     -73.235  -9.787  20.143  1.00  0.00    -0.021 C 
HETATM   18  C8  UNL     1     -73.576 -10.516  18.811  1.00  0.00     0.019 C 
HETATM   19  C9  UNL     1     -73.454 -10.620  21.306  1.00  0.00     0.019 C 
HETATM   20  C10 UNL     1     -74.512  -8.815  20.176  1.00  0.00     0.019 C 
ENDBRANCH  10  17
BRANCH  12  21
HETATM   21  C4  UNL     1     -71.632  -5.200  19.085  1.00  0.00     0.203 C 
BRANCH  21  22
HETATM   22  O1  UNL     1     -72.778  -4.741  19.734  1.00  0.00    -0.396 OA
ATOM     23  H1  UNL     1     -72.718  -4.873  20.673  1.00  0.00     0.209 HD
ENDBRANCH  21  22
ENDBRANCH  12  21
ENDBRANCH   8   9
ENDBRANCH   1   8
BRANCH   6  24
HETATM   24  C23 UNL     1     -69.776 -12.655  21.933  1.00  0.00     0.271 C 
HETATM   25  O3  UNL     1     -70.557 -12.536  22.887  1.00  0.00    -0.264 OA
BRANCH  24  26
HETATM   26  O4  UNL     1     -68.461 -12.532  22.162  1.00  0.00    -0.320 OA
BRANCH  26  27
HETATM   27  C24 UNL     1     -67.464 -11.659  21.942  1.00  0.00     0.182 C 
BRANCH  27  28
HETATM   28  C25 UNL     1     -66.107 -11.851  22.512  1.00  0.00     0.002 C 
HETATM   29  C26 UNL     1     -65.087 -11.202  21.523  1.00  0.00     0.011 C 
HETATM   30  C27 UNL     1     -65.644 -13.282  22.594  1.00  0.00     0.011 C 
ENDBRANCH  27  28
ENDBRANCH  26  27
ENDBRANCH  24  26
ENDBRANCH   6  24
BRANCH   4  31
HETATM   31  C15 UNL     1     -70.485 -15.584  18.553  1.00  0.00     0.117 C 
BRANCH  31  32
HETATM   32  C16 UNL     1     -69.540 -16.583  19.199  1.00  0.00     0.026 C 
BRANCH  32  33
HETATM   33  C17 UNL     1     -68.503 -17.081  18.220  1.00  0.00     0.090 C 
BRANCH  33  34
HETATM   34  C18 UNL     1     -67.142 -16.787  18.816  1.00  0.00     0.339 C 
HETATM   35  F1  UNL     1     -67.080 -17.106  20.147  1.00  0.00    -0.196 F 
HETATM   36  F2  UNL     1     -66.848 -15.422  18.717  1.00  0.00    -0.196 F 
BRANCH  34  37
HETATM   37  C19 UNL     1     -66.037 -17.492  18.033  1.00  0.00     0.454 C 
HETATM   38  F3  UNL     1     -64.973 -16.658  17.855  1.00  0.00    -0.165 F 
HETATM   39  F4  UNL     1     -66.529 -17.867  16.817  1.00  0.00    -0.165 F 
HETATM   40  F5  UNL     1     -65.638 -18.610  18.729  1.00  0.00    -0.165 F 
ENDBRANCH  34  37
ENDBRANCH  33  34
ENDBRANCH  32  33
ENDBRANCH  31  32
ENDBRANCH   4  31
TORSDOF 14
ENDMDL
