MODEL 1
REMARK VINA RESULT: -8.687805283      0.000      0.000
REMARK  13 active torsions:
REMARK  status: ('A' for Active; 'I' for Inactive)
REMARK    1  A    between atoms: C2_2  and  C3_3 
REMARK    2  A    between atoms: C3_3  and  C4_4 
REMARK    3  A    between atoms: C4_4  and  O1_5 
REMARK    4  A    between atoms: C4_4  and  N1_7 
REMARK    5  A    between atoms: N1_7  and  C5_9 
REMARK    6  A    between atoms: C7_13  and  N3_14 
REMARK    7  A    between atoms: C11_18  and  C12_19 
REMARK    8  A    between atoms: C12_19  and  C13_20 
REMARK    9  A    between atoms: C13_20  and  C14_21 
REMARK   10  A    between atoms: C18_27  and  C19_28 
REMARK   11  A    between atoms: C19_28  and  S1_31 
REMARK   12  A    between atoms: S1_31  and  C20_34 
REMARK   13  A    between atoms: C20_34  and  C21_35 
ROOT
HETATM    1  C5  UNL     1     -66.400 -10.470  19.820  1.00  0.00     0.151 A 
HETATM    2  N2  UNL     1     -67.565 -11.047  19.875  1.00  0.00    -0.334 N 
ATOM      3  H2  UNL     1     -68.391 -10.484  20.076  1.00  0.00     0.168 HD
HETATM    4  C6  UNL     1     -67.700 -12.335  19.678  1.00  0.00     0.078 A 
HETATM    5  C7  UNL     1     -68.872 -13.096  19.770  1.00  0.00     0.059 A 
HETATM    6  C17 UNL     1     -68.815 -14.459  19.604  1.00  0.00     0.046 A 
HETATM    7  C18 UNL     1     -67.697 -15.192  19.347  1.00  0.00     0.032 A 
HETATM    8  C23 UNL     1     -66.523 -14.411  19.246  1.00  0.00     0.035 A 
HETATM    9  C24 UNL     1     -66.558 -13.043  19.411  1.00  0.00     0.038 A 
HETATM   10  S2  UNL     1     -65.363 -11.815  19.458  1.00  0.00    -0.052 SA
ENDROOT
BRANCH   5  11
HETATM   11  N3  UNL     1     -70.118 -12.503  20.053  1.00  0.00    -0.379 N 
HETATM   12  C8  UNL     1     -70.455 -12.064  21.413  1.00  0.00     0.123 C 
HETATM   13  C9  UNL     1     -71.549 -12.975  21.889  1.00  0.00     0.020 C 
HETATM   14  C10 UNL     1     -72.386 -13.617  20.852  1.00  0.00     0.008 C 
HETATM   15  C11 UNL     1     -72.468 -12.904  19.540  1.00  0.00     0.004 C 
HETATM   16  C16 UNL     1     -71.173 -12.264  19.090  1.00  0.00     0.127 C 
BRANCH  15  17
HETATM   17  C12 UNL     1     -73.639 -11.996  19.371  1.00  0.00     0.012 C 
BRANCH  17  18
HETATM   18  C13 UNL     1     -73.325 -10.572  19.055  1.00  0.00     0.079 C 
BRANCH  18  19
HETATM   19  C14 UNL     1     -73.502  -9.700  20.277  1.00  0.00     0.240 C 
HETATM   20  C15 UNL     1     -74.461  -8.561  20.082  1.00  0.00     0.090 C 
HETATM   21  F1  UNL     1     -72.249  -9.248  20.705  1.00  0.00    -0.207 F 
HETATM   22  F2  UNL     1     -73.986 -10.544  21.284  1.00  0.00    -0.207 F 
ENDBRANCH  18  19
ENDBRANCH  17  18
ENDBRANCH  15  17
ENDBRANCH   5  11
BRANCH   7  23
HETATM   23  C19 UNL     1     -67.553 -16.631  19.356  1.00  0.00     0.370 C 
HETATM   24  F3  UNL     1     -66.491 -16.968  20.259  1.00  0.00    -0.183 F 
HETATM   25  F4  UNL     1     -68.664 -17.187  20.063  1.00  0.00    -0.183 F 
BRANCH  23  26
HETATM   26  S1  UNL     1     -67.317 -17.542  17.899  1.00  0.00     0.217 S 
HETATM   27  O2  UNL     1     -68.467 -17.304  16.947  1.00  0.00    -0.221 OA
HETATM   28  O3  UNL     1     -66.033 -17.274  17.209  1.00  0.00    -0.221 OA
BRANCH  26  29
HETATM   29  C20 UNL     1     -67.465 -19.258  18.440  1.00  0.00     0.147 C 
BRANCH  29  30
HETATM   30  C21 UNL     1     -66.599 -20.218  17.742  1.00  0.00     0.011 C 
HETATM   31  C22 UNL     1     -67.298 -20.562  16.425  1.00  0.00     0.006 C 
ENDBRANCH  29  30
ENDBRANCH  26  29
ENDBRANCH  23  26
ENDBRANCH   7  23
BRANCH   1  32
HETATM   32  N1  UNL     1     -65.928  -9.119  20.087  1.00  0.00    -0.321 N 
ATOM     33  H1  UNL     1     -65.160  -8.938  20.734  1.00  0.00     0.169 HD
BRANCH  32  34
HETATM   34  C4  UNL     1     -66.577  -8.081  19.416  1.00  0.00     0.117 C 
BRANCH  34  35
HETATM   35  C3  UNL     1     -67.499  -8.185  18.296  1.00  0.00     0.083 C 
BRANCH  35  36
HETATM   36  C2  UNL     1     -68.912  -7.845  18.744  1.00  0.00     0.003 C 
HETATM   37  C1  UNL     1     -69.938  -8.870  18.404  1.00  0.00     0.005 C 
ENDBRANCH  35  36
ENDBRANCH  34  35
BRANCH  34  38
HETATM   38  O1  UNL     1     -66.358  -6.851  19.822  1.00  0.00    -0.349 OA
ATOM     39  H1  UNL     1     -65.797  -6.787  20.586  1.00  0.00     0.219 HD
ENDBRANCH  34  38
ENDBRANCH  32  34
ENDBRANCH   1  32
TORSDOF 13
ENDMDL
MODEL 2
REMARK VINA RESULT: -8.484974815      3.244      5.675
REMARK  13 active torsions:
REMARK  status: ('A' for Active; 'I' for Inactive)
REMARK    1  A    between atoms: C2_2  and  C3_3 
REMARK    2  A    between atoms: C3_3  and  C4_4 
REMARK    3  A    between atoms: C4_4  and  O1_5 
REMARK    4  A    between atoms: C4_4  and  N1_7 
REMARK    5  A    between atoms: N1_7  and  C5_9 
REMARK    6  A    between atoms: C7_13  and  N3_14 
REMARK    7  A    between atoms: C11_18  and  C12_19 
REMARK    8  A    between atoms: C12_19  and  C13_20 
REMARK    9  A    between atoms: C13_20  and  C14_21 
REMARK   10  A    between atoms: C18_27  and  C19_28 
REMARK   11  A    between atoms: C19_28  and  S1_31 
REMARK   12  A    between atoms: S1_31  and  C20_34 
REMARK   13  A    between atoms: C20_34  and  C21_35 
ROOT
HETATM    1  C5  UNL     1     -71.148 -15.336  18.436  1.00  0.00     0.151 A 
HETATM    2  N2  UNL     1     -70.806 -14.377  19.246  1.00  0.00    -0.334 N 
ATOM      3  H2  UNL     1     -71.528 -13.763  19.625  1.00  0.00     0.168 HD
HETATM    4  C6  UNL     1     -69.557 -14.182  19.585  1.00  0.00     0.078 A 
HETATM    5  C7  UNL     1     -69.038 -13.158  20.388  1.00  0.00     0.059 A 
HETATM    6  C17 UNL     1     -67.681 -13.062  20.579  1.00  0.00     0.046 A 
HETATM    7  C18 UNL     1     -66.733 -13.887  20.052  1.00  0.00     0.032 A 
HETATM    8  C23 UNL     1     -67.271 -14.921  19.253  1.00  0.00     0.035 A 
HETATM    9  C24 UNL     1     -68.629 -15.035  19.047  1.00  0.00     0.038 A 
HETATM   10  S2  UNL     1     -69.611 -16.064  18.091  1.00  0.00    -0.052 SA
ENDROOT
BRANCH   5  11
HETATM   11  N3  UNL     1     -69.874 -12.200  20.995  1.00  0.00    -0.379 N 
HETATM   12  C8  UNL     1     -70.074 -12.182  22.449  1.00  0.00     0.123 C 
HETATM   13  C9  UNL     1     -71.503 -12.576  22.681  1.00  0.00     0.020 C 
HETATM   14  C10 UNL     1     -72.456 -12.323  21.578  1.00  0.00     0.008 C 
HETATM   15  C11 UNL     1     -72.082 -11.235  20.623  1.00  0.00     0.004 C 
HETATM   16  C16 UNL     1     -70.606 -11.163  20.298  1.00  0.00     0.127 C 
BRANCH  15  17
HETATM   17  C12 UNL     1     -72.666  -9.893  20.915  1.00  0.00     0.012 C 
BRANCH  17  18
HETATM   18  C13 UNL     1     -72.170  -8.765  20.074  1.00  0.00     0.079 C 
BRANCH  18  19
HETATM   19  C14 UNL     1     -73.311  -8.114  19.325  1.00  0.00     0.240 C 
HETATM   20  C15 UNL     1     -74.656  -8.329  19.954  1.00  0.00     0.090 C 
HETATM   21  F1  UNL     1     -73.292  -8.544  17.993  1.00  0.00    -0.207 F 
HETATM   22  F2  UNL     1     -73.024  -6.744  19.304  1.00  0.00    -0.207 F 
ENDBRANCH  18  19
ENDBRANCH  17  18
ENDBRANCH  15  17
ENDBRANCH   5  11
BRANCH   7  23
HETATM   23  C19 UNL     1     -65.298 -13.716  20.063  1.00  0.00     0.370 C 
HETATM   24  F3  UNL     1     -64.706 -14.879  19.467  1.00  0.00    -0.183 F 
HETATM   25  F4  UNL     1     -64.956 -12.735  19.081  1.00  0.00    -0.183 F 
BRANCH  23  26
HETATM   26  S1  UNL     1     -64.424 -13.364  21.520  1.00  0.00     0.217 S 
HETATM   27  O2  UNL     1     -65.179 -13.891  22.717  1.00  0.00    -0.221 OA
HETATM   28  O3  UNL     1     -63.034 -13.877  21.540  1.00  0.00    -0.221 OA
BRANCH  26  29
HETATM   29  C20 UNL     1     -64.497 -11.564  21.636  1.00  0.00     0.147 C 
BRANCH  29  30
HETATM   30  C21 UNL     1     -65.770 -11.013  22.120  1.00  0.00     0.011 C 
HETATM   31  C22 UNL     1     -66.257 -10.031  21.051  1.00  0.00     0.006 C 
ENDBRANCH  29  30
ENDBRANCH  26  29
ENDBRANCH  23  26
ENDBRANCH   7  23
BRANCH   1  32
HETATM   32  N1  UNL     1     -72.402 -15.731  17.809  1.00  0.00    -0.321 N 
ATOM     33  H1  UNL     1     -72.995 -16.457  18.210  1.00  0.00     0.169 HD
BRANCH  32  34
HETATM   34  C4  UNL     1     -72.752 -15.068  16.632  1.00  0.00     0.117 C 
BRANCH  34  35
HETATM   35  C3  UNL     1     -73.778 -14.052  16.454  1.00  0.00     0.083 C 
BRANCH  35  36
HETATM   36  C2  UNL     1     -73.346 -12.748  17.105  1.00  0.00     0.003 C 
HETATM   37  C1  UNL     1     -74.248 -12.262  18.187  1.00  0.00     0.005 C 
ENDBRANCH  35  36
ENDBRANCH  34  35
BRANCH  34  38
HETATM   38  O1  UNL     1     -72.093 -15.367  15.536  1.00  0.00    -0.349 OA
ATOM     39  H1  UNL     1     -72.233 -16.253  15.225  1.00  0.00     0.219 HD
ENDBRANCH  34  38
ENDBRANCH  32  34
ENDBRANCH   1  32
TORSDOF 13
ENDMDL
MODEL 3
REMARK VINA RESULT: -8.461927310      3.332      8.165
REMARK  13 active torsions:
REMARK  status: ('A' for Active; 'I' for Inactive)
REMARK    1  A    between atoms: C2_2  and  C3_3 
REMARK    2  A    between atoms: C3_3  and  C4_4 
REMARK    3  A    between atoms: C4_4  and  O1_5 
REMARK    4  A    between atoms: C4_4  and  N1_7 
REMARK    5  A    between atoms: N1_7  and  C5_9 
REMARK    6  A    between atoms: C7_13  and  N3_14 
REMARK    7  A    between atoms: C11_18  and  C12_19 
REMARK    8  A    between atoms: C12_19  and  C13_20 
REMARK    9  A    between atoms: C13_20  and  C14_21 
REMARK   10  A    between atoms: C18_27  and  C19_28 
REMARK   11  A    between atoms: C19_28  and  S1_31 
REMARK   12  A    between atoms: S1_31  and  C20_34 
REMARK   13  A    between atoms: C20_34  and  C21_35 
ROOT
HETATM    1  C5  UNL     1     -69.450 -16.468  18.766  1.00  0.00     0.151 A 
HETATM    2  N2  UNL     1     -69.007 -15.298  19.124  1.00  0.00    -0.334 N 
ATOM      3  H2  UNL     1     -68.046 -15.207  19.451  1.00  0.00     0.168 HD
HETATM    4  C6  UNL     1     -69.770 -14.234  19.073  1.00  0.00     0.078 A 
HETATM    5  C7  UNL     1     -69.451 -12.933  19.485  1.00  0.00     0.059 A 
HETATM    6  C17 UNL     1     -70.407 -11.948  19.429  1.00  0.00     0.046 A 
HETATM    7  C18 UNL     1     -71.691 -12.094  18.999  1.00  0.00     0.032 A 
HETATM    8  C23 UNL     1     -71.996 -13.408  18.577  1.00  0.00     0.035 A 
HETATM    9  C24 UNL     1     -71.052 -14.412  18.626  1.00  0.00     0.038 A 
HETATM   10  S2  UNL     1     -71.081 -16.096  18.304  1.00  0.00    -0.052 SA
ENDROOT
BRANCH   5  11
HETATM   11  N3  UNL     1     -68.174 -12.607  19.981  1.00  0.00    -0.379 N 
HETATM   12  C8  UNL     1     -67.971 -12.293  21.401  1.00  0.00     0.123 C 
HETATM   13  C9  UNL     1     -67.619 -10.836  21.463  1.00  0.00     0.020 C 
HETATM   14  C10 UNL     1     -67.012 -10.241  20.252  1.00  0.00     0.008 C 
HETATM   15  C11 UNL     1     -66.297 -11.188  19.342  1.00  0.00     0.004 C 
HETATM   16  C16 UNL     1     -66.960 -12.540  19.195  1.00  0.00     0.127 C 
BRANCH  15  17
HETATM   17  C12 UNL     1     -64.824 -11.297  19.554  1.00  0.00     0.012 C 
BRANCH  17  18
HETATM   18  C13 UNL     1     -64.333 -12.601  20.089  1.00  0.00     0.079 C 
BRANCH  18  19
HETATM   19  C14 UNL     1     -64.088 -12.510  21.578  1.00  0.00     0.240 C 
HETATM   20  C15 UNL     1     -64.875 -13.500  22.388  1.00  0.00     0.090 C 
HETATM   21  F1  UNL     1     -64.320 -11.198  22.003  1.00  0.00    -0.207 F 
HETATM   22  F2  UNL     1     -62.720 -12.750  21.757  1.00  0.00    -0.207 F 
ENDBRANCH  18  19
ENDBRANCH  17  18
ENDBRANCH  15  17
ENDBRANCH   5  11
BRANCH   7  23
HETATM   23  C19 UNL     1     -72.779 -11.147  19.101  1.00  0.00     0.370 C 
HETATM   24  F3  UNL     1     -72.655 -10.208  18.024  1.00  0.00    -0.183 F 
HETATM   25  F4  UNL     1     -73.985 -11.808  18.714  1.00  0.00    -0.183 F 
BRANCH  23  26
HETATM   26  S1  UNL     1     -73.084 -10.250  20.553  1.00  0.00     0.217 S 
HETATM   27  O2  UNL     1     -71.819  -9.563  21.014  1.00  0.00    -0.221 OA
HETATM   28  O3  UNL     1     -74.180  -9.259  20.443  1.00  0.00    -0.221 OA
BRANCH  26  29
HETATM   29  C20 UNL     1     -73.432 -11.529  21.779  1.00  0.00     0.147 C 
BRANCH  29  30
HETATM   30  C21 UNL     1     -72.314 -11.873  22.668  1.00  0.00     0.011 C 
HETATM   31  C22 UNL     1     -72.026 -13.361  22.455  1.00  0.00     0.006 C 
ENDBRANCH  29  30
ENDBRANCH  26  29
ENDBRANCH  23  26
ENDBRANCH   7  23
BRANCH   1  32
HETATM   32  N1  UNL     1     -68.895 -17.814  18.806  1.00  0.00    -0.321 N 
ATOM     33  H1  UNL     1     -69.299 -18.542  19.394  1.00  0.00     0.169 HD
BRANCH  32  34
HETATM   34  C4  UNL     1     -67.782 -18.059  17.999  1.00  0.00     0.117 C 
BRANCH  34  35
HETATM   35  C3  UNL     1     -66.390 -18.146  18.408  1.00  0.00     0.083 C 
BRANCH  35  36
HETATM   36  C2  UNL     1     -65.675 -16.835  18.121  1.00  0.00     0.003 C 
HETATM   37  C1  UNL     1     -65.248 -16.079  19.332  1.00  0.00     0.005 C 
ENDBRANCH  35  36
ENDBRANCH  34  35
BRANCH  34  38
HETATM   38  O1  UNL     1     -67.981 -18.247  16.714  1.00  0.00    -0.349 OA
ATOM     39  H1  UNL     1     -68.881 -18.444  16.483  1.00  0.00     0.219 HD
ENDBRANCH  34  38
ENDBRANCH  32  34
ENDBRANCH   1  32
TORSDOF 13
ENDMDL
MODEL 4
REMARK VINA RESULT: -8.424541312      3.085      8.621
REMARK  13 active torsions:
REMARK  status: ('A' for Active; 'I' for Inactive)
REMARK    1  A    between atoms: C2_2  and  C3_3 
REMARK    2  A    between atoms: C3_3  and  C4_4 
REMARK    3  A    between atoms: C4_4  and  O1_5 
REMARK    4  A    between atoms: C4_4  and  N1_7 
REMARK    5  A    between atoms: N1_7  and  C5_9 
REMARK    6  A    between atoms: C7_13  and  N3_14 
REMARK    7  A    between atoms: C11_18  and  C12_19 
REMARK    8  A    between atoms: C12_19  and  C13_20 
REMARK    9  A    between atoms: C13_20  and  C14_21 
REMARK   10  A    between atoms: C18_27  and  C19_28 
REMARK   11  A    between atoms: C19_28  and  S1_31 
REMARK   12  A    between atoms: S1_31  and  C20_34 
REMARK   13  A    between atoms: C20_34  and  C21_35 
ROOT
HETATM    1  C5  UNL     1     -69.452 -16.384  18.734  1.00  0.00     0.151 A 
HETATM    2  N2  UNL     1     -68.953 -15.239  19.099  1.00  0.00    -0.334 N 
ATOM      3  H2  UNL     1     -67.999 -15.202  19.459  1.00  0.00     0.168 HD
HETATM    4  C6  UNL     1     -69.649 -14.133  19.015  1.00  0.00     0.078 A 
HETATM    5  C7  UNL     1     -69.269 -12.850  19.429  1.00  0.00     0.059 A 
HETATM    6  C17 UNL     1     -70.162 -11.810  19.334  1.00  0.00     0.046 A 
HETATM    7  C18 UNL     1     -71.437 -11.885  18.861  1.00  0.00     0.032 A 
HETATM    8  C23 UNL     1     -71.805 -13.182  18.438  1.00  0.00     0.035 A 
HETATM    9  C24 UNL     1     -70.925 -14.240  18.526  1.00  0.00     0.038 A 
HETATM   10  S2  UNL     1     -71.042 -15.921  18.215  1.00  0.00    -0.052 SA
ENDROOT
BRANCH   5  11
HETATM   11  N3  UNL     1     -67.992 -12.594  19.966  1.00  0.00    -0.379 N 
HETATM   12  C8  UNL     1     -67.823 -12.244  21.382  1.00  0.00     0.123 C 
HETATM   13  C9  UNL     1     -67.371 -10.814  21.410  1.00  0.00     0.020 C 
HETATM   14  C10 UNL     1     -66.677 -10.306  20.206  1.00  0.00     0.008 C 
HETATM   15  C11 UNL     1     -65.996 -11.332  19.358  1.00  0.00     0.004 C 
HETATM   16  C16 UNL     1     -66.746 -12.640  19.228  1.00  0.00     0.127 C 
BRANCH  15  17
HETATM   17  C12 UNL     1     -64.544 -11.535  19.633  1.00  0.00     0.012 C 
BRANCH  17  18
HETATM   18  C13 UNL     1     -64.166 -12.852  20.225  1.00  0.00     0.079 C 
BRANCH  18  19
HETATM   19  C14 UNL     1     -63.987 -12.734  21.722  1.00  0.00     0.240 C 
HETATM   20  C15 UNL     1     -64.910 -13.611  22.518  1.00  0.00     0.090 C 
HETATM   21  F1  UNL     1     -64.105 -11.391  22.095  1.00  0.00    -0.207 F 
HETATM   22  F2  UNL     1     -62.662 -13.104  21.980  1.00  0.00    -0.207 F 
ENDBRANCH  18  19
ENDBRANCH  17  18
ENDBRANCH  15  17
ENDBRANCH   5  11
BRANCH   7  23
HETATM   23  C19 UNL     1     -72.470 -10.874  18.920  1.00  0.00     0.370 C 
HETATM   24  F3  UNL     1     -73.351 -11.071  17.805  1.00  0.00    -0.183 F 
HETATM   25  F4  UNL     1     -73.355 -11.202  19.994  1.00  0.00    -0.183 F 
BRANCH  23  26
HETATM   26  S1  UNL     1     -72.099  -9.183  19.009  1.00  0.00     0.217 S 
HETATM   27  O2  UNL     1     -71.812  -8.790  20.440  1.00  0.00    -0.221 OA
HETATM   28  O3  UNL     1     -70.980  -8.754  18.139  1.00  0.00    -0.221 OA
BRANCH  26  29
HETATM   29  C20 UNL     1     -73.657  -8.381  18.575  1.00  0.00     0.147 C 
BRANCH  29  30
HETATM   30  C21 UNL     1     -74.199  -7.463  19.585  1.00  0.00     0.011 C 
HETATM   31  C22 UNL     1     -75.549  -8.038  20.022  1.00  0.00     0.006 C 
ENDBRANCH  29  30
ENDBRANCH  26  29
ENDBRANCH  23  26
ENDBRANCH   7  23
BRANCH   1  32
HETATM   32  N1  UNL     1     -68.979 -17.760  18.802  1.00  0.00    -0.321 N 
ATOM     33  H1  UNL     1     -69.456 -18.462  19.367  1.00  0.00     0.169 HD
BRANCH  32  34
HETATM   34  C4  UNL     1     -67.840 -18.071  18.056  1.00  0.00     0.117 C 
BRANCH  34  35
HETATM   35  C3  UNL     1     -66.463 -18.129  18.518  1.00  0.00     0.083 C 
BRANCH  35  36
HETATM   36  C2  UNL     1     -65.733 -16.844  18.159  1.00  0.00     0.003 C 
HETATM   37  C1  UNL     1     -64.747 -16.382  19.176  1.00  0.00     0.005 C 
ENDBRANCH  35  36
ENDBRANCH  34  35
BRANCH  34  38
HETATM   38  O1  UNL     1     -67.996 -18.359  16.784  1.00  0.00    -0.349 OA
ATOM     39  H1  UNL     1     -67.343 -18.953  16.435  1.00  0.00     0.219 HD
ENDBRANCH  34  38
ENDBRANCH  32  34
ENDBRANCH   1  32
TORSDOF 13
ENDMDL
MODEL 5
REMARK VINA RESULT: -8.410616203      1.186      1.548
REMARK  13 active torsions:
REMARK  status: ('A' for Active; 'I' for Inactive)
REMARK    1  A    between atoms: C2_2  and  C3_3 
REMARK    2  A    between atoms: C3_3  and  C4_4 
REMARK    3  A    between atoms: C4_4  and  O1_5 
REMARK    4  A    between atoms: C4_4  and  N1_7 
REMARK    5  A    between atoms: N1_7  and  C5_9 
REMARK    6  A    between atoms: C7_13  and  N3_14 
REMARK    7  A    between atoms: C11_18  and  C12_19 
REMARK    8  A    between atoms: C12_19  and  C13_20 
REMARK    9  A    between atoms: C13_20  and  C14_21 
REMARK   10  A    between atoms: C18_27  and  C19_28 
REMARK   11  A    between atoms: C19_28  and  S1_31 
REMARK   12  A    between atoms: S1_31  and  C20_34 
REMARK   13  A    between atoms: C20_34  and  C21_35 
ROOT
HETATM    1  C5  UNL     1     -67.231 -10.692  20.076  1.00  0.00     0.151 A 
HETATM    2  N2  UNL     1     -68.315 -11.403  19.975  1.00  0.00    -0.334 N 
ATOM      3  H2  UNL     1     -69.222 -10.950  20.091  1.00  0.00     0.168 HD
HETATM    4  C6  UNL     1     -68.269 -12.689  19.730  1.00  0.00     0.078 A 
HETATM    5  C7  UNL     1     -69.344 -13.585  19.661  1.00  0.00     0.059 A 
HETATM    6  C17 UNL     1     -69.103 -14.924  19.468  1.00  0.00     0.046 A 
HETATM    7  C18 UNL     1     -67.881 -15.511  19.328  1.00  0.00     0.032 A 
HETATM    8  C23 UNL     1     -66.808 -14.594  19.390  1.00  0.00     0.035 A 
HETATM    9  C24 UNL     1     -67.026 -13.247  19.584  1.00  0.00     0.038 A 
HETATM   10  S2  UNL     1     -66.004 -11.890  19.807  1.00  0.00    -0.052 SA
ENDROOT
BRANCH   5  11
HETATM   11  N3  UNL     1     -70.677 -13.155  19.807  1.00  0.00    -0.379 N 
HETATM   12  C8  UNL     1     -71.799 -14.070  19.567  1.00  0.00     0.123 C 
HETATM   13  C9  UNL     1     -72.491 -13.571  18.333  1.00  0.00     0.020 C 
HETATM   14  C10 UNL     1     -72.339 -12.135  18.013  1.00  0.00     0.008 C 
HETATM   15  C11 UNL     1     -72.035 -11.233  19.167  1.00  0.00     0.004 C 
HETATM   16  C16 UNL     1     -71.090 -11.821  20.193  1.00  0.00     0.127 C 
BRANCH  15  17
HETATM   17  C12 UNL     1     -73.214 -10.569  19.795  1.00  0.00     0.012 C 
BRANCH  17  18
HETATM   18  C13 UNL     1     -72.964  -9.233  20.410  1.00  0.00     0.079 C 
BRANCH  18  19
HETATM   19  C14 UNL     1     -73.552  -8.132  19.556  1.00  0.00     0.240 C 
HETATM   20  C15 UNL     1     -74.996  -7.841  19.843  1.00  0.00     0.090 C 
HETATM   21  F1  UNL     1     -73.349  -8.439  18.206  1.00  0.00    -0.207 F 
HETATM   22  F2  UNL     1     -72.788  -6.990  19.823  1.00  0.00    -0.207 F 
ENDBRANCH  18  19
ENDBRANCH  17  18
ENDBRANCH  15  17
ENDBRANCH   5  11
BRANCH   7  23
HETATM   23  C19 UNL     1     -67.567 -16.922  19.317  1.00  0.00     0.370 C 
HETATM   24  F3  UNL     1     -66.467 -17.141  20.211  1.00  0.00    -0.183 F 
HETATM   25  F4  UNL     1     -68.599 -17.616  20.021  1.00  0.00    -0.183 F 
BRANCH  23  26
HETATM   26  S1  UNL     1     -67.232 -17.779  17.846  1.00  0.00     0.217 S 
HETATM   27  O2  UNL     1     -68.362 -17.581  16.862  1.00  0.00    -0.221 OA
HETATM   28  O3  UNL     1     -65.944 -17.421  17.208  1.00  0.00    -0.221 OA
BRANCH  26  29
HETATM   29  C20 UNL     1     -67.298 -19.514  18.340  1.00  0.00     0.147 C 
BRANCH  29  30
HETATM   30  C21 UNL     1     -66.627 -20.456  17.433  1.00  0.00     0.011 C 
HETATM   31  C22 UNL     1     -67.652 -20.843  16.364  1.00  0.00     0.006 C 
ENDBRANCH  29  30
ENDBRANCH  26  29
ENDBRANCH  23  26
ENDBRANCH   7  23
BRANCH   1  32
HETATM   32  N1  UNL     1     -66.960  -9.306  20.433  1.00  0.00    -0.321 N 
ATOM     33  H1  UNL     1     -66.826  -9.021  21.403  1.00  0.00     0.169 HD
BRANCH  32  34
HETATM   34  C4  UNL     1     -66.893  -8.388  19.384  1.00  0.00     0.117 C 
BRANCH  34  35
HETATM   35  C3  UNL     1     -67.769  -7.254  19.137  1.00  0.00     0.083 C 
BRANCH  35  36
HETATM   36  C2  UNL     1     -69.222  -7.659  19.335  1.00  0.00     0.003 C 
HETATM   37  C1  UNL     1     -69.766  -8.561  18.282  1.00  0.00     0.005 C 
ENDBRANCH  35  36
ENDBRANCH  34  35
BRANCH  34  38
HETATM   38  O1  UNL     1     -65.931  -8.530  18.501  1.00  0.00    -0.349 OA
ATOM     39  H1  UNL     1     -65.085  -8.209  18.790  1.00  0.00     0.219 HD
ENDBRANCH  34  38
ENDBRANCH  32  34
ENDBRANCH   1  32
TORSDOF 13
ENDMDL
