MODEL 1
REMARK VINA RESULT: -4.617268179      0.000      0.000
REMARK  5 active torsions:
REMARK  status: ('A' for Active; 'I' for Inactive)
REMARK    1  A    between atoms: C3_3  and  N1_4 
REMARK    2  A    between atoms: C3_3  and  C4_8 
REMARK    3  A    between atoms: C4_8  and  N2_9 
REMARK    4  A    between atoms: C4_8  and  C5_13 
REMARK    5  A    between atoms: N2_9  and  N3_10 
ROOT
HETATM    1  C1  UNL     1      -1.362 -19.550 -35.219  1.00  0.00     0.014 C 
HETATM    2  C2  UNL     1      -0.741 -20.481 -35.674  1.00  0.00    -0.082 C 
HETATM    3  C3  UNL     1       0.025 -21.613 -36.240  1.00  0.00     0.289 C 
ENDROOT
BRANCH   3   4
HETATM    4  N1  UNL     1       0.567 -22.449 -35.196  1.00  0.00    -0.062 N 
ATOM      5  H13 UNL     1       0.257 -22.144 -34.273  1.00  0.00     0.275 HD
ATOM      6  H12 UNL     1       0.145 -23.378 -35.202  1.00  0.00     0.275 HD
ATOM      7  H11 UNL     1       1.584 -22.497 -35.255  1.00  0.00     0.275 HD
ENDBRANCH   3   4
BRANCH   3   8
HETATM    8  C4  UNL     1      -0.876 -22.446 -37.091  1.00  0.00     0.209 C 
BRANCH   8   9
HETATM    9  N2  UNL     1      -1.606 -21.648 -38.070  1.00  0.00    -0.132 NA
BRANCH   9  10
HETATM   10  N3  UNL     1      -2.958 -21.609 -37.742  1.00  0.00    -0.348 N 
ATOM     11  H32 UNL     1      -3.366 -22.082 -36.936  1.00  0.00     0.172 HD
ATOM     12  H31 UNL     1      -3.468 -21.044 -38.422  1.00  0.00     0.172 HD
ENDBRANCH   9  10
ENDBRANCH   8   9
BRANCH   8  13
HETATM   13  C5  UNL     1      -0.027 -23.445 -37.812  1.00  0.00     0.121 A 
HETATM   14  N4  UNL     1       1.060 -23.203 -38.575  1.00  0.00    -0.338 N 
HETATM   15  C6  UNL     1       1.525 -24.377 -39.037  1.00  0.00     0.198 A 
ATOM     16  H4  UNL     1       1.461 -22.284 -38.769  1.00  0.00     0.168 HD
HETATM   17  N5  UNL     1       0.746 -25.349 -38.574  1.00  0.00    -0.295 N 
HETATM   18  N6  UNL     1      -0.191 -24.780 -37.833  1.00  0.00    -0.286 N 
ATOM     19  H5  UNL     1       0.850 -26.347 -38.756  1.00  0.00     0.187 HD
ATOM     20  H6  UNL     1      -0.933 -25.284 -37.346  1.00  0.00     0.188 HD
ENDBRANCH   8  13
ENDBRANCH   3   8
TORSDOF 5
ENDMDL
MODEL 2
REMARK VINA RESULT: -4.339946788      1.433      4.672
REMARK  5 active torsions:
REMARK  status: ('A' for Active; 'I' for Inactive)
REMARK    1  A    between atoms: C3_3  and  N1_4 
REMARK    2  A    between atoms: C3_3  and  C4_8 
REMARK    3  A    between atoms: C4_8  and  N2_9 
REMARK    4  A    between atoms: C4_8  and  C5_13 
REMARK    5  A    between atoms: N2_9  and  N3_10 
ROOT
HETATM    1  C1  UNL     1       2.036 -26.610 -39.221  1.00  0.00     0.014 C 
HETATM    2  C2  UNL     1       1.268 -25.910 -38.605  1.00  0.00    -0.082 C 
HETATM    3  C3  UNL     1       0.319 -25.050 -37.863  1.00  0.00     0.289 C 
ENDROOT
BRANCH   3   4
HETATM    4  N1  UNL     1       0.101 -25.550 -36.527  1.00  0.00    -0.062 N 
ATOM      5  H13 UNL     1       0.557 -26.451 -36.385  1.00  0.00     0.275 HD
ATOM      6  H12 UNL     1       0.615 -25.005 -35.834  1.00  0.00     0.275 HD
ATOM      7  H11 UNL     1      -0.894 -25.593 -36.308  1.00  0.00     0.275 HD
ENDBRANCH   3   4
BRANCH   3   8
HETATM    8  C4  UNL     1       0.873 -23.668 -37.765  1.00  0.00     0.209 C 
BRANCH   8   9
HETATM    9  N2  UNL     1       1.504 -23.235 -39.008  1.00  0.00    -0.132 NA
BRANCH   9  10
HETATM   10  N3  UNL     1       2.780 -22.741 -38.749  1.00  0.00    -0.348 N 
ATOM     11  H32 UNL     1       2.982 -22.005 -38.072  1.00  0.00     0.172 HD
ATOM     12  H31 UNL     1       3.466 -23.222 -39.331  1.00  0.00     0.172 HD
ENDBRANCH   9  10
ENDBRANCH   8   9
BRANCH   8  13
HETATM   13  C5  UNL     1      -0.260 -22.744 -37.448  1.00  0.00     0.121 A 
HETATM   14  N4  UNL     1      -0.282 -21.753 -36.529  1.00  0.00    -0.338 N 
HETATM   15  C6  UNL     1      -1.491 -21.167 -36.566  1.00  0.00     0.198 A 
ATOM     16  H4  UNL     1       0.489 -21.495 -35.913  1.00  0.00     0.168 HD
HETATM   17  N5  UNL     1      -2.225 -21.775 -37.492  1.00  0.00    -0.295 N 
HETATM   18  N6  UNL     1      -1.476 -22.727 -38.023  1.00  0.00    -0.286 N 
ATOM     19  H5  UNL     1      -3.187 -21.549 -37.746  1.00  0.00     0.187 HD
ATOM     20  H6  UNL     1      -1.778 -23.359 -38.765  1.00  0.00     0.188 HD
ENDBRANCH   8  13
ENDBRANCH   3   8
TORSDOF 5
ENDMDL
MODEL 3
REMARK VINA RESULT: -4.323175270      1.397      4.410
REMARK  5 active torsions:
REMARK  status: ('A' for Active; 'I' for Inactive)
REMARK    1  A    between atoms: C3_3  and  N1_4 
REMARK    2  A    between atoms: C3_3  and  C4_8 
REMARK    3  A    between atoms: C4_8  and  N2_9 
REMARK    4  A    between atoms: C4_8  and  C5_13 
REMARK    5  A    between atoms: N2_9  and  N3_10 
ROOT
HETATM    1  C1  UNL     1       3.104 -22.913 -38.671  1.00  0.00     0.014 C 
HETATM    2  C2  UNL     1       2.076 -23.479 -38.959  1.00  0.00    -0.082 C 
HETATM    3  C3  UNL     1       0.812 -24.160 -39.316  1.00  0.00     0.289 C 
ENDROOT
BRANCH   3   4
HETATM    4  N1  UNL     1       1.066 -25.384 -40.036  1.00  0.00    -0.062 N 
ATOM      5  H13 UNL     1       1.773 -25.253 -40.760  1.00  0.00     0.275 HD
ATOM      6  H12 UNL     1       1.559 -26.064 -39.458  1.00  0.00     0.275 HD
ATOM      7  H11 UNL     1       0.203 -25.771 -40.420  1.00  0.00     0.275 HD
ENDBRANCH   3   4
BRANCH   3   8
HETATM    8  C4  UNL     1       0.059 -24.494 -38.071  1.00  0.00     0.209 C 
BRANCH   8   9
HETATM    9  N2  UNL     1       0.907 -25.123 -37.063  1.00  0.00    -0.132 NA
BRANCH   9  10
HETATM   10  N3  UNL     1       0.138 -25.928 -36.227  1.00  0.00    -0.348 N 
ATOM     11  H32 UNL     1      -0.437 -25.574 -35.462  1.00  0.00     0.172 HD
ATOM     12  H31 UNL     1       0.238 -26.908 -36.495  1.00  0.00     0.172 HD
ENDBRANCH   9  10
ENDBRANCH   8   9
BRANCH   8  13
HETATM   13  C5  UNL     1      -0.492 -23.219 -37.515  1.00  0.00     0.121 A 
HETATM   14  N4  UNL     1       0.042 -22.445 -36.545  1.00  0.00    -0.338 N 
HETATM   15  C6  UNL     1      -0.771 -21.393 -36.346  1.00  0.00     0.198 A 
ATOM     16  H4  UNL     1       0.913 -22.629 -36.047  1.00  0.00     0.168 HD
HETATM   17  N5  UNL     1      -1.803 -21.496 -37.177  1.00  0.00    -0.295 N 
HETATM   18  N6  UNL     1      -1.630 -22.601 -37.882  1.00  0.00    -0.286 N 
ATOM     19  H5  UNL     1      -2.584 -20.844 -37.256  1.00  0.00     0.187 HD
ATOM     20  H6  UNL     1      -2.268 -22.937 -38.603  1.00  0.00     0.188 HD
ENDBRANCH   8  13
ENDBRANCH   3   8
TORSDOF 5
ENDMDL
MODEL 4
REMARK VINA RESULT: -4.300915220      2.179      2.603
REMARK  5 active torsions:
REMARK  status: ('A' for Active; 'I' for Inactive)
REMARK    1  A    between atoms: C3_3  and  N1_4 
REMARK    2  A    between atoms: C3_3  and  C4_8 
REMARK    3  A    between atoms: C4_8  and  N2_9 
REMARK    4  A    between atoms: C4_8  and  C5_13 
REMARK    5  A    between atoms: N2_9  and  N3_10 
ROOT
HETATM    1  C1  UNL     1       3.190 -21.960 -37.509  1.00  0.00     0.014 C 
HETATM    2  C2  UNL     1       2.338 -22.630 -36.976  1.00  0.00    -0.082 C 
HETATM    3  C3  UNL     1       1.303 -23.463 -36.323  1.00  0.00     0.289 C 
ENDROOT
BRANCH   3   4
HETATM    4  N1  UNL     1       0.748 -22.794 -35.171  1.00  0.00    -0.062 N 
ATOM      5  H13 UNL     1       1.478 -22.477 -34.534  1.00  0.00     0.275 HD
ATOM      6  H12 UNL     1       0.352 -21.887 -35.418  1.00  0.00     0.275 HD
ATOM      7  H11 UNL     1       0.066 -23.386 -34.697  1.00  0.00     0.275 HD
ENDBRANCH   3   4
BRANCH   3   8
HETATM    8  C4  UNL     1       0.199 -23.730 -37.291  1.00  0.00     0.209 C 
BRANCH   8   9
HETATM    9  N2  UNL     1      -0.280 -22.511 -37.935  1.00  0.00    -0.132 NA
BRANCH   9  10
HETATM   10  N3  UNL     1      -1.666 -22.433 -37.840  1.00  0.00    -0.348 N 
ATOM     11  H32 UNL     1      -2.163 -21.980 -37.073  1.00  0.00     0.172 HD
ATOM     12  H31 UNL     1      -2.099 -22.891 -38.642  1.00  0.00     0.172 HD
ENDBRANCH   9  10
ENDBRANCH   8   9
BRANCH   8  13
HETATM   13  C5  UNL     1       0.724 -24.660 -38.338  1.00  0.00     0.121 A 
HETATM   14  N4  UNL     1       1.385 -25.823 -38.150  1.00  0.00    -0.338 N 
HETATM   15  C6  UNL     1       1.678 -26.345 -39.354  1.00  0.00     0.198 A 
ATOM     16  H4  UNL     1       1.622 -26.235 -37.247  1.00  0.00     0.168 HD
HETATM   17  N5  UNL     1       1.210 -25.527 -40.291  1.00  0.00    -0.295 N 
HETATM   18  N6  UNL     1       0.634 -24.510 -39.672  1.00  0.00    -0.286 N 
ATOM     19  H5  UNL     1       1.283 -25.658 -41.300  1.00  0.00     0.187 HD
ATOM     20  H6  UNL     1       0.184 -23.724 -40.140  1.00  0.00     0.188 HD
ENDBRANCH   8  13
ENDBRANCH   3   8
TORSDOF 5
ENDMDL
MODEL 5
REMARK VINA RESULT: -4.283383084      1.883      4.177
REMARK  5 active torsions:
REMARK  status: ('A' for Active; 'I' for Inactive)
REMARK    1  A    between atoms: C3_3  and  N1_4 
REMARK    2  A    between atoms: C3_3  and  C4_8 
REMARK    3  A    between atoms: C4_8  and  N2_9 
REMARK    4  A    between atoms: C4_8  and  C5_13 
REMARK    5  A    between atoms: N2_9  and  N3_10 
ROOT
HETATM    1  C1  UNL     1       0.477 -26.251 -35.886  1.00  0.00     0.014 C 
HETATM    2  C2  UNL     1       1.044 -25.291 -36.351  1.00  0.00    -0.082 C 
HETATM    3  C3  UNL     1       1.732 -24.107 -36.911  1.00  0.00     0.289 C 
ENDROOT
BRANCH   3   4
HETATM    4  N1  UNL     1       3.090 -24.422 -37.282  1.00  0.00    -0.062 N 
ATOM      5  H13 UNL     1       3.215 -25.423 -37.431  1.00  0.00     0.275 HD
ATOM      6  H12 UNL     1       3.307 -24.095 -38.223  1.00  0.00     0.275 HD
ATOM      7  H11 UNL     1       3.752 -24.058 -36.595  1.00  0.00     0.275 HD
ENDBRANCH   3   4
BRANCH   3   8
HETATM    8  C4  UNL     1       1.007 -23.641 -38.129  1.00  0.00     0.209 C 
BRANCH   8   9
HETATM    9  N2  UNL     1       0.496 -24.751 -38.928  1.00  0.00    -0.132 NA
BRANCH   9  10
HETATM   10  N3  UNL     1       1.033 -24.702 -40.212  1.00  0.00    -0.348 N 
ATOM     11  H32 UNL     1       0.474 -24.670 -41.065  1.00  0.00     0.172 HD
ATOM     12  H31 UNL     1       2.052 -24.703 -40.166  1.00  0.00     0.172 HD
ENDBRANCH   9  10
ENDBRANCH   8   9
BRANCH   8  13
HETATM   13  C5  UNL     1      -0.143 -22.795 -37.681  1.00  0.00     0.121 A 
HETATM   14  N4  UNL     1      -0.142 -21.849 -36.717  1.00  0.00    -0.338 N 
HETATM   15  C6  UNL     1      -1.379 -21.329 -36.632  1.00  0.00     0.198 A 
ATOM     16  H4  UNL     1       0.661 -21.576 -36.150  1.00  0.00     0.168 HD
HETATM   17  N5  UNL     1      -2.152 -21.934 -37.527  1.00  0.00    -0.295 N 
HETATM   18  N6  UNL     1      -1.400 -22.819 -38.160  1.00  0.00    -0.286 N 
ATOM     19  H5  UNL     1      -3.141 -21.751 -37.695  1.00  0.00     0.187 HD
ATOM     20  H6  UNL     1      -1.728 -23.433 -38.906  1.00  0.00     0.188 HD
ENDBRANCH   8  13
ENDBRANCH   3   8
TORSDOF 5
ENDMDL
