MODEL 1
REMARK VINA RESULT: -4.701282965      0.000      0.000
REMARK  4 active torsions:
REMARK  status: ('A' for Active; 'I' for Inactive)
REMARK    1  A    between atoms: N1_1  and  C1_5 
REMARK    2  A    between atoms: C1_5  and  C2_6 
REMARK    3  A    between atoms: C2_6  and  N2_7 
REMARK    4  A    between atoms: N2_7  and  C3_9 
ROOT
HETATM    1  C3  UNL     1      -1.036 -22.553 -37.572  1.00  0.00     0.677 A 
HETATM    2  N3  UNL     1      -0.004 -22.132 -36.926  1.00  0.00    -0.210 N 
ATOM      3  H3  UNL     1       0.889 -22.584 -37.119  1.00  0.00     0.179 HD
HETATM    4  C4  UNL     1      -0.016 -21.072 -35.953  1.00  0.00     0.264 A 
HETATM    5  N4  UNL     1      -1.305 -20.484 -35.737  1.00  0.00    -0.347 N 
ATOM      6  H4  UNL     1      -1.372 -19.727 -35.057  1.00  0.00     0.163 HD
HETATM    7  C5  UNL     1      -2.389 -20.845 -36.342  1.00  0.00     0.204 A 
HETATM    8  N5  UNL     1      -3.617 -20.197 -36.055  1.00  0.00    -0.063 NA
HETATM    9  N6  UNL     1      -2.266 -21.903 -37.284  1.00  0.00    -0.164 N 
ATOM     10  H6  UNL     1      -3.103 -22.212 -37.778  1.00  0.00     0.187 HD
ENDROOT
BRANCH   1  11
HETATM   11  N2  UNL     1      -0.922 -23.610 -38.515  1.00  0.00    -0.225 N 
ATOM     12  H2  UNL     1      -1.614 -23.670 -39.261  1.00  0.00     0.177 HD
BRANCH  11  13
HETATM   13  C2  UNL     1       0.120 -24.599 -38.470  1.00  0.00     0.165 C 
BRANCH  13  14
HETATM   14  C1  UNL     1       0.976 -24.556 -39.723  1.00  0.00     0.249 C 
BRANCH  14  15
HETATM   15  N1  UNL     1       1.286 -25.898 -40.175  1.00  0.00    -0.078 N 
ATOM     16  H13 UNL     1       1.274 -26.569 -39.407  1.00  0.00     0.274 HD
ATOM     17  H12 UNL     1       0.530 -26.294 -40.734  1.00  0.00     0.274 HD
ATOM     18  H11 UNL     1       2.174 -25.912 -40.677  1.00  0.00     0.274 HD
ENDBRANCH  14  15
ENDBRANCH  13  14
ENDBRANCH  11  13
ENDBRANCH   1  11
TORSDOF 4
ENDMDL
MODEL 2
REMARK VINA RESULT: -4.637751487      1.688      5.405
REMARK  4 active torsions:
REMARK  status: ('A' for Active; 'I' for Inactive)
REMARK    1  A    between atoms: N1_1  and  C1_5 
REMARK    2  A    between atoms: C1_5  and  C2_6 
REMARK    3  A    between atoms: C2_6  and  N2_7 
REMARK    4  A    between atoms: N2_7  and  C3_9 
ROOT
HETATM    1  C3  UNL     1      -1.251 -20.933 -36.266  1.00  0.00     0.677 A 
HETATM    2  N3  UNL     1      -0.047 -20.773 -35.838  1.00  0.00    -0.210 N 
ATOM      3  H3  UNL     1       0.112 -20.045 -35.142  1.00  0.00     0.179 HD
HETATM    4  C4  UNL     1       1.090 -21.544 -36.266  1.00  0.00     0.264 A 
HETATM    5  N4  UNL     1       0.788 -22.548 -37.243  1.00  0.00    -0.347 N 
ATOM      6  H4  UNL     1       1.558 -23.125 -37.583  1.00  0.00     0.163 HD
HETATM    7  C5  UNL     1      -0.390 -22.774 -37.725  1.00  0.00     0.204 A 
HETATM    8  N5  UNL     1      -0.582 -23.794 -38.691  1.00  0.00    -0.063 NA
HETATM    9  N6  UNL     1      -1.443 -21.955 -37.234  1.00  0.00    -0.164 N 
ATOM     10  H6  UNL     1      -2.385 -22.108 -37.595  1.00  0.00     0.187 HD
ENDROOT
BRANCH   1  11
HETATM   11  N2  UNL     1      -2.310 -20.118 -35.781  1.00  0.00    -0.225 N 
ATOM     12  H2  UNL     1      -3.218 -20.179 -36.242  1.00  0.00     0.177 HD
BRANCH  11  13
HETATM   13  C2  UNL     1      -2.166 -19.213 -34.674  1.00  0.00     0.165 C 
BRANCH  13  14
HETATM   14  C1  UNL     1      -3.284 -18.187 -34.651  1.00  0.00     0.249 C 
BRANCH  14  15
HETATM   15  N1  UNL     1      -4.405 -18.637 -35.453  1.00  0.00    -0.078 N 
ATOM     16  H13 UNL     1      -4.180 -18.645 -36.448  1.00  0.00     0.274 HD
ATOM     17  H12 UNL     1      -4.585 -19.634 -35.330  1.00  0.00     0.274 HD
ATOM     18  H11 UNL     1      -5.235 -18.077 -35.258  1.00  0.00     0.274 HD
ENDBRANCH  14  15
ENDBRANCH  13  14
ENDBRANCH  11  13
ENDBRANCH   1  11
TORSDOF 4
ENDMDL
MODEL 3
REMARK VINA RESULT: -4.608435453      2.039      5.577
REMARK  4 active torsions:
REMARK  status: ('A' for Active; 'I' for Inactive)
REMARK    1  A    between atoms: N1_1  and  C1_5 
REMARK    2  A    between atoms: C1_5  and  C2_6 
REMARK    3  A    between atoms: C2_6  and  N2_7 
REMARK    4  A    between atoms: N2_7  and  C3_9 
ROOT
HETATM    1  C3  UNL     1      -0.932 -21.086 -36.181  1.00  0.00     0.677 A 
HETATM    2  N3  UNL     1      -1.302 -21.704 -37.249  1.00  0.00    -0.210 N 
ATOM      3  H3  UNL     1      -2.016 -21.260 -37.826  1.00  0.00     0.179 HD
HETATM    4  C4  UNL     1      -0.785 -22.972 -37.690  1.00  0.00     0.264 A 
HETATM    5  N4  UNL     1       0.215 -23.533 -36.830  1.00  0.00    -0.347 N 
ATOM      6  H4  UNL     1       0.617 -24.432 -37.094  1.00  0.00     0.163 HD
HETATM    7  C5  UNL     1       0.643 -22.980 -35.742  1.00  0.00     0.204 A 
HETATM    8  N5  UNL     1       1.637 -23.620 -34.960  1.00  0.00    -0.063 NA
HETATM    9  N6  UNL     1       0.064 -21.728 -35.398  1.00  0.00    -0.164 N 
ATOM     10  H6  UNL     1       0.381 -21.266 -34.545  1.00  0.00     0.187 HD
ENDROOT
BRANCH   1  11
HETATM   11  N2  UNL     1      -1.505 -19.834 -35.830  1.00  0.00    -0.225 N 
ATOM     12  H2  UNL     1      -1.396 -19.053 -36.477  1.00  0.00     0.177 HD
BRANCH  11  13
HETATM   13  C2  UNL     1      -2.230 -19.612 -34.609  1.00  0.00     0.165 C 
BRANCH  13  14
HETATM   14  C1  UNL     1      -3.134 -18.397 -34.717  1.00  0.00     0.249 C 
BRANCH  14  15
HETATM   15  N1  UNL     1      -4.341 -18.724 -35.452  1.00  0.00    -0.078 N 
ATOM     16  H13 UNL     1      -4.525 -18.049 -36.195  1.00  0.00     0.274 HD
ATOM     17  H12 UNL     1      -4.220 -19.556 -36.028  1.00  0.00     0.274 HD
ATOM     18  H11 UNL     1      -5.134 -18.814 -34.817  1.00  0.00     0.274 HD
ENDBRANCH  14  15
ENDBRANCH  13  14
ENDBRANCH  11  13
ENDBRANCH   1  11
TORSDOF 4
ENDMDL
MODEL 4
REMARK VINA RESULT: -4.582772026      0.998      1.086
REMARK  4 active torsions:
REMARK  status: ('A' for Active; 'I' for Inactive)
REMARK    1  A    between atoms: N1_1  and  C1_5 
REMARK    2  A    between atoms: C1_5  and  C2_6 
REMARK    3  A    between atoms: C2_6  and  N2_7 
REMARK    4  A    between atoms: N2_7  and  C3_9 
ROOT
HETATM    1  C3  UNL     1      -0.335 -23.125 -37.964  1.00  0.00     0.677 A 
HETATM    2  N3  UNL     1       0.556 -22.602 -37.194  1.00  0.00    -0.210 N 
ATOM      3  H3  UNL     1       1.509 -22.956 -37.270  1.00  0.00     0.179 HD
HETATM    4  C4  UNL     1       0.308 -21.559 -36.234  1.00  0.00     0.264 A 
HETATM    5  N4  UNL     1      -1.053 -21.114 -36.185  1.00  0.00    -0.347 N 
ATOM      6  H4  UNL     1      -1.286 -20.375 -35.522  1.00  0.00     0.163 HD
HETATM    7  C5  UNL     1      -2.007 -21.582 -36.921  1.00  0.00     0.204 A 
HETATM    8  N5  UNL     1      -3.324 -21.071 -36.794  1.00  0.00    -0.063 NA
HETATM    9  N6  UNL     1      -1.654 -22.612 -37.836  1.00  0.00    -0.164 N 
ATOM     10  H6  UNL     1      -2.385 -23.003 -38.431  1.00  0.00     0.187 HD
ENDROOT
BRANCH   1  11
HETATM   11  N2  UNL     1       0.009 -24.154 -38.881  1.00  0.00    -0.225 N 
ATOM     12  H2  UNL     1      -0.733 -24.762 -39.227  1.00  0.00     0.177 HD
BRANCH  11  13
HETATM   13  C2  UNL     1       1.350 -24.382 -39.345  1.00  0.00     0.165 C 
BRANCH  13  14
HETATM   14  C1  UNL     1       1.756 -25.833 -39.167  1.00  0.00     0.249 C 
BRANCH  14  15
HETATM   15  N1  UNL     1       1.371 -26.616 -40.325  1.00  0.00    -0.078 N 
ATOM     16  H13 UNL     1       1.451 -26.079 -41.189  1.00  0.00     0.274 HD
ATOM     17  H12 UNL     1       2.054 -27.345 -40.535  1.00  0.00     0.274 HD
ATOM     18  H11 UNL     1       0.434 -27.001 -40.203  1.00  0.00     0.274 HD
ENDBRANCH  14  15
ENDBRANCH  13  14
ENDBRANCH  11  13
ENDBRANCH   1  11
TORSDOF 4
ENDMDL
MODEL 5
REMARK VINA RESULT: -4.509684521      2.014      2.799
REMARK  4 active torsions:
REMARK  status: ('A' for Active; 'I' for Inactive)
REMARK    1  A    between atoms: N1_1  and  C1_5 
REMARK    2  A    between atoms: C1_5  and  C2_6 
REMARK    3  A    between atoms: C2_6  and  N2_7 
REMARK    4  A    between atoms: N2_7  and  C3_9 
ROOT
HETATM    1  C3  UNL     1      -1.797 -21.719 -37.119  1.00  0.00     0.677 A 
HETATM    2  N3  UNL     1      -3.079 -21.598 -37.139  1.00  0.00    -0.210 N 
ATOM      3  H3  UNL     1      -3.603 -22.236 -37.737  1.00  0.00     0.179 HD
HETATM    4  C4  UNL     1      -3.828 -20.631 -36.381  1.00  0.00     0.264 A 
HETATM    5  N4  UNL     1      -3.025 -19.770 -35.564  1.00  0.00    -0.347 N 
ATOM      6  H4  UNL     1      -3.504 -19.064 -35.005  1.00  0.00     0.163 HD
HETATM    7  C5  UNL     1      -1.735 -19.825 -35.485  1.00  0.00     0.204 A 
HETATM    8  N5  UNL     1      -1.033 -18.925 -34.644  1.00  0.00    -0.063 NA
HETATM    9  N6  UNL     1      -1.094 -20.817 -36.276  1.00  0.00    -0.164 N 
ATOM     10  H6  UNL     1      -0.077 -20.885 -36.236  1.00  0.00     0.187 HD
ENDROOT
BRANCH   1  11
HETATM   11  N2  UNL     1      -1.147 -22.708 -37.906  1.00  0.00    -0.225 N 
ATOM     12  H2  UNL     1      -1.695 -23.202 -38.611  1.00  0.00     0.177 HD
BRANCH  11  13
HETATM   13  C2  UNL     1       0.242 -23.047 -37.760  1.00  0.00     0.165 C 
BRANCH  13  14
HETATM   14  C1  UNL     1       0.434 -24.160 -36.745  1.00  0.00     0.249 C 
BRANCH  14  15
HETATM   15  N1  UNL     1       0.985 -23.635 -35.511  1.00  0.00    -0.078 N 
ATOM     16  H13 UNL     1       1.604 -22.842 -35.680  1.00  0.00     0.274 HD
ATOM     17  H12 UNL     1       0.277 -23.161 -34.951  1.00  0.00     0.274 HD
ATOM     18  H11 UNL     1       1.451 -24.374 -34.984  1.00  0.00     0.274 HD
ENDBRANCH  14  15
ENDBRANCH  13  14
ENDBRANCH  11  13
ENDBRANCH   1  11
TORSDOF 4
ENDMDL
