MODEL 1
REMARK VINA RESULT: -5.248229881      0.000      0.000
REMARK  4 active torsions:
REMARK  status: ('A' for Active; 'I' for Inactive)
REMARK    1  A    between atoms: C2_2  and  O1_3 
REMARK    2  A    between atoms: C2_2  and  N1_5 
REMARK    3  A    between atoms: N1_5  and  N2_6 
REMARK    4  A    between atoms: N2_6  and  C4_8 
ROOT
HETATM    1  C4  UNL     1      -1.131 -21.385 -36.593  1.00  0.00     0.206 C 
HETATM    2  N3  UNL     1      -1.769 -22.085 -37.472  1.00  0.00    -0.345 N 
ATOM      3  H3  UNL     1      -2.729 -21.903 -37.766  1.00  0.00     0.164 HD
HETATM    4  C5  UNL     1      -0.951 -23.152 -37.982  1.00  0.00     0.259 C 
HETATM    5  N4  UNL     1       0.390 -22.746 -37.636  1.00  0.00    -0.119 NA
HETATM    6  N5  UNL     1       0.169 -21.995 -36.503  1.00  0.00    -0.273 N 
ATOM      7  H5  UNL     1       0.822 -21.887 -35.726  1.00  0.00     0.185 HD
ENDROOT
BRANCH   1   8
HETATM    8  N2  UNL     1      -1.599 -20.256 -35.868  1.00  0.00    -0.267 N 
HETATM    9  C3  UNL     1      -0.661 -19.232 -35.493  1.00  0.00     0.176 C 
BRANCH   8  10
HETATM   10  N1  UNL     1      -2.933 -20.110 -35.511  1.00  0.00    -0.105 NA
BRANCH  10  11
HETATM   11  C2  UNL     1      -3.326 -18.755 -35.268  1.00  0.00     0.227 C 
HETATM   12  C1  UNL     1      -3.523 -18.441 -33.800  1.00  0.00     0.060 C 
BRANCH  11  13
HETATM   13  O1  UNL     1      -4.561 -18.556 -35.895  1.00  0.00    -0.378 OA
ATOM     14  H1  UNL     1      -4.867 -19.411 -36.176  1.00  0.00     0.211 HD
ENDBRANCH  11  13
ENDBRANCH  10  11
ENDBRANCH   8  10
ENDBRANCH   1   8
TORSDOF 4
ENDMDL
MODEL 2
REMARK VINA RESULT: -5.135986001      0.774      1.218
REMARK  4 active torsions:
REMARK  status: ('A' for Active; 'I' for Inactive)
REMARK    1  A    between atoms: C2_2  and  O1_3 
REMARK    2  A    between atoms: C2_2  and  N1_5 
REMARK    3  A    between atoms: N1_5  and  N2_6 
REMARK    4  A    between atoms: N2_6  and  C4_8 
ROOT
HETATM    1  C4  UNL     1      -0.756 -21.349 -36.556  1.00  0.00     0.206 C 
HETATM    2  N3  UNL     1       0.388 -21.945 -36.624  1.00  0.00    -0.345 N 
ATOM      3  H3  UNL     1       1.203 -21.693 -36.065  1.00  0.00     0.164 HD
HETATM    4  C5  UNL     1       0.363 -23.011 -37.590  1.00  0.00     0.259 C 
HETATM    5  N4  UNL     1      -1.045 -23.268 -37.772  1.00  0.00    -0.119 NA
HETATM    6  N5  UNL     1      -1.591 -22.033 -37.506  1.00  0.00    -0.273 N 
ATOM      7  H5  UNL     1      -2.450 -21.664 -37.916  1.00  0.00     0.185 HD
ENDROOT
BRANCH   1   8
HETATM    8  N2  UNL     1      -1.123 -20.254 -35.726  1.00  0.00    -0.267 N 
HETATM    9  C3  UNL     1      -0.241 -19.121 -35.638  1.00  0.00     0.176 C 
BRANCH   8  10
HETATM   10  N1  UNL     1      -2.305 -20.244 -34.998  1.00  0.00    -0.105 NA
BRANCH  10  11
HETATM   11  C2  UNL     1      -3.133 -19.104 -35.248  1.00  0.00     0.227 C 
HETATM   12  C1  UNL     1      -3.472 -18.323 -33.996  1.00  0.00     0.060 C 
BRANCH  11  13
HETATM   13  O1  UNL     1      -4.343 -19.569 -35.775  1.00  0.00    -0.378 OA
ATOM     14  H1  UNL     1      -4.593 -20.327 -35.260  1.00  0.00     0.211 HD
ENDBRANCH  11  13
ENDBRANCH  10  11
ENDBRANCH   8  10
ENDBRANCH   1   8
TORSDOF 4
ENDMDL
MODEL 3
REMARK VINA RESULT: -4.889446640      1.683      2.203
REMARK  4 active torsions:
REMARK  status: ('A' for Active; 'I' for Inactive)
REMARK    1  A    between atoms: C2_2  and  O1_3 
REMARK    2  A    between atoms: C2_2  and  N1_5 
REMARK    3  A    between atoms: N1_5  and  N2_6 
REMARK    4  A    between atoms: N2_6  and  C4_8 
ROOT
HETATM    1  C4  UNL     1       0.130 -22.330 -37.128  1.00  0.00     0.206 C 
HETATM    2  N3  UNL     1       1.103 -22.999 -37.651  1.00  0.00    -0.345 N 
ATOM      3  H3  UNL     1       2.086 -22.868 -37.413  1.00  0.00     0.164 HD
HETATM    4  C5  UNL     1       0.621 -23.954 -38.613  1.00  0.00     0.259 C 
HETATM    5  N4  UNL     1      -0.779 -24.086 -38.286  1.00  0.00    -0.119 NA
HETATM    6  N5  UNL     1      -1.058 -22.848 -37.752  1.00  0.00    -0.273 N 
ATOM      7  H5  UNL     1      -1.961 -22.374 -37.793  1.00  0.00     0.185 HD
ENDROOT
BRANCH   1   8
HETATM    8  N2  UNL     1       0.204 -21.303 -36.147  1.00  0.00    -0.267 N 
HETATM    9  C3  UNL     1       1.382 -20.480 -36.089  1.00  0.00     0.176 C 
BRANCH   8  10
HETATM   10  N1  UNL     1      -0.825 -21.070 -35.245  1.00  0.00    -0.105 NA
BRANCH  10  11
HETATM   11  C2  UNL     1      -1.739 -20.047 -35.655  1.00  0.00     0.227 C 
HETATM   12  C1  UNL     1      -2.317 -19.261 -34.497  1.00  0.00     0.060 C 
BRANCH  11  13
HETATM   13  O1  UNL     1      -2.812 -20.673 -36.297  1.00  0.00    -0.378 OA
ATOM     14  H1  UNL     1      -2.479 -21.485 -36.662  1.00  0.00     0.211 HD
ENDBRANCH  11  13
ENDBRANCH  10  11
ENDBRANCH   8  10
ENDBRANCH   1   8
TORSDOF 4
ENDMDL
MODEL 4
REMARK VINA RESULT: -4.833916051      3.454      5.787
REMARK  4 active torsions:
REMARK  status: ('A' for Active; 'I' for Inactive)
REMARK    1  A    between atoms: C2_2  and  O1_3 
REMARK    2  A    between atoms: C2_2  and  N1_5 
REMARK    3  A    between atoms: N1_5  and  N2_6 
REMARK    4  A    between atoms: N2_6  and  C4_8 
ROOT
HETATM    1  C4  UNL     1      -0.378 -22.854 -37.484  1.00  0.00     0.206 C 
HETATM    2  N3  UNL     1      -0.003 -21.994 -36.595  1.00  0.00    -0.345 N 
ATOM      3  H3  UNL     1       0.924 -21.973 -36.170  1.00  0.00     0.164 HD
HETATM    4  C5  UNL     1      -1.061 -21.070 -36.285  1.00  0.00     0.259 C 
HETATM    5  N4  UNL     1      -1.963 -21.201 -37.404  1.00  0.00    -0.119 NA
HETATM    6  N5  UNL     1      -1.738 -22.502 -37.793  1.00  0.00    -0.273 N 
ATOM      7  H5  UNL     1      -2.426 -23.117 -38.229  1.00  0.00     0.185 HD
ENDROOT
BRANCH   1   8
HETATM    8  N2  UNL     1       0.379 -23.918 -38.044  1.00  0.00    -0.267 N 
HETATM    9  C3  UNL     1       1.408 -23.611 -39.002  1.00  0.00     0.176 C 
BRANCH   8  10
HETATM   10  N1  UNL     1       0.159 -25.243 -37.695  1.00  0.00    -0.105 NA
BRANCH  10  11
HETATM   11  C2  UNL     1       0.579 -25.574 -36.367  1.00  0.00     0.227 C 
HETATM   12  C1  UNL     1       2.008 -26.071 -36.296  1.00  0.00     0.060 C 
BRANCH  11  13
HETATM   13  O1  UNL     1      -0.235 -26.616 -35.914  1.00  0.00    -0.378 OA
ATOM     14  H1  UNL     1      -0.997 -26.637 -36.483  1.00  0.00     0.211 HD
ENDBRANCH  11  13
ENDBRANCH  10  11
ENDBRANCH   8  10
ENDBRANCH   1   8
TORSDOF 4
ENDMDL
MODEL 5
REMARK VINA RESULT: -4.831635030      2.299      2.918
REMARK  4 active torsions:
REMARK  status: ('A' for Active; 'I' for Inactive)
REMARK    1  A    between atoms: C2_2  and  O1_3 
REMARK    2  A    between atoms: C2_2  and  N1_5 
REMARK    3  A    between atoms: N1_5  and  N2_6 
REMARK    4  A    between atoms: N2_6  and  C4_8 
ROOT
HETATM    1  C4  UNL     1       0.518 -23.321 -36.249  1.00  0.00     0.206 C 
HETATM    2  N3  UNL     1       1.005 -24.306 -35.569  1.00  0.00    -0.345 N 
ATOM      3  H3  UNL     1       1.450 -24.212 -34.657  1.00  0.00     0.164 HD
HETATM    4  C5  UNL     1       0.836 -25.553 -36.266  1.00  0.00     0.259 C 
HETATM    5  N4  UNL     1      -0.195 -25.263 -37.234  1.00  0.00    -0.119 NA
HETATM    6  N5  UNL     1      -0.003 -23.917 -37.450  1.00  0.00    -0.273 N 
ATOM      7  H5  UNL     1      -0.199 -23.423 -38.321  1.00  0.00     0.185 HD
ENDROOT
BRANCH   1   8
HETATM    8  N2  UNL     1       0.495 -21.944 -35.897  1.00  0.00    -0.267 N 
HETATM    9  C3  UNL     1       1.588 -21.103 -36.308  1.00  0.00     0.176 C 
BRANCH   8  10
HETATM   10  N1  UNL     1      -0.548 -21.386 -35.172  1.00  0.00    -0.105 NA
BRANCH  10  11
HETATM   11  C2  UNL     1      -1.283 -20.384 -35.884  1.00  0.00     0.227 C 
HETATM   12  C1  UNL     1      -1.934 -19.362 -34.978  1.00  0.00     0.060 C 
BRANCH  11  13
HETATM   13  O1  UNL     1      -2.314 -21.030 -36.574  1.00  0.00    -0.378 OA
ATOM     14  H1  UNL     1      -1.974 -21.250 -37.433  1.00  0.00     0.211 HD
ENDBRANCH  11  13
ENDBRANCH  10  11
ENDBRANCH   8  10
ENDBRANCH   1   8
TORSDOF 4
ENDMDL
