MODEL 1
REMARK VINA RESULT: -4.170340483      0.000      0.000
REMARK  4 active torsions:
REMARK  status: ('A' for Active; 'I' for Inactive)
REMARK    1  A    between atoms: N1_1  and  C1_4 
REMARK    2  A    between atoms: C2_7  and  C3_8 
REMARK    3  A    between atoms: C3_8  and  C4_9 
REMARK    4  A    between atoms: C4_9  and  N3_10 
ROOT
HETATM    1  C1  UNL     1      -2.055 -21.711 -37.252  1.00  0.00     0.698 A 
HETATM    2  N2  UNL     1      -1.296 -22.702 -37.741  1.00  0.00    -0.168 N 
ATOM      3  H2  UNL     1      -1.611 -23.455 -38.353  1.00  0.00     0.186 HD
HETATM    4  C2  UNL     1      -0.058 -22.526 -37.282  1.00  0.00     0.202 A 
HETATM    5  O1  UNL     1      -0.094 -21.436 -36.525  1.00  0.00    -0.206 OA
HETATM    6  N5  UNL     1      -1.282 -20.939 -36.501  1.00  0.00    -0.090 N 
ATOM      7  H5  UNL     1      -1.575 -20.104 -35.994  1.00  0.00     0.213 HD
ENDROOT
BRANCH   4   8
HETATM    8  C3  UNL     1       1.174 -23.288 -37.484  1.00  0.00     0.239 A 
HETATM    9  C5  UNL     1       1.524 -23.614 -38.920  1.00  0.00     0.283 A 
HETATM   10  N4  UNL     1       2.329 -22.665 -38.092  1.00  0.00    -0.052 N 
ATOM     11  H42 UNL     1       2.628 -21.697 -38.214  1.00  0.00     0.278 HD
ATOM     12  H41 UNL     1       3.315 -22.608 -37.840  1.00  0.00     0.278 HD
BRANCH   8  13
HETATM   13  C4  UNL     1       1.459 -24.328 -36.403  1.00  0.00     0.279 C 
BRANCH  13  14
HETATM   14  N3  UNL     1       1.260 -23.674 -35.117  1.00  0.00    -0.076 N 
ATOM     15  H33 UNL     1       1.493 -24.271 -34.324  1.00  0.00     0.274 HD
ATOM     16  H32 UNL     1       1.944 -22.939 -34.933  1.00  0.00     0.274 HD
ATOM     17  H31 UNL     1       0.297 -23.339 -35.096  1.00  0.00     0.274 HD
ENDBRANCH  13  14
ENDBRANCH   8  13
ENDBRANCH   4   8
BRANCH   1  18
HETATM   18  N1  UNL     1      -3.336 -21.524 -37.455  1.00  0.00    -0.233 N 
ATOM     19  H12 UNL     1      -3.795 -21.551 -38.365  1.00  0.00     0.174 HD
ATOM     20  H11 UNL     1      -4.046 -21.319 -36.752  1.00  0.00     0.174 HD
ENDBRANCH   1  18
TORSDOF 4
ENDMDL
MODEL 2
REMARK VINA RESULT: -4.158642463      1.475      1.710
REMARK  4 active torsions:
REMARK  status: ('A' for Active; 'I' for Inactive)
REMARK    1  A    between atoms: N1_1  and  C1_4 
REMARK    2  A    between atoms: C2_7  and  C3_8 
REMARK    3  A    between atoms: C3_8  and  C4_9 
REMARK    4  A    between atoms: C4_9  and  N3_10 
ROOT
HETATM    1  C1  UNL     1      -1.211 -21.404 -36.727  1.00  0.00     0.698 A 
HETATM    2  N2  UNL     1       0.012 -21.938 -36.599  1.00  0.00    -0.168 N 
ATOM      3  H2  UNL     1       0.709 -21.685 -35.899  1.00  0.00     0.186 HD
HETATM    4  C2  UNL     1       0.152 -22.859 -37.552  1.00  0.00     0.202 A 
HETATM    5  O1  UNL     1      -0.987 -22.860 -38.236  1.00  0.00    -0.206 OA
HETATM    6  N5  UNL     1      -1.809 -21.996 -37.751  1.00  0.00    -0.090 N 
ATOM      7  H5  UNL     1      -2.750 -21.802 -38.094  1.00  0.00     0.213 HD
ENDROOT
BRANCH   4   8
HETATM    8  C3  UNL     1       1.260 -23.750 -37.891  1.00  0.00     0.239 A 
HETATM    9  C5  UNL     1       2.204 -23.255 -38.967  1.00  0.00     0.283 A 
HETATM   10  N4  UNL     1       2.618 -23.397 -37.538  1.00  0.00    -0.052 N 
ATOM     11  H42 UNL     1       3.028 -22.761 -36.854  1.00  0.00     0.278 HD
ATOM     12  H41 UNL     1       3.376 -23.889 -37.068  1.00  0.00     0.278 HD
BRANCH   8  13
HETATM   13  C4  UNL     1       0.915 -25.236 -37.841  1.00  0.00     0.279 C 
BRANCH  13  14
HETATM   14  N3  UNL     1      -0.082 -25.409 -36.795  1.00  0.00    -0.076 N 
ATOM     15  H33 UNL     1       0.203 -25.011 -35.900  1.00  0.00     0.274 HD
ATOM     16  H32 UNL     1      -0.913 -24.834 -36.935  1.00  0.00     0.274 HD
ATOM     17  H31 UNL     1      -0.290 -26.406 -36.740  1.00  0.00     0.274 HD
ENDBRANCH  13  14
ENDBRANCH   8  13
ENDBRANCH   4   8
BRANCH   1  18
HETATM   18  N1  UNL     1      -1.739 -20.456 -35.992  1.00  0.00    -0.233 N 
ATOM     19  H12 UNL     1      -1.471 -20.242 -35.032  1.00  0.00     0.174 HD
ATOM     20  H11 UNL     1      -2.485 -19.814 -36.260  1.00  0.00     0.174 HD
ENDBRANCH   1  18
TORSDOF 4
ENDMDL
MODEL 3
REMARK VINA RESULT: -4.152559219      2.166      3.159
REMARK  4 active torsions:
REMARK  status: ('A' for Active; 'I' for Inactive)
REMARK    1  A    between atoms: N1_1  and  C1_4 
REMARK    2  A    between atoms: C2_7  and  C3_8 
REMARK    3  A    between atoms: C3_8  and  C4_9 
REMARK    4  A    between atoms: C4_9  and  N3_10 
ROOT
HETATM    1  C1  UNL     1      -3.231 -19.628 -35.577  1.00  0.00     0.698 A 
HETATM    2  N2  UNL     1      -1.929 -19.944 -35.552  1.00  0.00    -0.168 N 
ATOM      3  H2  UNL     1      -1.195 -19.435 -35.060  1.00  0.00     0.186 HD
HETATM    4  C2  UNL     1      -1.766 -21.044 -36.286  1.00  0.00     0.202 A 
HETATM    5  O1  UNL     1      -2.972 -21.368 -36.740  1.00  0.00    -0.206 OA
HETATM    6  N5  UNL     1      -3.855 -20.529 -36.322  1.00  0.00    -0.090 N 
ATOM      7  H5  UNL     1      -4.854 -20.554 -36.528  1.00  0.00     0.213 HD
ENDROOT
BRANCH   4   8
HETATM    8  C3  UNL     1      -0.579 -21.834 -36.609  1.00  0.00     0.239 A 
HETATM    9  C5  UNL     1       0.749 -21.231 -36.204  1.00  0.00     0.283 A 
HETATM   10  N4  UNL     1       0.193 -22.459 -35.558  1.00  0.00    -0.052 N 
ATOM     11  H42 UNL     1      -0.008 -22.721 -34.593  1.00  0.00     0.278 HD
ATOM     12  H41 UNL     1       0.550 -23.402 -35.409  1.00  0.00     0.278 HD
BRANCH   8  13
HETATM   13  C4  UNL     1      -0.669 -22.600 -37.927  1.00  0.00     0.279 C 
BRANCH  13  14
HETATM   14  N3  UNL     1      -1.111 -23.950 -37.608  1.00  0.00    -0.076 N 
ATOM     15  H33 UNL     1      -0.358 -24.637 -37.647  1.00  0.00     0.274 HD
ATOM     16  H32 UNL     1      -1.347 -24.071 -36.624  1.00  0.00     0.274 HD
ATOM     17  H31 UNL     1      -1.885 -24.168 -38.236  1.00  0.00     0.274 HD
ENDBRANCH  13  14
ENDBRANCH   8  13
ENDBRANCH   4   8
BRANCH   1  18
HETATM   18  N1  UNL     1      -3.807 -18.608 -34.989  1.00  0.00    -0.233 N 
ATOM     19  H12 UNL     1      -3.423 -17.664 -34.945  1.00  0.00     0.174 HD
ATOM     20  H11 UNL     1      -4.698 -18.608 -34.492  1.00  0.00     0.174 HD
ENDBRANCH   1  18
TORSDOF 4
ENDMDL
MODEL 4
REMARK VINA RESULT: -4.048522842      1.492      1.771
REMARK  4 active torsions:
REMARK  status: ('A' for Active; 'I' for Inactive)
REMARK    1  A    between atoms: N1_1  and  C1_4 
REMARK    2  A    between atoms: C2_7  and  C3_8 
REMARK    3  A    between atoms: C3_8  and  C4_9 
REMARK    4  A    between atoms: C4_9  and  N3_10 
ROOT
HETATM    1  C1  UNL     1      -1.577 -22.089 -37.415  1.00  0.00     0.698 A 
HETATM    2  N2  UNL     1      -0.557 -21.629 -36.676  1.00  0.00    -0.168 N 
ATOM      3  H2  UNL     1      -0.587 -20.836 -36.035  1.00  0.00     0.186 HD
HETATM    4  C2  UNL     1       0.503 -22.395 -36.931  1.00  0.00     0.202 A 
HETATM    5  O1  UNL     1       0.103 -23.298 -37.818  1.00  0.00    -0.206 OA
HETATM    6  N5  UNL     1      -1.139 -23.126 -38.114  1.00  0.00    -0.090 N 
ATOM      7  H5  UNL     1      -1.685 -23.685 -38.768  1.00  0.00     0.213 HD
ENDROOT
BRANCH   4   8
HETATM    8  C3  UNL     1       1.873 -22.365 -36.420  1.00  0.00     0.239 A 
HETATM    9  C5  UNL     1       2.952 -22.046 -37.432  1.00  0.00     0.283 A 
HETATM   10  N4  UNL     1       2.591 -21.114 -36.322  1.00  0.00    -0.052 N 
ATOM     11  H42 UNL     1       2.304 -20.135 -36.284  1.00  0.00     0.278 HD
ATOM     12  H41 UNL     1       3.122 -20.660 -35.579  1.00  0.00     0.278 HD
BRANCH   8  13
HETATM   13  C4  UNL     1       2.165 -23.398 -35.334  1.00  0.00     0.279 C 
BRANCH  13  14
HETATM   14  N3  UNL     1       1.111 -24.400 -35.400  1.00  0.00    -0.076 N 
ATOM     15  H33 UNL     1       1.466 -25.356 -35.389  1.00  0.00     0.274 HD
ATOM     16  H32 UNL     1       0.558 -24.456 -34.545  1.00  0.00     0.274 HD
ATOM     17  H31 UNL     1       0.550 -24.191 -36.226  1.00  0.00     0.274 HD
ENDBRANCH  13  14
ENDBRANCH   8  13
ENDBRANCH   4   8
BRANCH   1  18
HETATM   18  N1  UNL     1      -2.795 -21.608 -37.463  1.00  0.00    -0.233 N 
ATOM     19  H12 UNL     1      -3.154 -20.995 -38.195  1.00  0.00     0.174 HD
ATOM     20  H11 UNL     1      -3.544 -21.762 -36.788  1.00  0.00     0.174 HD
ENDBRANCH   1  18
TORSDOF 4
ENDMDL
MODEL 5
REMARK VINA RESULT: -3.989419161      1.699      2.663
REMARK  4 active torsions:
REMARK  status: ('A' for Active; 'I' for Inactive)
REMARK    1  A    between atoms: N1_1  and  C1_4 
REMARK    2  A    between atoms: C2_7  and  C3_8 
REMARK    3  A    between atoms: C3_8  and  C4_9 
REMARK    4  A    between atoms: C4_9  and  N3_10 
ROOT
HETATM    1  C1  UNL     1      -1.817 -19.867 -35.540  1.00  0.00     0.698 A 
HETATM    2  N2  UNL     1      -0.613 -20.457 -35.541  1.00  0.00    -0.168 N 
ATOM      3  H2  UNL     1       0.219 -20.128 -35.053  1.00  0.00     0.186 HD
HETATM    4  C2  UNL     1      -0.701 -21.551 -36.297  1.00  0.00     0.202 A 
HETATM    5  O1  UNL     1      -1.953 -21.598 -36.737  1.00  0.00    -0.206 OA
HETATM    6  N5  UNL     1      -2.629 -20.597 -36.291  1.00  0.00    -0.090 N 
ATOM      7  H5  UNL     1      -3.612 -20.402 -36.481  1.00  0.00     0.213 HD
ENDROOT
BRANCH   4   8
HETATM    8  C3  UNL     1       0.284 -22.571 -36.653  1.00  0.00     0.239 A 
HETATM    9  C5  UNL     1       1.710 -22.295 -36.226  1.00  0.00     0.283 A 
HETATM   10  N4  UNL     1       0.890 -23.393 -35.629  1.00  0.00    -0.052 N 
ATOM     11  H42 UNL     1       0.628 -23.642 -34.675  1.00  0.00     0.278 HD
ATOM     12  H41 UNL     1       1.027 -24.398 -35.518  1.00  0.00     0.278 HD
BRANCH   8  13
HETATM   13  C4  UNL     1       0.037 -23.246 -38.000  1.00  0.00     0.279 C 
BRANCH  13  14
HETATM   14  N3  UNL     1      -0.987 -24.259 -37.791  1.00  0.00    -0.076 N 
ATOM     15  H33 UNL     1      -1.032 -24.590 -36.827  1.00  0.00     0.274 HD
ATOM     16  H32 UNL     1      -1.935 -23.887 -37.846  1.00  0.00     0.274 HD
ATOM     17  H31 UNL     1      -0.811 -25.007 -38.462  1.00  0.00     0.274 HD
ENDBRANCH  13  14
ENDBRANCH   8  13
ENDBRANCH   4   8
BRANCH   1  18
HETATM   18  N1  UNL     1      -2.151 -18.759 -34.926  1.00  0.00    -0.233 N 
ATOM     19  H12 UNL     1      -2.207 -18.644 -33.914  1.00  0.00     0.174 HD
ATOM     20  H11 UNL     1      -2.410 -17.871 -35.357  1.00  0.00     0.174 HD
ENDBRANCH   1  18
TORSDOF 4
ENDMDL
