MODEL 1
REMARK VINA RESULT: -4.250940402      0.000      0.000
REMARK  5 active torsions:
REMARK  status: ('A' for Active; 'I' for Inactive)
REMARK    1  A    between atoms: C2_2  and  C3_3 
REMARK    2  A    between atoms: C2_2  and  C5_13 
REMARK    3  A    between atoms: C4_9  and  N3_10 
REMARK    4  A    between atoms: C5_13  and  N4_14 
REMARK    5  A    between atoms: C5_13  and  N5_18 
ROOT
HETATM    1  C1  UNL     1       1.430 -23.326 -35.161  1.00  0.00     0.020 C 
HETATM    2  C2  UNL     1       1.391 -22.931 -36.642  1.00  0.00     0.095 C 
ENDROOT
BRANCH   2   3
HETATM    3  C3  UNL     1       0.056 -22.324 -36.856  1.00  0.00     0.087 A 
HETATM    4  N1  UNL     1      -0.363 -21.173 -36.318  1.00  0.00    -0.242 N 
HETATM    5  O1  UNL     1      -1.533 -20.933 -36.759  1.00  0.00    -0.155 OA
ATOM      6  H1  UNL     1       0.163 -20.589 -35.668  1.00  0.00     0.196 HD
HETATM    7  N2  UNL     1      -1.960 -21.864 -37.580  1.00  0.00    -0.224 N 
HETATM    8  C4  UNL     1      -0.974 -22.759 -37.661  1.00  0.00     0.146 A 
ATOM      9  H2  UNL     1      -2.861 -21.896 -38.058  1.00  0.00     0.198 HD
BRANCH   8  10
HETATM   10  N3  UNL     1      -1.002 -23.841 -38.344  1.00  0.00    -0.382 N 
ATOM     11  H32 UNL     1      -0.378 -24.073 -39.117  1.00  0.00     0.157 HD
ATOM     12  H31 UNL     1      -1.661 -24.612 -38.233  1.00  0.00     0.157 HD
ENDBRANCH   8  10
ENDBRANCH   2   3
BRANCH   2  13
HETATM   13  C5  UNL     1       2.444 -21.874 -36.884  1.00  0.00     0.387 C 
BRANCH  13  14
HETATM   14  N4  UNL     1       3.353 -21.729 -35.744  1.00  0.00    -0.050 N 
ATOM     15  H43 UNL     1       2.871 -21.337 -34.936  1.00  0.00     0.276 HD
ATOM     16  H42 UNL     1       3.608 -22.638 -35.357  1.00  0.00     0.276 HD
ATOM     17  H41 UNL     1       4.181 -21.183 -35.981  1.00  0.00     0.276 HD
ENDBRANCH  13  14
BRANCH  13  18
HETATM   18  N5  UNL     1       3.185 -22.153 -38.085  1.00  0.00    -0.050 N 
ATOM     19  H53 UNL     1       2.566 -22.334 -38.876  1.00  0.00     0.276 HD
ATOM     20  H52 UNL     1       3.651 -21.319 -38.442  1.00  0.00     0.276 HD
ATOM     21  H51 UNL     1       3.842 -22.918 -37.939  1.00  0.00     0.276 HD
ENDBRANCH  13  18
ENDBRANCH   2  13
TORSDOF 5
ENDMDL
MODEL 2
REMARK VINA RESULT: -4.073707674      1.771      2.678
REMARK  5 active torsions:
REMARK  status: ('A' for Active; 'I' for Inactive)
REMARK    1  A    between atoms: C2_2  and  C3_3 
REMARK    2  A    between atoms: C2_2  and  C5_13 
REMARK    3  A    between atoms: C4_9  and  N3_10 
REMARK    4  A    between atoms: C5_13  and  N4_14 
REMARK    5  A    between atoms: C5_13  and  N5_18 
ROOT
HETATM    1  C1  UNL     1       0.169 -25.067 -36.909  1.00  0.00     0.020 C 
HETATM    2  C2  UNL     1      -0.185 -24.223 -38.140  1.00  0.00     0.095 C 
ENDROOT
BRANCH   2   3
HETATM    3  C3  UNL     1      -0.683 -22.933 -37.607  1.00  0.00     0.087 A 
HETATM    4  N1  UNL     1      -1.778 -22.293 -38.033  1.00  0.00    -0.242 N 
HETATM    5  O1  UNL     1      -1.931 -21.252 -37.319  1.00  0.00    -0.155 OA
ATOM      6  H1  UNL     1      -2.384 -22.589 -38.799  1.00  0.00     0.196 HD
HETATM    7  N2  UNL     1      -0.993 -21.124 -36.409  1.00  0.00    -0.224 N 
HETATM    8  C4  UNL     1      -0.187 -22.176 -36.568  1.00  0.00     0.146 A 
ATOM      9  H2  UNL     1      -0.899 -20.375 -35.723  1.00  0.00     0.198 HD
BRANCH   8  10
HETATM   10  N3  UNL     1       0.872 -22.413 -35.891  1.00  0.00    -0.382 N 
ATOM     11  H32 UNL     1       1.811 -22.525 -36.274  1.00  0.00     0.157 HD
ATOM     12  H31 UNL     1       0.930 -22.549 -34.881  1.00  0.00     0.157 HD
ENDBRANCH   8  10
ENDBRANCH   2   3
BRANCH   2  13
HETATM   13  C5  UNL     1       1.081 -23.964 -38.923  1.00  0.00     0.387 C 
BRANCH  13  14
HETATM   14  N4  UNL     1       2.276 -24.415 -38.207  1.00  0.00    -0.050 N 
ATOM     15  H43 UNL     1       2.030 -24.875 -37.332  1.00  0.00     0.276 HD
ATOM     16  H42 UNL     1       2.717 -25.202 -38.685  1.00  0.00     0.276 HD
ATOM     17  H41 UNL     1       2.941 -23.657 -38.052  1.00  0.00     0.276 HD
ENDBRANCH  13  14
BRANCH  13  18
HETATM   18  N5  UNL     1       1.014 -24.573 -40.224  1.00  0.00    -0.050 N 
ATOM     19  H53 UNL     1       0.342 -25.341 -40.247  1.00  0.00     0.276 HD
ATOM     20  H52 UNL     1       0.569 -23.959 -40.906  1.00  0.00     0.276 HD
ATOM     21  H51 UNL     1       1.938 -24.873 -40.535  1.00  0.00     0.276 HD
ENDBRANCH  13  18
ENDBRANCH   2  13
TORSDOF 5
ENDMDL
MODEL 3
REMARK VINA RESULT: -4.022429148      1.982      2.472
REMARK  5 active torsions:
REMARK  status: ('A' for Active; 'I' for Inactive)
REMARK    1  A    between atoms: C2_2  and  C3_3 
REMARK    2  A    between atoms: C2_2  and  C5_13 
REMARK    3  A    between atoms: C4_9  and  N3_10 
REMARK    4  A    between atoms: C5_13  and  N4_14 
REMARK    5  A    between atoms: C5_13  and  N5_18 
ROOT
HETATM    1  C1  UNL     1       0.469 -25.260 -36.903  1.00  0.00     0.020 C 
HETATM    2  C2  UNL     1      -0.025 -24.189 -37.883  1.00  0.00     0.095 C 
ENDROOT
BRANCH   2   3
HETATM    3  C3  UNL     1      -0.278 -22.983 -37.059  1.00  0.00     0.087 A 
HETATM    4  N1  UNL     1       0.450 -22.605 -36.003  1.00  0.00    -0.242 N 
HETATM    5  O1  UNL     1      -0.017 -21.502 -35.574  1.00  0.00    -0.155 OA
ATOM      6  H1  UNL     1       1.242 -23.114 -35.609  1.00  0.00     0.196 HD
HETATM    7  N2  UNL     1      -1.044 -21.085 -36.278  1.00  0.00    -0.224 N 
HETATM    8  C4  UNL     1      -1.233 -22.005 -37.227  1.00  0.00     0.146 A 
ATOM      9  H2  UNL     1      -1.586 -20.234 -36.130  1.00  0.00     0.198 HD
BRANCH   8  10
HETATM   10  N3  UNL     1      -2.157 -21.986 -38.110  1.00  0.00    -0.382 N 
ATOM     11  H32 UNL     1      -3.152 -21.848 -37.929  1.00  0.00     0.157 HD
ATOM     12  H31 UNL     1      -2.042 -22.130 -39.114  1.00  0.00     0.157 HD
ENDBRANCH   8  10
ENDBRANCH   2   3
BRANCH   2  13
HETATM   13  C5  UNL     1       1.087 -23.882 -38.858  1.00  0.00     0.387 C 
BRANCH  13  14
HETATM   14  N4  UNL     1       2.410 -24.142 -38.287  1.00  0.00    -0.050 N 
ATOM     15  H43 UNL     1       2.606 -25.142 -38.250  1.00  0.00     0.276 HD
ATOM     16  H42 UNL     1       3.151 -23.855 -38.927  1.00  0.00     0.276 HD
ATOM     17  H41 UNL     1       2.526 -23.709 -37.371  1.00  0.00     0.276 HD
ENDBRANCH  13  14
BRANCH  13  18
HETATM   18  N5  UNL     1       0.915 -24.617 -40.083  1.00  0.00    -0.050 N 
ATOM     19  H53 UNL     1       0.476 -24.047 -40.806  1.00  0.00     0.276 HD
ATOM     20  H52 UNL     1       1.806 -24.793 -40.545  1.00  0.00     0.276 HD
ATOM     21  H51 UNL     1       0.398 -25.481 -39.919  1.00  0.00     0.276 HD
ENDBRANCH  13  18
ENDBRANCH   2  13
TORSDOF 5
ENDMDL
MODEL 4
REMARK VINA RESULT: -4.009923513      2.097      4.124
REMARK  5 active torsions:
REMARK  status: ('A' for Active; 'I' for Inactive)
REMARK    1  A    between atoms: C2_2  and  C3_3 
REMARK    2  A    between atoms: C2_2  and  C5_13 
REMARK    3  A    between atoms: C4_9  and  N3_10 
REMARK    4  A    between atoms: C5_13  and  N4_14 
REMARK    5  A    between atoms: C5_13  and  N5_18 
ROOT
HETATM    1  C1  UNL     1      -0.411 -21.147 -35.798  1.00  0.00     0.020 C 
HETATM    2  C2  UNL     1       0.453 -21.933 -36.792  1.00  0.00     0.095 C 
ENDROOT
BRANCH   2   3
HETATM    3  C3  UNL     1       1.503 -22.587 -35.974  1.00  0.00     0.087 A 
HETATM    4  N1  UNL     1       1.298 -23.596 -35.121  1.00  0.00    -0.242 N 
HETATM    5  O1  UNL     1       2.424 -23.940 -34.638  1.00  0.00    -0.155 OA
ATOM      6  H1  UNL     1       0.397 -24.017 -34.897  1.00  0.00     0.196 HD
HETATM    7  N2  UNL     1       3.414 -23.217 -35.108  1.00  0.00    -0.224 N 
HETATM    8  C4  UNL     1       2.860 -22.350 -35.958  1.00  0.00     0.146 A 
ATOM      9  H2  UNL     1       4.403 -23.301 -34.872  1.00  0.00     0.198 HD
BRANCH   8  10
HETATM   10  N3  UNL     1       3.484 -21.446 -36.613  1.00  0.00    -0.382 N 
ATOM     11  H32 UNL     1       4.440 -21.515 -36.961  1.00  0.00     0.157 HD
ATOM     12  H31 UNL     1       3.129 -20.521 -36.861  1.00  0.00     0.157 HD
ENDBRANCH   8  10
ENDBRANCH   2   3
BRANCH   2  13
HETATM   13  C5  UNL     1      -0.401 -23.006 -37.426  1.00  0.00     0.387 C 
BRANCH  13  14
HETATM   14  N4  UNL     1      -1.694 -22.488 -37.879  1.00  0.00    -0.050 N 
ATOM     15  H43 UNL     1      -1.658 -22.212 -38.860  1.00  0.00     0.276 HD
ATOM     16  H42 UNL     1      -2.387 -23.233 -37.945  1.00  0.00     0.276 HD
ATOM     17  H41 UNL     1      -2.028 -21.723 -37.292  1.00  0.00     0.276 HD
ENDBRANCH  13  14
BRANCH  13  18
HETATM   18  N5  UNL     1       0.295 -23.640 -38.514  1.00  0.00    -0.050 N 
ATOM     19  H53 UNL     1       0.947 -24.350 -38.181  1.00  0.00     0.276 HD
ATOM     20  H52 UNL     1      -0.324 -24.241 -39.057  1.00  0.00     0.276 HD
ATOM     21  H51 UNL     1       0.760 -22.949 -39.102  1.00  0.00     0.276 HD
ENDBRANCH  13  18
ENDBRANCH   2  13
TORSDOF 5
ENDMDL
MODEL 5
REMARK VINA RESULT: -3.981170078      1.848      2.944
REMARK  5 active torsions:
REMARK  status: ('A' for Active; 'I' for Inactive)
REMARK    1  A    between atoms: C2_2  and  C3_3 
REMARK    2  A    between atoms: C2_2  and  C5_13 
REMARK    3  A    between atoms: C4_9  and  N3_10 
REMARK    4  A    between atoms: C5_13  and  N4_14 
REMARK    5  A    between atoms: C5_13  and  N5_18 
ROOT
HETATM    1  C1  UNL     1       0.121 -24.261 -38.834  1.00  0.00     0.020 C 
HETATM    2  C2  UNL     1       0.603 -23.427 -37.641  1.00  0.00     0.095 C 
ENDROOT
BRANCH   2   3
HETATM    3  C3  UNL     1      -0.497 -22.478 -37.349  1.00  0.00     0.087 A 
HETATM    4  N1  UNL     1      -1.729 -22.543 -37.866  1.00  0.00    -0.242 N 
HETATM    5  O1  UNL     1      -2.423 -21.606 -37.356  1.00  0.00    -0.155 OA
ATOM      6  H1  UNL     1      -2.056 -23.226 -38.551  1.00  0.00     0.196 HD
HETATM    7  N2  UNL     1      -1.736 -20.879 -36.506  1.00  0.00    -0.224 N 
HETATM    8  C4  UNL     1      -0.511 -21.409 -36.481  1.00  0.00     0.146 A 
ATOM      9  H2  UNL     1      -2.070 -20.075 -35.974  1.00  0.00     0.198 HD
BRANCH   8  10
HETATM   10  N3  UNL     1       0.476 -20.974 -35.792  1.00  0.00    -0.382 N 
ATOM     11  H32 UNL     1       1.429 -20.847 -36.132  1.00  0.00     0.157 HD
ATOM     12  H31 UNL     1       0.461 -20.717 -34.805  1.00  0.00     0.157 HD
ENDBRANCH   8  10
ENDBRANCH   2   3
BRANCH   2  13
HETATM   13  C5  UNL     1       0.776 -24.344 -36.453  1.00  0.00     0.387 C 
BRANCH  13  14
HETATM   14  N4  UNL     1      -0.014 -25.570 -36.582  1.00  0.00    -0.050 N 
ATOM     15  H43 UNL     1      -0.704 -25.487 -37.327  1.00  0.00     0.276 HD
ATOM     16  H42 UNL     1       0.548 -26.332 -36.964  1.00  0.00     0.276 HD
ATOM     17  H41 UNL     1      -0.451 -25.840 -35.701  1.00  0.00     0.276 HD
ENDBRANCH  13  14
BRANCH  13  18
HETATM   18  N5  UNL     1       2.164 -24.659 -36.245  1.00  0.00    -0.050 N 
ATOM     19  H53 UNL     1       2.280 -25.538 -35.741  1.00  0.00     0.276 HD
ATOM     20  H52 UNL     1       2.626 -24.918 -37.117  1.00  0.00     0.276 HD
ATOM     21  H51 UNL     1       2.646 -23.891 -35.778  1.00  0.00     0.276 HD
ENDBRANCH  13  18
ENDBRANCH   2  13
TORSDOF 5
ENDMDL
