MODEL 1
REMARK VINA RESULT: -4.199295279      0.000      0.000
REMARK  4 active torsions:
REMARK  status: ('A' for Active; 'I' for Inactive)
REMARK    1  A    between atoms: N1_1  and  C1_5 
REMARK    2  A    between atoms: C1_5  and  C2_6 
REMARK    3  A    between atoms: C1_5  and  C4_9 
REMARK    4  A    between atoms: C2_6  and  C3_7 
ROOT
HETATM    1  C1  UNL     1      -0.005 -23.266 -21.067  1.00  0.00     0.252 C 
ENDROOT
BRANCH   1   2
HETATM    2  N1  UNL     1      -1.456 -22.898 -21.052  1.00  0.00    -0.068 N 
ATOM      3  H13 UNL     1      -2.038 -23.563 -20.543  1.00  0.00     0.275 HD
ATOM      4  H12 UNL     1      -1.663 -22.084 -20.474  1.00  0.00     0.275 HD
ATOM      5  H11 UNL     1      -1.731 -22.783 -22.028  1.00  0.00     0.275 HD
ENDBRANCH   1   2
BRANCH   1   6
HETATM    6  C2  UNL     1       0.066 -24.644 -21.589  1.00  0.00     0.052 C 
BRANCH   6   7
HETATM    7  C3  UNL     1      -0.749 -25.044 -22.754  1.00  0.00     0.088 C 
HETATM    8  S1  UNL     1      -1.836 -26.442 -22.554  1.00  0.00    -0.098 SA
ENDBRANCH   6   7
ENDBRANCH   1   6
BRANCH   1   9
HETATM    9  C4  UNL     1       0.743 -22.230 -21.791  1.00  0.00     0.120 A 
HETATM   10  N2  UNL     1       0.242 -21.482 -22.721  1.00  0.00    -0.362 N 
HETATM   11  C5  UNL     1       1.216 -20.560 -23.244  1.00  0.00     0.257 A 
ATOM     12  H2  UNL     1      -0.725 -21.538 -23.043  1.00  0.00     0.162 HD
HETATM   13  N3  UNL     1       2.433 -20.823 -22.552  1.00  0.00    -0.120 NA
HETATM   14  N4  UNL     1       2.078 -21.834 -21.656  1.00  0.00    -0.290 N 
ATOM     15  H4  UNL     1       2.722 -22.240 -20.977  1.00  0.00     0.183 HD
ENDBRANCH   1   9
TORSDOF 4
ENDMDL
MODEL 2
REMARK VINA RESULT: -4.079259233      1.691      1.701
REMARK  4 active torsions:
REMARK  status: ('A' for Active; 'I' for Inactive)
REMARK    1  A    between atoms: N1_1  and  C1_5 
REMARK    2  A    between atoms: C1_5  and  C2_6 
REMARK    3  A    between atoms: C1_5  and  C4_9 
REMARK    4  A    between atoms: C2_6  and  C3_7 
ROOT
HETATM    1  C1  UNL     1       0.102 -22.518 -21.580  1.00  0.00     0.252 C 
ENDROOT
BRANCH   1   2
HETATM    2  N1  UNL     1      -0.933 -22.728 -22.641  1.00  0.00    -0.068 N 
ATOM      3  H13 UNL     1      -0.582 -22.569 -23.586  1.00  0.00     0.275 HD
ATOM      4  H12 UNL     1      -1.193 -23.706 -22.767  1.00  0.00     0.275 HD
ATOM      5  H11 UNL     1      -1.720 -22.127 -22.395  1.00  0.00     0.275 HD
ENDBRANCH   1   2
BRANCH   1   6
HETATM    6  C2  UNL     1       0.442 -23.858 -21.066  1.00  0.00     0.052 C 
BRANCH   6   7
HETATM    7  C3  UNL     1      -0.623 -24.794 -20.654  1.00  0.00     0.088 C 
HETATM    8  S1  UNL     1      -1.563 -24.379 -19.198  1.00  0.00    -0.098 SA
ENDBRANCH   6   7
ENDBRANCH   1   6
BRANCH   1   9
HETATM    9  C4  UNL     1       1.196 -21.709 -22.133  1.00  0.00     0.120 A 
HETATM   10  N2  UNL     1       1.051 -20.826 -23.069  1.00  0.00    -0.362 N 
HETATM   11  C5  UNL     1       2.302 -20.195 -23.401  1.00  0.00     0.257 A 
ATOM     12  H2  UNL     1       0.161 -20.605 -23.515  1.00  0.00     0.162 HD
HETATM   13  N3  UNL     1       3.292 -20.802 -22.577  1.00  0.00    -0.120 NA
HETATM   14  N4  UNL     1       2.555 -21.700 -21.801  1.00  0.00    -0.290 N 
ATOM     15  H4  UNL     1       2.963 -22.285 -21.073  1.00  0.00     0.183 HD
ENDBRANCH   1   9
TORSDOF 4
ENDMDL
MODEL 3
REMARK VINA RESULT: -4.027974957      1.476      1.682
REMARK  4 active torsions:
REMARK  status: ('A' for Active; 'I' for Inactive)
REMARK    1  A    between atoms: N1_1  and  C1_5 
REMARK    2  A    between atoms: C1_5  and  C2_6 
REMARK    3  A    between atoms: C1_5  and  C4_9 
REMARK    4  A    between atoms: C2_6  and  C3_7 
ROOT
HETATM    1  C1  UNL     1      -0.512 -23.214 -21.594  1.00  0.00     0.252 C 
ENDROOT
BRANCH   1   2
HETATM    2  N1  UNL     1      -0.899 -24.063 -22.766  1.00  0.00    -0.068 N 
ATOM      3  H13 UNL     1      -0.185 -24.098 -23.494  1.00  0.00     0.275 HD
ATOM      4  H12 UNL     1      -0.913 -25.061 -22.556  1.00  0.00     0.275 HD
ATOM      5  H11 UNL     1      -1.796 -23.705 -23.094  1.00  0.00     0.275 HD
ENDBRANCH   1   2
BRANCH   1   6
HETATM    6  C2  UNL     1      -0.124 -24.147 -20.519  1.00  0.00     0.052 C 
BRANCH   6   7
HETATM    7  C3  UNL     1      -1.074 -24.476 -19.438  1.00  0.00     0.088 C 
HETATM    8  S1  UNL     1      -1.788 -26.109 -19.441  1.00  0.00    -0.098 SA
ENDBRANCH   6   7
ENDBRANCH   1   6
BRANCH   1   9
HETATM    9  C4  UNL     1       0.489 -22.231 -22.028  1.00  0.00     0.120 A 
HETATM   10  N2  UNL     1       0.289 -21.340 -22.947  1.00  0.00    -0.362 N 
HETATM   11  C5  UNL     1       1.453 -20.519 -23.153  1.00  0.00     0.257 A 
ATOM     12  H2  UNL     1      -0.586 -21.234 -23.460  1.00  0.00     0.162 HD
HETATM   13  N3  UNL     1       2.455 -21.008 -22.266  1.00  0.00    -0.120 NA
HETATM   14  N4  UNL     1       1.801 -22.036 -21.583  1.00  0.00    -0.290 N 
ATOM     15  H4  UNL     1       2.233 -22.586 -20.840  1.00  0.00     0.183 HD
ENDBRANCH   1   9
TORSDOF 4
ENDMDL
MODEL 4
REMARK VINA RESULT: -4.003872269      3.086      4.574
REMARK  4 active torsions:
REMARK  status: ('A' for Active; 'I' for Inactive)
REMARK    1  A    between atoms: N1_1  and  C1_5 
REMARK    2  A    between atoms: C1_5  and  C2_6 
REMARK    3  A    between atoms: C1_5  and  C4_9 
REMARK    4  A    between atoms: C2_6  and  C3_7 
ROOT
HETATM    1  C1  UNL     1       0.671 -21.676 -22.107  1.00  0.00     0.252 C 
ENDROOT
BRANCH   1   2
HETATM    2  N1  UNL     1       2.132 -21.623 -21.783  1.00  0.00    -0.068 N 
ATOM      3  H13 UNL     1       2.433 -20.720 -21.416  1.00  0.00     0.275 HD
ATOM      4  H12 UNL     1       2.388 -22.181 -20.968  1.00  0.00     0.275 HD
ATOM      5  H11 UNL     1       2.623 -21.898 -22.633  1.00  0.00     0.275 HD
ENDBRANCH   1   2
BRANCH   1   6
HETATM    6  C2  UNL     1       0.513 -21.003 -23.410  1.00  0.00     0.052 C 
BRANCH   6   7
HETATM    7  C3  UNL     1       0.818 -19.565 -23.550  1.00  0.00     0.088 C 
HETATM    8  S1  UNL     1       2.235 -19.118 -24.534  1.00  0.00    -0.098 SA
ENDBRANCH   6   7
ENDBRANCH   1   6
BRANCH   1   9
HETATM    9  C4  UNL     1       0.211 -23.067 -22.005  1.00  0.00     0.120 A 
HETATM   10  N2  UNL     1      -0.758 -23.570 -22.702  1.00  0.00    -0.362 N 
HETATM   11  C5  UNL     1      -0.978 -24.956 -22.383  1.00  0.00     0.257 A 
ATOM     12  H2  UNL     1      -1.298 -23.048 -23.392  1.00  0.00     0.162 HD
HETATM   13  N3  UNL     1      -0.042 -25.290 -21.362  1.00  0.00    -0.120 NA
HETATM   14  N4  UNL     1       0.678 -24.105 -21.191  1.00  0.00    -0.290 N 
ATOM     15  H4  UNL     1       1.459 -24.006 -20.542  1.00  0.00     0.183 HD
ENDBRANCH   1   9
TORSDOF 4
ENDMDL
MODEL 5
REMARK VINA RESULT: -3.996200199      2.005      2.213
REMARK  4 active torsions:
REMARK  status: ('A' for Active; 'I' for Inactive)
REMARK    1  A    between atoms: N1_1  and  C1_5 
REMARK    2  A    between atoms: C1_5  and  C2_6 
REMARK    3  A    between atoms: C1_5  and  C4_9 
REMARK    4  A    between atoms: C2_6  and  C3_7 
ROOT
HETATM    1  C1  UNL     1      -0.650 -23.749 -21.554  1.00  0.00     0.252 C 
ENDROOT
BRANCH   1   2
HETATM    2  N1  UNL     1      -0.260 -24.948 -22.361  1.00  0.00    -0.068 N 
ATOM      3  H13 UNL     1      -1.056 -25.432 -22.776  1.00  0.00     0.275 HD
ATOM      4  H12 UNL     1       0.213 -24.714 -23.233  1.00  0.00     0.275 HD
ATOM      5  H11 UNL     1       0.296 -25.539 -21.743  1.00  0.00     0.275 HD
ENDBRANCH   1   2
BRANCH   1   6
HETATM    6  C2  UNL     1      -0.703 -24.196 -20.149  1.00  0.00     0.052 C 
BRANCH   6   7
HETATM    7  C3  UNL     1      -1.836 -23.813 -19.285  1.00  0.00     0.088 C 
HETATM    8  S1  UNL     1      -3.140 -22.846 -20.021  1.00  0.00    -0.098 SA
ENDBRANCH   6   7
ENDBRANCH   1   6
BRANCH   1   9
HETATM    9  C4  UNL     1       0.259 -22.641 -21.876  1.00  0.00     0.120 A 
HETATM   10  N2  UNL     1       0.042 -21.761 -22.800  1.00  0.00    -0.362 N 
HETATM   11  C5  UNL     1       1.111 -20.800 -22.881  1.00  0.00     0.257 A 
ATOM     12  H2  UNL     1      -0.785 -21.751 -23.397  1.00  0.00     0.162 HD
HETATM   13  N3  UNL     1       2.074 -21.183 -21.904  1.00  0.00    -0.120 NA
HETATM   14  N4  UNL     1       1.488 -22.299 -21.300  1.00  0.00    -0.290 N 
ATOM     15  H4  UNL     1       1.910 -22.808 -20.524  1.00  0.00     0.183 HD
ENDBRANCH   1   9
TORSDOF 4
ENDMDL
