MODEL 1
REMARK VINA RESULT: -4.796189180      0.000      0.000
REMARK  4 active torsions:
REMARK  status: ('A' for Active; 'I' for Inactive)
REMARK    1  A    between atoms: N1_1  and  O1_4 
REMARK    2  A    between atoms: O1_4  and  C1_5 
REMARK    3  A    between atoms: C3_11  and  N4_12 
REMARK    4  A    between atoms: N4_12  and  C4_14 
ROOT
HETATM    1  C1  UNL     1       2.174 -19.920 -23.511  1.00  0.00     0.159 A 
HETATM    2  C2  UNL     1       1.510 -18.976 -24.258  1.00  0.00     0.150 A 
HETATM    3  N2  UNL     1       0.197 -19.190 -24.097  1.00  0.00    -0.307 N 
ATOM      4  H2  UNL     1      -0.552 -18.648 -24.527  1.00  0.00     0.186 HD
HETATM    5  N3  UNL     1       0.035 -20.223 -23.283  1.00  0.00    -0.284 N 
ATOM      6  H3  UNL     1      -0.872 -20.593 -22.996  1.00  0.00     0.188 HD
HETATM    7  C3  UNL     1       1.207 -20.716 -22.888  1.00  0.00     0.155 A 
ENDROOT
BRANCH   7   8
HETATM    8  N4  UNL     1       1.525 -21.803 -22.029  1.00  0.00    -0.344 N 
ATOM      9  H4  UNL     1       2.500 -22.062 -21.879  1.00  0.00     0.163 HD
BRANCH   8  10
HETATM   10  C4  UNL     1       0.482 -22.539 -21.369  1.00  0.00     0.311 A 
HETATM   11  C5  UNL     1      -0.113 -23.697 -21.966  1.00  0.00     0.289 A 
HETATM   12  N5  UNL     1       0.930 -23.925 -20.979  1.00  0.00    -0.049 N 
ATOM     13  H52 UNL     1       1.814 -24.432 -20.946  1.00  0.00     0.279 HD
ATOM     14  H51 UNL     1       1.021 -24.454 -20.112  1.00  0.00     0.279 HD
ENDBRANCH   8  10
ENDBRANCH   7   8
BRANCH   1  15
HETATM   15  O1  UNL     1       3.540 -20.087 -23.371  1.00  0.00    -0.240 OA
BRANCH  15  16
HETATM   16  N1  UNL     1       4.449 -19.089 -23.493  1.00  0.00    -0.305 N 
ATOM     17  H12 UNL     1       4.258 -18.378 -24.200  1.00  0.00     0.184 HD
ATOM     18  H11 UNL     1       5.297 -19.010 -22.931  1.00  0.00     0.184 HD
ENDBRANCH  15  16
ENDBRANCH   1  15
TORSDOF 4
ENDMDL
MODEL 2
REMARK VINA RESULT: -4.546968855      2.996      3.841
REMARK  4 active torsions:
REMARK  status: ('A' for Active; 'I' for Inactive)
REMARK    1  A    between atoms: N1_1  and  O1_4 
REMARK    2  A    between atoms: O1_4  and  C1_5 
REMARK    3  A    between atoms: C3_11  and  N4_12 
REMARK    4  A    between atoms: N4_12  and  C4_14 
ROOT
HETATM    1  C1  UNL     1      -0.121 -22.653 -22.257  1.00  0.00     0.159 A 
HETATM    2  C2  UNL     1      -0.456 -22.031 -23.436  1.00  0.00     0.150 A 
HETATM    3  N2  UNL     1      -1.114 -22.926 -24.186  1.00  0.00    -0.307 N 
ATOM      4  H2  UNL     1      -1.491 -22.760 -25.119  1.00  0.00     0.186 HD
HETATM    5  N3  UNL     1      -1.193 -24.065 -23.512  1.00  0.00    -0.284 N 
ATOM      6  H3  UNL     1      -1.647 -24.909 -23.860  1.00  0.00     0.188 HD
HETATM    7  C3  UNL     1      -0.603 -23.964 -22.322  1.00  0.00     0.155 A 
ENDROOT
BRANCH   7   8
HETATM    8  N4  UNL     1      -0.442 -24.909 -21.273  1.00  0.00    -0.344 N 
ATOM      9  H4  UNL     1       0.430 -25.430 -21.191  1.00  0.00     0.163 HD
BRANCH   8  10
HETATM   10  C4  UNL     1      -1.500 -25.136 -20.329  1.00  0.00     0.311 A 
HETATM   11  C5  UNL     1      -1.478 -26.250 -19.428  1.00  0.00     0.289 A 
HETATM   12  N5  UNL     1      -1.031 -24.969 -18.905  1.00  0.00    -0.049 N 
ATOM     13  H52 UNL     1      -0.196 -24.613 -18.441  1.00  0.00     0.279 HD
ATOM     14  H51 UNL     1      -1.272 -24.370 -18.115  1.00  0.00     0.279 HD
ENDBRANCH   8  10
ENDBRANCH   7   8
BRANCH   1  15
HETATM   15  O1  UNL     1       0.565 -22.119 -21.180  1.00  0.00    -0.240 OA
BRANCH  15  16
HETATM   16  N1  UNL     1       1.911 -21.958 -21.134  1.00  0.00    -0.305 N 
ATOM     17  H12 UNL     1       2.476 -22.805 -21.186  1.00  0.00     0.184 HD
ATOM     18  H11 UNL     1       2.380 -21.056 -21.051  1.00  0.00     0.184 HD
ENDBRANCH  15  16
ENDBRANCH   1  15
TORSDOF 4
ENDMDL
MODEL 3
REMARK VINA RESULT: -4.465902581      2.021      4.198
REMARK  4 active torsions:
REMARK  status: ('A' for Active; 'I' for Inactive)
REMARK    1  A    between atoms: N1_1  and  O1_4 
REMARK    2  A    between atoms: O1_4  and  C1_5 
REMARK    3  A    between atoms: C3_11  and  N4_12 
REMARK    4  A    between atoms: N4_12  and  C4_14 
ROOT
HETATM    1  C1  UNL     1       0.067 -22.447 -22.149  1.00  0.00     0.159 A 
HETATM    2  C2  UNL     1      -0.532 -23.667 -22.351  1.00  0.00     0.150 A 
HETATM    3  N2  UNL     1      -1.092 -23.640 -23.569  1.00  0.00    -0.307 N 
ATOM      4  H2  UNL     1      -1.611 -24.403 -24.003  1.00  0.00     0.186 HD
HETATM    5  N3  UNL     1      -0.859 -22.455 -24.114  1.00  0.00    -0.284 N 
ATOM      6  H3  UNL     1      -1.179 -22.175 -25.041  1.00  0.00     0.188 HD
HETATM    7  C3  UNL     1      -0.153 -21.676 -23.296  1.00  0.00     0.155 A 
ENDROOT
BRANCH   7   8
HETATM    8  N4  UNL     1       0.326 -20.347 -23.448  1.00  0.00    -0.344 N 
ATOM      9  H4  UNL     1      -0.092 -19.592 -22.904  1.00  0.00     0.163 HD
BRANCH   8  10
HETATM   10  C4  UNL     1       1.395 -20.058 -24.363  1.00  0.00     0.311 A 
HETATM   11  C5  UNL     1       1.998 -18.760 -24.430  1.00  0.00     0.289 A 
HETATM   12  N5  UNL     1       2.690 -19.770 -23.645  1.00  0.00    -0.049 N 
ATOM     13  H52 UNL     1       3.037 -19.851 -22.690  1.00  0.00     0.279 HD
ATOM     14  H51 UNL     1       3.626 -20.173 -23.624  1.00  0.00     0.279 HD
ENDBRANCH   8  10
ENDBRANCH   7   8
BRANCH   1  15
HETATM   15  O1  UNL     1       0.768 -22.018 -21.035  1.00  0.00    -0.240 OA
BRANCH  15  16
HETATM   16  N1  UNL     1       2.114 -21.866 -20.990  1.00  0.00    -0.305 N 
ATOM     17  H12 UNL     1       2.676 -22.699 -21.165  1.00  0.00     0.184 HD
ATOM     18  H11 UNL     1       2.588 -20.984 -20.794  1.00  0.00     0.184 HD
ENDBRANCH  15  16
ENDBRANCH   1  15
TORSDOF 4
ENDMDL
MODEL 4
REMARK VINA RESULT: -4.319890595      1.481      1.516
REMARK  4 active torsions:
REMARK  status: ('A' for Active; 'I' for Inactive)
REMARK    1  A    between atoms: N1_1  and  O1_4 
REMARK    2  A    between atoms: O1_4  and  C1_5 
REMARK    3  A    between atoms: C3_11  and  N4_12 
REMARK    4  A    between atoms: N4_12  and  C4_14 
ROOT
HETATM    1  C1  UNL     1       2.287 -20.497 -23.106  1.00  0.00     0.159 A 
HETATM    2  C2  UNL     1       2.419 -19.387 -23.905  1.00  0.00     0.150 A 
HETATM    3  N2  UNL     1       1.186 -19.009 -24.271  1.00  0.00    -0.307 N 
ATOM      4  H2  UNL     1       0.959 -18.213 -24.867  1.00  0.00     0.186 HD
HETATM    5  N3  UNL     1       0.311 -19.843 -23.728  1.00  0.00    -0.284 N 
ATOM      6  H3  UNL     1      -0.700 -19.777 -23.850  1.00  0.00     0.188 HD
HETATM    7  C3  UNL     1       0.921 -20.778 -23.002  1.00  0.00     0.155 A 
ENDROOT
BRANCH   7   8
HETATM    8  N4  UNL     1       0.402 -21.865 -22.247  1.00  0.00    -0.344 N 
ATOM      9  H4  UNL     1       0.979 -22.305 -21.530  1.00  0.00     0.163 HD
BRANCH   8  10
HETATM   10  C4  UNL     1      -0.928 -22.349 -22.487  1.00  0.00     0.311 A 
HETATM   11  C5  UNL     1      -1.283 -22.997 -23.715  1.00  0.00     0.289 A 
HETATM   12  N5  UNL     1      -0.974 -23.854 -22.582  1.00  0.00    -0.049 N 
ATOM     13  H52 UNL     1      -0.332 -24.624 -22.394  1.00  0.00     0.279 HD
ATOM     14  H51 UNL     1      -1.440 -24.610 -22.081  1.00  0.00     0.279 HD
ENDBRANCH   8  10
ENDBRANCH   7   8
BRANCH   1  15
HETATM   15  O1  UNL     1       3.291 -21.231 -22.498  1.00  0.00    -0.240 OA
BRANCH  15  16
HETATM   16  N1  UNL     1       4.610 -20.928 -22.570  1.00  0.00    -0.305 N 
ATOM     17  H12 UNL     1       5.053 -21.017 -23.484  1.00  0.00     0.184 HD
ATOM     18  H11 UNL     1       5.174 -20.623 -21.776  1.00  0.00     0.184 HD
ENDBRANCH  15  16
ENDBRANCH   1  15
TORSDOF 4
ENDMDL
MODEL 5
REMARK VINA RESULT: -4.318815655      1.571      4.064
REMARK  4 active torsions:
REMARK  status: ('A' for Active; 'I' for Inactive)
REMARK    1  A    between atoms: N1_1  and  O1_4 
REMARK    2  A    between atoms: O1_4  and  C1_5 
REMARK    3  A    between atoms: C3_11  and  N4_12 
REMARK    4  A    between atoms: N4_12  and  C4_14 
ROOT
HETATM    1  C1  UNL     1       1.023 -20.977 -22.767  1.00  0.00     0.159 A 
HETATM    2  C2  UNL     1      -0.013 -21.826 -22.457  1.00  0.00     0.150 A 
HETATM    3  N2  UNL     1      -1.141 -21.261 -22.909  1.00  0.00    -0.307 N 
ATOM      4  H2  UNL     1      -2.079 -21.654 -22.828  1.00  0.00     0.186 HD
HETATM    5  N3  UNL     1      -0.835 -20.105 -23.480  1.00  0.00    -0.284 N 
ATOM      6  H3  UNL     1      -1.515 -19.475 -23.906  1.00  0.00     0.188 HD
HETATM    7  C3  UNL     1       0.475 -19.872 -23.426  1.00  0.00     0.155 A 
ENDROOT
BRANCH   7   8
HETATM    8  N4  UNL     1       1.253 -18.781 -23.901  1.00  0.00    -0.344 N 
ATOM      9  H4  UNL     1       0.989 -17.826 -23.657  1.00  0.00     0.163 HD
BRANCH   8  10
HETATM   10  C4  UNL     1       2.409 -19.013 -24.721  1.00  0.00     0.311 A 
HETATM   11  C5  UNL     1       3.266 -17.942 -25.133  1.00  0.00     0.289 A 
HETATM   12  N5  UNL     1       3.693 -18.724 -23.984  1.00  0.00    -0.049 N 
ATOM     13  H52 UNL     1       3.961 -18.531 -23.019  1.00  0.00     0.279 HD
ATOM     14  H51 UNL     1       4.524 -19.251 -23.718  1.00  0.00     0.279 HD
ENDBRANCH   8  10
ENDBRANCH   7   8
BRANCH   1  15
HETATM   15  O1  UNL     1       2.369 -21.145 -22.496  1.00  0.00    -0.240 OA
BRANCH  15  16
HETATM   16  N1  UNL     1       2.862 -21.591 -21.314  1.00  0.00    -0.305 N 
ATOM     17  H12 UNL     1       2.259 -22.207 -20.769  1.00  0.00     0.184 HD
ATOM     18  H11 UNL     1       3.782 -21.349 -20.946  1.00  0.00     0.184 HD
ENDBRANCH  15  16
ENDBRANCH   1  15
TORSDOF 4
ENDMDL
