MODEL 1
REMARK VINA RESULT: -4.267470491      0.000      0.000
REMARK  5 active torsions:
REMARK  status: ('A' for Active; 'I' for Inactive)
REMARK    1  A    between atoms: N1_1  and  N2_4 
REMARK    2  A    between atoms: N2_4  and  C1_6 
REMARK    3  A    between atoms: C3_12  and  C4_13 
REMARK    4  A    between atoms: C4_13  and  N5_14 
REMARK    5  A    between atoms: C4_13  and  C5_18 
ROOT
HETATM    1  C1  UNL     1       0.791 -22.081 -21.920  1.00  0.00     0.146 A 
HETATM    2  N3  UNL     1       1.764 -21.237 -22.341  1.00  0.00    -0.336 N 
ATOM      3  H3  UNL     1       2.725 -21.249 -22.001  1.00  0.00     0.168 HD
HETATM    4  C2  UNL     1       1.292 -20.374 -23.274  1.00  0.00     0.182 A 
HETATM    5  N4  UNL     1       0.006 -20.689 -23.429  1.00  0.00    -0.351 N 
ATOM      6  H4  UNL     1      -0.636 -20.217 -24.066  1.00  0.00     0.166 HD
HETATM    7  C3  UNL     1      -0.331 -21.732 -22.616  1.00  0.00     0.093 A 
ENDROOT
BRANCH   7   8
HETATM    8  C4  UNL     1      -1.681 -22.350 -22.525  1.00  0.00     0.297 C 
BRANCH   8   9
HETATM    9  N5  UNL     1      -2.669 -21.325 -22.560  1.00  0.00    -0.063 N 
ATOM     10  H53 UNL     1      -2.668 -20.758 -21.711  1.00  0.00     0.275 HD
ATOM     11  H52 UNL     1      -2.439 -20.587 -23.226  1.00  0.00     0.275 HD
ATOM     12  H51 UNL     1      -3.581 -21.742 -22.745  1.00  0.00     0.275 HD
ENDBRANCH   8   9
BRANCH   8  13
HETATM   13  C5  UNL     1      -1.928 -23.379 -23.539  1.00  0.00     0.270 C 
HETATM   14  O1  UNL     1      -1.296 -23.347 -24.581  1.00  0.00    -0.304 OA
ENDBRANCH   8  13
ENDBRANCH   7   8
BRANCH   1  15
HETATM   15  N2  UNL     1       0.915 -23.128 -20.949  1.00  0.00    -0.290 N 
ATOM     16  H2  UNL     1       1.046 -22.898 -19.964  1.00  0.00     0.188 HD
BRANCH  15  17
HETATM   17  N1  UNL     1       0.855 -24.472 -21.355  1.00  0.00    -0.344 N 
ATOM     18  H12 UNL     1       1.659 -25.078 -21.183  1.00  0.00     0.176 HD
ATOM     19  H11 UNL     1       0.017 -24.829 -21.814  1.00  0.00     0.176 HD
ENDBRANCH  15  17
ENDBRANCH   1  15
TORSDOF 5
ENDMDL
MODEL 2
REMARK VINA RESULT: -4.130060560      2.780      4.110
REMARK  5 active torsions:
REMARK  status: ('A' for Active; 'I' for Inactive)
REMARK    1  A    between atoms: N1_1  and  N2_4 
REMARK    2  A    between atoms: N2_4  and  C1_6 
REMARK    3  A    between atoms: C3_12  and  C4_13 
REMARK    4  A    between atoms: C4_13  and  N5_14 
REMARK    5  A    between atoms: C4_13  and  C5_18 
ROOT
HETATM    1  C1  UNL     1      -1.860 -23.617 -19.752  1.00  0.00     0.146 A 
HETATM    2  N3  UNL     1      -3.094 -23.113 -19.997  1.00  0.00    -0.336 N 
ATOM      3  H3  UNL     1      -3.914 -23.285 -19.415  1.00  0.00     0.168 HD
HETATM    4  C2  UNL     1      -3.096 -22.350 -21.117  1.00  0.00     0.182 A 
HETATM    5  N4  UNL     1      -1.844 -22.386 -21.573  1.00  0.00    -0.351 N 
ATOM      6  H4  UNL     1      -1.516 -21.909 -22.413  1.00  0.00     0.166 HD
HETATM    7  C3  UNL     1      -1.062 -23.152 -20.757  1.00  0.00     0.093 A 
ENDROOT
BRANCH   7   8
HETATM    8  C4  UNL     1       0.389 -23.414 -20.956  1.00  0.00     0.297 C 
BRANCH   8   9
HETATM    9  N5  UNL     1       0.550 -24.621 -21.694  1.00  0.00    -0.063 N 
ATOM     10  H53 UNL     1      -0.046 -24.652 -22.521  1.00  0.00     0.275 HD
ATOM     11  H52 UNL     1       1.454 -24.669 -22.166  1.00  0.00     0.275 HD
ATOM     12  H51 UNL     1       0.395 -25.417 -21.075  1.00  0.00     0.275 HD
ENDBRANCH   8   9
BRANCH   8  13
HETATM   13  C5  UNL     1       1.110 -22.297 -21.574  1.00  0.00     0.270 C 
HETATM   14  O1  UNL     1       1.717 -21.518 -20.859  1.00  0.00    -0.304 OA
ENDBRANCH   8  13
ENDBRANCH   7   8
BRANCH   1  15
HETATM   15  N2  UNL     1      -1.471 -24.460 -18.659  1.00  0.00    -0.290 N 
ATOM     16  H2  UNL     1      -1.348 -24.063 -17.727  1.00  0.00     0.188 HD
BRANCH  15  17
HETATM   17  N1  UNL     1      -1.258 -25.832 -18.872  1.00  0.00    -0.344 N 
ATOM     18  H12 UNL     1      -0.318 -26.212 -18.755  1.00  0.00     0.176 HD
ATOM     19  H11 UNL     1      -2.037 -26.433 -19.139  1.00  0.00     0.176 HD
ENDBRANCH  15  17
ENDBRANCH   1  15
TORSDOF 5
ENDMDL
MODEL 3
REMARK VINA RESULT: -4.007809907      1.436      1.862
REMARK  5 active torsions:
REMARK  status: ('A' for Active; 'I' for Inactive)
REMARK    1  A    between atoms: N1_1  and  N2_4 
REMARK    2  A    between atoms: N2_4  and  C1_6 
REMARK    3  A    between atoms: C3_12  and  C4_13 
REMARK    4  A    between atoms: C4_13  and  N5_14 
REMARK    5  A    between atoms: C4_13  and  C5_18 
ROOT
HETATM    1  C1  UNL     1      -0.183 -23.775 -21.083  1.00  0.00     0.146 A 
HETATM    2  N3  UNL     1       1.064 -23.265 -20.942  1.00  0.00    -0.336 N 
ATOM      3  H3  UNL     1       1.794 -23.678 -20.363  1.00  0.00     0.168 HD
HETATM    4  C2  UNL     1       1.213 -22.132 -21.672  1.00  0.00     0.182 A 
HETATM    5  N4  UNL     1       0.039 -21.939 -22.270  1.00  0.00    -0.351 N 
ATOM      6  H4  UNL     1      -0.176 -21.161 -22.894  1.00  0.00     0.166 HD
HETATM    7  C3  UNL     1      -0.837 -22.930 -21.932  1.00  0.00     0.093 A 
ENDROOT
BRANCH   7   8
HETATM    8  C4  UNL     1      -2.240 -23.038 -22.415  1.00  0.00     0.297 C 
BRANCH   8   9
HETATM    9  N5  UNL     1      -2.920 -21.813 -22.158  1.00  0.00    -0.063 N 
ATOM     10  H53 UNL     1      -2.411 -21.218 -21.505  1.00  0.00     0.275 HD
ATOM     11  H52 UNL     1      -2.908 -21.186 -22.964  1.00  0.00     0.275 HD
ATOM     12  H51 UNL     1      -3.868 -22.015 -21.840  1.00  0.00     0.275 HD
ENDBRANCH   8   9
BRANCH   8  13
HETATM   13  C5  UNL     1      -2.351 -23.438 -23.821  1.00  0.00     0.270 C 
HETATM   14  O1  UNL     1      -1.360 -23.395 -24.529  1.00  0.00    -0.304 OA
ENDBRANCH   8  13
ENDBRANCH   7   8
BRANCH   1  15
HETATM   15  N2  UNL     1      -0.708 -24.961 -20.472  1.00  0.00    -0.290 N 
ATOM     16  H2  UNL     1      -0.934 -25.774 -21.046  1.00  0.00     0.188 HD
BRANCH  15  17
HETATM   17  N1  UNL     1      -0.910 -25.005 -19.082  1.00  0.00    -0.344 N 
ATOM     18  H12 UNL     1      -0.798 -24.149 -18.538  1.00  0.00     0.176 HD
ATOM     19  H11 UNL     1      -1.165 -25.883 -18.631  1.00  0.00     0.176 HD
ENDBRANCH  15  17
ENDBRANCH   1  15
TORSDOF 5
ENDMDL
MODEL 4
REMARK VINA RESULT: -3.985501094      2.119      3.479
REMARK  5 active torsions:
REMARK  status: ('A' for Active; 'I' for Inactive)
REMARK    1  A    between atoms: N1_1  and  N2_4 
REMARK    2  A    between atoms: N2_4  and  C1_6 
REMARK    3  A    between atoms: C3_12  and  C4_13 
REMARK    4  A    between atoms: C4_13  and  N5_14 
REMARK    5  A    between atoms: C4_13  and  C5_18 
ROOT
HETATM    1  C1  UNL     1      -0.599 -23.293 -22.908  1.00  0.00     0.146 A 
HETATM    2  N3  UNL     1      -0.333 -24.135 -21.880  1.00  0.00    -0.336 N 
ATOM      3  H3  UNL     1      -0.700 -25.083 -21.800  1.00  0.00     0.168 HD
HETATM    4  C2  UNL     1       0.485 -23.550 -20.970  1.00  0.00     0.182 A 
HETATM    5  N4  UNL     1       0.725 -22.328 -21.443  1.00  0.00    -0.351 N 
ATOM      6  H4  UNL     1       1.310 -21.630 -20.983  1.00  0.00     0.166 HD
HETATM    7  C3  UNL     1       0.078 -22.141 -22.631  1.00  0.00     0.093 A 
ENDROOT
BRANCH   7   8
HETATM    8  C4  UNL     1       0.120 -20.896 -23.445  1.00  0.00     0.297 C 
BRANCH   8   9
HETATM    9  N5  UNL     1      -1.043 -20.120 -23.177  1.00  0.00    -0.063 N 
ATOM     10  H53 UNL     1      -0.821 -19.232 -22.726  1.00  0.00     0.275 HD
ATOM     11  H52 UNL     1      -1.466 -19.748 -24.029  1.00  0.00     0.275 HD
ATOM     12  H51 UNL     1      -1.700 -20.677 -22.631  1.00  0.00     0.275 HD
ENDBRANCH   8   9
BRANCH   8  13
HETATM   13  C5  UNL     1       1.348 -20.117 -23.268  1.00  0.00     0.270 C 
HETATM   14  O1  UNL     1       2.387 -20.699 -23.005  1.00  0.00    -0.304 OA
ENDBRANCH   8  13
ENDBRANCH   7   8
BRANCH   1  15
HETATM   15  N2  UNL     1      -1.416 -23.560 -24.055  1.00  0.00    -0.290 N 
ATOM     16  H2  UNL     1      -0.997 -23.944 -24.903  1.00  0.00     0.188 HD
BRANCH  15  17
HETATM   17  N1  UNL     1      -2.795 -23.293 -24.013  1.00  0.00    -0.344 N 
ATOM     18  H12 UNL     1      -3.441 -24.054 -23.800  1.00  0.00     0.176 HD
ATOM     19  H11 UNL     1      -3.137 -22.349 -24.192  1.00  0.00     0.176 HD
ENDBRANCH  15  17
ENDBRANCH   1  15
TORSDOF 5
ENDMDL
MODEL 5
REMARK VINA RESULT: -3.920971773      2.169      3.394
REMARK  5 active torsions:
REMARK  status: ('A' for Active; 'I' for Inactive)
REMARK    1  A    between atoms: N1_1  and  N2_4 
REMARK    2  A    between atoms: N2_4  and  C1_6 
REMARK    3  A    between atoms: C3_12  and  C4_13 
REMARK    4  A    between atoms: C4_13  and  N5_14 
REMARK    5  A    between atoms: C4_13  and  C5_18 
ROOT
HETATM    1  C1  UNL     1       0.735 -22.131 -22.047  1.00  0.00     0.146 A 
HETATM    2  N3  UNL     1       0.021 -23.281 -22.092  1.00  0.00    -0.336 N 
ATOM      3  H3  UNL     1       0.198 -24.094 -21.504  1.00  0.00     0.168 HD
HETATM    4  C2  UNL     1      -0.962 -23.208 -23.024  1.00  0.00     0.182 A 
HETATM    5  N4  UNL     1      -0.850 -21.995 -23.563  1.00  0.00    -0.351 N 
ATOM      6  H4  UNL     1      -1.448 -21.629 -24.304  1.00  0.00     0.166 HD
HETATM    7  C3  UNL     1       0.178 -21.309 -22.984  1.00  0.00     0.093 A 
ENDROOT
BRANCH   7   8
HETATM    8  C4  UNL     1       0.592 -19.924 -23.335  1.00  0.00     0.297 C 
BRANCH   8   9
HETATM    9  N5  UNL     1       1.485 -19.968 -24.444  1.00  0.00    -0.063 N 
ATOM     10  H53 UNL     1       1.839 -20.909 -24.618  1.00  0.00     0.275 HD
ATOM     11  H52 UNL     1       1.006 -19.826 -25.333  1.00  0.00     0.275 HD
ATOM     12  H51 UNL     1       2.236 -19.293 -24.298  1.00  0.00     0.275 HD
ENDBRANCH   8   9
BRANCH   8  13
HETATM   13  C5  UNL     1      -0.532 -19.015 -23.577  1.00  0.00     0.270 C 
HETATM   14  O1  UNL     1      -0.652 -18.023 -22.879  1.00  0.00    -0.304 OA
ENDBRANCH   8  13
ENDBRANCH   7   8
BRANCH   1  15
HETATM   15  N2  UNL     1       1.843 -21.834 -21.187  1.00  0.00    -0.290 N 
ATOM     16  H2  UNL     1       1.711 -21.804 -20.176  1.00  0.00     0.188 HD
BRANCH  15  17
HETATM   17  N1  UNL     1       3.112 -21.583 -21.737  1.00  0.00    -0.344 N 
ATOM     18  H12 UNL     1       3.213 -20.843 -22.432  1.00  0.00     0.176 HD
ATOM     19  H11 UNL     1       3.915 -22.137 -21.440  1.00  0.00     0.176 HD
ENDBRANCH  15  17
ENDBRANCH   1  15
TORSDOF 5
ENDMDL
