MODEL 1
REMARK VINA RESULT: -4.301148311      0.000      0.000
REMARK  5 active torsions:
REMARK  status: ('A' for Active; 'I' for Inactive)
REMARK    1  A    between atoms: N1_2  and  C2_5 
REMARK    2  A    between atoms: C2_5  and  O1_6 
REMARK    3  A    between atoms: C2_5  and  C3_8 
REMARK    4  A    between atoms: C3_8  and  N2_9 
REMARK    5  A    between atoms: C3_8  and  C4_13 
ROOT
HETATM    1  C3  UNL     1       0.964 -20.355 -23.655  1.00  0.00     0.308 C 
ENDROOT
BRANCH   1   2
HETATM    2  C2  UNL     1      -0.284 -19.538 -23.688  1.00  0.00     0.356 C 
BRANCH   2   3
HETATM    3  N1  UNL     1      -1.413 -20.119 -23.017  1.00  0.00    -0.050 N 
HETATM    4  C1  UNL     1      -2.465 -19.089 -22.920  1.00  0.00     0.270 C 
ATOM      5  H12 UNL     1      -1.169 -20.521 -22.112  1.00  0.00     0.279 HD
ATOM      6  H11 UNL     1      -1.739 -20.976 -23.463  1.00  0.00     0.279 HD
ENDBRANCH   2   3
BRANCH   2   7
HETATM    7  O1  UNL     1      -0.026 -18.306 -23.040  1.00  0.00    -0.368 OA
ATOM      8  H1  UNL     1       0.173 -17.679 -23.725  1.00  0.00     0.212 HD
ENDBRANCH   2   7
ENDBRANCH   1   2
BRANCH   1   9
HETATM    9  N2  UNL     1       1.114 -21.173 -22.509  1.00  0.00    -0.064 N 
ATOM     10  H23 UNL     1       0.293 -21.767 -22.391  1.00  0.00     0.275 HD
ATOM     11  H22 UNL     1       1.825 -21.885 -22.676  1.00  0.00     0.275 HD
ATOM     12  H21 UNL     1       1.314 -20.671 -21.644  1.00  0.00     0.275 HD
ENDBRANCH   1   9
BRANCH   1  13
HETATM   13  C4  UNL     1       2.196 -19.524 -23.914  1.00  0.00     0.148 A 
HETATM   14  N3  UNL     1       2.341 -18.486 -24.729  1.00  0.00    -0.270 N 
HETATM   15  N4  UNL     1       3.592 -18.075 -24.654  1.00  0.00    -0.227 N 
ATOM     16  H3  UNL     1       1.611 -18.078 -25.313  1.00  0.00     0.190 HD
HETATM   17  N5  UNL     1       4.265 -18.844 -23.787  1.00  0.00    -0.227 N 
ATOM     18  H4  UNL     1       3.987 -17.292 -25.174  1.00  0.00     0.210 HD
HETATM   19  N6  UNL     1       3.397 -19.726 -23.343  1.00  0.00    -0.270 N 
ATOM     20  H5  UNL     1       5.248 -18.763 -23.525  1.00  0.00     0.210 HD
ATOM     21  H6  UNL     1       3.604 -20.459 -22.664  1.00  0.00     0.190 HD
ENDBRANCH   1  13
TORSDOF 5
ENDMDL
MODEL 2
REMARK VINA RESULT: -4.189019253      1.837      4.402
REMARK  5 active torsions:
REMARK  status: ('A' for Active; 'I' for Inactive)
REMARK    1  A    between atoms: N1_2  and  C2_5 
REMARK    2  A    between atoms: C2_5  and  O1_6 
REMARK    3  A    between atoms: C2_5  and  C3_8 
REMARK    4  A    between atoms: C3_8  and  N2_9 
REMARK    5  A    between atoms: C3_8  and  C4_13 
ROOT
HETATM    1  C3  UNL     1      -0.194 -20.951 -23.323  1.00  0.00     0.308 C 
ENDROOT
BRANCH   1   2
HETATM    2  C2  UNL     1       0.854 -19.891 -23.400  1.00  0.00     0.356 C 
BRANCH   2   3
HETATM    3  N1  UNL     1       1.614 -19.870 -24.618  1.00  0.00    -0.050 N 
HETATM    4  C1  UNL     1       2.594 -18.771 -24.525  1.00  0.00     0.270 C 
ATOM      5  H12 UNL     1       1.026 -19.805 -25.449  1.00  0.00     0.279 HD
ATOM      6  H11 UNL     1       2.047 -20.769 -24.829  1.00  0.00     0.279 HD
ENDBRANCH   2   3
BRANCH   2   7
HETATM    7  O1  UNL     1       0.218 -18.631 -23.306  1.00  0.00    -0.368 OA
ATOM      8  H1  UNL     1      -0.024 -18.521 -22.393  1.00  0.00     0.212 HD
ENDBRANCH   2   7
ENDBRANCH   1   2
BRANCH   1   9
HETATM    9  N2  UNL     1      -1.501 -20.482 -23.050  1.00  0.00    -0.064 N 
ATOM     10  H23 UNL     1      -1.467 -19.519 -22.714  1.00  0.00     0.275 HD
ATOM     11  H22 UNL     1      -2.015 -20.347 -23.921  1.00  0.00     0.275 HD
ATOM     12  H21 UNL     1      -2.042 -21.061 -22.408  1.00  0.00     0.275 HD
ENDBRANCH   1   9
BRANCH   1  13
HETATM   13  C4  UNL     1       0.201 -22.077 -22.400  1.00  0.00     0.148 A 
HETATM   14  N3  UNL     1       1.233 -22.145 -21.568  1.00  0.00    -0.270 N 
HETATM   15  N4  UNL     1       1.202 -23.320 -20.968  1.00  0.00    -0.227 N 
ATOM     16  H3  UNL     1       1.931 -21.415 -21.418  1.00  0.00     0.190 HD
HETATM   17  N5  UNL     1       0.147 -24.019 -21.408  1.00  0.00    -0.227 N 
ATOM     18  H4  UNL     1       1.877 -23.645 -20.277  1.00  0.00     0.210 HD
HETATM   19  N6  UNL     1      -0.456 -23.246 -22.284  1.00  0.00    -0.270 N 
ATOM     20  H5  UNL     1      -0.132 -24.958 -21.123  1.00  0.00     0.210 HD
ATOM     21  H6  UNL     1      -1.299 -23.495 -22.801  1.00  0.00     0.190 HD
ENDBRANCH   1  13
TORSDOF 5
ENDMDL
MODEL 3
REMARK VINA RESULT: -4.183626592      3.217      5.421
REMARK  5 active torsions:
REMARK  status: ('A' for Active; 'I' for Inactive)
REMARK    1  A    between atoms: N1_2  and  C2_5 
REMARK    2  A    between atoms: C2_5  and  O1_6 
REMARK    3  A    between atoms: C2_5  and  C3_8 
REMARK    4  A    between atoms: C3_8  and  N2_9 
REMARK    5  A    between atoms: C3_8  and  C4_13 
ROOT
HETATM    1  C3  UNL     1       0.454 -22.023 -22.747  1.00  0.00     0.308 C 
ENDROOT
BRANCH   1   2
HETATM    2  C2  UNL     1       0.688 -22.365 -21.313  1.00  0.00     0.356 C 
BRANCH   2   3
HETATM    3  N1  UNL     1       0.955 -23.752 -21.052  1.00  0.00    -0.050 N 
HETATM    4  C1  UNL     1      -0.208 -24.313 -20.338  1.00  0.00     0.270 C 
ATOM      5  H12 UNL     1       1.833 -23.898 -20.553  1.00  0.00     0.279 HD
ATOM      6  H11 UNL     1       1.190 -24.274 -21.896  1.00  0.00     0.279 HD
ENDBRANCH   2   3
BRANCH   2   7
HETATM    7  O1  UNL     1       1.825 -21.650 -20.866  1.00  0.00    -0.368 OA
ATOM      8  H1  UNL     1       2.539 -22.276 -20.834  1.00  0.00     0.212 HD
ENDBRANCH   2   7
ENDBRANCH   1   2
BRANCH   1   9
HETATM    9  N2  UNL     1       0.787 -20.695 -23.107  1.00  0.00    -0.064 N 
ATOM     10  H23 UNL     1       1.167 -20.672 -24.054  1.00  0.00     0.275 HD
ATOM     11  H22 UNL     1      -0.060 -20.144 -23.242  1.00  0.00     0.275 HD
ATOM     12  H21 UNL     1       1.418 -20.218 -22.463  1.00  0.00     0.275 HD
ENDBRANCH   1   9
BRANCH   1  13
HETATM   13  C4  UNL     1      -0.935 -22.394 -23.201  1.00  0.00     0.148 A 
HETATM   14  N3  UNL     1      -1.304 -23.349 -24.047  1.00  0.00    -0.270 N 
HETATM   15  N4  UNL     1      -2.617 -23.308 -24.167  1.00  0.00    -0.227 N 
ATOM     16  H3  UNL     1      -0.680 -24.001 -24.523  1.00  0.00     0.190 HD
HETATM   17  N5  UNL     1      -3.107 -22.326 -23.397  1.00  0.00    -0.227 N 
ATOM     18  H4  UNL     1      -3.174 -23.927 -24.755  1.00  0.00     0.210 HD
HETATM   19  N6  UNL     1      -2.065 -21.777 -22.813  1.00  0.00    -0.270 N 
ATOM     20  H5  UNL     1      -4.086 -22.061 -23.286  1.00  0.00     0.210 HD
ATOM     21  H6  UNL     1      -2.108 -20.995 -22.159  1.00  0.00     0.190 HD
ENDBRANCH   1  13
TORSDOF 5
ENDMDL
MODEL 4
REMARK VINA RESULT: -4.176740201      1.563      2.270
REMARK  5 active torsions:
REMARK  status: ('A' for Active; 'I' for Inactive)
REMARK    1  A    between atoms: N1_2  and  C2_5 
REMARK    2  A    between atoms: C2_5  and  O1_6 
REMARK    3  A    between atoms: C2_5  and  C3_8 
REMARK    4  A    between atoms: C3_8  and  N2_9 
REMARK    5  A    between atoms: C3_8  and  C4_13 
ROOT
HETATM    1  C3  UNL     1       2.829 -19.932 -23.858  1.00  0.00     0.308 C 
ENDROOT
BRANCH   1   2
HETATM    2  C2  UNL     1       1.349 -20.062 -23.720  1.00  0.00     0.356 C 
BRANCH   2   3
HETATM    3  N1  UNL     1       0.908 -20.960 -22.691  1.00  0.00    -0.050 N 
HETATM    4  C1  UNL     1      -0.327 -21.619 -23.159  1.00  0.00     0.270 C 
ATOM      5  H12 UNL     1       0.791 -20.500 -21.788  1.00  0.00     0.279 HD
ATOM      6  H11 UNL     1       1.629 -21.626 -22.411  1.00  0.00     0.279 HD
ENDBRANCH   2   3
BRANCH   2   7
HETATM    7  O1  UNL     1       0.821 -18.790 -23.392  1.00  0.00    -0.368 OA
ATOM      8  H1  UNL     1       1.188 -18.178 -24.019  1.00  0.00     0.212 HD
ENDBRANCH   2   7
ENDBRANCH   1   2
BRANCH   1   9
HETATM    9  N2  UNL     1       3.581 -20.509 -22.807  1.00  0.00    -0.064 N 
ATOM     10  H23 UNL     1       3.172 -20.264 -21.905  1.00  0.00     0.275 HD
ATOM     11  H22 UNL     1       3.448 -21.520 -22.793  1.00  0.00     0.275 HD
ATOM     12  H21 UNL     1       4.576 -20.285 -22.815  1.00  0.00     0.275 HD
ENDBRANCH   1   9
BRANCH   1  13
HETATM   13  C4  UNL     1       3.253 -18.511 -24.134  1.00  0.00     0.148 A 
HETATM   14  N3  UNL     1       3.862 -17.654 -23.324  1.00  0.00    -0.270 N 
HETATM   15  N4  UNL     1       4.027 -16.518 -23.974  1.00  0.00    -0.227 N 
ATOM     16  H3  UNL     1       4.153 -17.841 -22.364  1.00  0.00     0.190 HD
HETATM   17  N5  UNL     1       3.525 -16.634 -25.212  1.00  0.00    -0.227 N 
ATOM     18  H4  UNL     1       4.467 -15.681 -23.594  1.00  0.00     0.210 HD
HETATM   19  N6  UNL     1       3.055 -17.859 -25.295  1.00  0.00    -0.270 N 
ATOM     20  H5  UNL     1       3.511 -15.919 -25.940  1.00  0.00     0.210 HD
ATOM     21  H6  UNL     1       2.606 -18.257 -26.119  1.00  0.00     0.190 HD
ENDBRANCH   1  13
TORSDOF 5
ENDMDL
MODEL 5
REMARK VINA RESULT: -4.172130750      1.156      1.358
REMARK  5 active torsions:
REMARK  status: ('A' for Active; 'I' for Inactive)
REMARK    1  A    between atoms: N1_2  and  C2_5 
REMARK    2  A    between atoms: C2_5  and  O1_6 
REMARK    3  A    between atoms: C2_5  and  C3_8 
REMARK    4  A    between atoms: C3_8  and  N2_9 
REMARK    5  A    between atoms: C3_8  and  C4_13 
ROOT
HETATM    1  C3  UNL     1       1.494 -20.903 -23.242  1.00  0.00     0.308 C 
ENDROOT
BRANCH   1   2
HETATM    2  C2  UNL     1       0.072 -20.520 -23.485  1.00  0.00     0.356 C 
BRANCH   2   3
HETATM    3  N1  UNL     1      -0.903 -21.337 -22.818  1.00  0.00    -0.050 N 
HETATM    4  C1  UNL     1      -1.097 -22.560 -23.620  1.00  0.00     0.270 C 
ATOM      5  H12 UNL     1      -1.776 -20.841 -22.636  1.00  0.00     0.279 HD
ATOM      6  H11 UNL     1      -0.655 -21.535 -21.848  1.00  0.00     0.279 HD
ENDBRANCH   2   3
BRANCH   2   7
HETATM    7  O1  UNL     1      -0.120 -19.201 -23.008  1.00  0.00    -0.368 OA
ATOM      8  H1  UNL     1      -0.969 -18.922 -23.328  1.00  0.00     0.212 HD
ENDBRANCH   2   7
ENDBRANCH   1   2
BRANCH   1   9
HETATM    9  N2  UNL     1       1.771 -21.384 -21.940  1.00  0.00    -0.064 N 
ATOM     10  H23 UNL     1       2.645 -21.910 -21.937  1.00  0.00     0.275 HD
ATOM     11  H22 UNL     1       2.027 -20.611 -21.326  1.00  0.00     0.275 HD
ATOM     12  H21 UNL     1       1.025 -21.937 -21.517  1.00  0.00     0.275 HD
ENDBRANCH   1   9
BRANCH   1  13
HETATM   13  C4  UNL     1       2.455 -19.815 -23.653  1.00  0.00     0.148 A 
HETATM   14  N3  UNL     1       2.260 -18.812 -24.500  1.00  0.00    -0.270 N 
HETATM   15  N4  UNL     1       3.376 -18.111 -24.572  1.00  0.00    -0.227 N 
ATOM     16  H3  UNL     1       1.397 -18.617 -25.009  1.00  0.00     0.190 HD
HETATM   17  N5  UNL     1       4.299 -18.656 -23.768  1.00  0.00    -0.227 N 
ATOM     18  H4  UNL     1       3.513 -17.282 -25.149  1.00  0.00     0.210 HD
HETATM   19  N6  UNL     1       3.721 -19.698 -23.213  1.00  0.00    -0.270 N 
ATOM     20  H5  UNL     1       5.254 -18.330 -23.618  1.00  0.00     0.210 HD
ATOM     21  H6  UNL     1       4.167 -20.327 -22.546  1.00  0.00     0.190 HD
ENDBRANCH   1  13
TORSDOF 5
ENDMDL
