MODEL 1
REMARK VINA RESULT: -4.986812591      0.000      0.000
REMARK  2 active torsions:
REMARK  status: ('A' for Active; 'I' for Inactive)
REMARK    1  A    between atoms: C2_3  and  N2_4 
REMARK    2  A    between atoms: N2_4  and  C3_7 
ROOT
HETATM    1  N1  UNL     1       3.988 -19.097 -23.615  1.00  0.00    -0.196 NA
HETATM    2  C1  UNL     1       2.891 -19.247 -24.000  1.00  0.00     0.086 C 
HETATM    3  C2  UNL     1       1.560 -19.425 -24.510  1.00  0.00     0.360 C 
ENDROOT
BRANCH   3   4
HETATM    4  N2  UNL     1       0.539 -19.676 -23.542  1.00  0.00    -0.025 N 
ATOM      5  H22 UNL     1       0.676 -19.099 -22.712  1.00  0.00     0.282 HD
ATOM      6  H21 UNL     1      -0.358 -19.307 -23.856  1.00  0.00     0.282 HD
BRANCH   4   7
HETATM    7  C3  UNL     1       0.427 -21.043 -23.193  1.00  0.00     0.393 C 
HETATM    8  N3  UNL     1       1.168 -21.526 -22.081  1.00  0.00    -0.330 N 
HETATM    9  C4  UNL     1       0.503 -22.718 -21.658  1.00  0.00     0.142 C 
ATOM     10  H3  UNL     1       2.002 -21.108 -21.669  1.00  0.00     0.165 HD
HETATM   11  N4  UNL     1       0.946 -23.728 -20.994  1.00  0.00    -0.383 N 
HETATM   12  C5  UNL     1      -0.885 -22.602 -22.135  1.00  0.00     0.142 C 
ATOM     13  H42 UNL     1       1.907 -23.809 -20.663  1.00  0.00     0.157 HD
ATOM     14  H41 UNL     1       0.471 -24.579 -20.692  1.00  0.00     0.157 HD
HETATM   15  N5  UNL     1      -1.843 -23.452 -21.980  1.00  0.00    -0.383 N 
HETATM   16  N6  UNL     1      -0.950 -21.351 -22.811  1.00  0.00    -0.330 N 
ATOM     17  H52 UNL     1      -1.796 -24.348 -21.496  1.00  0.00     0.157 HD
ATOM     18  H51 UNL     1      -2.804 -23.371 -22.311  1.00  0.00     0.157 HD
ATOM     19  H6  UNL     1      -1.782 -20.788 -22.991  1.00  0.00     0.165 HD
ENDBRANCH   4   7
ENDBRANCH   3   4
TORSDOF 2
ENDMDL
MODEL 2
REMARK VINA RESULT: -4.876342370      1.006      1.053
REMARK  2 active torsions:
REMARK  status: ('A' for Active; 'I' for Inactive)
REMARK    1  A    between atoms: C2_3  and  N2_4 
REMARK    2  A    between atoms: N2_4  and  C3_7 
ROOT
HETATM    1  N1  UNL     1       3.269 -16.877 -24.795  1.00  0.00    -0.196 NA
HETATM    2  C1  UNL     1       2.929 -17.952 -24.473  1.00  0.00     0.086 C 
HETATM    3  C2  UNL     1       2.551 -19.282 -24.086  1.00  0.00     0.360 C 
ENDROOT
BRANCH   3   4
HETATM    4  N2  UNL     1       1.179 -19.474 -23.736  1.00  0.00    -0.025 N 
ATOM      5  H22 UNL     1       0.890 -18.807 -23.020  1.00  0.00     0.282 HD
ATOM      6  H21 UNL     1       0.565 -19.181 -24.496  1.00  0.00     0.282 HD
BRANCH   4   7
HETATM    7  C3  UNL     1       0.887 -20.800 -23.335  1.00  0.00     0.393 C 
HETATM    8  N3  UNL     1       1.516 -21.314 -22.169  1.00  0.00    -0.330 N 
HETATM    9  C4  UNL     1       0.694 -22.397 -21.728  1.00  0.00     0.142 C 
ATOM     10  H3  UNL     1       2.377 -20.979 -21.735  1.00  0.00     0.165 HD
HETATM   11  N4  UNL     1       0.982 -23.420 -21.002  1.00  0.00    -0.383 N 
HETATM   12  C5  UNL     1      -0.649 -22.139 -22.276  1.00  0.00     0.142 C 
ATOM     13  H42 UNL     1       1.912 -23.599 -20.622  1.00  0.00     0.157 HD
ATOM     14  H41 UNL     1       0.395 -24.193 -20.687  1.00  0.00     0.157 HD
HETATM   15  N5  UNL     1      -1.708 -22.860 -22.132  1.00  0.00    -0.383 N 
HETATM   16  N6  UNL     1      -0.533 -20.923 -23.007  1.00  0.00    -0.330 N 
ATOM     17  H52 UNL     1      -1.791 -23.732 -21.608  1.00  0.00     0.157 HD
ATOM     18  H51 UNL     1      -2.637 -22.682 -22.511  1.00  0.00     0.157 HD
ATOM     19  H6  UNL     1      -1.281 -20.274 -23.250  1.00  0.00     0.165 HD
ENDBRANCH   4   7
ENDBRANCH   3   4
TORSDOF 2
ENDMDL
MODEL 3
REMARK VINA RESULT: -4.821813702      2.121      3.186
REMARK  2 active torsions:
REMARK  status: ('A' for Active; 'I' for Inactive)
REMARK    1  A    between atoms: C2_3  and  N2_4 
REMARK    2  A    between atoms: N2_4  and  C3_7 
ROOT
HETATM    1  N1  UNL     1       4.021 -21.097 -22.558  1.00  0.00    -0.196 NA
HETATM    2  C1  UNL     1       2.924 -21.307 -22.204  1.00  0.00     0.086 C 
HETATM    3  C2  UNL     1       1.569 -21.528 -21.782  1.00  0.00     0.360 C 
ENDROOT
BRANCH   3   4
HETATM    4  N2  UNL     1       1.295 -22.786 -21.163  1.00  0.00    -0.025 N 
ATOM      5  H22 UNL     1       2.072 -23.433 -21.296  1.00  0.00     0.282 HD
ATOM      6  H21 UNL     1       1.318 -22.704 -20.147  1.00  0.00     0.282 HD
BRANCH   4   7
HETATM    7  C3  UNL     1       0.078 -23.365 -21.594  1.00  0.00     0.393 C 
HETATM    8  N3  UNL     1      -0.561 -22.832 -22.746  1.00  0.00    -0.330 N 
HETATM    9  C4  UNL     1      -1.418 -23.868 -23.232  1.00  0.00     0.142 C 
ATOM     10  H3  UNL     1      -0.434 -21.901 -23.145  1.00  0.00     0.165 HD
HETATM   11  N4  UNL     1      -2.474 -23.800 -23.965  1.00  0.00    -0.383 N 
HETATM   12  C5  UNL     1      -0.856 -25.132 -22.726  1.00  0.00     0.142 C 
ATOM     13  H42 UNL     1      -2.863 -22.925 -24.315  1.00  0.00     0.157 HD
ATOM     14  H41 UNL     1      -3.086 -24.540 -24.311  1.00  0.00     0.157 HD
HETATM   15  N5  UNL     1      -1.308 -26.324 -22.918  1.00  0.00    -0.383 N 
HETATM   16  N6  UNL     1       0.293 -24.761 -21.972  1.00  0.00    -0.330 N 
ATOM     17  H52 UNL     1      -2.132 -26.590 -23.458  1.00  0.00     0.157 HD
ATOM     18  H51 UNL     1      -0.920 -27.199 -22.567  1.00  0.00     0.157 HD
ATOM     19  H6  UNL     1       1.098 -25.346 -21.745  1.00  0.00     0.165 HD
ENDBRANCH   4   7
ENDBRANCH   3   4
TORSDOF 2
ENDMDL
MODEL 4
REMARK VINA RESULT: -4.797861660      1.702      4.847
REMARK  2 active torsions:
REMARK  status: ('A' for Active; 'I' for Inactive)
REMARK    1  A    between atoms: C2_3  and  N2_4 
REMARK    2  A    between atoms: N2_4  and  C3_7 
ROOT
HETATM    1  N1  UNL     1      -1.610 -23.559 -24.416  1.00  0.00    -0.196 NA
HETATM    2  C1  UNL     1      -1.196 -22.754 -23.672  1.00  0.00     0.086 C 
HETATM    3  C2  UNL     1      -0.690 -21.793 -22.732  1.00  0.00     0.360 C 
ENDROOT
BRANCH   3   4
HETATM    4  N2  UNL     1      -0.437 -20.481 -23.240  1.00  0.00    -0.025 N 
ATOM      5  H22 UNL     1      -1.128 -20.226 -23.945  1.00  0.00     0.282 HD
ATOM      6  H21 UNL     1      -0.646 -19.773 -22.536  1.00  0.00     0.282 HD
BRANCH   4   7
HETATM    7  C3  UNL     1       0.877 -20.322 -23.740  1.00  0.00     0.393 C 
HETATM    8  N3  UNL     1       1.325 -19.016 -24.075  1.00  0.00    -0.330 N 
HETATM    9  C4  UNL     1       2.753 -19.075 -24.045  1.00  0.00     0.142 C 
ATOM     10  H3  UNL     1       0.748 -18.204 -24.292  1.00  0.00     0.165 HD
HETATM   11  N4  UNL     1       3.630 -18.336 -24.631  1.00  0.00    -0.383 N 
HETATM   12  C5  UNL     1       3.096 -20.204 -23.164  1.00  0.00     0.142 C 
ATOM     13  H42 UNL     1       3.393 -17.554 -25.241  1.00  0.00     0.157 HD
ATOM     14  H41 UNL     1       4.650 -18.379 -24.609  1.00  0.00     0.157 HD
HETATM   15  N5  UNL     1       4.274 -20.625 -22.850  1.00  0.00    -0.383 N 
HETATM   16  N6  UNL     1       1.850 -20.741 -22.733  1.00  0.00    -0.330 N 
ATOM     17  H52 UNL     1       5.167 -20.241 -23.159  1.00  0.00     0.157 HD
ATOM     18  H51 UNL     1       4.512 -21.407 -22.240  1.00  0.00     0.157 HD
ATOM     19  H6  UNL     1       1.674 -21.299 -21.897  1.00  0.00     0.165 HD
ENDBRANCH   4   7
ENDBRANCH   3   4
TORSDOF 2
ENDMDL
MODEL 5
REMARK VINA RESULT: -4.690215273      1.437      2.257
REMARK  2 active torsions:
REMARK  status: ('A' for Active; 'I' for Inactive)
REMARK    1  A    between atoms: C2_3  and  N2_4 
REMARK    2  A    between atoms: N2_4  and  C3_7 
ROOT
HETATM    1  N1  UNL     1       3.538 -16.490 -24.074  1.00  0.00    -0.196 NA
HETATM    2  C1  UNL     1       3.269 -17.630 -24.108  1.00  0.00     0.086 C 
HETATM    3  C2  UNL     1       2.977 -19.037 -24.142  1.00  0.00     0.360 C 
ENDROOT
BRANCH   3   4
HETATM    4  N2  UNL     1       1.630 -19.397 -24.452  1.00  0.00    -0.025 N 
ATOM      5  H22 UNL     1       1.088 -18.577 -24.724  1.00  0.00     0.282 HD
ATOM      6  H21 UNL     1       1.586 -19.924 -25.325  1.00  0.00     0.282 HD
BRANCH   4   7
HETATM    7  C3  UNL     1       0.988 -20.102 -23.406  1.00  0.00     0.393 C 
HETATM    8  N3  UNL     1       0.013 -21.080 -23.742  1.00  0.00    -0.330 N 
HETATM    9  C4  UNL     1      -0.075 -21.947 -22.608  1.00  0.00     0.142 C 
ATOM     10  H3  UNL     1      -0.516 -21.150 -24.611  1.00  0.00     0.165 HD
HETATM   11  N4  UNL     1      -1.032 -22.716 -22.220  1.00  0.00    -0.383 N 
HETATM   12  C5  UNL     1       1.207 -21.817 -21.896  1.00  0.00     0.142 C 
ATOM     13  H42 UNL     1      -1.919 -22.806 -22.713  1.00  0.00     0.157 HD
ATOM     14  H41 UNL     1      -1.094 -23.335 -21.411  1.00  0.00     0.157 HD
HETATM   15  N5  UNL     1       1.568 -22.419 -20.813  1.00  0.00    -0.383 N 
HETATM   16  N6  UNL     1       1.968 -20.881 -22.651  1.00  0.00    -0.330 N 
ATOM     17  H52 UNL     1       1.023 -23.089 -20.272  1.00  0.00     0.157 HD
ATOM     18  H51 UNL     1       2.456 -22.329 -20.320  1.00  0.00     0.157 HD
ATOM     19  H6  UNL     1       2.982 -20.776 -22.664  1.00  0.00     0.165 HD
ENDBRANCH   4   7
ENDBRANCH   3   4
TORSDOF 2
ENDMDL
