MODEL 1
REMARK VINA RESULT: -5.466372255      0.000      0.000
REMARK  6 active torsions:
REMARK  status: ('A' for Active; 'I' for Inactive)
REMARK    1  A    between atoms: C7_7  and  C8_8 
REMARK    2  A    between atoms: C8_8  and  N1_9 
REMARK    3  A    between atoms: C8_8  and  C11_17 
REMARK    4  A    between atoms: N1_9  and  C9_11 
REMARK    5  A    between atoms: C9_11  and  C10_12 
REMARK    6  A    between atoms: C10_12  and  N2_13 
ROOT
HETATM    1  C8  UNL     1     217.979   8.391  10.897  1.00  0.00     0.164 C 
ENDROOT
BRANCH   1   2
HETATM    2  C7  UNL     1     216.607   8.092  10.467  1.00  0.00    -0.024 A 
HETATM    3  C2  UNL     1     215.530   8.854  10.813  1.00  0.00    -0.053 A 
HETATM    4  C1  UNL     1     215.743  10.021  11.683  1.00  0.00     0.049 C 
HETATM    5  C3  UNL     1     214.254   8.539  10.361  1.00  0.00     0.007 A 
HETATM    6  C4  UNL     1     214.071   7.448   9.555  1.00  0.00     0.001 A 
HETATM    7  C5  UNL     1     215.138   6.652   9.183  1.00  0.00     0.001 A 
HETATM    8  C6  UNL     1     216.401   6.997   9.653  1.00  0.00     0.010 A 
ENDBRANCH   1   2
BRANCH   1   9
HETATM    9  N1  UNL     1     218.481   7.325  11.687  1.00  0.00    -0.387 N 
ATOM     10  H1  UNL     1     219.409   6.947  11.496  1.00  0.00     0.159 HD
BRANCH   9  11
HETATM   11  C9  UNL     1     217.711   6.787  12.730  1.00  0.00     0.083 C 
BRANCH  11  12
HETATM   12  C10 UNL     1     217.531   7.623  13.965  1.00  0.00     0.273 C 
BRANCH  12  13
HETATM   13  N2  UNL     1     216.161   7.981  14.209  1.00  0.00    -0.075 N 
ATOM     14  H23 UNL     1     215.988   8.953  13.950  1.00  0.00     0.274 HD
ATOM     15  H22 UNL     1     215.541   7.517  13.545  1.00  0.00     0.274 HD
ATOM     16  H21 UNL     1     215.866   7.803  15.168  1.00  0.00     0.274 HD
ENDBRANCH  12  13
ENDBRANCH  11  12
ENDBRANCH   9  11
ENDBRANCH   1   9
BRANCH   1  17
HETATM   17  C11 UNL     1     218.853   8.449   9.669  1.00  0.00     0.036 A 
HETATM   18  C12 UNL     1     219.427   9.625   9.238  1.00  0.00     0.027 A 
HETATM   19  C13 UNL     1     220.232   9.669   8.114  1.00  0.00     0.003 A 
HETATM   20  C14 UNL     1     220.479   8.525   7.396  1.00  0.00     0.017 A 
HETATM   21  C15 UNL     1     219.889   7.360   7.853  1.00  0.00     0.088 A 
HETATM   22  N3  UNL     1     219.110   7.350   8.951  1.00  0.00    -0.367 N 
ATOM     23  H3  UNL     1     218.698   6.466   9.249  1.00  0.00     0.165 HD
ENDBRANCH   1  17
TORSDOF 6
ENDMDL
MODEL 2
REMARK VINA RESULT: -5.281224113      2.148      3.598
REMARK  6 active torsions:
REMARK  status: ('A' for Active; 'I' for Inactive)
REMARK    1  A    between atoms: C7_7  and  C8_8 
REMARK    2  A    between atoms: C8_8  and  N1_9 
REMARK    3  A    between atoms: C8_8  and  C11_17 
REMARK    4  A    between atoms: N1_9  and  C9_11 
REMARK    5  A    between atoms: C9_11  and  C10_12 
REMARK    6  A    between atoms: C10_12  and  N2_13 
ROOT
HETATM    1  C8  UNL     1     216.786   7.390   9.822  1.00  0.00     0.164 C 
ENDROOT
BRANCH   1   2
HETATM    2  C7  UNL     1     216.540   7.787  11.214  1.00  0.00    -0.024 A 
HETATM    3  C2  UNL     1     216.141   6.914  12.184  1.00  0.00    -0.053 A 
HETATM    4  C1  UNL     1     215.917   5.508  11.817  1.00  0.00     0.049 C 
HETATM    5  C3  UNL     1     215.943   7.339  13.493  1.00  0.00     0.007 A 
HETATM    6  C4  UNL     1     216.151   8.652  13.818  1.00  0.00     0.001 A 
HETATM    7  C5  UNL     1     216.555   9.566  12.863  1.00  0.00     0.001 A 
HETATM    8  C6  UNL     1     216.744   9.106  11.564  1.00  0.00     0.010 A 
ENDBRANCH   1   2
BRANCH   1   9
HETATM    9  N1  UNL     1     215.714   7.822   9.000  1.00  0.00    -0.387 N 
ATOM     10  H1  UNL     1     215.872   8.553   8.306  1.00  0.00     0.159 HD
BRANCH   9  11
HETATM   11  C9  UNL     1     214.439   7.252   9.133  1.00  0.00     0.083 C 
BRANCH  11  12
HETATM   12  C10 UNL     1     213.410   8.022   9.911  1.00  0.00     0.273 C 
BRANCH  12  13
HETATM   13  N2  UNL     1     212.267   8.392   9.123  1.00  0.00    -0.075 N 
ATOM     14  H23 UNL     1     212.554   8.873   8.270  1.00  0.00     0.274 HD
ATOM     15  H22 UNL     1     211.828   7.569   8.711  1.00  0.00     0.274 HD
ATOM     16  H21 UNL     1     211.586   8.947   9.641  1.00  0.00     0.274 HD
ENDBRANCH  12  13
ENDBRANCH  11  12
ENDBRANCH   9  11
ENDBRANCH   1   9
BRANCH   1  17
HETATM   17  C11 UNL     1     218.010   8.123   9.334  1.00  0.00     0.036 A 
HETATM   18  C12 UNL     1     218.156   8.503   8.018  1.00  0.00     0.027 A 
HETATM   19  C13 UNL     1     219.280   9.180   7.580  1.00  0.00     0.003 A 
HETATM   20  C14 UNL     1     220.286   9.490   8.461  1.00  0.00     0.017 A 
HETATM   21  C15 UNL     1     220.112   9.096   9.776  1.00  0.00     0.088 A 
HETATM   22  N3  UNL     1     219.005   8.438  10.171  1.00  0.00    -0.367 N 
ATOM     23  H3  UNL     1     218.922   8.169  11.151  1.00  0.00     0.165 HD
ENDBRANCH   1  17
TORSDOF 6
ENDMDL
MODEL 3
REMARK VINA RESULT: -5.270874911      1.089      4.584
REMARK  6 active torsions:
REMARK  status: ('A' for Active; 'I' for Inactive)
REMARK    1  A    between atoms: C7_7  and  C8_8 
REMARK    2  A    between atoms: C8_8  and  N1_9 
REMARK    3  A    between atoms: C8_8  and  C11_17 
REMARK    4  A    between atoms: N1_9  and  C9_11 
REMARK    5  A    between atoms: C9_11  and  C10_12 
REMARK    6  A    between atoms: C10_12  and  N2_13 
ROOT
HETATM    1  C8  UNL     1     218.104   7.185  10.422  1.00  0.00     0.164 C 
ENDROOT
BRANCH   1   2
HETATM    2  C7  UNL     1     218.915   8.009   9.517  1.00  0.00    -0.024 A 
HETATM    3  C2  UNL     1     219.354   7.578   8.300  1.00  0.00    -0.053 A 
HETATM    4  C1  UNL     1     219.025   6.207   7.878  1.00  0.00     0.049 C 
HETATM    5  C3  UNL     1     220.102   8.407   7.472  1.00  0.00     0.007 A 
HETATM    6  C4  UNL     1     220.404   9.678   7.881  1.00  0.00     0.001 A 
HETATM    7  C5  UNL     1     219.977  10.151   9.107  1.00  0.00     0.001 A 
HETATM    8  C6  UNL     1     219.231   9.294   9.910  1.00  0.00     0.010 A 
ENDBRANCH   1   2
BRANCH   1   9
HETATM    9  N1  UNL     1     218.355   7.554  11.768  1.00  0.00    -0.387 N 
ATOM     10  H1  UNL     1     219.140   8.167  11.987  1.00  0.00     0.159 HD
BRANCH   9  11
HETATM   11  C9  UNL     1     217.531   7.083  12.802  1.00  0.00     0.083 C 
BRANCH  11  12
HETATM   12  C10 UNL     1     216.817   8.102  13.643  1.00  0.00     0.273 C 
BRANCH  12  13
HETATM   13  N2  UNL     1     215.397   7.889  13.702  1.00  0.00    -0.075 N 
ATOM     14  H23 UNL     1     215.070   7.881  14.669  1.00  0.00     0.274 HD
ATOM     15  H22 UNL     1     214.892   8.708  13.362  1.00  0.00     0.274 HD
ATOM     16  H21 UNL     1     215.098   7.048  13.211  1.00  0.00     0.274 HD
ENDBRANCH  12  13
ENDBRANCH  11  12
ENDBRANCH   9  11
ENDBRANCH   1   9
BRANCH   1  17
HETATM   17  C11 UNL     1     216.651   7.497  10.166  1.00  0.00     0.036 A 
HETATM   18  C12 UNL     1     215.773   6.543   9.699  1.00  0.00     0.027 A 
HETATM   19  C13 UNL     1     214.440   6.837   9.471  1.00  0.00     0.003 A 
HETATM   20  C14 UNL     1     213.960   8.101   9.711  1.00  0.00     0.017 A 
HETATM   21  C15 UNL     1     214.866   9.036  10.179  1.00  0.00     0.088 A 
HETATM   22  N3  UNL     1     216.158   8.719  10.391  1.00  0.00    -0.367 N 
ATOM     23  H3  UNL     1     216.786   9.443  10.737  1.00  0.00     0.165 HD
ENDBRANCH   1  17
TORSDOF 6
ENDMDL
MODEL 4
REMARK VINA RESULT: -5.215682307      2.106      3.557
REMARK  6 active torsions:
REMARK  status: ('A' for Active; 'I' for Inactive)
REMARK    1  A    between atoms: C7_7  and  C8_8 
REMARK    2  A    between atoms: C8_8  and  N1_9 
REMARK    3  A    between atoms: C8_8  and  C11_17 
REMARK    4  A    between atoms: N1_9  and  C9_11 
REMARK    5  A    between atoms: C9_11  and  C10_12 
REMARK    6  A    between atoms: C10_12  and  N2_13 
ROOT
HETATM    1  C8  UNL     1     216.776   7.416   9.726  1.00  0.00     0.164 C 
ENDROOT
BRANCH   1   2
HETATM    2  C7  UNL     1     216.567   7.849  11.114  1.00  0.00    -0.024 A 
HETATM    3  C2  UNL     1     216.235   6.995  12.124  1.00  0.00    -0.053 A 
HETATM    4  C1  UNL     1     216.047   5.570  11.809  1.00  0.00     0.049 C 
HETATM    5  C3  UNL     1     216.069   7.454  13.426  1.00  0.00     0.007 A 
HETATM    6  C4  UNL     1     216.242   8.783  13.702  1.00  0.00     0.001 A 
HETATM    7  C5  UNL     1     216.579   9.679  12.705  1.00  0.00     0.001 A 
HETATM    8  C6  UNL     1     216.737   9.184  11.415  1.00  0.00     0.010 A 
ENDBRANCH   1   2
BRANCH   1   9
HETATM    9  N1  UNL     1     215.667   7.798   8.928  1.00  0.00    -0.387 N 
ATOM     10  H1  UNL     1     215.790   8.489   8.189  1.00  0.00     0.159 HD
BRANCH   9  11
HETATM   11  C9  UNL     1     214.402   7.231   9.149  1.00  0.00     0.083 C 
BRANCH  11  12
HETATM   12  C10 UNL     1     213.395   8.050   9.905  1.00  0.00     0.273 C 
BRANCH  12  13
HETATM   13  N2  UNL     1     212.248   8.402   9.116  1.00  0.00    -0.075 N 
ATOM     14  H23 UNL     1     212.343   9.344   8.736  1.00  0.00     0.274 HD
ATOM     15  H22 UNL     1     212.229   7.872   8.245  1.00  0.00     0.274 HD
ATOM     16  H21 UNL     1     211.368   8.301   9.621  1.00  0.00     0.274 HD
ENDBRANCH  12  13
ENDBRANCH  11  12
ENDBRANCH   9  11
ENDBRANCH   1   9
BRANCH   1  17
HETATM   17  C11 UNL     1     217.965   8.163   9.176  1.00  0.00     0.036 A 
HETATM   18  C12 UNL     1     218.987   8.605   9.987  1.00  0.00     0.027 A 
HETATM   19  C13 UNL     1     220.076   9.286   9.474  1.00  0.00     0.003 A 
HETATM   20  C14 UNL     1     220.162   9.536   8.127  1.00  0.00     0.017 A 
HETATM   21  C15 UNL     1     219.122   9.079   7.337  1.00  0.00     0.088 A 
HETATM   22  N3  UNL     1     218.074   8.420   7.868  1.00  0.00    -0.367 N 
ATOM     23  H3  UNL     1     217.332   8.103   7.245  1.00  0.00     0.165 HD
ENDBRANCH   1  17
TORSDOF 6
ENDMDL
MODEL 5
REMARK VINA RESULT: -5.106816634      1.963      3.325
REMARK  6 active torsions:
REMARK  status: ('A' for Active; 'I' for Inactive)
REMARK    1  A    between atoms: C7_7  and  C8_8 
REMARK    2  A    between atoms: C8_8  and  N1_9 
REMARK    3  A    between atoms: C8_8  and  C11_17 
REMARK    4  A    between atoms: N1_9  and  C9_11 
REMARK    5  A    between atoms: C9_11  and  C10_12 
REMARK    6  A    between atoms: C10_12  and  N2_13 
ROOT
HETATM    1  C8  UNL     1     217.103   7.314   9.835  1.00  0.00     0.164 C 
ENDROOT
BRANCH   1   2
HETATM    2  C7  UNL     1     216.935   7.635  11.258  1.00  0.00    -0.024 A 
HETATM    3  C2  UNL     1     216.458   8.832  11.706  1.00  0.00    -0.053 A 
HETATM    4  C1  UNL     1     216.119   9.869  10.719  1.00  0.00     0.049 C 
HETATM    5  C3  UNL     1     216.298   9.077  13.065  1.00  0.00     0.007 A 
HETATM    6  C4  UNL     1     216.623   8.104  13.971  1.00  0.00     0.001 A 
HETATM    7  C5  UNL     1     217.109   6.879  13.556  1.00  0.00     0.001 A 
HETATM    8  C6  UNL     1     217.255   6.668  12.189  1.00  0.00     0.010 A 
ENDBRANCH   1   2
BRANCH   1   9
HETATM    9  N1  UNL     1     215.945   7.697   9.112  1.00  0.00    -0.387 N 
ATOM     10  H1  UNL     1     215.994   8.470   8.449  1.00  0.00     0.159 HD
BRANCH   9  11
HETATM   11  C9  UNL     1     214.730   7.020   9.303  1.00  0.00     0.083 C 
BRANCH  11  12
HETATM   12  C10 UNL     1     213.610   7.773   9.965  1.00  0.00     0.273 C 
BRANCH  12  13
HETATM   13  N2  UNL     1     212.594   8.198   9.042  1.00  0.00    -0.075 N 
ATOM     14  H23 UNL     1     212.823   7.909   8.090  1.00  0.00     0.274 HD
ATOM     15  H22 UNL     1     211.735   7.666   9.177  1.00  0.00     0.274 HD
ATOM     16  H21 UNL     1     212.411   9.200   9.082  1.00  0.00     0.274 HD
ENDBRANCH  12  13
ENDBRANCH  11  12
ENDBRANCH   9  11
ENDBRANCH   1   9
BRANCH   1  17
HETATM   17  C11 UNL     1     218.232   8.156   9.295  1.00  0.00     0.036 A 
HETATM   18  C12 UNL     1     218.327   8.475   7.958  1.00  0.00     0.027 A 
HETATM   19  C13 UNL     1     219.362   9.253   7.471  1.00  0.00     0.003 A 
HETATM   20  C14 UNL     1     220.328   9.728   8.323  1.00  0.00     0.017 A 
HETATM   21  C15 UNL     1     220.206   9.391   9.659  1.00  0.00     0.088 A 
HETATM   22  N3  UNL     1     219.185   8.632  10.102  1.00  0.00    -0.367 N 
ATOM     23  H3  UNL     1     219.138   8.411  11.096  1.00  0.00     0.165 HD
ENDBRANCH   1  17
TORSDOF 6
ENDMDL
