MODEL 1
REMARK VINA RESULT: -7.530144560      0.000      0.000
REMARK  5 active torsions:
REMARK  status: ('A' for Active; 'I' for Inactive)
REMARK    1  A    between atoms: O1_2  and  C2_3 
REMARK    2  A    between atoms: C6_7  and  C7_8 
REMARK    3  A    between atoms: C7_8  and  C8_9 
REMARK    4  A    between atoms: C10_13  and  C11_14 
REMARK    5  A    between atoms: N3_16  and  N4_18 
ROOT
HETATM    1  C8  UNL     1     218.905   7.980   9.947  1.00  0.00    -0.036 A 
HETATM    2  C9  UNL     1     219.076   9.344  10.004  1.00  0.00     0.096 A 
HETATM    3  N1  UNL     1     219.470   9.730   8.783  1.00  0.00    -0.363 N 
ATOM      4  H1  UNL     1     219.672  10.698   8.532  1.00  0.00     0.165 HD
HETATM    5  C10 UNL     1     219.570   8.702   7.926  1.00  0.00     0.075 A 
HETATM    6  C12 UNL     1     219.209   7.588   8.667  1.00  0.00     0.041 A 
ENDROOT
BRANCH   1   7
HETATM    7  C7  UNL     1     218.465   7.122  11.100  1.00  0.00     0.078 C 
BRANCH   7   8
HETATM    8  C6  UNL     1     216.990   7.183  11.279  1.00  0.00    -0.051 A 
HETATM    9  C5  UNL     1     216.423   7.001  12.522  1.00  0.00     0.007 A 
HETATM   10  C4  UNL     1     215.044   7.055  12.710  1.00  0.00     0.003 A 
HETATM   11  C3  UNL     1     214.198   7.293  11.648  1.00  0.00     0.037 A 
HETATM   12  C2  UNL     1     214.764   7.474  10.404  1.00  0.00     0.068 A 
HETATM   13  C13 UNL     1     216.135   7.420  10.224  1.00  0.00     0.044 A 
BRANCH  12  14
HETATM   14  O1  UNL     1     213.974   7.714   9.306  1.00  0.00    -0.356 OA
HETATM   15  C1  UNL     1     212.646   8.215   9.423  1.00  0.00     0.210 C 
ENDBRANCH  12  14
ENDBRANCH   7   8
ENDBRANCH   1   7
BRANCH   5  16
HETATM   16  C11 UNL     1     219.969   8.741   6.518  1.00  0.00     0.157 C 
HETATM   17  N2  UNL     1     220.544   9.911   5.981  1.00  0.00    -0.079 NA
HETATM   18  N3  UNL     1     219.798   7.715   5.774  1.00  0.00    -0.293 N 
ATOM     19  H3  UNL     1     219.379   6.887   6.197  1.00  0.00     0.187 HD
BRANCH  18  20
HETATM   20  N4  UNL     1     220.140   7.650   4.439  1.00  0.00    -0.344 N 
ATOM     21  H42 UNL     1     219.972   8.489   3.884  1.00  0.00     0.176 HD
ATOM     22  H41 UNL     1     220.542   6.831   3.984  1.00  0.00     0.176 HD
ENDBRANCH  18  20
ENDBRANCH   5  16
TORSDOF 5
ENDMDL
MODEL 2
REMARK VINA RESULT: -7.435647088      1.493      2.242
REMARK  5 active torsions:
REMARK  status: ('A' for Active; 'I' for Inactive)
REMARK    1  A    between atoms: O1_2  and  C2_3 
REMARK    2  A    between atoms: C6_7  and  C7_8 
REMARK    3  A    between atoms: C7_8  and  C8_9 
REMARK    4  A    between atoms: C10_13  and  C11_14 
REMARK    5  A    between atoms: N3_16  and  N4_18 
ROOT
HETATM    1  C8  UNL     1     219.350   8.210   9.068  1.00  0.00    -0.036 A 
HETATM    2  C9  UNL     1     219.602   9.541   8.831  1.00  0.00     0.096 A 
HETATM    3  N1  UNL     1     219.900   9.648   7.529  1.00  0.00    -0.363 N 
ATOM      4  H1  UNL     1     220.132  10.529   7.071  1.00  0.00     0.165 HD
HETATM    5  C10 UNL     1     219.861   8.465   6.894  1.00  0.00     0.075 A 
HETATM    6  C12 UNL     1     219.510   7.550   7.874  1.00  0.00     0.041 A 
ENDROOT
BRANCH   1   7
HETATM    7  C7  UNL     1     218.973   7.632  10.403  1.00  0.00     0.078 C 
BRANCH   7   8
HETATM    8  C6  UNL     1     217.497   7.612  10.579  1.00  0.00    -0.051 A 
HETATM    9  C5  UNL     1     216.669   7.252   9.537  1.00  0.00     0.007 A 
HETATM   10  C4  UNL     1     215.284   7.226   9.682  1.00  0.00     0.003 A 
HETATM   11  C3  UNL     1     214.695   7.563  10.882  1.00  0.00     0.037 A 
HETATM   12  C2  UNL     1     215.523   7.924  11.924  1.00  0.00     0.068 A 
HETATM   13  C13 UNL     1     216.898   7.947  11.774  1.00  0.00     0.044 A 
BRANCH  12  14
HETATM   14  O1  UNL     1     214.997   8.272  13.145  1.00  0.00    -0.356 OA
HETATM   15  C1  UNL     1     215.734   8.129  14.355  1.00  0.00     0.210 C 
ENDBRANCH  12  14
ENDBRANCH   7   8
ENDBRANCH   1   7
BRANCH   5  16
HETATM   16  C11 UNL     1     220.127   8.195   5.481  1.00  0.00     0.157 C 
HETATM   17  N2  UNL     1     221.054   8.988   4.774  1.00  0.00    -0.079 NA
HETATM   18  N3  UNL     1     219.521   7.240   4.885  1.00  0.00    -0.293 N 
ATOM     19  H3  UNL     1     218.857   6.687   5.428  1.00  0.00     0.187 HD
BRANCH  18  20
HETATM   20  N4  UNL     1     219.701   6.904   3.559  1.00  0.00    -0.344 N 
ATOM     21  H42 UNL     1     219.835   5.914   3.353  1.00  0.00     0.176 HD
ATOM     22  H41 UNL     1     219.708   7.572   2.789  1.00  0.00     0.176 HD
ENDBRANCH  18  20
ENDBRANCH   5  16
TORSDOF 5
ENDMDL
MODEL 3
REMARK VINA RESULT: -7.021774832      1.622      2.473
REMARK  5 active torsions:
REMARK  status: ('A' for Active; 'I' for Inactive)
REMARK    1  A    between atoms: O1_2  and  C2_3 
REMARK    2  A    between atoms: C6_7  and  C7_8 
REMARK    3  A    between atoms: C7_8  and  C8_9 
REMARK    4  A    between atoms: C10_13  and  C11_14 
REMARK    5  A    between atoms: N3_16  and  N4_18 
ROOT
HETATM    1  C8  UNL     1     218.895   8.608   9.090  1.00  0.00    -0.036 A 
HETATM    2  C9  UNL     1     219.387   7.325   9.020  1.00  0.00     0.096 A 
HETATM    3  N1  UNL     1     219.915   7.184   7.796  1.00  0.00    -0.363 N 
ATOM      4  H1  UNL     1     220.355   6.326   7.465  1.00  0.00     0.165 HD
HETATM    5  C10 UNL     1     219.800   8.298   7.056  1.00  0.00     0.075 A 
HETATM    6  C12 UNL     1     219.151   9.204   7.879  1.00  0.00     0.041 A 
ENDROOT
BRANCH   1   7
HETATM    7  C7  UNL     1     218.213   9.201  10.291  1.00  0.00     0.078 C 
BRANCH   7   8
HETATM    8  C6  UNL     1     216.952   8.477  10.601  1.00  0.00    -0.051 A 
HETATM    9  C5  UNL     1     216.127   8.034   9.589  1.00  0.00     0.007 A 
HETATM   10  C4  UNL     1     214.943   7.354   9.859  1.00  0.00     0.003 A 
HETATM   11  C3  UNL     1     214.556   7.101  11.158  1.00  0.00     0.037 A 
HETATM   12  C2  UNL     1     215.380   7.545  12.170  1.00  0.00     0.068 A 
HETATM   13  C13 UNL     1     216.556   8.220  11.895  1.00  0.00     0.044 A 
BRANCH  12  14
HETATM   14  O1  UNL     1     215.050   7.325  13.486  1.00  0.00    -0.356 OA
HETATM   15  C1  UNL     1     215.861   7.794  14.559  1.00  0.00     0.210 C 
ENDBRANCH  12  14
ENDBRANCH   7   8
ENDBRANCH   1   7
BRANCH   5  16
HETATM   16  C11 UNL     1     220.256   8.514   5.683  1.00  0.00     0.157 C 
HETATM   17  N2  UNL     1     220.672   9.797   5.272  1.00  0.00    -0.079 NA
HETATM   18  N3  UNL     1     220.278   7.541   4.853  1.00  0.00    -0.293 N 
ATOM     19  H3  UNL     1     219.970   6.627   5.185  1.00  0.00     0.187 HD
BRANCH  18  20
HETATM   20  N4  UNL     1     220.690   7.640   3.540  1.00  0.00    -0.344 N 
ATOM     21  H42 UNL     1     221.685   7.504   3.362  1.00  0.00     0.176 HD
ATOM     22  H41 UNL     1     220.072   7.838   2.753  1.00  0.00     0.176 HD
ENDBRANCH  18  20
ENDBRANCH   5  16
TORSDOF 5
ENDMDL
MODEL 4
REMARK VINA RESULT: -6.854909996      1.813      2.597
REMARK  5 active torsions:
REMARK  status: ('A' for Active; 'I' for Inactive)
REMARK    1  A    between atoms: O1_2  and  C2_3 
REMARK    2  A    between atoms: C6_7  and  C7_8 
REMARK    3  A    between atoms: C7_8  and  C8_9 
REMARK    4  A    between atoms: C10_13  and  C11_14 
REMARK    5  A    between atoms: N3_16  and  N4_18 
ROOT
HETATM    1  C8  UNL     1     217.126   8.248   9.212  1.00  0.00    -0.036 A 
HETATM    2  C9  UNL     1     218.181   7.636   9.848  1.00  0.00     0.096 A 
HETATM    3  N1  UNL     1     219.241   7.764   9.037  1.00  0.00    -0.363 N 
ATOM      4  H1  UNL     1     220.168   7.400   9.257  1.00  0.00     0.165 HD
HETATM    5  C10 UNL     1     218.946   8.423   7.906  1.00  0.00     0.075 A 
HETATM    6  C12 UNL     1     217.600   8.731   8.017  1.00  0.00     0.041 A 
ENDROOT
BRANCH   1   7
HETATM    7  C7  UNL     1     215.731   8.344   9.763  1.00  0.00     0.078 C 
BRANCH   7   8
HETATM    8  C6  UNL     1     215.708   8.027  11.215  1.00  0.00    -0.051 A 
HETATM    9  C5  UNL     1     216.236   8.906  12.137  1.00  0.00     0.007 A 
HETATM   10  C4  UNL     1     216.223   8.627  13.501  1.00  0.00     0.003 A 
HETATM   11  C3  UNL     1     215.677   7.453  13.975  1.00  0.00     0.037 A 
HETATM   12  C2  UNL     1     215.149   6.573  13.054  1.00  0.00     0.068 A 
HETATM   13  C13 UNL     1     215.165   6.856  11.699  1.00  0.00     0.044 A 
BRANCH  12  14
HETATM   14  O1  UNL     1     214.592   5.386  13.462  1.00  0.00    -0.356 OA
HETATM   15  C1  UNL     1     215.326   4.165  13.465  1.00  0.00     0.210 C 
ENDBRANCH  12  14
ENDBRANCH   7   8
ENDBRANCH   1   7
BRANCH   5  16
HETATM   16  C11 UNL     1     219.843   8.747   6.796  1.00  0.00     0.157 C 
HETATM   17  N2  UNL     1     220.607   9.932   6.830  1.00  0.00    -0.079 NA
HETATM   18  N3  UNL     1     219.936   7.957   5.794  1.00  0.00    -0.293 N 
ATOM     19  H3  UNL     1     219.369   7.109   5.804  1.00  0.00     0.187 HD
BRANCH  18  20
HETATM   20  N4  UNL     1     220.750   8.171   4.701  1.00  0.00    -0.344 N 
ATOM     21  H42 UNL     1     220.298   8.521   3.857  1.00  0.00     0.176 HD
ATOM     22  H41 UNL     1     221.756   8.004   4.687  1.00  0.00     0.176 HD
ENDBRANCH  18  20
ENDBRANCH   5  16
TORSDOF 5
ENDMDL
MODEL 5
REMARK VINA RESULT: -6.627462045      3.665      6.841
REMARK  5 active torsions:
REMARK  status: ('A' for Active; 'I' for Inactive)
REMARK    1  A    between atoms: O1_2  and  C2_3 
REMARK    2  A    between atoms: C6_7  and  C7_8 
REMARK    3  A    between atoms: C7_8  and  C8_9 
REMARK    4  A    between atoms: C10_13  and  C11_14 
REMARK    5  A    between atoms: N3_16  and  N4_18 
ROOT
HETATM    1  C8  UNL     1     218.178   7.618  10.091  1.00  0.00    -0.036 A 
HETATM    2  C9  UNL     1     217.158   8.175   9.355  1.00  0.00     0.096 A 
HETATM    3  N1  UNL     1     216.095   8.244  10.168  1.00  0.00    -0.363 N 
ATOM      4  H1  UNL     1     215.189   8.618   9.886  1.00  0.00     0.165 HD
HETATM    5  C10 UNL     1     216.354   7.765  11.395  1.00  0.00     0.075 A 
HETATM    6  C12 UNL     1     217.680   7.367  11.346  1.00  0.00     0.041 A 
ENDROOT
BRANCH   1   7
HETATM    7  C7  UNL     1     219.564   7.354   9.574  1.00  0.00     0.078 C 
BRANCH   7   8
HETATM    8  C6  UNL     1     219.818   8.108   8.318  1.00  0.00    -0.051 A 
HETATM    9  C5  UNL     1     220.174   9.440   8.356  1.00  0.00     0.007 A 
HETATM   10  C4  UNL     1     220.417  10.164   7.191  1.00  0.00     0.003 A 
HETATM   11  C3  UNL     1     220.307   9.564   5.954  1.00  0.00     0.037 A 
HETATM   12  C2  UNL     1     219.951   8.233   5.916  1.00  0.00     0.068 A 
HETATM   13  C13 UNL     1     219.712   7.519   7.077  1.00  0.00     0.044 A 
BRANCH  12  14
HETATM   14  O1  UNL     1     219.824   7.579   4.714  1.00  0.00    -0.356 OA
HETATM   15  C1  UNL     1     220.892   7.507   3.774  1.00  0.00     0.210 C 
ENDBRANCH  12  14
ENDBRANCH   7   8
ENDBRANCH   1   7
BRANCH   5  16
HETATM   16  C11 UNL     1     215.442   7.679  12.537  1.00  0.00     0.157 C 
HETATM   17  N2  UNL     1     214.113   7.248  12.346  1.00  0.00    -0.079 NA
HETATM   18  N3  UNL     1     215.849   7.993  13.707  1.00  0.00    -0.293 N 
ATOM     19  H3  UNL     1     216.817   8.300  13.807  1.00  0.00     0.187 HD
BRANCH  18  20
HETATM   20  N4  UNL     1     215.071   7.946  14.845  1.00  0.00    -0.344 N 
ATOM     21  H42 UNL     1     214.070   8.103  14.722  1.00  0.00     0.176 HD
ATOM     22  H41 UNL     1     215.428   7.768  15.784  1.00  0.00     0.176 HD
ENDBRANCH  18  20
ENDBRANCH   5  16
TORSDOF 5
ENDMDL
