MODEL 1
REMARK VINA RESULT: -6.434834047      0.000      0.000
REMARK  4 active torsions:
REMARK  status: ('A' for Active; 'I' for Inactive)
REMARK    1  A    between atoms: C3_3  and  C4_4 
REMARK    2  A    between atoms: N1_5  and  N2_7 
REMARK       I    between atoms: N2_7  and  C5_9 
REMARK       I    between atoms: C5_9  and  N3_11 
REMARK    3  A    between atoms: N3_11  and  S1_13 
REMARK    4  A    between atoms: C9_21  and  C10_22 
ROOT
HETATM    1  C4  UNL     1      -5.911  34.834   6.210  1.00  0.00     0.090 C 
HETATM    2  N1  UNL     1      -6.625  35.044   5.163  1.00  0.00    -0.311 N 
ATOM      3  H1  UNL     1      -7.331  35.780   5.185  1.00  0.00     0.185 HD
ENDROOT
BRANCH   1   4
HETATM    4  C3  UNL     1      -4.872  33.805   6.283  1.00  0.00     0.068 A 
HETATM    5  C2  UNL     1      -5.071  32.733   7.293  1.00  0.00    -0.072 A 
HETATM    6  C1  UNL     1      -5.936  31.738   7.371  1.00  0.00     0.015 C 
HETATM    7  C13 UNL     1      -3.938  33.222   8.127  1.00  0.00     0.059 A 
HETATM    8  C7  UNL     1      -3.682  34.277   7.086  1.00  0.00     0.109 A 
HETATM    9  C9  UNL     1      -4.399  33.934   9.345  1.00  0.00     0.144 C 
HETATM   10  C8  UNL     1      -3.947  35.534   7.828  1.00  0.00     0.265 C 
HETATM   11  O4  UNL     1      -3.574  36.705   7.538  1.00  0.00    -0.265 OA
HETATM   12  O5  UNL     1      -4.706  35.246   8.953  1.00  0.00    -0.315 OA
BRANCH   9  13
HETATM   13  C10 UNL     1      -3.360  34.010  10.434  1.00  0.00     0.008 C 
HETATM   14  C11 UNL     1      -3.624  35.090  11.444  1.00  0.00     0.012 C 
HETATM   15  C12 UNL     1      -3.130  32.698  11.119  1.00  0.00     0.012 C 
ENDBRANCH   9  13
ENDBRANCH   1   4
BRANCH   2  16
HETATM   16  N2  UNL     1      -6.464  34.299   4.003  1.00  0.00    -0.252 N 
HETATM   17  C5  UNL     1      -6.008  34.844   2.781  1.00  0.00     0.348 C 
HETATM   18  O1  UNL     1      -5.730  36.055   2.714  1.00  0.00    -0.245 OA
HETATM   19  N3  UNL     1      -5.874  34.018   1.650  1.00  0.00    -0.235 N 
ATOM     20  H3  UNL     1      -6.103  33.025   1.702  1.00  0.00     0.183 HD
ATOM     21  H2  UNL     1      -6.687  33.304   4.035  1.00  0.00     0.191 HD
BRANCH  19  22
HETATM   22  S1  UNL     1      -5.314  34.714   0.171  1.00  0.00     0.230 S 
HETATM   23  C6  UNL     1      -6.545  35.828  -0.426  1.00  0.00     0.186 C 
HETATM   24  O2  UNL     1      -3.985  35.405   0.363  1.00  0.00    -0.206 OA
HETATM   25  O3  UNL     1      -5.134  33.620  -0.860  1.00  0.00    -0.206 OA
ENDBRANCH  19  22
ENDBRANCH   2  16
TORSDOF 4
ENDMDL
MODEL 2
REMARK VINA RESULT: -6.410271421      0.974      1.008
REMARK  4 active torsions:
REMARK  status: ('A' for Active; 'I' for Inactive)
REMARK    1  A    between atoms: C3_3  and  C4_4 
REMARK    2  A    between atoms: N1_5  and  N2_7 
REMARK       I    between atoms: N2_7  and  C5_9 
REMARK       I    between atoms: C5_9  and  N3_11 
REMARK    3  A    between atoms: N3_11  and  S1_13 
REMARK    4  A    between atoms: C9_21  and  C10_22 
ROOT
HETATM    1  C4  UNL     1      -5.786  34.720   6.214  1.00  0.00     0.090 C 
HETATM    2  N1  UNL     1      -6.596  34.914   5.237  1.00  0.00    -0.311 N 
ATOM      3  H1  UNL     1      -7.226  35.715   5.269  1.00  0.00     0.185 HD
ENDROOT
BRANCH   1   4
HETATM    4  C3  UNL     1      -4.841  33.603   6.268  1.00  0.00     0.068 A 
HETATM    5  C2  UNL     1      -5.126  32.542   7.270  1.00  0.00    -0.072 A 
HETATM    6  C1  UNL     1      -6.074  31.627   7.348  1.00  0.00     0.015 C 
HETATM    7  C13 UNL     1      -3.947  32.921   8.097  1.00  0.00     0.059 A 
HETATM    8  C7  UNL     1      -3.607  33.960   7.064  1.00  0.00     0.109 A 
HETATM    9  C9  UNL     1      -4.332  33.659   9.327  1.00  0.00     0.144 C 
HETATM   10  C8  UNL     1      -3.754  35.228   7.820  1.00  0.00     0.265 C 
HETATM   11  O4  UNL     1      -3.281  36.365   7.537  1.00  0.00    -0.265 OA
HETATM   12  O5  UNL     1      -4.525  34.997   8.950  1.00  0.00    -0.315 OA
BRANCH   9  13
HETATM   13  C10 UNL     1      -3.281  33.633  10.406  1.00  0.00     0.008 C 
HETATM   14  C11 UNL     1      -3.400  34.760  11.391  1.00  0.00     0.012 C 
HETATM   15  C12 UNL     1      -3.206  32.318  11.122  1.00  0.00     0.012 C 
ENDBRANCH   9  13
ENDBRANCH   1   4
BRANCH   2  16
HETATM   16  N2  UNL     1      -6.640  34.064   4.141  1.00  0.00    -0.252 N 
HETATM   17  C5  UNL     1      -6.416  34.492   2.811  1.00  0.00     0.348 C 
HETATM   18  O1  UNL     1      -6.167  35.689   2.585  1.00  0.00    -0.245 OA
HETATM   19  N3  UNL     1      -6.480  33.564   1.755  1.00  0.00    -0.235 N 
ATOM     20  H3  UNL     1      -6.687  32.582   1.938  1.00  0.00     0.183 HD
ATOM     21  H2  UNL     1      -6.844  33.078   4.303  1.00  0.00     0.191 HD
BRANCH  19  22
HETATM   22  S1  UNL     1      -6.203  34.118   0.142  1.00  0.00     0.230 S 
HETATM   23  C6  UNL     1      -6.808  32.900  -0.981  1.00  0.00     0.186 C 
HETATM   24  O2  UNL     1      -6.852  35.461  -0.092  1.00  0.00    -0.206 OA
HETATM   25  O3  UNL     1      -4.713  34.267  -0.087  1.00  0.00    -0.206 OA
ENDBRANCH  19  22
ENDBRANCH   2  16
TORSDOF 4
ENDMDL
MODEL 3
REMARK VINA RESULT: -6.391127139      0.859      1.040
REMARK  4 active torsions:
REMARK  status: ('A' for Active; 'I' for Inactive)
REMARK    1  A    between atoms: C3_3  and  C4_4 
REMARK    2  A    between atoms: N1_5  and  N2_7 
REMARK       I    between atoms: N2_7  and  C5_9 
REMARK       I    between atoms: C5_9  and  N3_11 
REMARK    3  A    between atoms: N3_11  and  S1_13 
REMARK    4  A    between atoms: C9_21  and  C10_22 
ROOT
HETATM    1  C4  UNL     1      -5.852  34.731   6.299  1.00  0.00     0.090 C 
HETATM    2  N1  UNL     1      -6.621  34.950   5.294  1.00  0.00    -0.311 N 
ATOM      3  H1  UNL     1      -7.294  35.714   5.344  1.00  0.00     0.185 HD
ENDROOT
BRANCH   1   4
HETATM    4  C3  UNL     1      -4.852  33.662   6.331  1.00  0.00     0.068 A 
HETATM    5  C2  UNL     1      -5.076  32.573   7.318  1.00  0.00    -0.072 A 
HETATM    6  C1  UNL     1      -5.977  31.611   7.387  1.00  0.00     0.015 C 
HETATM    7  C13 UNL     1      -3.913  32.999   8.144  1.00  0.00     0.059 A 
HETATM    8  C7  UNL     1      -3.632  34.069   7.126  1.00  0.00     0.109 A 
HETATM    9  C9  UNL     1      -4.327  33.698   9.387  1.00  0.00     0.144 C 
HETATM   10  C8  UNL     1      -3.838  35.316   7.902  1.00  0.00     0.265 C 
HETATM   11  O4  UNL     1      -3.425  36.479   7.633  1.00  0.00    -0.265 OA
HETATM   12  O5  UNL     1      -4.590  35.030   9.032  1.00  0.00    -0.315 OA
BRANCH   9  13
HETATM   13  C10 UNL     1      -3.269  33.708  10.460  1.00  0.00     0.008 C 
HETATM   14  C11 UNL     1      -3.406  34.846  11.431  1.00  0.00     0.012 C 
HETATM   15  C12 UNL     1      -3.163  32.405  11.193  1.00  0.00     0.012 C 
ENDBRANCH   9  13
ENDBRANCH   1   4
BRANCH   2  16
HETATM   16  N2  UNL     1      -6.562  34.176   4.143  1.00  0.00    -0.252 N 
HETATM   17  C5  UNL     1      -6.181  34.684   2.879  1.00  0.00     0.348 C 
HETATM   18  O1  UNL     1      -5.879  35.885   2.765  1.00  0.00    -0.245 OA
HETATM   19  N3  UNL     1      -6.149  33.830   1.761  1.00  0.00    -0.235 N 
ATOM     20  H3  UNL     1      -6.399  32.845   1.852  1.00  0.00     0.183 HD
ATOM     21  H2  UNL     1      -6.807  33.188   4.213  1.00  0.00     0.191 HD
BRANCH  19  22
HETATM   22  S1  UNL     1      -5.680  34.480   0.230  1.00  0.00     0.230 S 
HETATM   23  C6  UNL     1      -4.051  35.141   0.376  1.00  0.00     0.186 C 
HETATM   24  O2  UNL     1      -5.760  33.432  -0.854  1.00  0.00    -0.206 OA
HETATM   25  O3  UNL     1      -6.613  35.614  -0.139  1.00  0.00    -0.206 OA
ENDBRANCH  19  22
ENDBRANCH   2  16
TORSDOF 4
ENDMDL
MODEL 4
REMARK VINA RESULT: -6.131574340      0.907      1.013
REMARK  4 active torsions:
REMARK  status: ('A' for Active; 'I' for Inactive)
REMARK    1  A    between atoms: C3_3  and  C4_4 
REMARK    2  A    between atoms: N1_5  and  N2_7 
REMARK       I    between atoms: N2_7  and  C5_9 
REMARK       I    between atoms: C5_9  and  N3_11 
REMARK    3  A    between atoms: N3_11  and  S1_13 
REMARK    4  A    between atoms: C9_21  and  C10_22 
ROOT
HETATM    1  C4  UNL     1      -6.033  34.693   6.251  1.00  0.00     0.090 C 
HETATM    2  N1  UNL     1      -6.655  34.951   5.158  1.00  0.00    -0.311 N 
ATOM      3  H1  UNL     1      -7.418  35.627   5.170  1.00  0.00     0.185 HD
ENDROOT
BRANCH   1   4
HETATM    4  C3  UNL     1      -4.925  33.741   6.343  1.00  0.00     0.068 A 
HETATM    5  C2  UNL     1      -5.031  32.699   7.398  1.00  0.00    -0.072 A 
HETATM    6  C1  UNL     1      -5.824  31.653   7.534  1.00  0.00     0.015 C 
HETATM    7  C13 UNL     1      -3.919  33.297   8.188  1.00  0.00     0.059 A 
HETATM    8  C7  UNL     1      -3.755  34.324   7.101  1.00  0.00     0.109 A 
HETATM    9  C9  UNL     1      -4.405  34.026   9.387  1.00  0.00     0.144 C 
HETATM   10  C8  UNL     1      -4.092  35.590   7.799  1.00  0.00     0.265 C 
HETATM   11  O4  UNL     1      -3.805  36.770   7.455  1.00  0.00    -0.265 OA
HETATM   12  O5  UNL     1      -4.808  35.297   8.950  1.00  0.00    -0.315 OA
BRANCH   9  13
HETATM   13  C10 UNL     1      -3.354  34.217  10.450  1.00  0.00     0.008 C 
HETATM   14  C11 UNL     1      -3.704  35.268  11.463  1.00  0.00     0.012 C 
HETATM   15  C12 UNL     1      -2.970  32.939  11.132  1.00  0.00     0.012 C 
ENDBRANCH   9  13
ENDBRANCH   1   4
BRANCH   2  16
HETATM   16  N2  UNL     1      -6.319  34.335   3.960  1.00  0.00    -0.252 N 
HETATM   17  C5  UNL     1      -5.746  35.019   2.863  1.00  0.00     0.348 C 
HETATM   18  O1  UNL     1      -5.521  36.239   2.950  1.00  0.00    -0.245 OA
HETATM   19  N3  UNL     1      -5.437  34.318   1.683  1.00  0.00    -0.235 N 
ATOM     20  H3  UNL     1      -5.622  33.318   1.609  1.00  0.00     0.183 HD
ATOM     21  H2  UNL     1      -6.496  33.334   3.866  1.00  0.00     0.191 HD
BRANCH  19  22
HETATM   22  S1  UNL     1      -4.737  35.182   0.360  1.00  0.00     0.230 S 
HETATM   23  C6  UNL     1      -4.542  34.071  -0.996  1.00  0.00     0.186 C 
HETATM   24  O2  UNL     1      -5.581  36.377  -0.016  1.00  0.00    -0.206 OA
HETATM   25  O3  UNL     1      -3.364  35.680   0.758  1.00  0.00    -0.206 OA
ENDBRANCH  19  22
ENDBRANCH   2  16
TORSDOF 4
ENDMDL
MODEL 5
REMARK VINA RESULT: -6.128338115      2.510      3.014
REMARK  4 active torsions:
REMARK  status: ('A' for Active; 'I' for Inactive)
REMARK    1  A    between atoms: C3_3  and  C4_4 
REMARK    2  A    between atoms: N1_5  and  N2_7 
REMARK       I    between atoms: N2_7  and  C5_9 
REMARK       I    between atoms: C5_9  and  N3_11 
REMARK    3  A    between atoms: N3_11  and  S1_13 
REMARK    4  A    between atoms: C9_21  and  C10_22 
ROOT
HETATM    1  C4  UNL     1      -4.417  35.322   4.909  1.00  0.00     0.090 C 
HETATM    2  N1  UNL     1      -5.062  35.383   3.801  1.00  0.00    -0.311 N 
ATOM      3  H1  UNL     1      -4.659  35.903   3.022  1.00  0.00     0.185 HD
ENDROOT
BRANCH   1   4
HETATM    4  C3  UNL     1      -4.905  34.602   6.087  1.00  0.00     0.068 A 
HETATM    5  C2  UNL     1      -5.007  35.384   7.347  1.00  0.00    -0.072 A 
HETATM    6  C1  UNL     1      -5.811  36.361   7.722  1.00  0.00     0.015 C 
HETATM    7  C13 UNL     1      -3.886  34.632   7.976  1.00  0.00     0.059 A 
HETATM    8  C7  UNL     1      -3.807  33.789   6.734  1.00  0.00     0.109 A 
HETATM    9  C9  UNL     1      -2.631  35.424   8.028  1.00  0.00     0.144 C 
HETATM   10  C8  UNL     1      -2.460  34.115   6.206  1.00  0.00     0.265 C 
HETATM   11  O4  UNL     1      -1.765  33.459   5.381  1.00  0.00    -0.265 OA
HETATM   12  O5  UNL     1      -2.029  35.309   6.766  1.00  0.00    -0.315 OA
BRANCH   9  13
HETATM   13  C10 UNL     1      -1.644  34.934   9.056  1.00  0.00     0.008 C 
HETATM   14  C11 UNL     1      -0.785  36.021   9.634  1.00  0.00     0.012 C 
HETATM   15  C12 UNL     1      -2.283  34.133  10.149  1.00  0.00     0.012 C 
ENDBRANCH   9  13
ENDBRANCH   1   4
BRANCH   2  16
HETATM   16  N2  UNL     1      -6.292  34.762   3.632  1.00  0.00    -0.252 N 
HETATM   17  C5  UNL     1      -6.618  33.967   2.509  1.00  0.00     0.348 C 
HETATM   18  O1  UNL     1      -5.776  33.800   1.608  1.00  0.00    -0.245 OA
HETATM   19  N3  UNL     1      -7.890  33.373   2.415  1.00  0.00    -0.235 N 
ATOM     20  H3  UNL     1      -8.583  33.510   3.151  1.00  0.00     0.183 HD
ATOM     21  H2  UNL     1      -6.998  34.886   4.358  1.00  0.00     0.191 HD
BRANCH  19  22
HETATM   22  S1  UNL     1      -8.259  32.408   1.030  1.00  0.00     0.230 S 
HETATM   23  C6  UNL     1      -7.974  33.372  -0.419  1.00  0.00     0.186 C 
HETATM   24  O2  UNL     1      -7.445  31.136   1.021  1.00  0.00    -0.206 OA
HETATM   25  O3  UNL     1      -9.725  32.030   1.059  1.00  0.00    -0.206 OA
ENDBRANCH  19  22
ENDBRANCH   2  16
TORSDOF 4
ENDMDL
