MODEL 1
REMARK VINA RESULT: -7.273363635      0.000      0.000
REMARK  6 active torsions:
REMARK  status: ('A' for Active; 'I' for Inactive)
REMARK    1  A    between atoms: C4_6  and  N2_7 
REMARK    2  A    between atoms: N2_7  and  C5_9 
REMARK    3  A    between atoms: C5_9  and  C6_10 
REMARK       I    between atoms: C6_10  and  N3_12 
REMARK    4  A    between atoms: N3_12  and  C7_14 
REMARK    5  A    between atoms: C8_19  and  C9_20 
REMARK    6  A    between atoms: C9_20  and  C10_21 
ROOT
HETATM    1  C1  UNL     1      -7.771  32.902  -1.209  1.00  0.00     0.052 C 
HETATM    2  C2  UNL     1      -7.259  33.461   0.068  1.00  0.00    -0.008 A 
HETATM    3  C3  UNL     1      -6.247  34.382   0.087  1.00  0.00     0.115 A 
HETATM    4  N1  UNL     1      -5.770  34.899   1.229  1.00  0.00    -0.201 N 
ATOM      5  H1  UNL     1      -5.015  35.584   1.217  1.00  0.00     0.183 HD
HETATM    6  C4  UNL     1      -6.311  34.492   2.391  1.00  0.00     0.679 A 
HETATM    7  N6  UNL     1      -7.306  33.590   2.411  1.00  0.00    -0.181 N 
ATOM      8  H6  UNL     1      -7.698  33.300   3.307  1.00  0.00     0.185 HD
HETATM    9  C13 UNL     1      -7.800  33.056   1.270  1.00  0.00     0.137 A 
HETATM   10  C14 UNL     1      -8.861  32.093   1.281  1.00  0.00     0.118 C 
HETATM   11  N7  UNL     1      -9.716  31.296   1.284  1.00  0.00    -0.190 NA
ENDROOT
BRANCH   6  12
HETATM   12  N2  UNL     1      -5.865  34.979   3.488  1.00  0.00    -0.217 N 
ATOM     13  H2  UNL     1      -5.827  34.369   4.305  1.00  0.00     0.178 HD
BRANCH  12  14
HETATM   14  C5  UNL     1      -5.415  36.330   3.632  1.00  0.00     0.241 C 
BRANCH  14  15
HETATM   15  C6  UNL     1      -5.462  36.811   5.026  1.00  0.00     0.241 C 
HETATM   16  O1  UNL     1      -6.533  37.226   5.520  1.00  0.00    -0.271 OA
HETATM   17  N3  UNL     1      -4.275  36.797   5.796  1.00  0.00    -0.305 N 
ATOM     18  H3  UNL     1      -3.607  37.568   5.779  1.00  0.00     0.171 HD
BRANCH  17  19
HETATM   19  C7  UNL     1      -4.091  35.726   6.535  1.00  0.00     0.167 A 
HETATM   20  N4  UNL     1      -3.271  34.698   6.286  1.00  0.00    -0.279 N 
HETATM   21  N5  UNL     1      -3.221  33.743   7.116  1.00  0.00    -0.296 N 
ATOM     22  H4  UNL     1      -2.697  34.685   5.443  1.00  0.00     0.189 HD
HETATM   23  C8  UNL     1      -3.968  33.762   8.211  1.00  0.00     0.070 A 
ATOM     24  H5  UNL     1      -2.602  32.952   6.940  1.00  0.00     0.187 HD
HETATM   25  S1  UNL     1      -4.790  35.254   8.026  1.00  0.00    -0.038 SA
BRANCH  23  26
HETATM   26  C9  UNL     1      -4.059  32.742   9.314  1.00  0.00     0.070 C 
BRANCH  26  27
HETATM   27  C10 UNL     1      -4.547  31.447   8.701  1.00  0.00    -0.017 C 
HETATM   28  C11 UNL     1      -5.655  31.655   7.723  1.00  0.00     0.010 C 
HETATM   29  C12 UNL     1      -4.914  30.520   9.831  1.00  0.00     0.010 C 
ENDBRANCH  26  27
ENDBRANCH  23  26
ENDBRANCH  17  19
ENDBRANCH  14  15
ENDBRANCH  12  14
ENDBRANCH   6  12
TORSDOF 6
ENDMDL
MODEL 2
REMARK VINA RESULT: -7.261653918      1.003      1.300
REMARK  6 active torsions:
REMARK  status: ('A' for Active; 'I' for Inactive)
REMARK    1  A    between atoms: C4_6  and  N2_7 
REMARK    2  A    between atoms: N2_7  and  C5_9 
REMARK    3  A    between atoms: C5_9  and  C6_10 
REMARK       I    between atoms: C6_10  and  N3_12 
REMARK    4  A    between atoms: N3_12  and  C7_14 
REMARK    5  A    between atoms: C8_19  and  C9_20 
REMARK    6  A    between atoms: C9_20  and  C10_21 
ROOT
HETATM    1  C1  UNL     1      -7.789  32.862  -1.228  1.00  0.00     0.052 C 
HETATM    2  C2  UNL     1      -7.267  33.394   0.057  1.00  0.00    -0.008 A 
HETATM    3  C3  UNL     1      -6.247  34.306   0.087  1.00  0.00     0.115 A 
HETATM    4  N1  UNL     1      -5.760  34.799   1.235  1.00  0.00    -0.201 N 
ATOM      5  H1  UNL     1      -4.999  35.478   1.231  1.00  0.00     0.183 HD
HETATM    6  C4  UNL     1      -6.300  34.378   2.392  1.00  0.00     0.679 A 
HETATM    7  N6  UNL     1      -7.302  33.484   2.401  1.00  0.00    -0.181 N 
ATOM      8  H6  UNL     1      -7.692  33.183   3.294  1.00  0.00     0.185 HD
HETATM    9  C13 UNL     1      -7.806  32.974   1.254  1.00  0.00     0.137 A 
HETATM   10  C14 UNL     1      -8.875  32.020   1.253  1.00  0.00     0.118 C 
HETATM   11  N7  UNL     1      -9.737  31.231   1.248  1.00  0.00    -0.190 NA
ENDROOT
BRANCH   6  12
HETATM   12  N2  UNL     1      -5.844  34.842   3.495  1.00  0.00    -0.217 N 
ATOM     13  H2  UNL     1      -5.617  34.181   4.238  1.00  0.00     0.178 HD
BRANCH  12  14
HETATM   14  C5  UNL     1      -5.634  36.236   3.743  1.00  0.00     0.241 C 
BRANCH  14  15
HETATM   15  C6  UNL     1      -5.614  36.572   5.180  1.00  0.00     0.241 C 
HETATM   16  O1  UNL     1      -6.578  37.166   5.708  1.00  0.00    -0.271 OA
HETATM   17  N3  UNL     1      -4.484  36.213   5.952  1.00  0.00    -0.305 N 
ATOM     18  H3  UNL     1      -3.660  36.810   6.021  1.00  0.00     0.171 HD
BRANCH  17  19
HETATM   19  C7  UNL     1      -4.567  35.059   6.576  1.00  0.00     0.167 A 
HETATM   20  N4  UNL     1      -5.600  34.208   6.579  1.00  0.00    -0.279 N 
HETATM   21  N5  UNL     1      -5.503  33.133   7.241  1.00  0.00    -0.296 N 
ATOM     22  H4  UNL     1      -6.450  34.422   6.057  1.00  0.00     0.189 HD
HETATM   23  C8  UNL     1      -4.398  32.857   7.919  1.00  0.00     0.070 A 
ATOM     24  H5  UNL     1      -6.282  32.475   7.254  1.00  0.00     0.187 HD
HETATM   25  S1  UNL     1      -3.443  34.237   7.574  1.00  0.00    -0.038 SA
BRANCH  23  26
HETATM   26  C9  UNL     1      -4.078  31.651   8.761  1.00  0.00     0.070 C 
BRANCH  26  27
HETATM   27  C10 UNL     1      -4.439  31.984  10.192  1.00  0.00    -0.017 C 
HETATM   28  C11 UNL     1      -3.269  32.464  10.984  1.00  0.00     0.010 C 
HETATM   29  C12 UNL     1      -5.103  30.767  10.787  1.00  0.00     0.010 C 
ENDBRANCH  26  27
ENDBRANCH  23  26
ENDBRANCH  17  19
ENDBRANCH  14  15
ENDBRANCH  12  14
ENDBRANCH   6  12
TORSDOF 6
ENDMDL
MODEL 3
REMARK VINA RESULT: -7.229718388      0.965      1.203
REMARK  6 active torsions:
REMARK  status: ('A' for Active; 'I' for Inactive)
REMARK    1  A    between atoms: C4_6  and  N2_7 
REMARK    2  A    between atoms: N2_7  and  C5_9 
REMARK    3  A    between atoms: C5_9  and  C6_10 
REMARK       I    between atoms: C6_10  and  N3_12 
REMARK    4  A    between atoms: N3_12  and  C7_14 
REMARK    5  A    between atoms: C8_19  and  C9_20 
REMARK    6  A    between atoms: C9_20  and  C10_21 
ROOT
HETATM    1  C1  UNL     1      -7.798  32.991  -1.172  1.00  0.00     0.052 C 
HETATM    2  C2  UNL     1      -7.276  33.469   0.134  1.00  0.00    -0.008 A 
HETATM    3  C3  UNL     1      -6.264  34.388   0.202  1.00  0.00     0.115 A 
HETATM    4  N1  UNL     1      -5.777  34.832   1.370  1.00  0.00    -0.201 N 
ATOM      5  H1  UNL     1      -5.021  35.517   1.394  1.00  0.00     0.183 HD
HETATM    6  C4  UNL     1      -6.308  34.353   2.509  1.00  0.00     0.679 A 
HETATM    7  N6  UNL     1      -7.303  33.451   2.480  1.00  0.00    -0.181 N 
ATOM      8  H6  UNL     1      -7.687  33.106   3.360  1.00  0.00     0.185 HD
HETATM    9  C13 UNL     1      -7.807  32.990   1.313  1.00  0.00     0.137 A 
HETATM   10  C14 UNL     1      -8.868  32.028   1.272  1.00  0.00     0.118 C 
HETATM   11  N7  UNL     1      -9.723  31.232   1.233  1.00  0.00    -0.190 NA
ENDROOT
BRANCH   6  12
HETATM   12  N2  UNL     1      -5.852  34.770   3.630  1.00  0.00    -0.217 N 
ATOM     13  H2  UNL     1      -6.212  34.345   4.484  1.00  0.00     0.178 HD
BRANCH  12  14
HETATM   14  C5  UNL     1      -4.866  35.800   3.752  1.00  0.00     0.241 C 
BRANCH  14  15
HETATM   15  C6  UNL     1      -5.005  36.593   4.988  1.00  0.00     0.241 C 
HETATM   16  O1  UNL     1      -6.050  37.238   5.216  1.00  0.00    -0.271 OA
HETATM   17  N3  UNL     1      -3.935  36.613   5.914  1.00  0.00    -0.305 N 
ATOM     18  H3  UNL     1      -3.159  37.271   5.835  1.00  0.00     0.171 HD
BRANCH  17  19
HETATM   19  C7  UNL     1      -4.006  35.727   6.883  1.00  0.00     0.167 A 
HETATM   20  N4  UNL     1      -4.861  35.714   7.912  1.00  0.00    -0.279 N 
HETATM   21  N5  UNL     1      -4.783  34.775   8.758  1.00  0.00    -0.296 N 
ATOM     22  H4  UNL     1      -5.563  36.448   8.012  1.00  0.00     0.189 HD
HETATM   23  C8  UNL     1      -3.871  33.823   8.626  1.00  0.00     0.070 A 
ATOM     24  H5  UNL     1      -5.428  34.752   9.548  1.00  0.00     0.187 HD
HETATM   25  S1  UNL     1      -3.079  34.319   7.189  1.00  0.00    -0.038 SA
BRANCH  23  26
HETATM   26  C9  UNL     1      -3.610  32.631   9.506  1.00  0.00     0.070 C 
BRANCH  26  27
HETATM   27  C10 UNL     1      -4.896  31.838   9.595  1.00  0.00    -0.017 C 
HETATM   28  C11 UNL     1      -4.899  30.871  10.732  1.00  0.00     0.010 C 
HETATM   29  C12 UNL     1      -5.118  31.184   8.255  1.00  0.00     0.010 C 
ENDBRANCH  26  27
ENDBRANCH  23  26
ENDBRANCH  17  19
ENDBRANCH  14  15
ENDBRANCH  12  14
ENDBRANCH   6  12
TORSDOF 6
ENDMDL
MODEL 4
REMARK VINA RESULT: -7.183663720      4.068      5.875
REMARK  6 active torsions:
REMARK  status: ('A' for Active; 'I' for Inactive)
REMARK    1  A    between atoms: C4_6  and  N2_7 
REMARK    2  A    between atoms: N2_7  and  C5_9 
REMARK    3  A    between atoms: C5_9  and  C6_10 
REMARK       I    between atoms: C6_10  and  N3_12 
REMARK    4  A    between atoms: N3_12  and  C7_14 
REMARK    5  A    between atoms: C8_19  and  C9_20 
REMARK    6  A    between atoms: C9_20  and  C10_21 
ROOT
HETATM    1  C1  UNL     1      -9.864  37.299  -4.856  1.00  0.00     0.052 C 
HETATM    2  C2  UNL     1      -9.036  36.191  -4.312  1.00  0.00    -0.008 A 
HETATM    3  C3  UNL     1      -7.714  36.374  -4.010  1.00  0.00     0.115 A 
HETATM    4  N1  UNL     1      -6.949  35.388  -3.519  1.00  0.00    -0.201 N 
ATOM      5  H1  UNL     1      -5.965  35.550  -3.303  1.00  0.00     0.183 HD
HETATM    6  C4  UNL     1      -7.509  34.182  -3.319  1.00  0.00     0.679 A 
HETATM    7  N6  UNL     1      -8.803  33.967  -3.604  1.00  0.00    -0.181 N 
ATOM      8  H6  UNL     1      -9.201  33.042  -3.441  1.00  0.00     0.185 HD
HETATM    9  C13 UNL     1      -9.592  34.947  -4.100  1.00  0.00     0.137 A 
HETATM   10  C14 UNL     1     -10.974  34.728  -4.407  1.00  0.00     0.118 C 
HETATM   11  N7  UNL     1     -12.098  34.549  -4.673  1.00  0.00    -0.190 NA
ENDROOT
BRANCH   6  12
HETATM   12  N2  UNL     1      -6.788  33.234  -2.850  1.00  0.00    -0.217 N 
ATOM     13  H2  UNL     1      -6.491  32.495  -3.487  1.00  0.00     0.178 HD
BRANCH  12  14
HETATM   14  C5  UNL     1      -6.376  33.152  -1.482  1.00  0.00     0.241 C 
BRANCH  14  15
HETATM   15  C6  UNL     1      -7.505  33.186  -0.533  1.00  0.00     0.241 C 
HETATM   16  O1  UNL     1      -8.288  32.216  -0.441  1.00  0.00    -0.271 OA
HETATM   17  N3  UNL     1      -7.689  34.334   0.273  1.00  0.00    -0.305 N 
ATOM     18  H3  UNL     1      -8.216  35.146  -0.049  1.00  0.00     0.171 HD
BRANCH  17  19
HETATM   19  C7  UNL     1      -7.136  34.286   1.465  1.00  0.00     0.167 A 
HETATM   20  N4  UNL     1      -7.429  33.445   2.463  1.00  0.00    -0.279 N 
HETATM   21  N5  UNL     1      -6.789  33.544   3.552  1.00  0.00    -0.296 N 
ATOM     22  H4  UNL     1      -8.153  32.736   2.349  1.00  0.00     0.189 HD
HETATM   23  C8  UNL     1      -5.847  34.466   3.698  1.00  0.00     0.070 A 
ATOM     24  H5  UNL     1      -7.000  32.911   4.323  1.00  0.00     0.187 HD
HETATM   25  S1  UNL     1      -5.891  35.232   2.166  1.00  0.00    -0.038 SA
BRANCH  23  26
HETATM   26  C9  UNL     1      -4.977  34.752   4.892  1.00  0.00     0.070 C 
BRANCH  26  27
HETATM   27  C10 UNL     1      -5.844  34.633   6.128  1.00  0.00    -0.017 C 
HETATM   28  C11 UNL     1      -5.897  35.898   6.917  1.00  0.00     0.010 C 
HETATM   29  C12 UNL     1      -5.341  33.454   6.922  1.00  0.00     0.010 C 
ENDBRANCH  26  27
ENDBRANCH  23  26
ENDBRANCH  17  19
ENDBRANCH  14  15
ENDBRANCH  12  14
ENDBRANCH   6  12
TORSDOF 6
ENDMDL
MODEL 5
REMARK VINA RESULT: -6.933267550      2.409      8.403
REMARK  6 active torsions:
REMARK  status: ('A' for Active; 'I' for Inactive)
REMARK    1  A    between atoms: C4_6  and  N2_7 
REMARK    2  A    between atoms: N2_7  and  C5_9 
REMARK    3  A    between atoms: C5_9  and  C6_10 
REMARK       I    between atoms: C6_10  and  N3_12 
REMARK    4  A    between atoms: N3_12  and  C7_14 
REMARK    5  A    between atoms: C8_19  and  C9_20 
REMARK    6  A    between atoms: C9_20  and  C10_21 
ROOT
HETATM    1  C1  UNL     1      -4.768  30.524  10.249  1.00  0.00     0.052 C 
HETATM    2  C2  UNL     1      -4.763  31.585   9.210  1.00  0.00    -0.008 A 
HETATM    3  C3  UNL     1      -5.488  31.454   8.056  1.00  0.00     0.115 A 
HETATM    4  N1  UNL     1      -5.497  32.399   7.105  1.00  0.00    -0.201 N 
ATOM      5  H1  UNL     1      -6.046  32.278   6.253  1.00  0.00     0.183 HD
HETATM    6  C4  UNL     1      -4.767  33.511   7.300  1.00  0.00     0.679 A 
HETATM    7  N6  UNL     1      -4.044  33.674   8.420  1.00  0.00    -0.181 N 
ATOM      8  H6  UNL     1      -3.500  34.529   8.541  1.00  0.00     0.185 HD
HETATM    9  C13 UNL     1      -4.021  32.733   9.391  1.00  0.00     0.137 A 
HETATM   10  C14 UNL     1      -3.253  32.897  10.589  1.00  0.00     0.118 C 
HETATM   11  N7  UNL     1      -2.616  33.020  11.561  1.00  0.00    -0.190 NA
ENDROOT
BRANCH   6  12
HETATM   12  N2  UNL     1      -4.769  34.421   6.399  1.00  0.00    -0.217 N 
ATOM     13  H2  UNL     1      -4.016  35.109   6.408  1.00  0.00     0.178 HD
BRANCH  12  14
HETATM   14  C5  UNL     1      -5.768  34.527   5.380  1.00  0.00     0.241 C 
BRANCH  14  15
HETATM   15  C6  UNL     1      -5.241  35.045   4.102  1.00  0.00     0.241 C 
HETATM   16  O1  UNL     1      -4.015  35.013   3.861  1.00  0.00    -0.271 OA
HETATM   17  N3  UNL     1      -6.145  35.578   3.154  1.00  0.00    -0.305 N 
ATOM     18  H3  UNL     1      -6.446  36.553   3.177  1.00  0.00     0.171 HD
BRANCH  17  19
HETATM   19  C7  UNL     1      -6.572  34.735   2.240  1.00  0.00     0.167 A 
HETATM   20  N4  UNL     1      -6.938  33.461   2.417  1.00  0.00    -0.279 N 
HETATM   21  N5  UNL     1      -7.327  32.792   1.414  1.00  0.00    -0.296 N 
ATOM     22  H4  UNL     1      -6.905  33.035   3.344  1.00  0.00     0.189 HD
HETATM   23  C8  UNL     1      -7.370  33.347   0.211  1.00  0.00     0.070 A 
ATOM     24  H5  UNL     1      -7.609  31.819   1.533  1.00  0.00     0.187 HD
HETATM   25  S1  UNL     1      -6.814  34.931   0.555  1.00  0.00    -0.038 SA
BRANCH  23  26
HETATM   26  C9  UNL     1      -7.795  32.739  -1.099  1.00  0.00     0.070 C 
BRANCH  26  27
HETATM   27  C10 UNL     1      -7.320  33.657  -2.205  1.00  0.00    -0.017 C 
HETATM   28  C11 UNL     1      -8.298  33.761  -3.327  1.00  0.00     0.010 C 
HETATM   29  C12 UNL     1      -5.960  33.175  -2.641  1.00  0.00     0.010 C 
ENDBRANCH  26  27
ENDBRANCH  23  26
ENDBRANCH  17  19
ENDBRANCH  14  15
ENDBRANCH  12  14
ENDBRANCH   6  12
TORSDOF 6
ENDMDL
