MODEL 1
REMARK VINA RESULT: -5.970315066      0.000      0.000
REMARK  6 active torsions:
REMARK  status: ('A' for Active; 'I' for Inactive)
REMARK    1  A    between atoms: C2_2  and  C3_3 
REMARK    2  A    between atoms: C3_3  and  N1_4 
REMARK    3  A    between atoms: N1_4  and  C4_6 
REMARK    4  A    between atoms: C7_15  and  N5_16 
REMARK    5  A    between atoms: C12_24  and  N7_25 
REMARK    6  A    between atoms: N7_25  and  C13_27 
ROOT
HETATM    1  C4  UNL     1      -4.035  32.362  -4.782  1.00  0.00     0.133 A 
HETATM    2  N2  UNL     1      -2.794  31.911  -4.507  1.00  0.00    -0.337 N 
ATOM      3  H2  UNL     1      -2.168  31.686  -5.280  1.00  0.00     0.168 HD
HETATM    4  C5  UNL     1      -2.354  31.748  -3.245  1.00  0.00     0.183 A 
HETATM    5  N3  UNL     1      -3.179  32.045  -2.229  1.00  0.00    -0.337 N 
ATOM      6  H3  UNL     1      -2.847  31.921  -1.273  1.00  0.00     0.168 HD
HETATM    7  C6  UNL     1      -4.433  32.500  -2.428  1.00  0.00     0.139 A 
HETATM    8  N4  UNL     1      -5.236  32.788  -1.421  1.00  0.00    -0.324 N 
ATOM      9  H4  UNL     1      -4.907  32.666  -0.463  1.00  0.00     0.169 HD
HETATM   10  C7  UNL     1      -6.519  33.253  -1.650  1.00  0.00     0.149 A 
HETATM   11  C12 UNL     1      -6.942  33.410  -2.950  1.00  0.00     0.147 A 
HETATM   12  N8  UNL     1      -6.105  33.110  -3.951  1.00  0.00    -0.334 N 
ATOM     13  H8  UNL     1      -6.424  33.229  -4.913  1.00  0.00     0.168 HD
HETATM   14  C16 UNL     1      -4.857  32.657  -3.729  1.00  0.00     0.122 A 
ENDROOT
BRANCH  10  15
HETATM   15  N5  UNL     1      -7.275  33.504  -0.494  1.00  0.00    -0.361 N 
HETATM   16  C8  UNL     1      -8.161  32.421  -0.002  1.00  0.00     0.152 C 
HETATM   17  C9  UNL     1      -8.264  32.662   1.496  1.00  0.00     0.252 C 
HETATM   18  N6  UNL     1      -7.024  33.101   2.077  1.00  0.00    -0.072 N 
HETATM   19  C10 UNL     1      -6.563  34.372   1.594  1.00  0.00     0.252 C 
ATOM     20  H62 UNL     1      -7.090  33.109   3.094  1.00  0.00     0.277 HD
ATOM     21  H61 UNL     1      -6.302  32.390   1.954  1.00  0.00     0.277 HD
HETATM   22  C11 UNL     1      -7.350  34.680   0.321  1.00  0.00     0.152 C 
ENDBRANCH  10  15
BRANCH  11  23
HETATM   23  N7  UNL     1      -8.081  33.833  -3.207  1.00  0.00    -0.369 N 
ATOM     24  H7  UNL     1      -8.810  33.364  -2.671  1.00  0.00     0.161 HD
BRANCH  23  25
HETATM   25  C13 UNL     1      -8.585  34.816  -4.075  1.00  0.00     0.075 C 
HETATM   26  C14 UNL     1     -10.108  34.778  -4.189  1.00  0.00     0.031 C 
HETATM   27  C15 UNL     1      -8.182  36.221  -3.794  1.00  0.00     0.031 C 
ENDBRANCH  23  25
ENDBRANCH  11  23
BRANCH   1  28
HETATM   28  N1  UNL     1      -4.453  32.517  -6.004  1.00  0.00    -0.374 N 
ATOM     29  H1  UNL     1      -4.779  33.425  -6.339  1.00  0.00     0.161 HD
BRANCH  28  30
HETATM   30  C3  UNL     1      -4.442  31.356  -6.877  1.00  0.00     0.121 C 
BRANCH  30  31
HETATM   31  C2  UNL     1      -5.153  30.170  -6.247  1.00  0.00     0.015 C 
HETATM   32  C1  UNL     1      -5.114  28.957  -7.130  1.00  0.00     0.006 C 
ENDBRANCH  30  31
ENDBRANCH  28  30
ENDBRANCH   1  28
TORSDOF 6
ENDMDL
MODEL 2
REMARK VINA RESULT: -5.850984809      5.179      9.222
REMARK  6 active torsions:
REMARK  status: ('A' for Active; 'I' for Inactive)
REMARK    1  A    between atoms: C2_2  and  C3_3 
REMARK    2  A    between atoms: C3_3  and  N1_4 
REMARK    3  A    between atoms: N1_4  and  C4_6 
REMARK    4  A    between atoms: C7_15  and  N5_16 
REMARK    5  A    between atoms: C12_24  and  N7_25 
REMARK    6  A    between atoms: N7_25  and  C13_27 
ROOT
HETATM    1  C4  UNL     1      -6.706  34.333   2.610  1.00  0.00     0.133 A 
HETATM    2  N2  UNL     1      -6.807  35.101   1.506  1.00  0.00    -0.337 N 
ATOM      3  H2  UNL     1      -7.173  34.687   0.649  1.00  0.00     0.168 HD
HETATM    4  C5  UNL     1      -6.443  36.397   1.498  1.00  0.00     0.183 A 
HETATM    5  N3  UNL     1      -5.963  36.940   2.628  1.00  0.00    -0.337 N 
ATOM      6  H3  UNL     1      -5.686  37.922   2.623  1.00  0.00     0.168 HD
HETATM    7  C6  UNL     1      -5.834  36.233   3.769  1.00  0.00     0.139 A 
HETATM    8  N4  UNL     1      -5.359  36.778   4.874  1.00  0.00    -0.324 N 
ATOM      9  H4  UNL     1      -5.081  37.759   4.874  1.00  0.00     0.169 HD
HETATM   10  C7  UNL     1      -5.235  36.032   6.033  1.00  0.00     0.149 A 
HETATM   11  C12 UNL     1      -5.616  34.710   6.012  1.00  0.00     0.147 A 
HETATM   12  N8  UNL     1      -6.094  34.185   4.877  1.00  0.00    -0.334 N 
ATOM     13  H8  UNL     1      -6.375  33.205   4.866  1.00  0.00     0.168 HD
HETATM   14  C16 UNL     1      -6.214  34.910   3.748  1.00  0.00     0.122 A 
ENDROOT
BRANCH  10  15
HETATM   15  N5  UNL     1      -4.702  36.726   7.132  1.00  0.00    -0.361 N 
HETATM   16  C8  UNL     1      -5.655  37.270   8.130  1.00  0.00     0.152 C 
HETATM   17  C9  UNL     1      -4.869  37.301   9.431  1.00  0.00     0.252 C 
HETATM   18  N6  UNL     1      -4.003  36.163   9.587  1.00  0.00    -0.072 N 
HETATM   19  C10 UNL     1      -2.960  36.076   8.603  1.00  0.00     0.252 C 
ATOM     20  H62 UNL     1      -3.608  36.142  10.527  1.00  0.00     0.277 HD
ATOM     21  H61 UNL     1      -4.548  35.301   9.607  1.00  0.00     0.277 HD
HETATM   22  C11 UNL     1      -3.340  37.021   7.463  1.00  0.00     0.152 C 
ENDBRANCH  10  15
BRANCH  11  23
HETATM   23  N7  UNL     1      -5.533  34.002   7.029  1.00  0.00    -0.369 N 
ATOM     24  H7  UNL     1      -5.934  34.444   7.855  1.00  0.00     0.161 HD
BRANCH  23  25
HETATM   25  C13 UNL     1      -5.008  32.725   7.290  1.00  0.00     0.075 C 
HETATM   26  C14 UNL     1      -4.212  32.671   8.593  1.00  0.00     0.031 C 
HETATM   27  C15 UNL     1      -5.977  31.597   7.298  1.00  0.00     0.031 C 
ENDBRANCH  23  25
ENDBRANCH  11  23
BRANCH   1  28
HETATM   28  N1  UNL     1      -7.061  33.081   2.609  1.00  0.00    -0.374 N 
ATOM     29  H1  UNL     1      -6.464  32.364   3.023  1.00  0.00     0.161 HD
BRANCH  28  30
HETATM   30  C3  UNL     1      -8.335  32.738   2.001  1.00  0.00     0.121 C 
BRANCH  30  31
HETATM   31  C2  UNL     1      -8.178  31.674   0.926  1.00  0.00     0.015 C 
HETATM   32  C1  UNL     1      -7.825  32.268  -0.405  1.00  0.00     0.006 C 
ENDBRANCH  30  31
ENDBRANCH  28  30
ENDBRANCH   1  28
TORSDOF 6
ENDMDL
MODEL 3
REMARK VINA RESULT: -5.837154058      6.074     10.139
REMARK  6 active torsions:
REMARK  status: ('A' for Active; 'I' for Inactive)
REMARK    1  A    between atoms: C2_2  and  C3_3 
REMARK    2  A    between atoms: C3_3  and  N1_4 
REMARK    3  A    between atoms: N1_4  and  C4_6 
REMARK    4  A    between atoms: C7_15  and  N5_16 
REMARK    5  A    between atoms: C12_24  and  N7_25 
REMARK    6  A    between atoms: N7_25  and  C13_27 
ROOT
HETATM    1  C4  UNL     1      -6.061  35.032   3.602  1.00  0.00     0.133 A 
HETATM    2  N2  UNL     1      -6.392  36.171   2.960  1.00  0.00    -0.337 N 
ATOM      3  H2  UNL     1      -6.764  36.112   2.012  1.00  0.00     0.168 HD
HETATM    4  C5  UNL     1      -6.250  37.382   3.528  1.00  0.00     0.183 A 
HETATM    5  N3  UNL     1      -5.760  37.457   4.776  1.00  0.00    -0.337 N 
ATOM      6  H3  UNL     1      -5.651  38.375   5.207  1.00  0.00     0.168 HD
HETATM    7  C6  UNL     1      -5.408  36.362   5.478  1.00  0.00     0.139 A 
HETATM    8  N4  UNL     1      -4.927  36.448   6.705  1.00  0.00    -0.324 N 
ATOM      9  H4  UNL     1      -4.816  37.364   7.141  1.00  0.00     0.169 HD
HETATM   10  C7  UNL     1      -4.571  35.310   7.407  1.00  0.00     0.149 A 
HETATM   11  C12 UNL     1      -4.728  34.084   6.801  1.00  0.00     0.147 A 
HETATM   12  N8  UNL     1      -5.218  34.027   5.556  1.00  0.00    -0.334 N 
ATOM     13  H8  UNL     1      -5.333  33.117   5.111  1.00  0.00     0.168 HD
HETATM   14  C16 UNL     1      -5.564  35.135   4.872  1.00  0.00     0.122 A 
ENDROOT
BRANCH  10  15
HETATM   15  N5  UNL     1      -4.058  35.540   8.693  1.00  0.00    -0.361 N 
HETATM   16  C8  UNL     1      -5.029  35.725   9.799  1.00  0.00     0.152 C 
HETATM   17  C9  UNL     1      -4.289  35.256  11.041  1.00  0.00     0.252 C 
HETATM   18  N6  UNL     1      -3.459  34.106  10.795  1.00  0.00    -0.072 N 
HETATM   19  C10 UNL     1      -2.386  34.339   9.869  1.00  0.00     0.252 C 
ATOM     20  H62 UNL     1      -3.098  33.733  11.673  1.00  0.00     0.277 HD
ATOM     21  H61 UNL     1      -4.028  33.316  10.490  1.00  0.00     0.277 HD
HETATM   22  C11 UNL     1      -2.701  35.645   9.139  1.00  0.00     0.152 C 
ENDBRANCH  10  15
BRANCH  11  23
HETATM   23  N7  UNL     1      -4.432  33.033   7.392  1.00  0.00    -0.369 N 
ATOM     24  H7  UNL     1      -3.449  32.783   7.290  1.00  0.00     0.161 HD
BRANCH  23  25
HETATM   25  C13 UNL     1      -5.155  32.113   8.171  1.00  0.00     0.075 C 
HETATM   26  C14 UNL     1      -6.111  31.260   7.339  1.00  0.00     0.031 C 
HETATM   27  C15 UNL     1      -4.356  31.200   9.032  1.00  0.00     0.031 C 
ENDBRANCH  23  25
ENDBRANCH  11  23
BRANCH   1  28
HETATM   28  N1  UNL     1      -6.202  33.864   3.045  1.00  0.00    -0.374 N 
ATOM     29  H1  UNL     1      -5.766  33.033   3.447  1.00  0.00     0.161 HD
BRANCH  28  30
HETATM   30  C3  UNL     1      -7.000  33.782   1.835  1.00  0.00     0.121 C 
BRANCH  30  31
HETATM   31  C2  UNL     1      -8.027  32.663   1.911  1.00  0.00     0.015 C 
HETATM   32  C1  UNL     1      -8.110  31.889   0.629  1.00  0.00     0.006 C 
ENDBRANCH  30  31
ENDBRANCH  28  30
ENDBRANCH   1  28
TORSDOF 6
ENDMDL
MODEL 4
REMARK VINA RESULT: -5.803510312      5.089      9.085
REMARK  6 active torsions:
REMARK  status: ('A' for Active; 'I' for Inactive)
REMARK    1  A    between atoms: C2_2  and  C3_3 
REMARK    2  A    between atoms: C3_3  and  N1_4 
REMARK    3  A    between atoms: N1_4  and  C4_6 
REMARK    4  A    between atoms: C7_15  and  N5_16 
REMARK    5  A    between atoms: C12_24  and  N7_25 
REMARK    6  A    between atoms: N7_25  and  C13_27 
ROOT
HETATM    1  C4  UNL     1      -6.537  34.279   2.390  1.00  0.00     0.133 A 
HETATM    2  N2  UNL     1      -6.439  35.128   1.347  1.00  0.00    -0.337 N 
ATOM      3  H2  UNL     1      -6.749  34.816   0.427  1.00  0.00     0.168 HD
HETATM    4  C5  UNL     1      -5.946  36.374   1.479  1.00  0.00     0.183 A 
HETATM    5  N3  UNL     1      -5.539  36.782   2.691  1.00  0.00    -0.337 N 
ATOM      6  H3  UNL     1      -5.165  37.725   2.793  1.00  0.00     0.168 HD
HETATM    7  C6  UNL     1      -5.607  35.988   3.780  1.00  0.00     0.139 A 
HETATM    8  N4  UNL     1      -5.203  36.400   4.967  1.00  0.00    -0.324 N 
ATOM      9  H4  UNL     1      -4.828  37.343   5.073  1.00  0.00     0.169 HD
HETATM   10  C7  UNL     1      -5.282  35.568   6.069  1.00  0.00     0.149 A 
HETATM   11  C12 UNL     1      -5.790  34.300   5.904  1.00  0.00     0.147 A 
HETATM   12  N8  UNL     1      -6.193  33.909   4.688  1.00  0.00    -0.334 N 
ATOM     13  H8  UNL     1      -6.569  32.969   4.571  1.00  0.00     0.168 HD
HETATM   14  C16 UNL     1      -6.116  34.719   3.615  1.00  0.00     0.122 A 
ENDROOT
BRANCH  10  15
HETATM   15  N5  UNL     1      -4.803  36.121   7.267  1.00  0.00    -0.361 N 
HETATM   16  C8  UNL     1      -3.337  36.297   7.408  1.00  0.00     0.152 C 
HETATM   17  C9  UNL     1      -3.180  37.467   8.364  1.00  0.00     0.252 C 
HETATM   18  N6  UNL     1      -4.162  38.497   8.150  1.00  0.00    -0.072 N 
HETATM   19  C10 UNL     1      -5.515  38.082   8.393  1.00  0.00     0.252 C 
ATOM     20  H62 UNL     1      -3.938  39.324   8.704  1.00  0.00     0.277 HD
ATOM     21  H61 UNL     1      -4.072  38.886   7.211  1.00  0.00     0.277 HD
HETATM   22  C11 UNL     1      -5.516  36.554   8.432  1.00  0.00     0.152 C 
ENDBRANCH  10  15
BRANCH  11  23
HETATM   23  N7  UNL     1      -5.891  33.519   6.864  1.00  0.00    -0.369 N 
ATOM     24  H7  UNL     1      -6.701  33.713   7.452  1.00  0.00     0.161 HD
BRANCH  23  25
HETATM   25  C13 UNL     1      -5.133  32.426   7.318  1.00  0.00     0.075 C 
HETATM   26  C14 UNL     1      -4.218  32.788   8.487  1.00  0.00     0.031 C 
HETATM   27  C15 UNL     1      -5.890  31.201   7.692  1.00  0.00     0.031 C 
ENDBRANCH  23  25
ENDBRANCH  11  23
BRANCH   1  28
HETATM   28  N1  UNL     1      -7.016  33.076   2.254  1.00  0.00    -0.374 N 
ATOM     29  H1  UNL     1      -6.523  32.267   2.634  1.00  0.00     0.161 HD
BRANCH  28  30
HETATM   30  C3  UNL     1      -8.273  32.923   1.543  1.00  0.00     0.121 C 
BRANCH  30  31
HETATM   31  C2  UNL     1      -8.140  31.978   0.360  1.00  0.00     0.015 C 
HETATM   32  C1  UNL     1      -7.766  32.701  -0.899  1.00  0.00     0.006 C 
ENDBRANCH  30  31
ENDBRANCH  28  30
ENDBRANCH   1  28
TORSDOF 6
ENDMDL
MODEL 5
REMARK VINA RESULT: -5.793215477      4.368      8.408
REMARK  6 active torsions:
REMARK  status: ('A' for Active; 'I' for Inactive)
REMARK    1  A    between atoms: C2_2  and  C3_3 
REMARK    2  A    between atoms: C3_3  and  N1_4 
REMARK    3  A    between atoms: N1_4  and  C4_6 
REMARK    4  A    between atoms: C7_15  and  N5_16 
REMARK    5  A    between atoms: C12_24  and  N7_25 
REMARK    6  A    between atoms: N7_25  and  C13_27 
ROOT
HETATM    1  C4  UNL     1      -5.848  34.967   5.385  1.00  0.00     0.133 A 
HETATM    2  N2  UNL     1      -5.447  35.980   6.180  1.00  0.00    -0.337 N 
ATOM      3  H2  UNL     1      -5.461  35.847   7.192  1.00  0.00     0.168 HD
HETATM    4  C5  UNL     1      -5.029  37.159   5.685  1.00  0.00     0.183 A 
HETATM    5  N3  UNL     1      -5.011  37.331   4.354  1.00  0.00    -0.337 N 
ATOM      6  H3  UNL     1      -4.695  38.224   3.977  1.00  0.00     0.168 HD
HETATM    7  C6  UNL     1      -5.397  36.363   3.497  1.00  0.00     0.139 A 
HETATM    8  N4  UNL     1      -5.376  36.544   2.189  1.00  0.00    -0.324 N 
ATOM      9  H4  UNL     1      -5.060  37.436   1.808  1.00  0.00     0.169 HD
HETATM   10  C7  UNL     1      -5.778  35.537   1.330  1.00  0.00     0.149 A 
HETATM   11  C12 UNL     1      -6.201  34.342   1.865  1.00  0.00     0.147 A 
HETATM   12  N8  UNL     1      -6.211  34.187   3.195  1.00  0.00    -0.334 N 
ATOM     13  H8  UNL     1      -6.525  33.299   3.586  1.00  0.00     0.168 HD
HETATM   14  C16 UNL     1      -5.821  35.167   4.032  1.00  0.00     0.122 A 
ENDROOT
BRANCH  10  15
HETATM   15  N5  UNL     1      -5.724  35.864  -0.034  1.00  0.00    -0.361 N 
HETATM   16  C8  UNL     1      -6.761  36.783  -0.564  1.00  0.00     0.152 C 
HETATM   17  C9  UNL     1      -6.094  37.474  -1.742  1.00  0.00     0.252 C 
HETATM   18  N6  UNL     1      -4.708  37.775  -1.501  1.00  0.00    -0.072 N 
HETATM   19  C10 UNL     1      -3.877  36.618  -1.315  1.00  0.00     0.252 C 
ATOM     20  H62 UNL     1      -4.337  38.365  -2.246  1.00  0.00     0.277 HD
ATOM     21  H61 UNL     1      -4.615  38.412  -0.710  1.00  0.00     0.277 HD
HETATM   22  C11 UNL     1      -4.808  35.436  -1.049  1.00  0.00     0.152 C 
ENDBRANCH  10  15
BRANCH  11  23
HETATM   23  N7  UNL     1      -6.562  33.404   1.135  1.00  0.00    -0.369 N 
ATOM     24  H7  UNL     1      -5.792  32.794   0.861  1.00  0.00     0.161 HD
BRANCH  23  25
HETATM   25  C13 UNL     1      -7.798  32.999   0.604  1.00  0.00     0.075 C 
HETATM   26  C14 UNL     1      -7.827  33.042  -0.922  1.00  0.00     0.031 C 
HETATM   27  C15 UNL     1      -8.302  31.667   1.035  1.00  0.00     0.031 C 
ENDBRANCH  23  25
ENDBRANCH  11  23
BRANCH   1  28
HETATM   28  N1  UNL     1      -6.251  33.830   5.872  1.00  0.00    -0.374 N 
ATOM     29  H1  UNL     1      -7.114  33.393   5.546  1.00  0.00     0.161 HD
BRANCH  28  30
HETATM   30  C3  UNL     1      -5.433  33.202   6.895  1.00  0.00     0.121 C 
BRANCH  30  31
HETATM   31  C2  UNL     1      -5.932  31.809   7.241  1.00  0.00     0.015 C 
HETATM   32  C1  UNL     1      -5.145  31.191   8.358  1.00  0.00     0.006 C 
ENDBRANCH  30  31
ENDBRANCH  28  30
ENDBRANCH   1  28
TORSDOF 6
ENDMDL
