MODEL 1
REMARK VINA RESULT: -6.027453867      0.000      0.000
REMARK  5 active torsions:
REMARK  status: ('A' for Active; 'I' for Inactive)
REMARK    1  A    between atoms: C1_2  and  C2_4 
REMARK    2  A    between atoms: C4_8  and  N3_9 
REMARK    3  A    between atoms: N3_9  and  N4_11 
REMARK    4  A    between atoms: C5_13  and  C6_14 
REMARK    5  A    between atoms: N5_18  and  O2_19 
ROOT
HETATM    1  N3  UNL     1      -8.161  33.864  -3.724  1.00  0.00    -0.132 N 
ATOM      2  H3  UNL     1      -7.601  33.351  -4.405  1.00  0.00     0.205 HD
ENDROOT
BRANCH   1   3
HETATM    3  C4  UNL     1      -8.760  34.965  -4.075  1.00  0.00     0.696 A 
HETATM    4  N2  UNL     1      -8.096  36.141  -4.107  1.00  0.00    -0.199 N 
HETATM    5  C3  UNL     1      -8.698  37.284  -4.467  1.00  0.00     0.124 A 
ATOM      6  H2  UNL     1      -7.109  36.161  -3.851  1.00  0.00     0.183 HD
HETATM    7  C2  UNL     1     -10.027  37.260  -4.810  1.00  0.00     0.061 A 
HETATM    8  C11 UNL     1     -10.728  36.088  -4.788  1.00  0.00     0.124 A 
HETATM    9  N6  UNL     1     -10.061  34.956  -4.413  1.00  0.00    -0.199 N 
ATOM     10  H6  UNL     1     -10.568  34.072  -4.390  1.00  0.00     0.183 HD
BRANCH   7  11
HETATM   11  C1  UNL     1     -10.684  38.492  -5.199  1.00  0.00     0.267 C 
HETATM   12  N1  UNL     1     -10.320  39.120  -6.410  1.00  0.00    -0.057 NA
HETATM   13  O1  UNL     1     -11.568  39.008  -4.477  1.00  0.00    -0.271 OA
ENDBRANCH   7  11
ENDBRANCH   1   3
BRANCH   1  14
HETATM   14  N4  UNL     1      -8.280  33.386  -2.423  1.00  0.00    -0.297 N 
HETATM   15  C5  UNL     1      -7.413  33.740  -1.543  1.00  0.00     0.120 C 
ATOM     16  H4  UNL     1      -9.046  32.762  -2.170  1.00  0.00     0.186 HD
BRANCH  15  17
HETATM   17  C6  UNL     1      -7.555  33.229  -0.185  1.00  0.00    -0.001 A 
HETATM   18  C7  UNL     1      -8.199  32.011   0.029  1.00  0.00     0.016 A 
HETATM   19  C8  UNL     1      -8.312  31.564   1.320  1.00  0.00     0.021 A 
HETATM   20  C9  UNL     1      -7.791  32.326   2.338  1.00  0.00     0.122 A 
HETATM   21  N5  UNL     1      -7.177  33.495   2.108  1.00  0.00    -0.246 N 
HETATM   22  C10 UNL     1      -7.048  33.962   0.865  1.00  0.00     0.135 A 
BRANCH  21  23
HETATM   23  O2  UNL     1      -6.654  34.260   3.143  1.00  0.00    -0.284 OA
ATOM     24  H2  UNL     1      -7.179  34.907   3.600  1.00  0.00     0.245 HD
ENDBRANCH  21  23
ENDBRANCH  15  17
ENDBRANCH   1  14
TORSDOF 5
ENDMDL
MODEL 2
REMARK VINA RESULT: -6.019477185      4.017      6.672
REMARK  5 active torsions:
REMARK  status: ('A' for Active; 'I' for Inactive)
REMARK    1  A    between atoms: C1_2  and  C2_4 
REMARK    2  A    between atoms: C4_8  and  N3_9 
REMARK    3  A    between atoms: N3_9  and  N4_11 
REMARK    4  A    between atoms: C5_13  and  C6_14 
REMARK    5  A    between atoms: N5_18  and  O2_19 
ROOT
HETATM    1  N3  UNL     1      -7.644  32.668   3.262  1.00  0.00    -0.132 N 
ATOM      2  H3  UNL     1      -8.088  31.839   3.657  1.00  0.00     0.205 HD
ENDROOT
BRANCH   1   3
HETATM    3  C4  UNL     1      -7.615  32.835   1.971  1.00  0.00     0.696 A 
HETATM    4  N2  UNL     1      -7.398  34.055   1.431  1.00  0.00    -0.199 N 
HETATM    5  C3  UNL     1      -7.365  34.244   0.104  1.00  0.00     0.124 A 
ATOM      6  H2  UNL     1      -7.256  34.853   2.049  1.00  0.00     0.183 HD
HETATM    7  C2  UNL     1      -7.558  33.171  -0.730  1.00  0.00     0.061 A 
HETATM    8  C11 UNL     1      -7.780  31.924  -0.216  1.00  0.00     0.124 A 
HETATM    9  N6  UNL     1      -7.803  31.794   1.144  1.00  0.00    -0.199 N 
ATOM     10  H6  UNL     1      -7.969  30.871   1.545  1.00  0.00     0.183 HD
BRANCH   7  11
HETATM   11  C1  UNL     1      -7.524  33.369  -2.165  1.00  0.00     0.267 C 
HETATM   12  N1  UNL     1      -6.333  33.100  -2.875  1.00  0.00    -0.057 NA
HETATM   13  O1  UNL     1      -8.533  33.776  -2.785  1.00  0.00    -0.271 OA
ENDBRANCH   7  11
ENDBRANCH   1   3
BRANCH   1  14
HETATM   14  N4  UNL     1      -7.073  33.617   4.104  1.00  0.00    -0.297 N 
HETATM   15  C5  UNL     1      -6.530  33.233   5.203  1.00  0.00     0.120 C 
ATOM     16  H4  UNL     1      -7.084  34.605   3.851  1.00  0.00     0.186 HD
BRANCH  15  17
HETATM   17  C6  UNL     1      -5.937  34.242   6.073  1.00  0.00    -0.001 A 
HETATM   18  C7  UNL     1      -4.792  33.933   6.807  1.00  0.00     0.016 A 
HETATM   19  C8  UNL     1      -4.265  34.908   7.612  1.00  0.00     0.021 A 
HETATM   20  C9  UNL     1      -4.879  36.136   7.663  1.00  0.00     0.122 A 
HETATM   21  N5  UNL     1      -5.979  36.411   6.948  1.00  0.00    -0.246 N 
HETATM   22  C10 UNL     1      -6.521  35.488   6.153  1.00  0.00     0.135 A 
BRANCH  21  23
HETATM   23  O2  UNL     1      -6.593  37.656   7.005  1.00  0.00    -0.284 OA
ATOM     24  H2  UNL     1      -6.101  38.461   6.887  1.00  0.00     0.245 HD
ENDBRANCH  21  23
ENDBRANCH  15  17
ENDBRANCH   1  14
TORSDOF 5
ENDMDL
MODEL 3
REMARK VINA RESULT: -5.929190737      4.103      6.807
REMARK  5 active torsions:
REMARK  status: ('A' for Active; 'I' for Inactive)
REMARK    1  A    between atoms: C1_2  and  C2_4 
REMARK    2  A    between atoms: C4_8  and  N3_9 
REMARK    3  A    between atoms: N3_9  and  N4_11 
REMARK    4  A    between atoms: C5_13  and  C6_14 
REMARK    5  A    between atoms: N5_18  and  O2_19 
ROOT
HETATM    1  N3  UNL     1      -7.696  32.799   3.344  1.00  0.00    -0.132 N 
ATOM      2  H3  UNL     1      -8.268  32.070   3.769  1.00  0.00     0.205 HD
ENDROOT
BRANCH   1   3
HETATM    3  C4  UNL     1      -7.646  32.913   2.048  1.00  0.00     0.696 A 
HETATM    4  N2  UNL     1      -7.872  31.849   1.246  1.00  0.00    -0.199 N 
HETATM    5  C3  UNL     1      -7.825  31.950  -0.090  1.00  0.00     0.124 A 
ATOM      6  H2  UNL     1      -8.084  30.946   1.668  1.00  0.00     0.183 HD
HETATM    7  C2  UNL     1      -7.538  33.165  -0.660  1.00  0.00     0.061 A 
HETATM    8  C11 UNL     1      -7.304  34.261   0.123  1.00  0.00     0.124 A 
HETATM    9  N6  UNL     1      -7.366  34.096   1.478  1.00  0.00    -0.199 N 
ATOM     10  H6  UNL     1      -7.193  34.903   2.078  1.00  0.00     0.183 HD
BRANCH   7  11
HETATM   11  C1  UNL     1      -7.485  33.280  -2.103  1.00  0.00     0.267 C 
HETATM   12  N1  UNL     1      -6.267  33.033  -2.775  1.00  0.00    -0.057 NA
HETATM   13  O1  UNL     1      -8.501  33.595  -2.765  1.00  0.00    -0.271 OA
ENDBRANCH   7  11
ENDBRANCH   1   3
BRANCH   1  14
HETATM   14  N4  UNL     1      -6.970  33.669   4.152  1.00  0.00    -0.297 N 
HETATM   15  C5  UNL     1      -6.608  33.283   5.323  1.00  0.00     0.120 C 
ATOM     16  H4  UNL     1      -6.728  34.602   3.819  1.00  0.00     0.186 HD
BRANCH  15  17
HETATM   17  C6  UNL     1      -5.849  34.209   6.154  1.00  0.00    -0.001 A 
HETATM   18  C7  UNL     1      -4.724  33.755   6.843  1.00  0.00     0.016 A 
HETATM   19  C8  UNL     1      -4.038  34.656   7.613  1.00  0.00     0.021 A 
HETATM   20  C9  UNL     1      -4.480  35.955   7.676  1.00  0.00     0.122 A 
HETATM   21  N5  UNL     1      -5.565  36.369   7.006  1.00  0.00    -0.246 N 
HETATM   22  C10 UNL     1      -6.258  35.521   6.245  1.00  0.00     0.135 A 
BRANCH  21  23
HETATM   23  O2  UNL     1      -6.006  37.685   7.075  1.00  0.00    -0.284 OA
ATOM     24  H2  UNL     1      -6.660  37.959   7.708  1.00  0.00     0.245 HD
ENDBRANCH  21  23
ENDBRANCH  15  17
ENDBRANCH   1  14
TORSDOF 5
ENDMDL
MODEL 4
REMARK VINA RESULT: -5.911114718      4.196      6.854
REMARK  5 active torsions:
REMARK  status: ('A' for Active; 'I' for Inactive)
REMARK    1  A    between atoms: C1_2  and  C2_4 
REMARK    2  A    between atoms: C4_8  and  N3_9 
REMARK    3  A    between atoms: N3_9  and  N4_11 
REMARK    4  A    between atoms: C5_13  and  C6_14 
REMARK    5  A    between atoms: N5_18  and  O2_19 
ROOT
HETATM    1  N3  UNL     1      -7.731  32.801   3.310  1.00  0.00    -0.132 N 
ATOM      2  H3  UNL     1      -8.331  32.088   3.724  1.00  0.00     0.205 HD
ENDROOT
BRANCH   1   3
HETATM    3  C4  UNL     1      -7.658  32.915   2.015  1.00  0.00     0.696 A 
HETATM    4  N2  UNL     1      -7.841  31.846   1.209  1.00  0.00    -0.199 N 
HETATM    5  C3  UNL     1      -7.769  31.946  -0.126  1.00  0.00     0.124 A 
ATOM      6  H2  UNL     1      -8.038  30.937   1.628  1.00  0.00     0.183 HD
HETATM    7  C2  UNL     1      -7.501  33.168  -0.691  1.00  0.00     0.061 A 
HETATM    8  C11 UNL     1      -7.311  34.270   0.095  1.00  0.00     0.124 A 
HETATM    9  N6  UNL     1      -7.396  34.105   1.448  1.00  0.00    -0.199 N 
ATOM     10  H6  UNL     1      -7.255  34.916   2.051  1.00  0.00     0.183 HD
BRANCH   7  11
HETATM   11  C1  UNL     1      -7.422  33.283  -2.133  1.00  0.00     0.267 C 
HETATM   12  N1  UNL     1      -6.196  33.019  -2.784  1.00  0.00    -0.057 NA
HETATM   13  O1  UNL     1      -8.422  33.614  -2.812  1.00  0.00    -0.271 OA
ENDBRANCH   7  11
ENDBRANCH   1   3
BRANCH   1  14
HETATM   14  N4  UNL     1      -6.993  33.649   4.130  1.00  0.00    -0.297 N 
HETATM   15  C5  UNL     1      -6.614  33.230   5.284  1.00  0.00     0.120 C 
ATOM     16  H4  UNL     1      -6.756  34.591   3.819  1.00  0.00     0.186 HD
BRANCH  15  17
HETATM   17  C6  UNL     1      -5.842  34.133   6.129  1.00  0.00    -0.001 A 
HETATM   18  C7  UNL     1      -6.220  35.471   6.235  1.00  0.00     0.016 A 
HETATM   19  C8  UNL     1      -5.469  36.287   7.040  1.00  0.00     0.021 A 
HETATM   20  C9  UNL     1      -4.387  35.760   7.702  1.00  0.00     0.122 A 
HETATM   21  N5  UNL     1      -4.042  34.470   7.584  1.00  0.00    -0.246 N 
HETATM   22  C10 UNL     1      -4.748  33.645   6.811  1.00  0.00     0.135 A 
BRANCH  21  23
HETATM   23  O2  UNL     1      -2.945  33.945   8.257  1.00  0.00    -0.284 OA
ATOM     24  H2  UNL     1      -2.619  33.071   8.074  1.00  0.00     0.245 HD
ENDBRANCH  21  23
ENDBRANCH  15  17
ENDBRANCH   1  14
TORSDOF 5
ENDMDL
MODEL 5
REMARK VINA RESULT: -5.908633818      4.306      8.404
REMARK  5 active torsions:
REMARK  status: ('A' for Active; 'I' for Inactive)
REMARK    1  A    between atoms: C1_2  and  C2_4 
REMARK    2  A    between atoms: C4_8  and  N3_9 
REMARK    3  A    between atoms: N3_9  and  N4_11 
REMARK    4  A    between atoms: C5_13  and  C6_14 
REMARK    5  A    between atoms: N5_18  and  O2_19 
ROOT
HETATM    1  N3  UNL     1      -7.589  32.527   2.059  1.00  0.00    -0.132 N 
ATOM      2  H3  UNL     1      -8.293  31.797   2.167  1.00  0.00     0.205 HD
ENDROOT
BRANCH   1   3
HETATM    3  C4  UNL     1      -7.149  33.164   3.107  1.00  0.00     0.696 A 
HETATM    4  N2  UNL     1      -7.454  32.746   4.355  1.00  0.00    -0.199 N 
HETATM    5  C3  UNL     1      -7.009  33.390   5.444  1.00  0.00     0.124 A 
ATOM      6  H2  UNL     1      -8.038  31.918   4.473  1.00  0.00     0.183 HD
HETATM    7  C2  UNL     1      -6.224  34.505   5.288  1.00  0.00     0.061 A 
HETATM    8  C11 UNL     1      -5.898  34.955   4.039  1.00  0.00     0.124 A 
HETATM    9  N6  UNL     1      -6.381  34.257   2.968  1.00  0.00    -0.199 N 
ATOM     10  H6  UNL     1      -6.149  34.578   2.028  1.00  0.00     0.183 HD
BRANCH   7  11
HETATM   11  C1  UNL     1      -5.741  35.206   6.460  1.00  0.00     0.267 C 
HETATM   12  N1  UNL     1      -6.342  36.428   6.835  1.00  0.00    -0.057 NA
HETATM   13  O1  UNL     1      -4.799  34.745   7.146  1.00  0.00    -0.271 OA
ENDBRANCH   7  11
ENDBRANCH   1   3
BRANCH   1  14
HETATM   14  N4  UNL     1      -7.103  32.841   0.794  1.00  0.00    -0.297 N 
HETATM   15  C5  UNL     1      -7.791  32.515  -0.241  1.00  0.00     0.120 C 
ATOM     16  H4  UNL     1      -6.211  33.324   0.689  1.00  0.00     0.186 HD
BRANCH  15  17
HETATM   17  C6  UNL     1      -7.265  32.851  -1.558  1.00  0.00    -0.001 A 
HETATM   18  C7  UNL     1      -8.145  33.166  -2.593  1.00  0.00     0.016 A 
HETATM   19  C8  UNL     1      -7.611  33.476  -3.816  1.00  0.00     0.021 A 
HETATM   20  C9  UNL     1      -6.246  33.466  -3.970  1.00  0.00     0.122 A 
HETATM   21  N5  UNL     1      -5.419  33.159  -2.962  1.00  0.00    -0.246 N 
HETATM   22  C10 UNL     1      -5.902  32.852  -1.757  1.00  0.00     0.135 A 
BRANCH  21  23
HETATM   23  O2  UNL     1      -4.040  33.151  -3.127  1.00  0.00    -0.284 OA
ATOM     24  H2  UNL     1      -3.512  32.401  -2.876  1.00  0.00     0.245 HD
ENDBRANCH  21  23
ENDBRANCH  15  17
ENDBRANCH   1  14
TORSDOF 5
ENDMDL
