MODEL 1
REMARK VINA RESULT: -5.261990301      0.000      0.000
REMARK  6 active torsions:
REMARK  status: ('A' for Active; 'I' for Inactive)
REMARK    1  A    between atoms: N1_1  and  N2_4 
REMARK    2  A    between atoms: N2_4  and  S1_6 
REMARK    3  A    between atoms: S1_6  and  C1_8 
REMARK    4  A    between atoms: S1_6  and  N4_16 
REMARK    5  A    between atoms: C1_8  and  C2_9 
REMARK    6  A    between atoms: N4_16  and  C7_18 
ROOT
HETATM    1  S1  UNL     1      -6.494  34.543  -2.590  1.00  0.00     0.130 S 
HETATM    2  O1  UNL     1      -7.152  35.838  -2.205  1.00  0.00    -0.227 OA
ENDROOT
BRANCH   1   3
HETATM    3  N2  UNL     1      -5.178  34.986  -3.359  1.00  0.00    -0.250 N 
ATOM      4  H2  UNL     1      -4.566  35.729  -3.020  1.00  0.00     0.197 HD
BRANCH   3   5
HETATM    5  N1  UNL     1      -4.922  34.281  -4.537  1.00  0.00    -0.337 N 
ATOM      6  H12 UNL     1      -4.711  33.283  -4.528  1.00  0.00     0.177 HD
ATOM      7  H11 UNL     1      -4.963  34.840  -5.388  1.00  0.00     0.177 HD
ENDBRANCH   3   5
ENDBRANCH   1   3
BRANCH   1   8
HETATM    8  C1  UNL     1      -7.529  33.733  -3.779  1.00  0.00     0.198 C 
BRANCH   8   9
HETATM    9  C2  UNL     1      -8.589  34.700  -4.215  1.00  0.00     0.023 A 
HETATM   10  C3  UNL     1      -9.888  34.364  -4.005  1.00  0.00     0.026 A 
HETATM   11  C4  UNL     1     -10.872  35.227  -4.392  1.00  0.00     0.003 A 
HETATM   12  C5  UNL     1     -10.509  36.425  -4.993  1.00  0.00     0.017 A 
HETATM   13  C6  UNL     1      -9.186  36.719  -5.184  1.00  0.00     0.088 A 
HETATM   14  N3  UNL     1      -8.231  35.857  -4.795  1.00  0.00    -0.368 N 
ATOM     15  H3  UNL     1      -7.246  36.079  -4.940  1.00  0.00     0.165 HD
ENDBRANCH   8   9
ENDBRANCH   1   8
BRANCH   1  16
HETATM   16  N4  UNL     1      -6.215  33.520  -1.284  1.00  0.00    -0.284 N 
ATOM     17  H4  UNL     1      -5.273  33.130  -1.231  1.00  0.00     0.178 HD
BRANCH  16  18
HETATM   18  C7  UNL     1      -7.001  33.160  -0.352  1.00  0.00     0.129 A 
HETATM   19  C8  UNL     1      -7.437  34.101   0.574  1.00  0.00     0.137 A 
HETATM   20  N5  UNL     1      -8.269  33.772   1.576  1.00  0.00    -0.371 N 
HETATM   21  C9  UNL     1      -8.714  32.512   1.723  1.00  0.00     0.104 A 
ATOM     22  H5  UNL     1      -8.567  34.489   2.237  1.00  0.00     0.164 HD
HETATM   23  C10 UNL     1      -8.291  31.569   0.814  1.00  0.00     0.106 A 
HETATM   24  N6  UNL     1      -7.445  31.904  -0.206  1.00  0.00    -0.349 N 
ATOM     25  H6  UNL     1      -7.147  31.187  -0.866  1.00  0.00     0.167 HD
ENDBRANCH  16  18
ENDBRANCH   1  16
TORSDOF 6
ENDMDL
MODEL 2
REMARK VINA RESULT: -5.255318744      1.200      1.295
REMARK  6 active torsions:
REMARK  status: ('A' for Active; 'I' for Inactive)
REMARK    1  A    between atoms: N1_1  and  N2_4 
REMARK    2  A    between atoms: N2_4  and  S1_6 
REMARK    3  A    between atoms: S1_6  and  C1_8 
REMARK    4  A    between atoms: S1_6  and  N4_16 
REMARK    5  A    between atoms: C1_8  and  C2_9 
REMARK    6  A    between atoms: N4_16  and  C7_18 
ROOT
HETATM    1  S1  UNL     1      -6.414  33.887  -2.481  1.00  0.00     0.130 S 
HETATM    2  O1  UNL     1      -5.565  35.080  -2.817  1.00  0.00    -0.227 OA
ENDROOT
BRANCH   1   3
HETATM    3  N2  UNL     1      -5.368  32.715  -2.246  1.00  0.00    -0.250 N 
ATOM      4  H2  UNL     1      -5.434  31.816  -2.724  1.00  0.00     0.197 HD
BRANCH   3   5
HETATM    5  N1  UNL     1      -4.352  33.009  -1.335  1.00  0.00    -0.337 N 
ATOM      6  H12 UNL     1      -3.910  33.928  -1.304  1.00  0.00     0.177 HD
ATOM      7  H11 UNL     1      -4.097  32.240  -0.716  1.00  0.00     0.177 HD
ENDBRANCH   3   5
ENDBRANCH   1   3
BRANCH   1   8
HETATM    8  C1  UNL     1      -7.348  33.453  -3.922  1.00  0.00     0.198 C 
BRANCH   8   9
HETATM    9  C2  UNL     1      -8.325  34.556  -4.198  1.00  0.00     0.023 A 
HETATM   10  C3  UNL     1      -9.651  34.266  -4.144  1.00  0.00     0.026 A 
HETATM   11  C4  UNL     1     -10.561  35.252  -4.391  1.00  0.00     0.003 A 
HETATM   12  C5  UNL     1     -10.098  36.526  -4.692  1.00  0.00     0.017 A 
HETATM   13  C6  UNL     1      -8.753  36.770  -4.735  1.00  0.00     0.088 A 
HETATM   14  N3  UNL     1      -7.870  35.786  -4.489  1.00  0.00    -0.368 N 
ATOM     15  H3  UNL     1      -6.868  35.971  -4.523  1.00  0.00     0.165 HD
ENDBRANCH   8   9
ENDBRANCH   1   8
BRANCH   1  16
HETATM   16  N4  UNL     1      -7.453  34.150  -1.183  1.00  0.00    -0.284 N 
ATOM     17  H4  UNL     1      -8.035  34.984  -1.255  1.00  0.00     0.178 HD
BRANCH  16  18
HETATM   18  C7  UNL     1      -7.621  33.463  -0.127  1.00  0.00     0.129 A 
HETATM   19  C8  UNL     1      -7.155  33.954   1.087  1.00  0.00     0.137 A 
HETATM   20  N5  UNL     1      -7.309  33.267   2.232  1.00  0.00    -0.371 N 
HETATM   21  C9  UNL     1      -7.922  32.071   2.247  1.00  0.00     0.104 A 
ATOM     22  H5  UNL     1      -6.954  33.659   3.104  1.00  0.00     0.164 HD
HETATM   23  C10 UNL     1      -8.388  31.571   1.052  1.00  0.00     0.106 A 
HETATM   24  N6  UNL     1      -8.232  32.270  -0.112  1.00  0.00    -0.349 N 
ATOM     25  H6  UNL     1      -8.587  31.878  -0.984  1.00  0.00     0.167 HD
ENDBRANCH  16  18
ENDBRANCH   1  16
TORSDOF 6
ENDMDL
MODEL 3
REMARK VINA RESULT: -5.235225711      1.083      1.430
REMARK  6 active torsions:
REMARK  status: ('A' for Active; 'I' for Inactive)
REMARK    1  A    between atoms: N1_1  and  N2_4 
REMARK    2  A    between atoms: N2_4  and  S1_6 
REMARK    3  A    between atoms: S1_6  and  C1_8 
REMARK    4  A    between atoms: S1_6  and  N4_16 
REMARK    5  A    between atoms: C1_8  and  C2_9 
REMARK    6  A    between atoms: N4_16  and  C7_18 
ROOT
HETATM    1  S1  UNL     1      -6.818  33.825  -2.434  1.00  0.00     0.130 S 
HETATM    2  O1  UNL     1      -7.130  35.227  -1.994  1.00  0.00    -0.227 OA
ENDROOT
BRANCH   1   3
HETATM    3  N2  UNL     1      -5.235  33.794  -2.554  1.00  0.00    -0.250 N 
ATOM      4  H2  UNL     1      -4.699  34.563  -2.957  1.00  0.00     0.197 HD
BRANCH   3   5
HETATM    5  N1  UNL     1      -4.632  32.633  -2.066  1.00  0.00    -0.337 N 
ATOM      6  H12 UNL     1      -3.979  32.090  -2.631  1.00  0.00     0.177 HD
ATOM      7  H11 UNL     1      -4.897  32.382  -1.113  1.00  0.00     0.177 HD
ENDBRANCH   3   5
ENDBRANCH   1   3
BRANCH   1   8
HETATM    8  C1  UNL     1      -7.456  33.608  -4.073  1.00  0.00     0.198 C 
BRANCH   8   9
HETATM    9  C2  UNL     1      -8.476  34.677  -4.325  1.00  0.00     0.023 A 
HETATM   10  C3  UNL     1      -9.788  34.355  -4.189  1.00  0.00     0.026 A 
HETATM   11  C4  UNL     1     -10.737  35.310  -4.412  1.00  0.00     0.003 A 
HETATM   12  C5  UNL     1     -10.326  36.586  -4.774  1.00  0.00     0.017 A 
HETATM   13  C6  UNL     1      -8.992  36.862  -4.899  1.00  0.00     0.088 A 
HETATM   14  N3  UNL     1      -8.071  35.909  -4.675  1.00  0.00    -0.368 N 
ATOM     15  H3  UNL     1      -7.077  36.119  -4.769  1.00  0.00     0.165 HD
ENDBRANCH   8   9
ENDBRANCH   1   8
BRANCH   1  16
HETATM   16  N4  UNL     1      -7.452  32.646  -1.413  1.00  0.00    -0.284 N 
ATOM     17  H4  UNL     1      -7.743  31.783  -1.874  1.00  0.00     0.178 HD
BRANCH  16  18
HETATM   18  C7  UNL     1      -7.621  32.670  -0.154  1.00  0.00     0.129 A 
HETATM   19  C8  UNL     1      -8.591  31.855   0.419  1.00  0.00     0.137 A 
HETATM   20  N5  UNL     1      -8.809  31.843   1.745  1.00  0.00    -0.371 N 
HETATM   21  C9  UNL     1      -8.094  32.623   2.573  1.00  0.00     0.104 A 
ATOM     22  H5  UNL     1      -9.529  31.232   2.129  1.00  0.00     0.164 HD
HETATM   23  C10 UNL     1      -7.130  33.435   2.021  1.00  0.00     0.106 A 
HETATM   24  N6  UNL     1      -6.908  33.447   0.672  1.00  0.00    -0.349 N 
ATOM     25  H6  UNL     1      -6.187  34.059   0.287  1.00  0.00     0.167 HD
ENDBRANCH  16  18
ENDBRANCH   1  16
TORSDOF 6
ENDMDL
MODEL 4
REMARK VINA RESULT: -5.138822443      1.560      1.969
REMARK  6 active torsions:
REMARK  status: ('A' for Active; 'I' for Inactive)
REMARK    1  A    between atoms: N1_1  and  N2_4 
REMARK    2  A    between atoms: N2_4  and  S1_6 
REMARK    3  A    between atoms: S1_6  and  C1_8 
REMARK    4  A    between atoms: S1_6  and  N4_16 
REMARK    5  A    between atoms: C1_8  and  C2_9 
REMARK    6  A    between atoms: N4_16  and  C7_18 
ROOT
HETATM    1  S1  UNL     1      -5.118  33.489  -2.056  1.00  0.00     0.130 S 
HETATM    2  O1  UNL     1      -4.054  34.465  -2.470  1.00  0.00    -0.227 OA
ENDROOT
BRANCH   1   3
HETATM    3  N2  UNL     1      -4.311  32.217  -1.555  1.00  0.00    -0.250 N 
ATOM      4  H2  UNL     1      -4.594  31.263  -1.780  1.00  0.00     0.197 HD
BRANCH   3   5
HETATM    5  N1  UNL     1      -3.184  32.504  -0.783  1.00  0.00    -0.337 N 
ATOM      6  H12 UNL     1      -2.548  31.771  -0.470  1.00  0.00     0.177 HD
ATOM      7  H11 UNL     1      -3.056  33.492  -0.564  1.00  0.00     0.177 HD
ENDBRANCH   3   5
ENDBRANCH   1   3
BRANCH   1   8
HETATM    8  C1  UNL     1      -6.001  32.990  -3.509  1.00  0.00     0.198 C 
BRANCH   8   9
HETATM    9  C2  UNL     1      -7.095  33.984  -3.759  1.00  0.00     0.023 A 
HETATM   10  C3  UNL     1      -8.381  33.566  -3.633  1.00  0.00     0.026 A 
HETATM   11  C4  UNL     1      -9.395  34.451  -3.854  1.00  0.00     0.003 A 
HETATM   12  C5  UNL     1      -9.076  35.756  -4.204  1.00  0.00     0.017 A 
HETATM   13  C6  UNL     1      -7.766  36.131  -4.318  1.00  0.00     0.088 A 
HETATM   14  N3  UNL     1      -6.779  35.245  -4.097  1.00  0.00    -0.368 N 
ATOM     15  H3  UNL     1      -5.803  35.527  -4.184  1.00  0.00     0.165 HD
ENDBRANCH   8   9
ENDBRANCH   1   8
BRANCH   1  16
HETATM   16  N4  UNL     1      -6.193  34.111  -0.920  1.00  0.00    -0.284 N 
ATOM     17  H4  UNL     1      -6.270  35.128  -0.906  1.00  0.00     0.178 HD
BRANCH  16  18
HETATM   18  C7  UNL     1      -6.923  33.503  -0.076  1.00  0.00     0.129 A 
HETATM   19  C8  UNL     1      -7.203  34.107   1.144  1.00  0.00     0.137 A 
HETATM   20  N5  UNL     1      -7.970  33.506   2.070  1.00  0.00    -0.371 N 
HETATM   21  C9  UNL     1      -8.498  32.290   1.851  1.00  0.00     0.104 A 
ATOM     22  H5  UNL     1      -8.154  33.980   2.954  1.00  0.00     0.164 HD
HETATM   23  C10 UNL     1      -8.229  31.678   0.647  1.00  0.00     0.106 A 
HETATM   24  N6  UNL     1      -7.449  32.290  -0.295  1.00  0.00    -0.349 N 
ATOM     25  H6  UNL     1      -7.265  31.815  -1.178  1.00  0.00     0.167 HD
ENDBRANCH  16  18
ENDBRANCH   1  16
TORSDOF 6
ENDMDL
MODEL 5
REMARK VINA RESULT: -5.056179401      3.077      5.278
REMARK  6 active torsions:
REMARK  status: ('A' for Active; 'I' for Inactive)
REMARK    1  A    between atoms: N1_1  and  N2_4 
REMARK    2  A    between atoms: N2_4  and  S1_6 
REMARK    3  A    between atoms: S1_6  and  C1_8 
REMARK    4  A    between atoms: S1_6  and  N4_16 
REMARK    5  A    between atoms: C1_8  and  C2_9 
REMARK    6  A    between atoms: N4_16  and  C7_18 
ROOT
HETATM    1  S1  UNL     1      -7.062  33.801   1.704  1.00  0.00     0.130 S 
HETATM    2  O1  UNL     1      -5.579  33.868   1.474  1.00  0.00    -0.227 OA
ENDROOT
BRANCH   1   3
HETATM    3  N2  UNL     1      -7.204  33.266   3.193  1.00  0.00    -0.250 N 
ATOM      4  H2  UNL     1      -7.733  32.425   3.426  1.00  0.00     0.197 HD
BRANCH   3   5
HETATM    5  N1  UNL     1      -6.551  34.036   4.157  1.00  0.00    -0.337 N 
ATOM      6  H12 UNL     1      -6.354  35.026   4.009  1.00  0.00     0.177 HD
ATOM      7  H11 UNL     1      -6.294  33.531   5.005  1.00  0.00     0.177 HD
ENDBRANCH   3   5
ENDBRANCH   1   3
BRANCH   1   8
HETATM    8  C1  UNL     1      -7.724  32.543   0.647  1.00  0.00     0.198 C 
BRANCH   8   9
HETATM    9  C2  UNL     1      -7.225  32.788  -0.745  1.00  0.00     0.023 A 
HETATM   10  C3  UNL     1      -8.126  33.153  -1.694  1.00  0.00     0.026 A 
HETATM   11  C4  UNL     1      -7.698  33.383  -2.968  1.00  0.00     0.003 A 
HETATM   12  C5  UNL     1      -6.348  33.233  -3.255  1.00  0.00     0.017 A 
HETATM   13  C6  UNL     1      -5.478  32.863  -2.266  1.00  0.00     0.088 A 
HETATM   14  N3  UNL     1      -5.918  32.641  -1.015  1.00  0.00    -0.368 N 
ATOM     15  H3  UNL     1      -5.267  32.365  -0.280  1.00  0.00     0.165 HD
ENDBRANCH   8   9
ENDBRANCH   1   8
BRANCH   1  16
HETATM   16  N4  UNL     1      -7.851  35.260   1.421  1.00  0.00    -0.284 N 
ATOM     17  H4  UNL     1      -8.821  35.297   1.734  1.00  0.00     0.178 HD
BRANCH  16  18
HETATM   18  C7  UNL     1      -7.418  36.323   0.874  1.00  0.00     0.129 A 
HETATM   19  C8  UNL     1      -7.757  37.556   1.419  1.00  0.00     0.137 A 
HETATM   20  N5  UNL     1      -7.325  38.709   0.880  1.00  0.00    -0.371 N 
HETATM   21  C9  UNL     1      -6.544  38.713  -0.214  1.00  0.00     0.104 A 
ATOM     22  H5  UNL     1      -7.594  39.595   1.307  1.00  0.00     0.164 HD
HETATM   23  C10 UNL     1      -6.200  37.500  -0.766  1.00  0.00     0.106 A 
HETATM   24  N6  UNL     1      -6.640  36.327  -0.217  1.00  0.00    -0.349 N 
ATOM     25  H6  UNL     1      -6.371  35.441  -0.644  1.00  0.00     0.167 HD
ENDBRANCH  16  18
ENDBRANCH   1  16
TORSDOF 6
ENDMDL
