MODEL 1
REMARK VINA RESULT: -5.588629721      0.000      0.000
REMARK  4 active torsions:
REMARK  status: ('A' for Active; 'I' for Inactive)
REMARK    1  A    between atoms: S1_3  and  N2_6 
REMARK    2  A    between atoms: N2_6  and  C2_8 
REMARK    3  A    between atoms: C5_11  and  S2_12 
REMARK    4  A    between atoms: S2_12  and  N3_13 
ROOT
HETATM    1  N1  UNL     1     -10.475  35.247  -4.528  1.00  0.00    -0.177 NA
HETATM    2  C1  UNL     1      -9.430  35.741  -4.384  1.00  0.00     0.215 C 
HETATM    3  S1  UNL     1      -7.883  36.475  -4.155  1.00  0.00     0.328 S 
HETATM    4  O1  UNL     1      -7.311  36.871  -5.497  1.00  0.00    -0.190 OA
HETATM    5  O2  UNL     1      -7.940  37.661  -3.242  1.00  0.00    -0.190 OA
ENDROOT
BRANCH   3   6
HETATM    6  N2  UNL     1      -6.864  35.292  -3.438  1.00  0.00    -0.273 N 
ATOM      7  H2  UNL     1      -5.970  35.095  -3.889  1.00  0.00     0.179 HD
BRANCH   6   8
HETATM    8  C2  UNL     1      -7.185  34.573  -2.261  1.00  0.00     0.043 A 
HETATM    9  C3  UNL     1      -7.861  33.373  -2.407  1.00  0.00     0.031 A 
HETATM   10  C4  UNL     1      -8.179  32.668  -1.272  1.00  0.00     0.027 A 
HETATM   11  C5  UNL     1      -7.839  33.136  -0.021  1.00  0.00     0.079 A 
HETATM   12  C6  UNL     1      -7.176  34.317   0.110  1.00  0.00     0.027 A 
HETATM   13  C7  UNL     1      -6.843  35.046  -1.020  1.00  0.00     0.031 A 
BRANCH  11  14
HETATM   14  S2  UNL     1      -8.297  32.151   1.360  1.00  0.00     0.256 S 
HETATM   15  O3  UNL     1      -9.763  31.908   1.334  1.00  0.00    -0.201 OA
HETATM   16  O4  UNL     1      -7.489  30.888   1.305  1.00  0.00    -0.201 OA
BRANCH  14  17
HETATM   17  N3  UNL     1      -7.921  33.083   2.777  1.00  0.00    -0.324 N 
ATOM     18  H32 UNL     1      -7.761  34.089   2.808  1.00  0.00     0.169 HD
ATOM     19  H31 UNL     1      -7.896  32.426   3.557  1.00  0.00     0.169 HD
ENDBRANCH  14  17
ENDBRANCH  11  14
ENDBRANCH   6   8
ENDBRANCH   3   6
TORSDOF 4
ENDMDL
MODEL 2
REMARK VINA RESULT: -5.489423785      0.547      1.308
REMARK  4 active torsions:
REMARK  status: ('A' for Active; 'I' for Inactive)
REMARK    1  A    between atoms: S1_3  and  N2_6 
REMARK    2  A    between atoms: N2_6  and  C2_8 
REMARK    3  A    between atoms: C5_11  and  S2_12 
REMARK    4  A    between atoms: S2_12  and  N3_13 
ROOT
HETATM    1  N1  UNL     1     -10.907  34.931  -4.424  1.00  0.00    -0.177 NA
HETATM    2  C1  UNL     1      -9.873  35.468  -4.452  1.00  0.00     0.215 C 
HETATM    3  S1  UNL     1      -8.341  36.266  -4.479  1.00  0.00     0.328 S 
HETATM    4  O1  UNL     1      -7.942  36.539  -5.911  1.00  0.00    -0.190 OA
HETATM    5  O2  UNL     1      -8.342  37.536  -3.686  1.00  0.00    -0.190 OA
ENDROOT
BRANCH   3   6
HETATM    6  N2  UNL     1      -7.200  35.192  -3.774  1.00  0.00    -0.273 N 
ATOM      7  H2  UNL     1      -6.319  35.040  -4.266  1.00  0.00     0.179 HD
BRANCH   6   8
HETATM    8  C2  UNL     1      -7.404  34.503  -2.554  1.00  0.00     0.043 A 
HETATM    9  C3  UNL     1      -6.994  35.128  -1.388  1.00  0.00     0.031 A 
HETATM   10  C4  UNL     1      -7.186  34.468  -0.199  1.00  0.00     0.027 A 
HETATM   11  C5  UNL     1      -7.769  33.220  -0.160  1.00  0.00     0.079 A 
HETATM   12  C6  UNL     1      -8.169  32.615  -1.311  1.00  0.00     0.027 A 
HETATM   13  C7  UNL     1      -7.986  33.261  -2.524  1.00  0.00     0.031 A 
BRANCH  11  14
HETATM   14  S2  UNL     1      -7.965  32.471   1.417  1.00  0.00     0.256 S 
HETATM   15  O3  UNL     1      -9.387  32.561   1.840  1.00  0.00    -0.201 OA
HETATM   16  O4  UNL     1      -7.469  31.058   1.314  1.00  0.00    -0.201 OA
BRANCH  14  17
HETATM   17  N3  UNL     1      -7.004  33.399   2.527  1.00  0.00    -0.324 N 
ATOM     18  H32 UNL     1      -6.649  33.077   3.427  1.00  0.00     0.169 HD
ATOM     19  H31 UNL     1      -6.871  34.316   2.099  1.00  0.00     0.169 HD
ENDBRANCH  14  17
ENDBRANCH  11  14
ENDBRANCH   6   8
ENDBRANCH   3   6
TORSDOF 4
ENDMDL
MODEL 3
REMARK VINA RESULT: -5.389927146      2.085      2.469
REMARK  4 active torsions:
REMARK  status: ('A' for Active; 'I' for Inactive)
REMARK    1  A    between atoms: S1_3  and  N2_6 
REMARK    2  A    between atoms: N2_6  and  C2_8 
REMARK    3  A    between atoms: C5_11  and  S2_12 
REMARK    4  A    between atoms: S2_12  and  N3_13 
ROOT
HETATM    1  N1  UNL     1     -12.110  34.210  -4.364  1.00  0.00    -0.177 NA
HETATM    2  C1  UNL     1     -11.159  34.824  -4.638  1.00  0.00     0.215 C 
HETATM    3  S1  UNL     1      -9.747  35.738  -5.030  1.00  0.00     0.328 S 
HETATM    4  O1  UNL     1      -9.698  35.972  -6.523  1.00  0.00    -0.190 OA
HETATM    5  O2  UNL     1      -9.684  37.041  -4.296  1.00  0.00    -0.190 OA
ENDROOT
BRANCH   3   6
HETATM    6  N2  UNL     1      -8.388  34.792  -4.567  1.00  0.00    -0.273 N 
ATOM      7  H2  UNL     1      -7.850  34.336  -5.304  1.00  0.00     0.179 HD
BRANCH   6   8
HETATM    8  C2  UNL     1      -7.969  34.606  -3.228  1.00  0.00     0.043 A 
HETATM    9  C3  UNL     1      -7.242  35.624  -2.635  1.00  0.00     0.031 A 
HETATM   10  C4  UNL     1      -6.829  35.453  -1.337  1.00  0.00     0.027 A 
HETATM   11  C5  UNL     1      -7.126  34.303  -0.638  1.00  0.00     0.079 A 
HETATM   12  C6  UNL     1      -7.841  33.308  -1.230  1.00  0.00     0.027 A 
HETATM   13  C7  UNL     1      -8.269  33.458  -2.539  1.00  0.00     0.031 A 
BRANCH  11  14
HETATM   14  S2  UNL     1      -6.546  34.193   1.017  1.00  0.00     0.256 S 
HETATM   15  O3  UNL     1      -7.158  33.014   1.684  1.00  0.00    -0.201 OA
HETATM   16  O4  UNL     1      -5.047  34.131   0.970  1.00  0.00    -0.201 OA
BRANCH  14  17
HETATM   17  N3  UNL     1      -7.095  35.628   1.828  1.00  0.00    -0.324 N 
ATOM     18  H32 UNL     1      -8.011  35.761   2.256  1.00  0.00     0.169 HD
ATOM     19  H31 UNL     1      -6.325  36.296   1.789  1.00  0.00     0.169 HD
ENDBRANCH  14  17
ENDBRANCH  11  14
ENDBRANCH   6   8
ENDBRANCH   3   6
TORSDOF 4
ENDMDL
MODEL 4
REMARK VINA RESULT: -5.353332205      2.469      5.932
REMARK  4 active torsions:
REMARK  status: ('A' for Active; 'I' for Inactive)
REMARK    1  A    between atoms: S1_3  and  N2_6 
REMARK    2  A    between atoms: N2_6  and  C2_8 
REMARK    3  A    between atoms: C5_11  and  S2_12 
REMARK    4  A    between atoms: S2_12  and  N3_13 
ROOT
HETATM    1  N1  UNL     1      -9.379  32.278   1.218  1.00  0.00    -0.177 NA
HETATM    2  C1  UNL     1      -8.478  33.010   1.112  1.00  0.00     0.215 C 
HETATM    3  S1  UNL     1      -7.133  34.082   0.955  1.00  0.00     0.328 S 
HETATM    4  O1  UNL     1      -7.598  35.505   1.166  1.00  0.00    -0.190 OA
HETATM    5  O2  UNL     1      -6.022  33.751   1.902  1.00  0.00    -0.190 OA
ENDROOT
BRANCH   3   6
HETATM    6  N2  UNL     1      -6.541  33.918  -0.650  1.00  0.00    -0.273 N 
ATOM      7  H2  UNL     1      -5.640  33.459  -0.782  1.00  0.00     0.179 HD
BRANCH   6   8
HETATM    8  C2  UNL     1      -7.225  34.380  -1.800  1.00  0.00     0.043 A 
HETATM    9  C3  UNL     1      -8.029  33.477  -2.475  1.00  0.00     0.031 A 
HETATM   10  C4  UNL     1      -8.696  33.914  -3.593  1.00  0.00     0.027 A 
HETATM   11  C5  UNL     1      -8.572  35.213  -4.037  1.00  0.00     0.079 A 
HETATM   12  C6  UNL     1      -7.780  36.092  -3.366  1.00  0.00     0.027 A 
HETATM   13  C7  UNL     1      -7.097  35.675  -2.235  1.00  0.00     0.031 A 
BRANCH  11  14
HETATM   14  S2  UNL     1      -9.471  35.661  -5.478  1.00  0.00     0.256 S 
HETATM   15  O3  UNL     1      -9.120  34.741  -6.592  1.00  0.00    -0.201 OA
HETATM   16  O4  UNL     1     -10.931  35.633  -5.130  1.00  0.00    -0.201 OA
BRANCH  14  17
HETATM   17  N3  UNL     1      -8.953  37.263  -5.906  1.00  0.00    -0.324 N 
ATOM     18  H32 UNL     1      -7.987  37.579  -5.984  1.00  0.00     0.169 HD
ATOM     19  H31 UNL     1      -9.800  37.810  -6.060  1.00  0.00     0.169 HD
ENDBRANCH  14  17
ENDBRANCH  11  14
ENDBRANCH   6   8
ENDBRANCH   3   6
TORSDOF 4
ENDMDL
MODEL 5
REMARK VINA RESULT: -5.337567564      2.068      2.222
REMARK  4 active torsions:
REMARK  status: ('A' for Active; 'I' for Inactive)
REMARK    1  A    between atoms: S1_3  and  N2_6 
REMARK    2  A    between atoms: N2_6  and  C2_8 
REMARK    3  A    between atoms: C5_11  and  S2_12 
REMARK    4  A    between atoms: S2_12  and  N3_13 
ROOT
HETATM    1  N1  UNL     1     -12.142  34.260  -4.363  1.00  0.00    -0.177 NA
HETATM    2  C1  UNL     1     -11.175  34.843  -4.650  1.00  0.00     0.215 C 
HETATM    3  S1  UNL     1      -9.739  35.711  -5.059  1.00  0.00     0.328 S 
HETATM    4  O1  UNL     1      -9.679  35.906  -6.558  1.00  0.00    -0.190 OA
HETATM    5  O2  UNL     1      -9.645  37.029  -4.357  1.00  0.00    -0.190 OA
ENDROOT
BRANCH   3   6
HETATM    6  N2  UNL     1      -8.406  34.743  -4.568  1.00  0.00    -0.273 N 
ATOM      7  H2  UNL     1      -7.918  34.203  -5.283  1.00  0.00     0.179 HD
BRANCH   6   8
HETATM    8  C2  UNL     1      -7.943  34.646  -3.233  1.00  0.00     0.043 A 
HETATM    9  C3  UNL     1      -8.221  33.480  -2.540  1.00  0.00     0.031 A 
HETATM   10  C4  UNL     1      -7.777  33.376  -1.245  1.00  0.00     0.027 A 
HETATM   11  C5  UNL     1      -7.077  34.400  -0.644  1.00  0.00     0.079 A 
HETATM   12  C6  UNL     1      -6.810  35.542  -1.335  1.00  0.00     0.027 A 
HETATM   13  C7  UNL     1      -7.246  35.670  -2.644  1.00  0.00     0.031 A 
BRANCH  11  14
HETATM   14  S2  UNL     1      -6.560  34.158   1.017  1.00  0.00     0.256 S 
HETATM   15  O3  UNL     1      -7.187  32.924   1.559  1.00  0.00    -0.201 OA
HETATM   16  O4  UNL     1      -5.060  34.108   1.023  1.00  0.00    -0.201 OA
BRANCH  14  17
HETATM   17  N3  UNL     1      -7.152  35.517   1.922  1.00  0.00    -0.324 N 
ATOM     18  H32 UNL     1      -6.581  36.212   2.402  1.00  0.00     0.169 HD
ATOM     19  H31 UNL     1      -8.170  35.475   1.874  1.00  0.00     0.169 HD
ENDBRANCH  14  17
ENDBRANCH  11  14
ENDBRANCH   6   8
ENDBRANCH   3   6
TORSDOF 4
ENDMDL
