MODEL 1
REMARK VINA RESULT: -6.429788037      0.000      0.000
REMARK  2 active torsions:
REMARK  status: ('A' for Active; 'I' for Inactive)
REMARK    1  A    between atoms: O1_2  and  C2_3 
REMARK    2  A    between atoms: C3_4  and  O2_5 
ROOT
HETATM    1  O2  UNL     1      11.820   7.757  38.656  1.00  0.00    -0.247 OA
HETATM    2  C4  UNL     1      12.454   8.132  39.807  1.00  0.00     0.231 C 
HETATM    3  N1  UNL     1      12.989   8.468  40.777  1.00  0.00    -0.164 NA
ENDROOT
BRANCH   1   4
HETATM    4  C3  UNL     1      12.231   8.344  37.458  1.00  0.00     0.315 C 
HETATM    5  C2  UNL     1      11.719   7.503  36.238  1.00  0.00     0.124 C 
HETATM    6  C6  UNL     1      12.607   6.346  36.446  1.00  0.00     0.062 C 
HETATM    7  C17 UNL     1      12.645   8.147  35.246  1.00  0.00     0.065 C 
HETATM    8  C5  UNL     1      13.654   7.389  36.077  1.00  0.00     0.085 C 
HETATM    9  C7  UNL     1      12.614   5.132  35.642  1.00  0.00     0.011 C 
HETATM   10  O3  UNL     1      13.627   8.165  37.239  1.00  0.00    -0.344 OA
HETATM   11  C11 UNL     1      14.864   6.926  35.492  1.00  0.00    -0.008 C 
HETATM   12  C9  UNL     1      15.084   5.462  35.873  1.00  0.00    -0.007 C 
HETATM   13  C12 UNL     1      16.044   7.701  36.066  1.00  0.00     0.019 C 
HETATM   14  C13 UNL     1      14.981   6.991  33.988  1.00  0.00     0.013 C 
HETATM   15  C8  UNL     1      14.002   4.560  35.385  1.00  0.00     0.005 C 
HETATM   16  C10 UNL     1      16.419   4.960  35.405  1.00  0.00     0.011 C 
HETATM   17  C14 UNL     1      14.106   8.013  33.359  1.00  0.00     0.005 C 
HETATM   18  C15 UNL     1      12.644   7.945  33.831  1.00  0.00    -0.009 C 
HETATM   19  C16 UNL     1      12.009   9.178  33.140  1.00  0.00     0.010 C 
BRANCH   5  20
HETATM   20  O1  UNL     1      10.427   7.469  36.129  1.00  0.00    -0.379 OA
HETATM   21  C1  UNL     1       9.603   8.507  35.986  1.00  0.00     0.202 C 
ENDBRANCH   5  20
ENDBRANCH   1   4
TORSDOF 2
ENDMDL
MODEL 2
REMARK VINA RESULT: -6.059291664      4.696      7.008
REMARK  2 active torsions:
REMARK  status: ('A' for Active; 'I' for Inactive)
REMARK    1  A    between atoms: O1_2  and  C2_3 
REMARK    2  A    between atoms: C3_4  and  O2_5 
ROOT
HETATM    1  O2  UNL     1      16.518   4.540  30.145  1.00  0.00    -0.247 OA
HETATM    2  C4  UNL     1      16.738   5.539  29.239  1.00  0.00     0.231 C 
HETATM    3  N1  UNL     1      16.944   6.385  28.477  1.00  0.00    -0.164 NA
ENDROOT
BRANCH   1   4
HETATM    4  C3  UNL     1      17.034   4.695  31.433  1.00  0.00     0.315 C 
HETATM    5  C2  UNL     1      16.304   3.729  32.429  1.00  0.00     0.124 C 
HETATM    6  C6  UNL     1      15.009   4.429  32.427  1.00  0.00     0.062 C 
HETATM    7  C17 UNL     1      16.785   4.437  33.663  1.00  0.00     0.065 C 
HETATM    8  C5  UNL     1      15.857   5.494  33.112  1.00  0.00     0.085 C 
HETATM    9  C7  UNL     1      13.818   4.007  33.151  1.00  0.00     0.011 C 
HETATM   10  O3  UNL     1      16.616   5.923  32.021  1.00  0.00    -0.344 OA
HETATM   11  C11 UNL     1      15.194   6.396  33.988  1.00  0.00    -0.008 C 
HETATM   12  C9  UNL     1      13.712   6.462  33.623  1.00  0.00    -0.007 C 
HETATM   13  C12 UNL     1      15.748   7.803  33.794  1.00  0.00     0.019 C 
HETATM   14  C13 UNL     1      15.249   6.098  35.468  1.00  0.00     0.013 C 
HETATM   15  C8  UNL     1      13.015   5.150  33.756  1.00  0.00     0.005 C 
HETATM   16  C10 UNL     1      12.988   7.508  34.420  1.00  0.00     0.011 C 
HETATM   17  C14 UNL     1      16.414   5.270  35.873  1.00  0.00     0.005 C 
HETATM   18  C15 UNL     1      16.597   4.007  35.014  1.00  0.00    -0.009 C 
HETATM   19  C16 UNL     1      17.927   3.424  35.553  1.00  0.00     0.010 C 
BRANCH   5  20
HETATM   20  O1  UNL     1      16.496   2.471  32.176  1.00  0.00    -0.379 OA
HETATM   21  C1  UNL     1      17.664   1.829  32.124  1.00  0.00     0.202 C 
ENDBRANCH   5  20
ENDBRANCH   1   4
TORSDOF 2
ENDMDL
MODEL 3
REMARK VINA RESULT: -5.787659763      3.819      6.038
REMARK  2 active torsions:
REMARK  status: ('A' for Active; 'I' for Inactive)
REMARK    1  A    between atoms: O1_2  and  C2_3 
REMARK    2  A    between atoms: C3_4  and  O2_5 
ROOT
HETATM    1  O2  UNL     1      15.472   4.246  32.058  1.00  0.00    -0.247 OA
HETATM    2  C4  UNL     1      16.259   3.539  31.193  1.00  0.00     0.231 C 
HETATM    3  N1  UNL     1      16.938   2.938  30.474  1.00  0.00    -0.164 NA
ENDROOT
BRANCH   1   4
HETATM    4  C3  UNL     1      16.072   5.244  32.827  1.00  0.00     0.315 C 
HETATM    5  C2  UNL     1      16.016   4.865  34.347  1.00  0.00     0.124 C 
HETATM    6  C6  UNL     1      14.564   5.046  34.514  1.00  0.00     0.062 C 
HETATM    7  C17 UNL     1      16.334   6.250  34.833  1.00  0.00     0.065 C 
HETATM    8  C5  UNL     1      14.959   6.495  34.255  1.00  0.00     0.085 C 
HETATM    9  C7  UNL     1      13.818   4.803  35.740  1.00  0.00     0.011 C 
HETATM   10  O3  UNL     1      15.261   6.412  32.894  1.00  0.00    -0.344 OA
HETATM   11  C11 UNL     1      14.122   7.509  34.796  1.00  0.00    -0.008 C 
HETATM   12  C9  UNL     1      12.724   6.940  35.033  1.00  0.00    -0.007 C 
HETATM   13  C12 UNL     1      13.962   8.638  33.785  1.00  0.00     0.019 C 
HETATM   14  C13 UNL     1      14.546   8.139  36.102  1.00  0.00     0.013 C 
HETATM   15  C8  UNL     1      12.707   5.810  36.006  1.00  0.00     0.005 C 
HETATM   16  C10 UNL     1      11.757   8.003  35.467  1.00  0.00     0.011 C 
HETATM   17  C14 UNL     1      16.005   8.053  36.367  1.00  0.00     0.005 C 
HETATM   18  C15 UNL     1      16.580   6.638  36.186  1.00  0.00    -0.009 C 
HETATM   19  C16 UNL     1      18.099   6.864  36.384  1.00  0.00     0.010 C 
BRANCH   5  20
HETATM   20  O1  UNL     1      16.697   3.802  34.649  1.00  0.00    -0.379 OA
HETATM   21  C1  UNL     1      18.007   3.613  34.491  1.00  0.00     0.202 C 
ENDBRANCH   5  20
ENDBRANCH   1   4
TORSDOF 2
ENDMDL
MODEL 4
REMARK VINA RESULT: -5.404278865      3.038      5.796
REMARK  2 active torsions:
REMARK  status: ('A' for Active; 'I' for Inactive)
REMARK    1  A    between atoms: O1_2  and  C2_3 
REMARK    2  A    between atoms: C3_4  and  O2_5 
ROOT
HETATM    1  O2  UNL     1      14.889   6.819  35.932  1.00  0.00    -0.247 OA
HETATM    2  C4  UNL     1      13.603   7.038  36.338  1.00  0.00     0.231 C 
HETATM    3  N1  UNL     1      12.516   7.211  36.696  1.00  0.00    -0.164 NA
ENDROOT
BRANCH   1   4
HETATM    4  C3  UNL     1      15.316   5.498  35.783  1.00  0.00     0.315 C 
HETATM    5  C2  UNL     1      16.871   5.449  35.591  1.00  0.00     0.124 C 
HETATM    6  C6  UNL     1      16.894   6.036  34.240  1.00  0.00     0.062 C 
HETATM    7  C17 UNL     1      16.888   4.039  35.075  1.00  0.00     0.065 C 
HETATM    8  C5  UNL     1      16.193   4.721  33.920  1.00  0.00     0.085 C 
HETATM    9  C7  UNL     1      18.092   6.319  33.463  1.00  0.00     0.011 C 
HETATM   10  O3  UNL     1      14.952   4.971  34.511  1.00  0.00    -0.344 OA
HETATM   11  C11 UNL     1      16.326   4.212  32.599  1.00  0.00    -0.008 C 
HETATM   12  C9  UNL     1      16.666   5.357  31.646  1.00  0.00    -0.007 C 
HETATM   13  C12 UNL     1      14.992   3.643  32.130  1.00  0.00     0.019 C 
HETATM   14  C13 UNL     1      17.370   3.146  32.365  1.00  0.00     0.013 C 
HETATM   15  C8  UNL     1      17.954   6.032  31.974  1.00  0.00     0.005 C 
HETATM   16  C10 UNL     1      16.675   4.905  30.215  1.00  0.00     0.011 C 
HETATM   17  C14 UNL     1      17.723   2.370  33.581  1.00  0.00     0.005 C 
HETATM   18  C15 UNL     1      18.049   3.252  34.799  1.00  0.00    -0.009 C 
HETATM   19  C16 UNL     1      18.238   2.208  35.928  1.00  0.00     0.010 C 
BRANCH   5  20
HETATM   20  O1  UNL     1      17.540   5.868  36.621  1.00  0.00    -0.379 OA
HETATM   21  C1  UNL     1      18.082   7.074  36.793  1.00  0.00     0.202 C 
ENDBRANCH   5  20
ENDBRANCH   1   4
TORSDOF 2
ENDMDL
MODEL 5
REMARK VINA RESULT: -5.362138704      2.148      3.052
REMARK  2 active torsions:
REMARK  status: ('A' for Active; 'I' for Inactive)
REMARK    1  A    between atoms: O1_2  and  C2_3 
REMARK    2  A    between atoms: C3_4  and  O2_5 
ROOT
HETATM    1  O2  UNL     1      12.706   6.472  36.172  1.00  0.00    -0.247 OA
HETATM    2  C4  UNL     1      11.862   7.161  36.998  1.00  0.00     0.231 C 
HETATM    3  N1  UNL     1      11.148   7.758  37.684  1.00  0.00    -0.164 NA
ENDROOT
BRANCH   1   4
HETATM    4  C3  UNL     1      13.746   7.173  35.560  1.00  0.00     0.315 C 
HETATM    5  C2  UNL     1      13.673   7.001  34.004  1.00  0.00     0.124 C 
HETATM    6  C6  UNL     1      14.070   5.583  33.971  1.00  0.00     0.062 C 
HETATM    7  C17 UNL     1      15.073   7.489  33.760  1.00  0.00     0.065 C 
HETATM    8  C5  UNL     1      15.379   6.188  34.463  1.00  0.00     0.085 C 
HETATM    9  C7  UNL     1      14.165   4.760  32.774  1.00  0.00     0.011 C 
HETATM   10  O3  UNL     1      15.001   6.532  35.763  1.00  0.00    -0.344 OA
HETATM   11  C11 UNL     1      16.578   5.479  34.175  1.00  0.00    -0.008 C 
HETATM   12  C9  UNL     1      16.251   4.007  33.932  1.00  0.00    -0.007 C 
HETATM   13  C12 UNL     1      17.505   5.521  35.384  1.00  0.00     0.019 C 
HETATM   14  C13 UNL     1      17.385   5.933  32.981  1.00  0.00     0.013 C 
HETATM   15  C8  UNL     1      15.339   3.791  32.772  1.00  0.00     0.005 C 
HETATM   16  C10 UNL     1      17.494   3.181  33.766  1.00  0.00     0.011 C 
HETATM   17  C14 UNL     1      17.162   7.353  32.607  1.00  0.00     0.005 C 
HETATM   18  C15 UNL     1      15.676   7.731  32.486  1.00  0.00    -0.009 C 
HETATM   19  C16 UNL     1      15.736   9.257  32.231  1.00  0.00     0.010 C 
BRANCH   5  20
HETATM   20  O1  UNL     1      12.608   7.513  33.467  1.00  0.00    -0.379 OA
HETATM   21  C1  UNL     1      12.194   8.777  33.547  1.00  0.00     0.202 C 
ENDBRANCH   5  20
ENDBRANCH   1   4
TORSDOF 2
ENDMDL
