MODEL 1
REMARK VINA RESULT: -6.678212551      0.000      0.000
REMARK  3 active torsions:
REMARK  status: ('A' for Active; 'I' for Inactive)
REMARK    1  A    between atoms: C2_2  and  O2_4 
REMARK    2  A    between atoms: O2_4  and  C3_5 
REMARK    3  A    between atoms: C15_19  and  C16_20 
ROOT
HETATM    1  C3  UNL     1      16.714   5.257  30.191  1.00  0.00     0.152 C 
HETATM    2  C4  UNL     1      17.145   5.128  31.429  1.00  0.00    -0.016 C 
HETATM    3  C5  UNL     1      18.166   5.953  32.110  1.00  0.00     0.040 C 
HETATM    4  C6  UNL     1      17.735   5.851  33.580  1.00  0.00     0.013 C 
HETATM    5  C7  UNL     1      17.381   4.430  33.704  1.00  0.00     0.036 C 
HETATM    6  C8  UNL     1      16.586   3.990  34.852  1.00  0.00    -0.011 C 
HETATM    7  C9  UNL     1      17.475   3.251  35.863  1.00  0.00     0.010 C 
HETATM    8  C10 UNL     1      15.750   5.013  35.538  1.00  0.00     0.008 C 
HETATM    9  C11 UNL     1      14.271   4.880  35.149  1.00  0.00     0.043 C 
HETATM   10  C12 UNL     1      13.968   5.649  33.893  1.00  0.00     0.110 A 
HETATM   11  C13 UNL     1      13.707   7.133  34.158  1.00  0.00     0.051 C 
HETATM   12  O3  UNL     1      13.270   5.075  32.853  1.00  0.00    -0.343 OA
HETATM   13  C14 UNL     1      14.729   5.334  32.728  1.00  0.00     0.297 A 
HETATM   14  O4  UNL     1      15.343   4.115  32.630  1.00  0.00    -0.335 OA
HETATM   15  C15 UNL     1      16.686   4.120  32.390  1.00  0.00     0.146 C 
ENDROOT
BRANCH   1  16
HETATM   16  O2  UNL     1      17.207   6.249  29.331  1.00  0.00    -0.291 OA
BRANCH  16  17
HETATM   17  C2  UNL     1      16.746   6.330  28.011  1.00  0.00     0.259 C 
HETATM   18  C1  UNL     1      16.668   7.587  27.253  1.00  0.00     0.126 C 
HETATM   19  O1  UNL     1      16.390   5.241  27.489  1.00  0.00    -0.265 OA
ENDBRANCH  16  17
ENDBRANCH   1  16
BRANCH  15  20
HETATM   20  C16 UNL     1      17.110   2.776  31.929  1.00  0.00     0.274 C 
HETATM   21  O5  UNL     1      18.238   2.389  32.117  1.00  0.00    -0.303 OA
ENDBRANCH  15  20
TORSDOF 3
ENDMDL
MODEL 2
REMARK VINA RESULT: -5.851553075     11.089     12.883
REMARK  3 active torsions:
REMARK  status: ('A' for Active; 'I' for Inactive)
REMARK    1  A    between atoms: C2_2  and  O2_4 
REMARK    2  A    between atoms: O2_4  and  C3_5 
REMARK    3  A    between atoms: C15_19  and  C16_20 
ROOT
HETATM    1  C3  UNL     1       8.334  -3.985  32.050  1.00  0.00     0.152 C 
HETATM    2  C4  UNL     1       7.528  -4.245  33.059  1.00  0.00    -0.016 C 
HETATM    3  C5  UNL     1       7.836  -5.043  34.265  1.00  0.00     0.040 C 
HETATM    4  C6  UNL     1       6.901  -4.420  35.312  1.00  0.00     0.013 C 
HETATM    5  C7  UNL     1       5.658  -4.234  34.550  1.00  0.00     0.036 C 
HETATM    6  C8  UNL     1       4.624  -3.344  35.078  1.00  0.00    -0.011 C 
HETATM    7  C9  UNL     1       3.457  -4.163  35.651  1.00  0.00     0.010 C 
HETATM    8  C10 UNL     1       5.051  -2.295  36.043  1.00  0.00     0.008 C 
HETATM    9  C11 UNL     1       5.133  -0.917  35.372  1.00  0.00     0.043 C 
HETATM   10  C12 UNL     1       6.477  -0.704  34.730  1.00  0.00     0.110 A 
HETATM   11  C13 UNL     1       7.536  -0.221  35.723  1.00  0.00     0.051 C 
HETATM   12  O3  UNL     1       6.586  -0.242  33.437  1.00  0.00    -0.343 OA
HETATM   13  C14 UNL     1       6.902  -1.660  33.760  1.00  0.00     0.297 A 
HETATM   14  O4  UNL     1       5.972  -2.431  33.117  1.00  0.00    -0.335 OA
HETATM   15  C15 UNL     1       6.142  -3.783  33.183  1.00  0.00     0.146 C 
ENDROOT
BRANCH   1  16
HETATM   16  O2  UNL     1       9.649  -4.468  32.005  1.00  0.00    -0.291 OA
BRANCH  16  17
HETATM   17  C2  UNL     1      10.729  -3.580  32.090  1.00  0.00     0.259 C 
HETATM   18  C1  UNL     1      12.035  -3.939  32.660  1.00  0.00     0.126 C 
HETATM   19  O1  UNL     1      10.521  -2.422  31.640  1.00  0.00    -0.265 OA
ENDBRANCH  16  17
ENDBRANCH   1  16
BRANCH  15  20
HETATM   20  C16 UNL     1       5.314  -4.436  32.141  1.00  0.00     0.274 C 
HETATM   21  O5  UNL     1       4.872  -5.547  32.313  1.00  0.00    -0.303 OA
ENDBRANCH  15  20
TORSDOF 3
ENDMDL
MODEL 3
REMARK VINA RESULT: -5.652026784      2.640      4.432
REMARK  3 active torsions:
REMARK  status: ('A' for Active; 'I' for Inactive)
REMARK    1  A    between atoms: C2_2  and  O2_4 
REMARK    2  A    between atoms: O2_4  and  C3_5 
REMARK    3  A    between atoms: C15_19  and  C16_20 
ROOT
HETATM    1  C3  UNL     1      16.111   4.221  32.738  1.00  0.00     0.152 C 
HETATM    2  C4  UNL     1      15.606   4.652  33.877  1.00  0.00    -0.016 C 
HETATM    3  C5  UNL     1      16.122   4.391  35.238  1.00  0.00     0.040 C 
HETATM    4  C6  UNL     1      15.650   5.633  36.006  1.00  0.00     0.013 C 
HETATM    5  C7  UNL     1      14.284   5.818  35.494  1.00  0.00     0.036 C 
HETATM    6  C8  UNL     1      13.610   7.098  35.708  1.00  0.00    -0.011 C 
HETATM    7  C9  UNL     1      12.547   6.962  36.809  1.00  0.00     0.010 C 
HETATM    8  C10 UNL     1      14.465   8.291  35.949  1.00  0.00     0.008 C 
HETATM    9  C11 UNL     1      14.567   9.170  34.695  1.00  0.00     0.043 C 
HETATM   10  C12 UNL     1      15.679   8.705  33.794  1.00  0.00     0.110 A 
HETATM   11  C13 UNL     1      17.046   9.245  34.216  1.00  0.00     0.051 C 
HETATM   12  O3  UNL     1      15.476   8.522  32.444  1.00  0.00    -0.343 OA
HETATM   13  C14 UNL     1      15.639   7.351  33.346  1.00  0.00     0.297 A 
HETATM   14  O4  UNL     1      14.450   6.674  33.339  1.00  0.00    -0.335 OA
HETATM   15  C15 UNL     1      14.412   5.490  34.016  1.00  0.00     0.146 C 
ENDROOT
BRANCH   1  16
HETATM   16  O2  UNL     1      17.259   3.419  32.690  1.00  0.00    -0.291 OA
BRANCH  16  17
HETATM   17  C2  UNL     1      17.323   2.333  31.807  1.00  0.00     0.259 C 
HETATM   18  C1  UNL     1      17.573   0.950  32.236  1.00  0.00     0.126 C 
HETATM   19  O1  UNL     1      17.150   2.607  30.590  1.00  0.00    -0.265 OA
ENDBRANCH  16  17
ENDBRANCH   1  16
BRANCH  15  20
HETATM   20  C16 UNL     1      13.219   4.717  33.592  1.00  0.00     0.274 C 
HETATM   21  O5  UNL     1      12.644   3.998  34.373  1.00  0.00    -0.303 OA
ENDBRANCH  15  20
TORSDOF 3
ENDMDL
MODEL 4
REMARK VINA RESULT: -5.586543058     11.308     13.288
REMARK  3 active torsions:
REMARK  status: ('A' for Active; 'I' for Inactive)
REMARK    1  A    between atoms: C2_2  and  O2_4 
REMARK    2  A    between atoms: O2_4  and  C3_5 
REMARK    3  A    between atoms: C15_19  and  C16_20 
ROOT
HETATM    1  C3  UNL     1       7.801  -4.551  32.796  1.00  0.00     0.152 C 
HETATM    2  C4  UNL     1       6.789  -4.326  33.609  1.00  0.00    -0.016 C 
HETATM    3  C5  UNL     1       6.546  -4.951  34.927  1.00  0.00     0.040 C 
HETATM    4  C6  UNL     1       5.748  -3.864  35.658  1.00  0.00     0.013 C 
HETATM    5  C7  UNL     1       4.828  -3.393  34.612  1.00  0.00     0.036 C 
HETATM    6  C8  UNL     1       4.135  -2.118  34.793  1.00  0.00    -0.011 C 
HETATM    7  C9  UNL     1       2.661  -2.359  35.155  1.00  0.00     0.010 C 
HETATM    8  C10 UNL     1       4.748  -1.130  35.722  1.00  0.00     0.008 C 
HETATM    9  C11 UNL     1       5.468  -0.013  34.956  1.00  0.00     0.043 C 
HETATM   10  C12 UNL     1       6.884  -0.403  34.628  1.00  0.00     0.110 A 
HETATM   11  C13 UNL     1       7.849  -0.153  35.788  1.00  0.00     0.051 C 
HETATM   12  O3  UNL     1       7.392  -0.249  33.357  1.00  0.00    -0.343 OA
HETATM   13  C14 UNL     1       7.080  -1.605  33.884  1.00  0.00     0.297 A 
HETATM   14  O4  UNL     1       6.059  -2.102  33.121  1.00  0.00    -0.335 OA
HETATM   15  C15 UNL     1       5.686  -3.393  33.359  1.00  0.00     0.146 C 
ENDROOT
BRANCH   1  16
HETATM   16  O2  UNL     1       8.818  -5.464  33.108  1.00  0.00    -0.291 OA
BRANCH  16  17
HETATM   17  C2  UNL     1      10.094  -5.314  32.551  1.00  0.00     0.259 C 
HETATM   18  C1  UNL     1      10.515  -4.131  31.788  1.00  0.00     0.126 C 
HETATM   19  O1  UNL     1      10.889  -6.274  32.741  1.00  0.00    -0.265 OA
ENDBRANCH  16  17
ENDBRANCH   1  16
BRANCH  15  20
HETATM   20  C16 UNL     1       4.874  -3.890  32.222  1.00  0.00     0.274 C 
HETATM   21  O5  UNL     1       4.595  -5.061  32.131  1.00  0.00    -0.303 OA
ENDBRANCH  15  20
TORSDOF 3
ENDMDL
MODEL 5
REMARK VINA RESULT: -5.471634455      2.979      5.968
REMARK  3 active torsions:
REMARK  status: ('A' for Active; 'I' for Inactive)
REMARK    1  A    between atoms: C2_2  and  O2_4 
REMARK    2  A    between atoms: O2_4  and  C3_5 
REMARK    3  A    between atoms: C15_19  and  C16_20 
ROOT
HETATM    1  C3  UNL     1      13.511   6.073  36.277  1.00  0.00     0.152 C 
HETATM    2  C4  UNL     1      13.916   5.481  35.172  1.00  0.00    -0.016 C 
HETATM    3  C5  UNL     1      13.068   4.870  34.125  1.00  0.00     0.040 C 
HETATM    4  C6  UNL     1      13.943   5.022  32.873  1.00  0.00     0.013 C 
HETATM    5  C7  UNL     1      15.278   4.674  33.380  1.00  0.00     0.036 C 
HETATM    6  C8  UNL     1      16.457   5.034  32.591  1.00  0.00    -0.011 C 
HETATM    7  C9  UNL     1      17.038   3.788  31.905  1.00  0.00     0.010 C 
HETATM    8  C10 UNL     1      16.315   6.150  31.617  1.00  0.00     0.008 C 
HETATM    9  C11 UNL     1      16.947   7.443  32.151  1.00  0.00     0.043 C 
HETATM   10  C12 UNL     1      15.971   8.215  32.997  1.00  0.00     0.110 A 
HETATM   11  C13 UNL     1      15.029   9.086  32.164  1.00  0.00     0.051 C 
HETATM   12  O3  UNL     1      16.327   8.699  34.237  1.00  0.00    -0.343 OA
HETATM   13  C14 UNL     1      15.396   7.545  34.118  1.00  0.00     0.297 A 
HETATM   14  O4  UNL     1      16.034   6.462  34.659  1.00  0.00    -0.335 OA
HETATM   15  C15 UNL     1      15.311   5.309  34.759  1.00  0.00     0.146 C 
ENDROOT
BRANCH   1  16
HETATM   16  O2  UNL     1      12.153   6.195  36.602  1.00  0.00    -0.291 OA
BRANCH  16  17
HETATM   17  C2  UNL     1      11.667   7.382  37.165  1.00  0.00     0.259 C 
HETATM   18  C1  UNL     1      10.526   8.132  36.623  1.00  0.00     0.126 C 
HETATM   19  O1  UNL     1      12.274   7.789  38.192  1.00  0.00    -0.265 OA
ENDBRANCH  16  17
ENDBRANCH   1  16
BRANCH  15  20
HETATM   20  C16 UNL     1      15.989   4.382  35.697  1.00  0.00     0.274 C 
HETATM   21  O5  UNL     1      17.182   4.447  35.873  1.00  0.00    -0.303 OA
ENDBRANCH  15  20
TORSDOF 3
ENDMDL
