MODEL 1
REMARK VINA RESULT: -10.501309944      0.000      0.000
REMARK  3 active torsions:
REMARK  status: ('A' for Active; 'I' for Inactive)
REMARK    1  A    between atoms: C2_2  and  O1_3 
REMARK    2  A    between atoms: O1_3  and  C3_4 
REMARK    3  A    between atoms: C3_4  and  C4_6 
ROOT
HETATM    1  C4  UNL     1       8.840  -2.335  33.411  1.00  0.00     0.090 A 
HETATM    2  C5  UNL     1       9.603  -1.169  33.601  1.00  0.00     0.162 A 
HETATM    3  O3  UNL     1       9.112  -0.094  34.132  1.00  0.00    -0.320 OA
HETATM    4  C6  UNL     1       7.875  -0.012  34.531  1.00  0.00     0.094 A 
HETATM    5  C7  UNL     1       7.444   1.169  35.081  1.00  0.00    -0.021 A 
HETATM    6  C8  UNL     1       8.400   2.300  35.201  1.00  0.00     0.052 C 
HETATM    7  C9  UNL     1       6.145   1.273  35.504  1.00  0.00    -0.047 A 
HETATM    8  C10 UNL     1       5.678   2.555  36.100  1.00  0.00     0.049 C 
HETATM    9  C11 UNL     1       5.326   0.195  35.362  1.00  0.00    -0.049 A 
HETATM   10  C12 UNL     1       3.917   0.291  35.819  1.00  0.00     0.049 C 
HETATM   11  C13 UNL     1       5.728  -1.038  34.802  1.00  0.00    -0.040 A 
HETATM   12  C14 UNL     1       4.780  -2.133  34.678  1.00  0.00     0.050 C 
HETATM   13  C15 UNL     1       7.036  -1.099  34.393  1.00  0.00     0.033 A 
HETATM   14  C16 UNL     1       7.535  -2.311  33.813  1.00  0.00     0.073 A 
HETATM   15  N1  UNL     1       6.796  -3.261  33.786  1.00  0.00    -0.292 N 
ATOM     16  H1  UNL     1       5.910  -2.906  34.146  1.00  0.00     0.178 HD
HETATM   17  C17 UNL     1       6.559  -4.537  33.523  1.00  0.00     0.182 C 
HETATM   18  N2  UNL     1       6.317  -5.640  33.324  1.00  0.00    -0.172 NA
ENDROOT
BRANCH   1  19
HETATM   19  C3  UNL     1       9.468  -3.429  32.723  1.00  0.00     0.297 C 
HETATM   20  O2  UNL     1       9.202  -4.020  31.694  1.00  0.00    -0.259 OA
BRANCH  19  21
HETATM   21  O1  UNL     1      10.643  -3.943  33.363  1.00  0.00    -0.318 OA
BRANCH  21  22
HETATM   22  C2  UNL     1      11.855  -4.047  32.666  1.00  0.00     0.174 C 
HETATM   23  C1  UNL     1      12.590  -2.745  32.539  1.00  0.00     0.034 C 
ENDBRANCH  21  22
ENDBRANCH  19  21
ENDBRANCH   1  19
TORSDOF 3
ENDMDL
MODEL 2
REMARK VINA RESULT: -10.444885433      1.784      5.658
REMARK  3 active torsions:
REMARK  status: ('A' for Active; 'I' for Inactive)
REMARK    1  A    between atoms: C2_2  and  O1_3 
REMARK    2  A    between atoms: O1_3  and  C3_4 
REMARK    3  A    between atoms: C3_4  and  C4_6 
ROOT
HETATM    1  C4  UNL     1       7.069  -0.476  34.797  1.00  0.00     0.090 A 
HETATM    2  C5  UNL     1       8.199   0.350  34.663  1.00  0.00     0.162 A 
HETATM    3  O3  UNL     1       9.312  -0.069  34.148  1.00  0.00    -0.320 OA
HETATM    4  C6  UNL     1       9.469  -1.287  33.716  1.00  0.00     0.094 A 
HETATM    5  C7  UNL     1      10.684  -1.641  33.189  1.00  0.00    -0.021 A 
HETATM    6  C8  UNL     1      11.767  -0.625  33.129  1.00  0.00     0.052 C 
HETATM    7  C9  UNL     1      10.867  -2.920  32.731  1.00  0.00    -0.047 A 
HETATM    8  C10 UNL     1      12.188  -3.303  32.159  1.00  0.00     0.049 C 
HETATM    9  C11 UNL     1       9.829  -3.796  32.819  1.00  0.00    -0.049 A 
HETATM   10  C12 UNL     1      10.011  -5.184  32.324  1.00  0.00     0.049 C 
HETATM   11  C13 UNL     1       8.563  -3.475  33.354  1.00  0.00    -0.040 A 
HETATM   12  C14 UNL     1       7.515  -4.481  33.420  1.00  0.00     0.050 C 
HETATM   13  C15 UNL     1       8.423  -2.184  33.800  1.00  0.00     0.033 A 
HETATM   14  C16 UNL     1       7.171  -1.766  34.359  1.00  0.00     0.073 A 
HETATM   15  N1  UNL     1       6.260  -2.553  34.337  1.00  0.00    -0.292 N 
ATOM     16  H1  UNL     1       6.671  -3.408  33.962  1.00  0.00     0.178 HD
HETATM   17  C17 UNL     1       4.992  -2.862  34.556  1.00  0.00     0.182 C 
HETATM   18  N2  UNL     1       3.898  -3.166  34.717  1.00  0.00    -0.172 NA
ENDROOT
BRANCH   1  19
HETATM   19  C3  UNL     1       5.926   0.074  35.471  1.00  0.00     0.297 C 
HETATM   20  O2  UNL     1       5.359  -0.215  36.507  1.00  0.00    -0.259 OA
BRANCH  19  21
HETATM   21  O1  UNL     1       5.316   1.186  34.803  1.00  0.00    -0.318 OA
BRANCH  21  22
HETATM   22  C2  UNL     1       5.088   2.394  35.478  1.00  0.00     0.174 C 
HETATM   23  C1  UNL     1       6.314   3.247  35.615  1.00  0.00     0.034 C 
ENDBRANCH  21  22
ENDBRANCH  19  21
ENDBRANCH   1  19
TORSDOF 3
ENDMDL
MODEL 3
REMARK VINA RESULT: -9.834969751      2.074      3.655
REMARK  3 active torsions:
REMARK  status: ('A' for Active; 'I' for Inactive)
REMARK    1  A    between atoms: C2_2  and  O1_3 
REMARK    2  A    between atoms: O1_3  and  C3_4 
REMARK    3  A    between atoms: C3_4  and  C4_6 
ROOT
HETATM    1  C4  UNL     1       8.849  -2.177  33.646  1.00  0.00     0.090 A 
HETATM    2  C5  UNL     1       7.757  -3.062  33.677  1.00  0.00     0.162 A 
HETATM    3  O3  UNL     1       6.581  -2.705  34.088  1.00  0.00    -0.320 OA
HETATM    4  C6  UNL     1       6.321  -1.499  34.504  1.00  0.00     0.094 A 
HETATM    5  C7  UNL     1       5.047  -1.214  34.922  1.00  0.00    -0.021 A 
HETATM    6  C8  UNL     1       4.018  -2.285  34.882  1.00  0.00     0.052 C 
HETATM    7  C9  UNL     1       4.757   0.051  35.365  1.00  0.00    -0.047 A 
HETATM    8  C10 UNL     1       3.372   0.360  35.819  1.00  0.00     0.049 C 
HETATM    9  C11 UNL     1       5.751   0.981  35.373  1.00  0.00    -0.049 A 
HETATM   10  C12 UNL     1       5.451   2.356  35.847  1.00  0.00     0.049 C 
HETATM   11  C13 UNL     1       7.075   0.730  34.952  1.00  0.00    -0.040 A 
HETATM   12  C14 UNL     1       8.076   1.783  35.009  1.00  0.00     0.050 C 
HETATM   13  C15 UNL     1       7.321  -0.547  34.516  1.00  0.00     0.033 A 
HETATM   14  C16 UNL     1       8.638  -0.895  34.068  1.00  0.00     0.073 A 
HETATM   15  N1  UNL     1       9.459  -0.016  34.016  1.00  0.00    -0.292 N 
ATOM     16  H1  UNL     1       8.986   0.799  34.406  1.00  0.00     0.178 HD
HETATM   17  C17 UNL     1      10.669   0.421  33.705  1.00  0.00     0.182 C 
HETATM   18  N2  UNL     1      11.701   0.843  33.436  1.00  0.00    -0.172 NA
ENDROOT
BRANCH   1  19
HETATM   19  C3  UNL     1      10.124  -2.715  33.262  1.00  0.00     0.297 C 
HETATM   20  O2  UNL     1      11.192  -2.802  33.838  1.00  0.00    -0.259 OA
BRANCH  19  21
HETATM   21  O1  UNL     1      10.168  -3.263  31.938  1.00  0.00    -0.318 OA
BRANCH  21  22
HETATM   22  C2  UNL     1      10.725  -4.528  31.701  1.00  0.00     0.174 C 
HETATM   23  C1  UNL     1      10.080  -5.627  32.492  1.00  0.00     0.034 C 
ENDBRANCH  21  22
ENDBRANCH  19  21
ENDBRANCH   1  19
TORSDOF 3
ENDMDL
MODEL 4
REMARK VINA RESULT: -9.833355026      2.390      6.601
REMARK  3 active torsions:
REMARK  status: ('A' for Active; 'I' for Inactive)
REMARK    1  A    between atoms: C2_2  and  O1_3 
REMARK    2  A    between atoms: O1_3  and  C3_4 
REMARK    3  A    between atoms: C3_4  and  C4_6 
ROOT
HETATM    1  C4  UNL     1       6.535  -0.961  34.938  1.00  0.00     0.090 A 
HETATM    2  C5  UNL     1       5.920  -2.219  34.812  1.00  0.00     0.162 A 
HETATM    3  O3  UNL     1       6.514  -3.234  34.268  1.00  0.00    -0.320 OA
HETATM    4  C6  UNL     1       7.725  -3.166  33.795  1.00  0.00     0.094 A 
HETATM    5  C7  UNL     1       8.271  -4.292  33.235  1.00  0.00    -0.021 A 
HETATM    6  C8  UNL     1       7.465  -5.539  33.191  1.00  0.00     0.052 C 
HETATM    7  C9  UNL     1       9.544  -4.237  32.731  1.00  0.00    -0.047 A 
HETATM    8  C10 UNL     1      10.137  -5.461  32.122  1.00  0.00     0.049 C 
HETATM    9  C11 UNL     1      10.224  -3.060  32.807  1.00  0.00    -0.049 A 
HETATM   10  C12 UNL     1      11.605  -2.986  32.269  1.00  0.00     0.049 C 
HETATM   11  C13 UNL     1       9.700  -1.878  33.374  1.00  0.00    -0.040 A 
HETATM   12  C14 UNL     1      10.494  -0.660  33.400  1.00  0.00     0.050 C 
HETATM   13  C15 UNL     1       8.423  -1.977  33.867  1.00  0.00     0.033 A 
HETATM   14  C16 UNL     1       7.808  -0.828  34.464  1.00  0.00     0.073 A 
HETATM   15  N1  UNL     1       8.480   0.165  34.581  1.00  0.00    -0.292 N 
ATOM     16  H1  UNL     1       9.360  -0.066  34.122  1.00  0.00     0.178 HD
HETATM   17  C17 UNL     1       8.645   1.406  35.010  1.00  0.00     0.182 C 
HETATM   18  N2  UNL     1       8.835   2.476  35.378  1.00  0.00    -0.172 NA
ENDROOT
BRANCH   1  19
HETATM   19  C3  UNL     1       5.741   0.110  35.471  1.00  0.00     0.297 C 
HETATM   20  O2  UNL     1       5.094   0.231  36.494  1.00  0.00    -0.259 OA
BRANCH  19  21
HETATM   21  O1  UNL     1       5.684   1.281  34.646  1.00  0.00    -0.318 OA
BRANCH  21  22
HETATM   22  C2  UNL     1       4.912   2.390  35.021  1.00  0.00     0.174 C 
HETATM   23  C1  UNL     1       5.578   3.272  36.034  1.00  0.00     0.034 C 
ENDBRANCH  21  22
ENDBRANCH  19  21
ENDBRANCH   1  19
TORSDOF 3
ENDMDL
MODEL 5
REMARK VINA RESULT: -9.627366547      2.395      6.675
REMARK  3 active torsions:
REMARK  status: ('A' for Active; 'I' for Inactive)
REMARK    1  A    between atoms: C2_2  and  O1_3 
REMARK    2  A    between atoms: O1_3  and  C3_4 
REMARK    3  A    between atoms: C3_4  and  C4_6 
ROOT
HETATM    1  C4  UNL     1       7.158  -0.548  34.601  1.00  0.00     0.090 A 
HETATM    2  C5  UNL     1       6.440  -1.754  34.512  1.00  0.00     0.162 A 
HETATM    3  O3  UNL     1       6.972  -2.850  34.070  1.00  0.00    -0.320 OA
HETATM    4  C6  UNL     1       8.211  -2.919  33.677  1.00  0.00     0.094 A 
HETATM    5  C7  UNL     1       8.686  -4.123  33.224  1.00  0.00    -0.021 A 
HETATM    6  C8  UNL     1       7.774  -5.296  33.202  1.00  0.00     0.052 C 
HETATM    7  C9  UNL     1       9.987  -4.212  32.804  1.00  0.00    -0.047 A 
HETATM    8  C10 UNL     1      10.502  -5.520  32.312  1.00  0.00     0.049 C 
HETATM    9  C11 UNL     1      10.765  -3.096  32.853  1.00  0.00    -0.049 A 
HETATM   10  C12 UNL     1      12.178  -3.178  32.405  1.00  0.00     0.049 C 
HETATM   11  C13 UNL     1      10.317  -1.838  33.311  1.00  0.00    -0.040 A 
HETATM   12  C14 UNL     1      11.215  -0.694  33.315  1.00  0.00     0.050 C 
HETATM   13  C15 UNL     1       9.008  -1.793  33.722  1.00  0.00     0.033 A 
HETATM   14  C16 UNL     1       8.465  -0.557  34.206  1.00  0.00     0.073 A 
HETATM   15  N1  UNL     1       9.216   0.379  34.307  1.00  0.00    -0.292 N 
ATOM     16  H1  UNL     1      10.098   0.042  33.922  1.00  0.00     0.178 HD
HETATM   17  C17 UNL     1       9.467   1.627  34.670  1.00  0.00     0.182 C 
HETATM   18  N2  UNL     1       9.730   2.698  34.983  1.00  0.00    -0.172 NA
ENDROOT
BRANCH   1  19
HETATM   19  C3  UNL     1       6.434   0.622  35.014  1.00  0.00     0.297 C 
HETATM   20  O2  UNL     1       6.195   1.682  34.467  1.00  0.00    -0.259 OA
BRANCH  19  21
HETATM   21  O1  UNL     1       5.874   0.545  36.331  1.00  0.00    -0.318 OA
BRANCH  21  22
HETATM   22  C2  UNL     1       4.512   0.794  36.550  1.00  0.00     0.174 C 
HETATM   23  C1  UNL     1       3.612   0.147  35.539  1.00  0.00     0.034 C 
ENDBRANCH  21  22
ENDBRANCH  19  21
ENDBRANCH   1  19
TORSDOF 3
ENDMDL
