MODEL 1
REMARK VINA RESULT: -6.903884257      0.000      0.000
REMARK  11 active torsions:
REMARK  status: ('A' for Active; 'I' for Inactive)
REMARK    1  A    between atoms: N1_2  and  C2_3 
REMARK    2  A    between atoms: N1_2  and  C22_39 
REMARK    3  A    between atoms: C2_3  and  C3_4 
REMARK    4  A    between atoms: C3_4  and  C4_6 
REMARK    5  A    between atoms: C4_6  and  N2_7 
REMARK    6  A    between atoms: N2_7  and  C5_9 
REMARK    7  A    between atoms: C6_12  and  C7_13 
REMARK    8  A    between atoms: C9_17  and  N5_18 
REMARK    9  A    between atoms: N5_18  and  C10_20 
REMARK   10  A    between atoms: C18_33  and  C19_34 
REMARK   11  A    between atoms: C25_42  and  C26_43 
ROOT
HETATM    1  C5  UNL     1     -11.166  12.109  42.349  1.00  0.00     0.113 A 
HETATM    2  N3  UNL     1     -11.385  13.064  43.283  1.00  0.00    -0.341 N 
ATOM      3  H3  UNL     1     -11.373  12.792  44.266  1.00  0.00     0.167 HD
HETATM    4  C6  UNL     1     -11.612  14.328  42.982  1.00  0.00     0.053 A 
HETATM    5  C14 UNL     1     -11.630  14.703  41.658  1.00  0.00     0.043 A 
HETATM    6  C15 UNL     1     -11.409  13.746  40.659  1.00  0.00    -0.020 A 
HETATM    7  C16 UNL     1     -11.420  14.096  39.326  1.00  0.00     0.013 A 
HETATM    8  C17 UNL     1     -11.196  13.121  38.363  1.00  0.00     0.012 A 
HETATM    9  C18 UNL     1     -10.959  11.802  38.678  1.00  0.00    -0.009 A 
HETATM   10  C20 UNL     1     -10.950  11.467  40.024  1.00  0.00     0.027 A 
HETATM   11  C21 UNL     1     -11.173  12.434  40.986  1.00  0.00     0.019 A 
ENDROOT
BRANCH   1  12
HETATM   12  N2  UNL     1     -10.934  10.876  42.598  1.00  0.00    -0.373 N 
ATOM     13  H2  UNL     1     -10.100  10.461  42.183  1.00  0.00     0.161 HD
BRANCH  12  14
HETATM   14  C4  UNL     1     -11.753  10.039  43.410  1.00  0.00     0.160 C 
BRANCH  14  15
HETATM   15  C3  UNL     1     -10.946   9.547  44.578  1.00  0.00     0.205 C 
HETATM   16  F1  UNL     1      -9.800   8.856  44.210  1.00  0.00    -0.246 F 
BRANCH  15  17
HETATM   17  C2  UNL     1     -10.691  10.542  45.651  1.00  0.00     0.161 C 
BRANCH  17  18
HETATM   18  N1  UNL     1      -9.760  10.138  46.669  1.00  0.00    -0.382 N 
HETATM   19  C1  UNL     1     -10.001   8.935  47.440  1.00  0.00     0.150 C 
BRANCH  18  20
HETATM   20  C22 UNL     1      -8.614  10.929  46.943  1.00  0.00     0.032 A 
HETATM   21  C23 UNL     1      -7.309  10.510  46.810  1.00  0.00     0.030 A 
HETATM   22  C24 UNL     1      -6.282  11.362  47.100  1.00  0.00     0.020 A 
HETATM   23  C25 UNL     1      -6.453  12.682  47.540  1.00  0.00     0.043 A 
HETATM   24  C27 UNL     1      -7.750  13.092  47.668  1.00  0.00     0.132 A 
HETATM   25  F3  UNL     1      -8.052  14.350  48.086  1.00  0.00    -0.205 F 
HETATM   26  C28 UNL     1      -8.799  12.242  47.379  1.00  0.00     0.072 A 
BRANCH  23  27
HETATM   27  C26 UNL     1      -5.277  13.498  47.820  1.00  0.00     0.123 C 
HETATM   28  N8  UNL     1      -5.242  14.515  48.533  1.00  0.00    -0.387 N 
ATOM     29  H82 UNL     1      -6.125  14.797  48.960  1.00  0.00     0.157 HD
ATOM     30  H81 UNL     1      -4.420  15.085  48.729  1.00  0.00     0.157 HD
HETATM   31  N9  UNL     1      -4.033  13.100  47.219  1.00  0.00    -0.082 NA
ENDBRANCH  23  27
ENDBRANCH  18  20
ENDBRANCH  17  18
ENDBRANCH  15  17
ENDBRANCH  14  15
ENDBRANCH  12  14
ENDBRANCH   1  12
BRANCH   4  32
HETATM   32  C7  UNL     1     -11.838  15.323  44.037  1.00  0.00     0.050 A 
HETATM   33  C8  UNL     1     -12.591  16.459  44.015  1.00  0.00     0.111 A 
HETATM   34  N4  UNL     1     -12.639  17.190  45.091  1.00  0.00    -0.345 N 
HETATM   35  C9  UNL     1     -11.950  16.794  46.163  1.00  0.00     0.150 A 
ATOM     36  H4  UNL     1     -13.190  18.048  45.115  1.00  0.00     0.167 HD
HETATM   37  S1  UNL     1     -11.215  15.348  45.633  1.00  0.00    -0.050 SA
BRANCH  35  38
HETATM   38  N5  UNL     1     -11.864  17.378  47.337  1.00  0.00    -0.322 N 
ATOM     39  H5  UNL     1     -12.452  17.072  48.113  1.00  0.00     0.169 HD
BRANCH  38  40
HETATM   40  C10 UNL     1     -10.940  18.441  47.510  1.00  0.00     0.122 A 
HETATM   41  C11 UNL     1     -10.664  18.931  48.791  1.00  0.00     0.136 A 
HETATM   42  N6  UNL     1      -9.796  19.934  49.006  1.00  0.00    -0.371 N 
HETATM   43  C12 UNL     1      -9.151  20.515  47.976  1.00  0.00     0.104 A 
ATOM     44  H6  UNL     1      -9.625  20.259  49.957  1.00  0.00     0.164 HD
HETATM   45  C13 UNL     1      -9.417  20.036  46.702  1.00  0.00     0.106 A 
HETATM   46  N7  UNL     1     -10.286  19.031  46.494  1.00  0.00    -0.350 N 
ATOM     47  H7  UNL     1     -10.454  18.707  45.541  1.00  0.00     0.166 HD
ENDBRANCH  38  40
ENDBRANCH  35  38
ENDBRANCH   4  32
BRANCH   9  48
HETATM   48  C19 UNL     1     -10.720  10.785  37.615  1.00  0.00     0.299 C 
HETATM   49  F2  UNL     1      -9.709  11.245  36.782  1.00  0.00    -0.228 F 
HETATM   50 CL1  UNL     1     -12.207  10.412  36.754  1.00  0.00    -0.085 Cl
ENDBRANCH   9  48
TORSDOF 11
ENDMDL
MODEL 2
REMARK VINA RESULT: -6.358441554      3.239      6.927
REMARK  11 active torsions:
REMARK  status: ('A' for Active; 'I' for Inactive)
REMARK    1  A    between atoms: N1_2  and  C2_3 
REMARK    2  A    between atoms: N1_2  and  C22_39 
REMARK    3  A    between atoms: C2_3  and  C3_4 
REMARK    4  A    between atoms: C3_4  and  C4_6 
REMARK    5  A    between atoms: C4_6  and  N2_7 
REMARK    6  A    between atoms: N2_7  and  C5_9 
REMARK    7  A    between atoms: C6_12  and  C7_13 
REMARK    8  A    between atoms: C9_17  and  N5_18 
REMARK    9  A    between atoms: N5_18  and  C10_20 
REMARK   10  A    between atoms: C18_33  and  C19_34 
REMARK   11  A    between atoms: C25_42  and  C26_43 
ROOT
HETATM    1  C5  UNL     1     -13.111  13.947  43.393  1.00  0.00     0.113 A 
HETATM    2  N3  UNL     1     -12.274  14.373  44.367  1.00  0.00    -0.341 N 
ATOM      3  H3  UNL     1     -12.187  15.376  44.528  1.00  0.00     0.167 HD
HETATM    4  C6  UNL     1     -11.566  13.551  45.118  1.00  0.00     0.053 A 
HETATM    5  C14 UNL     1     -11.677  12.196  44.908  1.00  0.00     0.043 A 
HETATM    6  C15 UNL     1     -12.533  11.713  43.908  1.00  0.00    -0.020 A 
HETATM    7  C16 UNL     1     -12.663  10.361  43.678  1.00  0.00     0.013 A 
HETATM    8  C17 UNL     1     -13.521   9.918  42.681  1.00  0.00     0.012 A 
HETATM    9  C18 UNL     1     -14.259  10.776  41.896  1.00  0.00    -0.009 A 
HETATM   10  C20 UNL     1     -14.117  12.134  42.142  1.00  0.00     0.027 A 
HETATM   11  C21 UNL     1     -13.264  12.579  43.135  1.00  0.00     0.019 A 
ENDROOT
BRANCH   1  12
HETATM   12  N2  UNL     1     -13.821  14.709  42.649  1.00  0.00    -0.373 N 
ATOM     13  H2  UNL     1     -14.689  14.326  42.275  1.00  0.00     0.161 HD
BRANCH  12  14
HETATM   14  C4  UNL     1     -13.490  16.051  42.302  1.00  0.00     0.160 C 
BRANCH  14  15
HETATM   15  C3  UNL     1     -12.697  16.048  41.026  1.00  0.00     0.205 C 
HETATM   16  F1  UNL     1     -11.326  16.001  41.225  1.00  0.00    -0.246 F 
BRANCH  15  17
HETATM   17  C2  UNL     1     -13.156  15.092  39.985  1.00  0.00     0.161 C 
BRANCH  17  18
HETATM   18  N1  UNL     1     -12.116  14.443  39.234  1.00  0.00    -0.382 N 
HETATM   19  C1  UNL     1     -11.553  15.085  38.063  1.00  0.00     0.150 C 
BRANCH  18  20
HETATM   20  C22 UNL     1     -11.654  13.157  39.619  1.00  0.00     0.032 A 
HETATM   21  C23 UNL     1     -10.782  12.904  40.654  1.00  0.00     0.030 A 
HETATM   22  C24 UNL     1     -10.408  11.621  40.938  1.00  0.00     0.020 A 
HETATM   23  C25 UNL     1     -10.856  10.495  40.233  1.00  0.00     0.043 A 
HETATM   24  C27 UNL     1     -11.721  10.754  39.207  1.00  0.00     0.132 A 
HETATM   25  F3  UNL     1     -12.230   9.749  38.447  1.00  0.00    -0.205 F 
HETATM   26  C28 UNL     1     -12.108  12.045  38.909  1.00  0.00     0.072 A 
BRANCH  23  27
HETATM   27  C26 UNL     1     -10.384   9.173  40.628  1.00  0.00     0.123 C 
HETATM   28  N8  UNL     1     -11.078   8.147  40.733  1.00  0.00    -0.387 N 
ATOM     29  H82 UNL     1     -12.070   8.250  40.518  1.00  0.00     0.157 HD
ATOM     30  H81 UNL     1     -10.748   7.223  41.009  1.00  0.00     0.157 HD
HETATM   31  N9  UNL     1      -8.986   9.029  40.931  1.00  0.00    -0.082 NA
ENDBRANCH  23  27
ENDBRANCH  18  20
ENDBRANCH  17  18
ENDBRANCH  15  17
ENDBRANCH  14  15
ENDBRANCH  12  14
ENDBRANCH   1  12
BRANCH   4  32
HETATM   32  C7  UNL     1     -10.677  14.068  46.165  1.00  0.00     0.050 A 
HETATM   33  C8  UNL     1     -10.332  15.354  46.457  1.00  0.00     0.111 A 
HETATM   34  N4  UNL     1      -9.517  15.566  47.449  1.00  0.00    -0.345 N 
HETATM   35  C9  UNL     1      -9.058  14.516  48.133  1.00  0.00     0.150 A 
ATOM     36  H4  UNL     1      -9.234  16.514  47.699  1.00  0.00     0.167 HD
HETATM   37  S1  UNL     1      -9.800  13.195  47.350  1.00  0.00    -0.050 SA
BRANCH  35  38
HETATM   38  N5  UNL     1      -8.237  14.509  49.160  1.00  0.00    -0.322 N 
ATOM     39  H5  UNL     1      -8.556  14.808  50.081  1.00  0.00     0.169 HD
BRANCH  38  40
HETATM   40  C10 UNL     1      -6.899  14.077  48.966  1.00  0.00     0.122 A 
HETATM   41  C11 UNL     1      -6.400  12.988  49.688  1.00  0.00     0.136 A 
HETATM   42  N6  UNL     1      -5.141  12.542  49.538  1.00  0.00    -0.371 N 
HETATM   43  C12 UNL     1      -4.300  13.139  48.672  1.00  0.00     0.104 A 
ATOM     44  H6  UNL     1      -4.821  11.743  50.086  1.00  0.00     0.164 HD
HETATM   45  C13 UNL     1      -4.785  14.219  47.952  1.00  0.00     0.106 A 
HETATM   46  N7  UNL     1      -6.046  14.661  48.105  1.00  0.00    -0.350 N 
ATOM     47  H7  UNL     1      -6.365  15.459  47.555  1.00  0.00     0.166 HD
ENDBRANCH  38  40
ENDBRANCH  35  38
ENDBRANCH   4  32
BRANCH   9  48
HETATM   48  C19 UNL     1     -15.171  10.263  40.836  1.00  0.00     0.299 C 
HETATM   49  F2  UNL     1     -14.557   9.188  40.206  1.00  0.00    -0.228 F 
HETATM   50 CL1  UNL     1     -15.629  11.545  39.724  1.00  0.00    -0.085 Cl
ENDBRANCH   9  48
TORSDOF 11
ENDMDL
MODEL 3
REMARK VINA RESULT: -6.357796149      1.190      1.488
REMARK  11 active torsions:
REMARK  status: ('A' for Active; 'I' for Inactive)
REMARK    1  A    between atoms: N1_2  and  C2_3 
REMARK    2  A    between atoms: N1_2  and  C22_39 
REMARK    3  A    between atoms: C2_3  and  C3_4 
REMARK    4  A    between atoms: C3_4  and  C4_6 
REMARK    5  A    between atoms: C4_6  and  N2_7 
REMARK    6  A    between atoms: N2_7  and  C5_9 
REMARK    7  A    between atoms: C6_12  and  C7_13 
REMARK    8  A    between atoms: C9_17  and  N5_18 
REMARK    9  A    between atoms: N5_18  and  C10_20 
REMARK   10  A    between atoms: C18_33  and  C19_34 
REMARK   11  A    between atoms: C25_42  and  C26_43 
ROOT
HETATM    1  C5  UNL     1     -11.238  12.678  42.105  1.00  0.00     0.113 A 
HETATM    2  N3  UNL     1     -11.535  13.711  42.929  1.00  0.00    -0.341 N 
ATOM      3  H3  UNL     1     -11.513  13.551  43.936  1.00  0.00     0.167 HD
HETATM    4  C6  UNL     1     -11.852  14.914  42.490  1.00  0.00     0.053 A 
HETATM    5  C14 UNL     1     -11.885  15.139  41.132  1.00  0.00     0.043 A 
HETATM    6  C15 UNL     1     -11.585  14.097  40.245  1.00  0.00    -0.020 A 
HETATM    7  C16 UNL     1     -11.609  14.297  38.882  1.00  0.00     0.013 A 
HETATM    8  C17 UNL     1     -11.305  13.242  38.033  1.00  0.00     0.012 A 
HETATM    9  C18 UNL     1     -10.975  11.986  38.491  1.00  0.00    -0.009 A 
HETATM   10  C20 UNL     1     -10.954  11.802  39.866  1.00  0.00     0.027 A 
HETATM   11  C21 UNL     1     -11.256  12.850  40.715  1.00  0.00     0.019 A 
ENDROOT
BRANCH   1  12
HETATM   12  N2  UNL     1     -10.918  11.501  42.489  1.00  0.00    -0.373 N 
ATOM     13  H2  UNL     1     -10.164  11.031  41.989  1.00  0.00     0.161 HD
BRANCH  12  14
HETATM   14  C4  UNL     1     -11.536  10.795  43.562  1.00  0.00     0.160 C 
BRANCH  14  15
HETATM   15  C3  UNL     1     -10.929  11.246  44.860  1.00  0.00     0.205 C 
HETATM   16  F1  UNL     1     -11.799  11.977  45.656  1.00  0.00    -0.246 F 
BRANCH  15  17
HETATM   17  C2  UNL     1     -10.195  10.205  45.625  1.00  0.00     0.161 C 
BRANCH  17  18
HETATM   18  N1  UNL     1      -9.960  10.500  47.012  1.00  0.00    -0.382 N 
HETATM   19  C1  UNL     1     -10.735   9.835  48.040  1.00  0.00     0.150 C 
BRANCH  18  20
HETATM   20  C22 UNL     1      -8.987  11.464  47.381  1.00  0.00     0.032 A 
HETATM   21  C23 UNL     1      -9.246  12.640  48.050  1.00  0.00     0.030 A 
HETATM   22  C24 UNL     1      -8.226  13.494  48.357  1.00  0.00     0.020 A 
HETATM   23  C25 UNL     1      -6.881  13.265  48.035  1.00  0.00     0.043 A 
HETATM   24  C27 UNL     1      -6.630  12.096  47.373  1.00  0.00     0.132 A 
HETATM   25  F3  UNL     1      -5.367  11.755  47.005  1.00  0.00    -0.205 F 
HETATM   26  C28 UNL     1      -7.651  11.223  47.055  1.00  0.00     0.072 A 
BRANCH  23  27
HETATM   27  C26 UNL     1      -5.879  14.253  48.415  1.00  0.00     0.123 C 
HETATM   28  N8  UNL     1      -4.884  14.584  47.748  1.00  0.00    -0.387 N 
ATOM     29  H82 UNL     1      -4.767  14.114  46.850  1.00  0.00     0.157 HD
ATOM     30  H81 UNL     1      -4.183  15.275  48.014  1.00  0.00     0.157 HD
HETATM   31  N9  UNL     1      -6.044  14.916  49.681  1.00  0.00    -0.082 NA
ENDBRANCH  23  27
ENDBRANCH  18  20
ENDBRANCH  17  18
ENDBRANCH  15  17
ENDBRANCH  14  15
ENDBRANCH  12  14
ENDBRANCH   1  12
BRANCH   4  32
HETATM   32  C7  UNL     1     -12.160  15.999  43.428  1.00  0.00     0.050 A 
HETATM   33  C8  UNL     1     -12.903  17.127  43.241  1.00  0.00     0.111 A 
HETATM   34  N4  UNL     1     -13.037  17.951  44.239  1.00  0.00    -0.345 N 
HETATM   35  C9  UNL     1     -12.442  17.655  45.396  1.00  0.00     0.150 A 
ATOM     36  H4  UNL     1     -13.585  18.806  44.139  1.00  0.00     0.167 HD
HETATM   37  S1  UNL     1     -11.672  16.170  45.062  1.00  0.00    -0.050 SA
BRANCH  35  38
HETATM   38  N5  UNL     1     -12.451  18.344  46.516  1.00  0.00    -0.322 N 
ATOM     39  H5  UNL     1     -13.278  18.350  47.113  1.00  0.00     0.169 HD
BRANCH  38  40
HETATM   40  C10 UNL     1     -11.293  19.077  46.882  1.00  0.00     0.122 A 
HETATM   41  C11 UNL     1     -10.909  19.161  48.224  1.00  0.00     0.136 A 
HETATM   42  N6  UNL     1      -9.820  19.842  48.620  1.00  0.00    -0.371 N 
HETATM   43  C12 UNL     1      -9.046  20.480  47.721  1.00  0.00     0.104 A 
ATOM     44  H6  UNL     1      -9.578  19.876  49.610  1.00  0.00     0.164 HD
HETATM   45  C13 UNL     1      -9.417  20.402  46.387  1.00  0.00     0.106 A 
HETATM   46  N7  UNL     1     -10.509  19.718  45.998  1.00  0.00    -0.350 N 
ATOM     47  H7  UNL     1     -10.747  19.685  45.006  1.00  0.00     0.166 HD
ENDBRANCH  38  40
ENDBRANCH  35  38
ENDBRANCH   4  32
BRANCH   9  48
HETATM   48  C19 UNL     1     -10.652  10.878  37.547  1.00  0.00     0.299 C 
HETATM   49  F2  UNL     1      -9.559  11.257  36.779  1.00  0.00    -0.228 F 
HETATM   50 CL1  UNL     1     -12.056  10.444  36.583  1.00  0.00    -0.085 Cl
ENDBRANCH   9  48
TORSDOF 11
ENDMDL
MODEL 4
REMARK VINA RESULT: -6.355504895      1.427      1.726
REMARK  11 active torsions:
REMARK  status: ('A' for Active; 'I' for Inactive)
REMARK    1  A    between atoms: N1_2  and  C2_3 
REMARK    2  A    between atoms: N1_2  and  C22_39 
REMARK    3  A    between atoms: C2_3  and  C3_4 
REMARK    4  A    between atoms: C3_4  and  C4_6 
REMARK    5  A    between atoms: C4_6  and  N2_7 
REMARK    6  A    between atoms: N2_7  and  C5_9 
REMARK    7  A    between atoms: C6_12  and  C7_13 
REMARK    8  A    between atoms: C9_17  and  N5_18 
REMARK    9  A    between atoms: N5_18  and  C10_20 
REMARK   10  A    between atoms: C18_33  and  C19_34 
REMARK   11  A    between atoms: C25_42  and  C26_43 
ROOT
HETATM    1  C5  UNL     1     -11.246  12.238  43.898  1.00  0.00     0.113 A 
HETATM    2  N3  UNL     1     -11.181  13.110  44.931  1.00  0.00    -0.341 N 
ATOM      3  H3  UNL     1     -11.160  12.738  45.880  1.00  0.00     0.167 HD
HETATM    4  C6  UNL     1     -11.142  14.419  44.767  1.00  0.00     0.053 A 
HETATM    5  C14 UNL     1     -11.170  14.930  43.489  1.00  0.00     0.043 A 
HETATM    6  C15 UNL     1     -11.239  14.060  42.391  1.00  0.00    -0.020 A 
HETATM    7  C16 UNL     1     -11.267  14.546  41.102  1.00  0.00     0.013 A 
HETATM    8  C17 UNL     1     -11.333  13.656  40.039  1.00  0.00     0.012 A 
HETATM    9  C18 UNL     1     -11.373  12.290  40.211  1.00  0.00    -0.009 A 
HETATM   10  C20 UNL     1     -11.343  11.818  41.515  1.00  0.00     0.027 A 
HETATM   11  C21 UNL     1     -11.277  12.701  42.577  1.00  0.00     0.019 A 
ENDROOT
BRANCH   1  12
HETATM   12  N2  UNL     1     -11.276  10.964  44.013  1.00  0.00    -0.373 N 
ATOM     13  H2  UNL     1     -10.763  10.416  43.322  1.00  0.00     0.161 HD
BRANCH  12  14
HETATM   14  C4  UNL     1     -11.973  10.252  45.032  1.00  0.00     0.160 C 
BRANCH  14  15
HETATM   15  C3  UNL     1     -11.006   9.359  45.756  1.00  0.00     0.205 C 
HETATM   16  F1  UNL     1     -11.037   8.041  45.325  1.00  0.00    -0.246 F 
BRANCH  15  17
HETATM   17  C2  UNL     1      -9.622   9.882  45.891  1.00  0.00     0.161 C 
BRANCH  17  18
HETATM   18  N1  UNL     1      -9.305  10.489  47.155  1.00  0.00    -0.382 N 
HETATM   19  C1  UNL     1     -10.224  10.374  48.270  1.00  0.00     0.150 C 
BRANCH  18  20
HETATM   20  C22 UNL     1      -8.103  11.228  47.310  1.00  0.00     0.032 A 
HETATM   21  C23 UNL     1      -6.845  10.776  46.982  1.00  0.00     0.030 A 
HETATM   22  C24 UNL     1      -5.756  11.579  47.172  1.00  0.00     0.020 A 
HETATM   23  C25 UNL     1      -5.816  12.878  47.696  1.00  0.00     0.043 A 
HETATM   24  C27 UNL     1      -7.068  13.320  48.019  1.00  0.00     0.132 A 
HETATM   25  F3  UNL     1      -7.263  14.563  48.535  1.00  0.00    -0.205 F 
HETATM   26  C28 UNL     1      -8.177  12.521  47.832  1.00  0.00     0.072 A 
BRANCH  23  27
HETATM   27  C26 UNL     1      -4.583  13.640  47.854  1.00  0.00     0.123 C 
HETATM   28  N8  UNL     1      -4.465  14.874  47.761  1.00  0.00    -0.387 N 
ATOM     29  H82 UNL     1      -5.319  15.393  47.555  1.00  0.00     0.157 HD
ATOM     30  H81 UNL     1      -3.603  15.406  47.871  1.00  0.00     0.157 HD
HETATM   31  N9  UNL     1      -3.380  12.907  48.145  1.00  0.00    -0.082 NA
ENDBRANCH  23  27
ENDBRANCH  18  20
ENDBRANCH  17  18
ENDBRANCH  15  17
ENDBRANCH  14  15
ENDBRANCH  12  14
ENDBRANCH   1  12
BRANCH   4  32
HETATM   32  C7  UNL     1     -11.066  15.319  45.923  1.00  0.00     0.050 A 
HETATM   33  C8  UNL     1     -10.175  15.337  46.955  1.00  0.00     0.111 A 
HETATM   34  N4  UNL     1     -10.313  16.247  47.875  1.00  0.00    -0.345 N 
HETATM   35  C9  UNL     1     -11.317  17.118  47.765  1.00  0.00     0.150 A 
ATOM     36  H4  UNL     1      -9.667  16.293  48.663  1.00  0.00     0.167 HD
HETATM   37  S1  UNL     1     -12.087  16.636  46.322  1.00  0.00    -0.050 SA
BRANCH  35  38
HETATM   38  N5  UNL     1     -11.630  18.106  48.575  1.00  0.00    -0.322 N 
ATOM     39  H5  UNL     1     -12.409  18.013  49.227  1.00  0.00     0.169 HD
BRANCH  38  40
HETATM   40  C10 UNL     1     -10.868  19.302  48.527  1.00  0.00     0.122 A 
HETATM   41  C11 UNL     1     -11.231  20.399  49.315  1.00  0.00     0.136 A 
HETATM   42  N6  UNL     1     -10.540  21.551  49.307  1.00  0.00    -0.371 N 
HETATM   43  C12 UNL     1      -9.454  21.694  48.523  1.00  0.00     0.104 A 
ATOM     44  H6  UNL     1     -10.842  22.325  49.899  1.00  0.00     0.164 HD
HETATM   45  C13 UNL     1      -9.086  20.612  47.737  1.00  0.00     0.106 A 
HETATM   46  N7  UNL     1      -9.781  19.460  47.751  1.00  0.00    -0.350 N 
ATOM     47  H7  UNL     1      -9.476  18.688  47.159  1.00  0.00     0.166 HD
ENDBRANCH  38  40
ENDBRANCH  35  38
ENDBRANCH   4  32
BRANCH   9  48
HETATM   48  C19 UNL     1     -11.442  11.366  39.044  1.00  0.00     0.299 C 
HETATM   49  F2  UNL     1     -10.928  10.134  39.425  1.00  0.00    -0.228 F 
HETATM   50 CL1  UNL     1     -10.624  12.053  37.648  1.00  0.00    -0.085 Cl
ENDBRANCH   9  48
TORSDOF 11
ENDMDL
MODEL 5
REMARK VINA RESULT: -6.280839113      4.080      7.963
REMARK  11 active torsions:
REMARK  status: ('A' for Active; 'I' for Inactive)
REMARK    1  A    between atoms: N1_2  and  C2_3 
REMARK    2  A    between atoms: N1_2  and  C22_39 
REMARK    3  A    between atoms: C2_3  and  C3_4 
REMARK    4  A    between atoms: C3_4  and  C4_6 
REMARK    5  A    between atoms: C4_6  and  N2_7 
REMARK    6  A    between atoms: N2_7  and  C5_9 
REMARK    7  A    between atoms: C6_12  and  C7_13 
REMARK    8  A    between atoms: C9_17  and  N5_18 
REMARK    9  A    between atoms: N5_18  and  C10_20 
REMARK   10  A    between atoms: C18_33  and  C19_34 
REMARK   11  A    between atoms: C25_42  and  C26_43 
ROOT
HETATM    1  C5  UNL     1      -8.142  14.105  50.117  1.00  0.00     0.113 A 
HETATM    2  N3  UNL     1      -9.056  14.630  49.268  1.00  0.00    -0.341 N 
ATOM      3  H3  UNL     1      -9.874  15.095  49.662  1.00  0.00     0.167 HD
HETATM    4  C6  UNL     1      -8.939  14.568  47.955  1.00  0.00     0.053 A 
HETATM    5  C14 UNL     1      -7.838  13.942  47.415  1.00  0.00     0.043 A 
HETATM    6  C15 UNL     1      -6.868  13.385  48.259  1.00  0.00    -0.020 A 
HETATM    7  C16 UNL     1      -5.757  12.754  47.744  1.00  0.00     0.013 A 
HETATM    8  C17 UNL     1      -4.816  12.214  48.610  1.00  0.00     0.012 A 
HETATM    9  C18 UNL     1      -4.940  12.278  49.980  1.00  0.00    -0.009 A 
HETATM   10  C20 UNL     1      -6.063  12.918  50.482  1.00  0.00     0.027 A 
HETATM   11  C21 UNL     1      -7.003  13.457  49.623  1.00  0.00     0.019 A 
ENDROOT
BRANCH   1  12
HETATM   12  N2  UNL     1      -8.214  14.150  51.394  1.00  0.00    -0.373 N 
ATOM     13  H2  UNL     1      -7.339  14.105  51.916  1.00  0.00     0.161 HD
BRANCH  12  14
HETATM   14  C4  UNL     1      -9.422  14.259  52.141  1.00  0.00     0.160 C 
BRANCH  14  15
HETATM   15  C3  UNL     1     -10.013  12.890  52.321  1.00  0.00     0.205 C 
HETATM   16  F1  UNL     1     -11.066  12.621  51.460  1.00  0.00    -0.246 F 
BRANCH  15  17
HETATM   17  C2  UNL     1      -9.038  11.772  52.395  1.00  0.00     0.161 C 
BRANCH  17  18
HETATM   18  N1  UNL     1      -9.419  10.566  51.712  1.00  0.00    -0.382 N 
HETATM   19  C1  UNL     1     -10.340   9.635  52.334  1.00  0.00     0.150 C 
BRANCH  18  20
HETATM   20  C22 UNL     1      -8.875  10.266  50.436  1.00  0.00     0.032 A 
HETATM   21  C23 UNL     1      -7.741   9.517  50.212  1.00  0.00     0.030 A 
HETATM   22  C24 UNL     1      -7.311   9.290  48.936  1.00  0.00     0.020 A 
HETATM   23  C25 UNL     1      -7.953   9.776  47.789  1.00  0.00     0.043 A 
HETATM   24  C27 UNL     1      -9.078  10.517  48.018  1.00  0.00     0.132 A 
HETATM   25  F3  UNL     1      -9.793  11.045  46.990  1.00  0.00    -0.205 F 
HETATM   26  C28 UNL     1      -9.525  10.755  49.302  1.00  0.00     0.072 A 
BRANCH  23  27
HETATM   27  C26 UNL     1      -7.397   9.467  46.476  1.00  0.00     0.123 C 
HETATM   28  N8  UNL     1      -8.021   9.010  45.504  1.00  0.00    -0.387 N 
ATOM     29  H82 UNL     1      -9.017   8.839  45.647  1.00  0.00     0.157 HD
ATOM     30  H81 UNL     1      -7.632   8.794  44.586  1.00  0.00     0.157 HD
HETATM   31  N9  UNL     1      -5.994   9.709  46.275  1.00  0.00    -0.082 NA
ENDBRANCH  23  27
ENDBRANCH  18  20
ENDBRANCH  17  18
ENDBRANCH  15  17
ENDBRANCH  14  15
ENDBRANCH  12  14
ENDBRANCH   1  12
BRANCH   4  32
HETATM   32  C7  UNL     1      -9.958  15.160  47.081  1.00  0.00     0.050 A 
HETATM   33  C8  UNL     1     -10.405  16.446  47.012  1.00  0.00     0.111 A 
HETATM   34  N4  UNL     1     -11.328  16.734  46.141  1.00  0.00    -0.345 N 
HETATM   35  C9  UNL     1     -11.792  15.759  45.357  1.00  0.00     0.150 A 
ATOM     36  H4  UNL     1     -11.689  17.684  46.059  1.00  0.00     0.167 HD
HETATM   37  S1  UNL     1     -10.898  14.399  45.868  1.00  0.00    -0.050 SA
BRANCH  35  38
HETATM   38  N5  UNL     1     -12.712  15.835  44.421  1.00  0.00    -0.322 N 
ATOM     39  H5  UNL     1     -13.664  16.118  44.653  1.00  0.00     0.169 HD
BRANCH  38  40
HETATM   40  C10 UNL     1     -12.360  15.517  43.084  1.00  0.00     0.122 A 
HETATM   41  C11 UNL     1     -13.357  15.263  42.136  1.00  0.00     0.136 A 
HETATM   42  N6  UNL     1     -13.074  14.960  40.858  1.00  0.00    -0.371 N 
HETATM   43  C12 UNL     1     -11.796  14.889  40.437  1.00  0.00     0.104 A 
ATOM     44  H6  UNL     1     -13.833  14.782  40.201  1.00  0.00     0.164 HD
HETATM   45  C13 UNL     1     -10.800  15.140  41.368  1.00  0.00     0.106 A 
HETATM   46  N7  UNL     1     -11.090  15.444  42.646  1.00  0.00    -0.350 N 
ATOM     47  H7  UNL     1     -10.328  15.623  43.301  1.00  0.00     0.166 HD
ENDBRANCH  38  40
ENDBRANCH  35  38
ENDBRANCH   4  32
BRANCH   9  48
HETATM   48  C19 UNL     1      -3.906  11.689  50.878  1.00  0.00     0.299 C 
HETATM   49  F2  UNL     1      -2.654  12.097  50.438  1.00  0.00    -0.228 F 
HETATM   50 CL1  UNL     1      -4.071   9.940  50.964  1.00  0.00    -0.085 Cl
ENDBRANCH   9  48
TORSDOF 11
ENDMDL
