MODEL 1
REMARK VINA RESULT: -5.807100484      0.000      0.000
REMARK  5 active torsions:
REMARK  status: ('A' for Active; 'I' for Inactive)
REMARK    1  A    between atoms: C2_2  and  C5_5 
REMARK    2  A    between atoms: C5_5  and  C10_16 
REMARK    3  A    between atoms: C6_6  and  N1_7 
REMARK    4  A    between atoms: C8_9  and  O1_10 
REMARK    5  A    between atoms: C10_16  and  C11_17 
ROOT
HETATM    1  C5  UNL     1       1.034  11.721  24.227  1.00  0.00    -0.048 C 
HETATM    2  C6  UNL     1       0.322  10.570  24.101  1.00  0.00     0.102 C 
ENDROOT
BRANCH   1   3
HETATM    3  C2  UNL     1       0.393  12.903  23.619  1.00  0.00    -0.026 C 
HETATM    4  C1  UNL     1       0.914  14.169  24.238  1.00  0.00     0.019 C 
HETATM    5  C3  UNL     1      -1.129  12.833  23.778  1.00  0.00     0.019 C 
HETATM    6  C4  UNL     1       0.662  12.933  22.134  1.00  0.00     0.019 C 
ENDBRANCH   1   3
BRANCH   1   7
HETATM    7  C10 UNL     1       2.324  11.659  24.907  1.00  0.00     0.153 C 
BRANCH   7   8
HETATM    8  C11 UNL     1       3.587  11.719  24.143  1.00  0.00     0.391 C 
HETATM    9  F1  UNL     1       3.581  11.251  22.874  1.00  0.00    -0.171 F 
HETATM   10  F2  UNL     1       4.687  11.159  24.799  1.00  0.00    -0.171 F 
HETATM   11  F3  UNL     1       3.997  13.083  24.002  1.00  0.00    -0.171 F 
ENDBRANCH   7   8
ENDBRANCH   1   7
BRANCH   2  12
HETATM   12  N1  UNL     1       0.798   9.328  24.636  1.00  0.00    -0.305 N 
HETATM   13  C7  UNL     1       1.590   8.402  24.039  1.00  0.00     0.154 A 
HETATM   14  C8  UNL     1       1.806   7.374  24.926  1.00  0.00     0.158 A 
HETATM   15  N2  UNL     1       1.149   7.669  26.062  1.00  0.00    -0.312 N 
HETATM   16  C9  UNL     1       0.535   8.872  25.867  1.00  0.00     0.184 A 
ATOM     17  H2  UNL     1       1.117   7.102  26.908  1.00  0.00     0.170 HD
HETATM   18  S1  UNL     1      -0.359   9.573  27.035  1.00  0.00    -0.040 SA
BRANCH  14  19
HETATM   19  O1  UNL     1       2.554   6.220  24.744  1.00  0.00    -0.345 OA
ATOM     20  H1  UNL     1       2.734   5.529  25.369  1.00  0.00     0.219 HD
ENDBRANCH  14  19
ENDBRANCH   2  12
TORSDOF 5
ENDMDL
MODEL 2
REMARK VINA RESULT: -5.797547319      3.229      4.627
REMARK  5 active torsions:
REMARK  status: ('A' for Active; 'I' for Inactive)
REMARK    1  A    between atoms: C2_2  and  C5_5 
REMARK    2  A    between atoms: C5_5  and  C10_16 
REMARK    3  A    between atoms: C6_6  and  N1_7 
REMARK    4  A    between atoms: C8_9  and  O1_10 
REMARK    5  A    between atoms: C10_16  and  C11_17 
ROOT
HETATM    1  C5  UNL     1       5.124  13.470  24.843  1.00  0.00    -0.048 C 
HETATM    2  C6  UNL     1       3.865  13.313  25.332  1.00  0.00     0.102 C 
ENDROOT
BRANCH   1   3
HETATM    3  C2  UNL     1       5.877  14.585  25.449  1.00  0.00    -0.026 C 
HETATM    4  C1  UNL     1       7.078  14.931  24.616  1.00  0.00     0.019 C 
HETATM    5  C3  UNL     1       6.314  14.231  26.874  1.00  0.00     0.019 C 
HETATM    6  C4  UNL     1       4.992  15.803  25.568  1.00  0.00     0.019 C 
ENDBRANCH   1   3
BRANCH   1   7
HETATM    7  C10 UNL     1       5.570  12.563  23.790  1.00  0.00     0.153 C 
BRANCH   7   8
HETATM    8  C11 UNL     1       6.611  11.549  24.053  1.00  0.00     0.391 C 
HETATM    9  F1  UNL     1       6.223  10.369  24.589  1.00  0.00    -0.171 F 
HETATM   10  F2  UNL     1       7.700  12.016  24.794  1.00  0.00    -0.171 F 
HETATM   11  F3  UNL     1       7.237  11.174  22.822  1.00  0.00    -0.171 F 
ENDBRANCH   7   8
ENDBRANCH   1   7
BRANCH   2  12
HETATM   12  N1  UNL     1       2.997  12.275  24.856  1.00  0.00    -0.305 N 
HETATM   13  C7  UNL     1       3.191  10.933  24.890  1.00  0.00     0.154 A 
HETATM   14  C8  UNL     1       2.094  10.318  24.335  1.00  0.00     0.158 A 
HETATM   15  N2  UNL     1       1.230  11.280  23.964  1.00  0.00    -0.312 N 
HETATM   16  C9  UNL     1       1.800  12.476  24.290  1.00  0.00     0.184 A 
ATOM     17  H2  UNL     1       0.322  11.142  23.522  1.00  0.00     0.170 HD
HETATM   18  S1  UNL     1       1.044  13.890  24.001  1.00  0.00    -0.040 SA
BRANCH  14  19
HETATM   19  O1  UNL     1       1.859   8.963  24.162  1.00  0.00    -0.345 OA
ATOM     20  H1  UNL     1       1.102   8.538  23.778  1.00  0.00     0.219 HD
ENDBRANCH  14  19
ENDBRANCH   2  12
TORSDOF 5
ENDMDL
MODEL 3
REMARK VINA RESULT: -5.787788805      2.443      4.023
REMARK  5 active torsions:
REMARK  status: ('A' for Active; 'I' for Inactive)
REMARK    1  A    between atoms: C2_2  and  C5_5 
REMARK    2  A    between atoms: C5_5  and  C10_16 
REMARK    3  A    between atoms: C6_6  and  N1_7 
REMARK    4  A    between atoms: C8_9  and  O1_10 
REMARK    5  A    between atoms: C10_16  and  C11_17 
ROOT
HETATM    1  C5  UNL     1       3.538  10.009  24.291  1.00  0.00    -0.048 C 
HETATM    2  C6  UNL     1       2.411   9.252  24.198  1.00  0.00     0.102 C 
ENDROOT
BRANCH   1   3
HETATM    3  C2  UNL     1       4.726   9.410  23.654  1.00  0.00    -0.026 C 
HETATM    4  C1  UNL     1       4.936   8.003  24.136  1.00  0.00     0.019 C 
HETATM    5  C3  UNL     1       5.974  10.251  23.940  1.00  0.00     0.019 C 
HETATM    6  C4  UNL     1       4.560   9.397  22.153  1.00  0.00     0.019 C 
ENDBRANCH   1   3
BRANCH   1   7
HETATM    7  C10 UNL     1       3.455  11.278  25.008  1.00  0.00     0.153 C 
BRANCH   7   8
HETATM    8  C11 UNL     1       3.228  12.545  24.282  1.00  0.00     0.391 C 
HETATM    9  F1  UNL     1       4.295  13.347  24.063  1.00  0.00    -0.171 F 
HETATM   10  F2  UNL     1       2.200  13.334  24.804  1.00  0.00    -0.171 F 
HETATM   11  F3  UNL     1       2.738  12.262  22.968  1.00  0.00    -0.171 F 
ENDBRANCH   7   8
ENDBRANCH   1   7
BRANCH   2  12
HETATM   12  N1  UNL     1       1.165   9.685  24.760  1.00  0.00    -0.305 N 
HETATM   13  C7  UNL     1       0.189  10.424  24.175  1.00  0.00     0.154 A 
HETATM   14  C8  UNL     1      -0.834  10.591  25.079  1.00  0.00     0.158 A 
HETATM   15  N2  UNL     1      -0.485   9.957  26.213  1.00  0.00    -0.312 N 
HETATM   16  C9  UNL     1       0.745   9.407  26.001  1.00  0.00     0.184 A 
ATOM     17  H2  UNL     1      -1.036   9.899  27.069  1.00  0.00     0.170 HD
HETATM   18  S1  UNL     1       1.504   8.541  27.154  1.00  0.00    -0.040 SA
BRANCH  14  19
HETATM   19  O1  UNL     1      -2.029  11.274  24.913  1.00  0.00    -0.345 OA
ATOM     20  H1  UNL     1      -2.593  11.648  25.579  1.00  0.00     0.219 HD
ENDBRANCH  14  19
ENDBRANCH   2  12
TORSDOF 5
ENDMDL
MODEL 4
REMARK VINA RESULT: -5.779011246      2.445      3.987
REMARK  5 active torsions:
REMARK  status: ('A' for Active; 'I' for Inactive)
REMARK    1  A    between atoms: C2_2  and  C5_5 
REMARK    2  A    between atoms: C5_5  and  C10_16 
REMARK    3  A    between atoms: C6_6  and  N1_7 
REMARK    4  A    between atoms: C8_9  and  O1_10 
REMARK    5  A    between atoms: C10_16  and  C11_17 
ROOT
HETATM    1  C5  UNL     1       3.577  10.032  24.279  1.00  0.00    -0.048 C 
HETATM    2  C6  UNL     1       2.464   9.256  24.179  1.00  0.00     0.102 C 
ENDROOT
BRANCH   1   3
HETATM    3  C2  UNL     1       4.778   9.458  23.643  1.00  0.00    -0.026 C 
HETATM    4  C1  UNL     1       5.990  10.292  23.945  1.00  0.00     0.019 C 
HETATM    5  C3  UNL     1       4.586   9.346  22.128  1.00  0.00     0.019 C 
HETATM    6  C4  UNL     1       5.009   8.052  24.144  1.00  0.00     0.019 C 
ENDBRANCH   1   3
BRANCH   1   7
HETATM    7  C10 UNL     1       3.470  11.295  25.002  1.00  0.00     0.153 C 
BRANCH   7   8
HETATM    8  C11 UNL     1       3.229  12.563  24.282  1.00  0.00     0.391 C 
HETATM    9  F1  UNL     1       4.287  13.378  24.065  1.00  0.00    -0.171 F 
HETATM   10  F2  UNL     1       2.193  13.339  24.809  1.00  0.00    -0.171 F 
HETATM   11  F3  UNL     1       2.740  12.281  22.968  1.00  0.00    -0.171 F 
ENDBRANCH   7   8
ENDBRANCH   1   7
BRANCH   2  12
HETATM   12  N1  UNL     1       1.210   9.664  24.740  1.00  0.00    -0.305 N 
HETATM   13  C7  UNL     1       0.219  10.383  24.153  1.00  0.00     0.154 A 
HETATM   14  C8  UNL     1      -0.808  10.530  25.056  1.00  0.00     0.158 A 
HETATM   15  N2  UNL     1      -0.447   9.903  26.191  1.00  0.00    -0.312 N 
HETATM   16  C9  UNL     1       0.794   9.377  25.980  1.00  0.00     0.184 A 
ATOM     17  H2  UNL     1      -0.998   9.834  27.046  1.00  0.00     0.170 HD
HETATM   18  S1  UNL     1       1.569   8.528  27.134  1.00  0.00    -0.040 SA
BRANCH  14  19
HETATM   19  O1  UNL     1      -2.016  11.189  24.889  1.00  0.00    -0.345 OA
ATOM     20  H1  UNL     1      -2.662  11.414  25.547  1.00  0.00     0.219 HD
ENDBRANCH  14  19
ENDBRANCH   2  12
TORSDOF 5
ENDMDL
MODEL 5
REMARK VINA RESULT: -5.734913407      2.440      4.021
REMARK  5 active torsions:
REMARK  status: ('A' for Active; 'I' for Inactive)
REMARK    1  A    between atoms: C2_2  and  C5_5 
REMARK    2  A    between atoms: C5_5  and  C10_16 
REMARK    3  A    between atoms: C6_6  and  N1_7 
REMARK    4  A    between atoms: C8_9  and  O1_10 
REMARK    5  A    between atoms: C10_16  and  C11_17 
ROOT
HETATM    1  C5  UNL     1       3.560   9.984  24.261  1.00  0.00    -0.048 C 
HETATM    2  C6  UNL     1       2.440   9.217  24.171  1.00  0.00     0.102 C 
ENDROOT
BRANCH   1   3
HETATM    3  C2  UNL     1       4.752   9.397  23.620  1.00  0.00    -0.026 C 
HETATM    4  C1  UNL     1       4.593   9.372  22.126  1.00  0.00     0.019 C 
HETATM    5  C3  UNL     1       5.004   7.980  24.142  1.00  0.00     0.019 C 
HETATM    6  C4  UNL     1       5.979  10.202  23.972  1.00  0.00     0.019 C 
ENDBRANCH   1   3
BRANCH   1   7
HETATM    7  C10 UNL     1       3.467  11.251  24.981  1.00  0.00     0.153 C 
BRANCH   7   8
HETATM    8  C11 UNL     1       3.180  12.510  24.264  1.00  0.00     0.391 C 
HETATM    9  F1  UNL     1       2.424  13.438  24.894  1.00  0.00    -0.171 F 
HETATM   10  F2  UNL     1       2.660  12.338  22.978  1.00  0.00    -0.171 F 
HETATM   11  F3  UNL     1       4.406  13.196  23.991  1.00  0.00    -0.171 F 
ENDBRANCH   7   8
ENDBRANCH   1   7
BRANCH   2  12
HETATM   12  N1  UNL     1       1.192   9.638  24.738  1.00  0.00    -0.305 N 
HETATM   13  C7  UNL     1       0.200  10.354  24.152  1.00  0.00     0.154 A 
HETATM   14  C8  UNL     1      -0.818  10.516  25.062  1.00  0.00     0.158 A 
HETATM   15  N2  UNL     1      -0.451   9.902  26.200  1.00  0.00    -0.312 N 
HETATM   16  C9  UNL     1       0.786   9.368  25.985  1.00  0.00     0.184 A 
ATOM     17  H2  UNL     1      -0.994   9.845  27.062  1.00  0.00     0.170 HD
HETATM   18  S1  UNL     1       1.567   8.528  27.142  1.00  0.00    -0.040 SA
BRANCH  14  19
HETATM   19  O1  UNL     1      -2.025  11.179  24.898  1.00  0.00    -0.345 OA
ATOM     20  H1  UNL     1      -2.501  11.705  25.529  1.00  0.00     0.219 HD
ENDBRANCH  14  19
ENDBRANCH   2  12
TORSDOF 5
ENDMDL
