MODEL 1
REMARK VINA RESULT: -7.369370022      0.000      0.000
REMARK  4 active torsions:
REMARK  status: ('A' for Active; 'I' for Inactive)
REMARK    1  A    between atoms: C4_4  and  C5_5 
REMARK    2  A    between atoms: C5_5  and  C6_6 
REMARK    3  A    between atoms: C7_7  and  O1_8 
REMARK    4  A    between atoms: N2_14  and  C9_15 
ROOT
HETATM    1  C6  UNL     1       5.774  11.184  23.992  1.00  0.00     0.070 A 
HETATM    2  C7  UNL     1       7.102  11.543  24.080  1.00  0.00     0.166 A 
HETATM    3  N1  UNL     1       7.859  10.481  23.811  1.00  0.00    -0.312 N 
ATOM      4  H1  UNL     1       8.879  10.466  23.806  1.00  0.00     0.170 HD
HETATM    5  C8  UNL     1       7.053   9.417  23.546  1.00  0.00     0.182 A 
HETATM    6  S1  UNL     1       7.615   7.914  23.166  1.00  0.00    -0.040 SA
HETATM    7  N2  UNL     1       5.788   9.858  23.658  1.00  0.00    -0.300 N 
ENDROOT
BRANCH   1   8
HETATM    8  C5  UNL     1       4.630  12.100  24.202  1.00  0.00     0.089 C 
BRANCH   8   9
HETATM    9  C4  UNL     1       5.091  13.403  24.779  1.00  0.00    -0.019 C 
HETATM   10  C2  UNL     1       4.260  14.392  25.077  1.00  0.00    -0.091 C 
HETATM   11  C1  UNL     1       2.810  14.207  24.832  1.00  0.00     0.042 C 
HETATM   12  C3  UNL     1       4.769  15.668  25.647  1.00  0.00     0.042 C 
ENDBRANCH   8   9
ENDBRANCH   1   8
BRANCH   2  13
HETATM   13  O1  UNL     1       7.558  12.834  24.404  1.00  0.00    -0.345 OA
ATOM     14  H1  UNL     1       7.331  13.621  23.923  1.00  0.00     0.219 HD
ENDBRANCH   2  13
BRANCH   7  15
HETATM   15  C9  UNL     1       4.591   9.111  23.440  1.00  0.00     0.109 C 
HETATM   16  C10 UNL     1       4.584   7.907  24.395  1.00  0.00     0.056 C 
HETATM   17  C11 UNL     1       3.315   9.858  23.758  1.00  0.00     0.056 C 
HETATM   18 CL1  UNL     1       4.497   8.558  21.741  1.00  0.00    -0.096 Cl
ENDBRANCH   7  15
TORSDOF 4
ENDMDL
MODEL 2
REMARK VINA RESULT: -7.176522543      2.212      3.128
REMARK  4 active torsions:
REMARK  status: ('A' for Active; 'I' for Inactive)
REMARK    1  A    between atoms: C4_4  and  C5_5 
REMARK    2  A    between atoms: C5_5  and  C6_6 
REMARK    3  A    between atoms: C7_7  and  O1_8 
REMARK    4  A    between atoms: N2_14  and  C9_15 
ROOT
HETATM    1  C6  UNL     1       4.675  11.295  24.040  1.00  0.00     0.070 A 
HETATM    2  C7  UNL     1       3.309  11.308  24.230  1.00  0.00     0.166 A 
HETATM    3  N1  UNL     1       2.822  10.098  23.959  1.00  0.00    -0.312 N 
ATOM      4  H1  UNL     1       1.840   9.829  24.018  1.00  0.00     0.170 HD
HETATM    5  C8  UNL     1       3.844   9.279  23.592  1.00  0.00     0.182 A 
HETATM    6  S1  UNL     1       3.647   7.695  23.179  1.00  0.00    -0.040 SA
HETATM    7  N2  UNL     1       4.966  10.018  23.646  1.00  0.00    -0.300 N 
ENDROOT
BRANCH   1   8
HETATM    8  C5  UNL     1       5.575  12.451  24.263  1.00  0.00     0.089 C 
BRANCH   8   9
HETATM    9  C4  UNL     1       4.822  13.605  24.849  1.00  0.00    -0.019 C 
HETATM   10  C2  UNL     1       5.422  14.673  25.355  1.00  0.00    -0.091 C 
HETATM   11  C1  UNL     1       6.903  14.734  25.344  1.00  0.00     0.042 C 
HETATM   12  C3  UNL     1       4.629  15.793  25.926  1.00  0.00     0.042 C 
ENDBRANCH   8   9
ENDBRANCH   1   8
BRANCH   2  13
HETATM   13  O1  UNL     1       2.573  12.433  24.642  1.00  0.00    -0.345 OA
ATOM     14  H1  UNL     1       2.813  12.997  25.368  1.00  0.00     0.219 HD
ENDBRANCH   2  13
BRANCH   7  15
HETATM   15  C9  UNL     1       6.300   9.585  23.378  1.00  0.00     0.109 C 
HETATM   16  C10 UNL     1       6.457   9.397  21.860  1.00  0.00     0.056 C 
HETATM   17  C11 UNL     1       7.374  10.583  23.752  1.00  0.00     0.056 C 
HETATM   18 CL1  UNL     1       6.646   8.053  24.234  1.00  0.00    -0.096 Cl
ENDBRANCH   7  15
TORSDOF 4
ENDMDL
MODEL 3
REMARK VINA RESULT: -7.114433419      4.515      5.701
REMARK  4 active torsions:
REMARK  status: ('A' for Active; 'I' for Inactive)
REMARK    1  A    between atoms: C4_4  and  C5_5 
REMARK    2  A    between atoms: C5_5  and  C6_6 
REMARK    3  A    between atoms: C7_7  and  O1_8 
REMARK    4  A    between atoms: N2_14  and  C9_15 
ROOT
HETATM    1  C6  UNL     1       1.883  11.326  24.293  1.00  0.00     0.070 A 
HETATM    2  C7  UNL     1       1.900  10.203  25.092  1.00  0.00     0.166 A 
HETATM    3  N1  UNL     1       0.685  10.017  25.605  1.00  0.00    -0.312 N 
ATOM      4  H1  UNL     1       0.417   9.258  26.232  1.00  0.00     0.170 HD
HETATM    5  C8  UNL     1      -0.142  11.000  25.158  1.00  0.00     0.182 A 
HETATM    6  S1  UNL     1      -1.735  11.117  25.570  1.00  0.00    -0.040 SA
HETATM    7  N2  UNL     1       0.598  11.789  24.360  1.00  0.00    -0.300 N 
ENDROOT
BRANCH   1   8
HETATM    8  C5  UNL     1       3.043  11.845  23.531  1.00  0.00     0.089 C 
BRANCH   8   9
HETATM    9  C4  UNL     1       3.785  12.873  24.328  1.00  0.00    -0.019 C 
HETATM   10  C2  UNL     1       5.100  12.841  24.497  1.00  0.00    -0.091 C 
HETATM   11  C1  UNL     1       5.875  11.742  23.872  1.00  0.00     0.042 C 
HETATM   12  C3  UNL     1       5.790  13.885  25.299  1.00  0.00     0.042 C 
ENDBRANCH   8   9
ENDBRANCH   1   8
BRANCH   2  13
HETATM   13  O1  UNL     1       3.033   9.400  25.314  1.00  0.00    -0.345 OA
ATOM     14  H1  UNL     1       3.892   9.567  24.944  1.00  0.00     0.219 HD
ENDBRANCH   2  13
BRANCH   7  15
HETATM   15  C9  UNL     1       0.159  12.937  23.634  1.00  0.00     0.109 C 
HETATM   16  C10 UNL     1       0.629  12.803  22.175  1.00  0.00     0.056 C 
HETATM   17  C11 UNL     1      -1.343  13.088  23.539  1.00  0.00     0.056 C 
HETATM   18 CL1  UNL     1       0.819  14.432  24.363  1.00  0.00    -0.096 Cl
ENDBRANCH   7  15
TORSDOF 4
ENDMDL
MODEL 4
REMARK VINA RESULT: -7.093313045      2.059      3.046
REMARK  4 active torsions:
REMARK  status: ('A' for Active; 'I' for Inactive)
REMARK    1  A    between atoms: C4_4  and  C5_5 
REMARK    2  A    between atoms: C5_5  and  C6_6 
REMARK    3  A    between atoms: C7_7  and  O1_8 
REMARK    4  A    between atoms: N2_14  and  C9_15 
ROOT
HETATM    1  C6  UNL     1       4.769  11.260  24.038  1.00  0.00     0.070 A 
HETATM    2  C7  UNL     1       3.411  11.244  24.271  1.00  0.00     0.166 A 
HETATM    3  N1  UNL     1       2.932  10.040  23.963  1.00  0.00    -0.312 N 
ATOM      4  H1  UNL     1       1.956   9.753  24.041  1.00  0.00     0.170 HD
HETATM    5  C8  UNL     1       3.953   9.253  23.530  1.00  0.00     0.182 A 
HETATM    6  S1  UNL     1       3.764   7.685  23.055  1.00  0.00    -0.040 SA
HETATM    7  N2  UNL     1       5.065  10.006  23.581  1.00  0.00    -0.300 N 
ENDROOT
BRANCH   1   8
HETATM    8  C5  UNL     1       5.660  12.419  24.283  1.00  0.00     0.089 C 
BRANCH   8   9
HETATM    9  C4  UNL     1       4.883  13.583  24.815  1.00  0.00    -0.019 C 
HETATM   10  C2  UNL     1       5.461  14.659  25.329  1.00  0.00    -0.091 C 
HETATM   11  C1  UNL     1       6.942  14.720  25.382  1.00  0.00     0.042 C 
HETATM   12  C3  UNL     1       4.644  15.789  25.847  1.00  0.00     0.042 C 
ENDBRANCH   8   9
ENDBRANCH   1   8
BRANCH   2  13
HETATM   13  O1  UNL     1       2.672  12.339  24.755  1.00  0.00    -0.345 OA
ATOM     14  H1  UNL     1       2.788  12.729  25.613  1.00  0.00     0.219 HD
ENDBRANCH   2  13
BRANCH   7  15
HETATM   15  C9  UNL     1       6.396   9.605  23.252  1.00  0.00     0.109 C 
HETATM   16  C10 UNL     1       7.373  10.661  23.795  1.00  0.00     0.056 C 
HETATM   17  C11 UNL     1       6.840   8.309  23.892  1.00  0.00     0.056 C 
HETATM   18 CL1  UNL     1       6.582   9.439  21.481  1.00  0.00    -0.096 Cl
ENDBRANCH   7  15
TORSDOF 4
ENDMDL
MODEL 5
REMARK VINA RESULT: -7.023910568      4.044      4.980
REMARK  4 active torsions:
REMARK  status: ('A' for Active; 'I' for Inactive)
REMARK    1  A    between atoms: C4_4  and  C5_5 
REMARK    2  A    between atoms: C5_5  and  C6_6 
REMARK    3  A    between atoms: C7_7  and  O1_8 
REMARK    4  A    between atoms: N2_14  and  C9_15 
ROOT
HETATM    1  C6  UNL     1       1.983  12.320  24.291  1.00  0.00     0.070 A 
HETATM    2  C7  UNL     1       1.134  13.405  24.234  1.00  0.00     0.166 A 
HETATM    3  N1  UNL     1      -0.122  12.981  24.368  1.00  0.00    -0.312 N 
ATOM      4  H1  UNL     1      -0.951  13.574  24.362  1.00  0.00     0.170 HD
HETATM    5  C8  UNL     1      -0.121  11.628  24.514  1.00  0.00     0.182 A 
HETATM    6  S1  UNL     1      -1.487  10.726  24.708  1.00  0.00    -0.040 SA
HETATM    7  N2  UNL     1       1.165  11.239  24.466  1.00  0.00    -0.300 N 
ENDROOT
BRANCH   1   8
HETATM    8  C5  UNL     1       3.460  12.392  24.202  1.00  0.00     0.089 C 
BRANCH   8   9
HETATM    9  C4  UNL     1       3.975  13.618  24.890  1.00  0.00    -0.019 C 
HETATM   10  C2  UNL     1       5.267  13.883  25.018  1.00  0.00    -0.091 C 
HETATM   11  C1  UNL     1       6.252  12.927  24.457  1.00  0.00     0.042 C 
HETATM   12  C3  UNL     1       5.727  15.115  25.711  1.00  0.00     0.042 C 
ENDBRANCH   8   9
ENDBRANCH   1   8
BRANCH   2  13
HETATM   13  O1  UNL     1       1.553  14.736  24.061  1.00  0.00    -0.345 OA
ATOM     14  H1  UNL     1       2.174  15.023  23.403  1.00  0.00     0.219 HD
ENDBRANCH   2  13
BRANCH   7  15
HETATM   15  C9  UNL     1       1.671   9.911  24.606  1.00  0.00     0.109 C 
HETATM   16  C10 UNL     1       1.864   9.616  26.103  1.00  0.00     0.056 C 
HETATM   17  C11 UNL     1       0.737   8.826  24.120  1.00  0.00     0.056 C 
HETATM   18 CL1  UNL     1       3.222   9.735  23.733  1.00  0.00    -0.096 Cl
ENDBRANCH   7  15
TORSDOF 4
ENDMDL
