MODEL 1
REMARK VINA RESULT: -7.193651035      0.000      0.000
REMARK  4 active torsions:
REMARK  status: ('A' for Active; 'I' for Inactive)
REMARK    1  A    between atoms: O1_1  and  C1_3 
REMARK    2  A    between atoms: C4_6  and  O2_7 
REMARK    3  A    between atoms: N1_9  and  C5_10 
REMARK    4  A    between atoms: C5_10  and  C6_11 
ROOT
HETATM    1  C1  UNL     1       5.632  12.264  24.029  1.00  0.00     0.151 A 
HETATM    2  C2  UNL     1       5.824  11.001  23.493  1.00  0.00     0.008 A 
HETATM    3  C3  UNL     1       4.599  10.414  23.249  1.00  0.00     0.008 A 
HETATM    4  C4  UNL     1       3.665  11.346  23.648  1.00  0.00     0.151 A 
HETATM    5  N1  UNL     1       4.302  12.444  24.111  1.00  0.00    -0.307 N 
HETATM    6  C7  UNL     1       4.620   9.051  22.668  1.00  0.00     0.024 C 
HETATM    7  C8  UNL     1       4.961   8.051  23.719  1.00  0.00     0.009 C 
HETATM    8  C9  UNL     1       6.424   7.875  23.966  1.00  0.00     0.001 C 
HETATM    9  C10 UNL     1       7.183   9.126  24.192  1.00  0.00     0.009 C 
HETATM   10  C11 UNL     1       7.016  10.187  23.143  1.00  0.00     0.024 C 
HETATM   11  C12 UNL     1       6.909   9.621  21.754  1.00  0.00     0.010 C 
HETATM   12  C13 UNL     1       5.548   9.075  21.504  1.00  0.00     0.010 C 
ENDROOT
BRANCH   5  13
HETATM   13  C5  UNL     1       3.607  13.610  24.609  1.00  0.00     0.148 C 
BRANCH  13  14
HETATM   14  C6  UNL     1       4.329  14.138  25.857  1.00  0.00     0.135 C 
HETATM   15 CL1  UNL     1       4.791  15.838  25.629  1.00  0.00    -0.129 Cl
ENDBRANCH  13  14
ENDBRANCH   5  13
BRANCH   1  16
HETATM   16  O1  UNL     1       6.664  13.114  24.385  1.00  0.00    -0.345 OA
ATOM     17  H1  UNL     1       6.713  14.025  24.121  1.00  0.00     0.219 HD
ENDBRANCH   1  16
BRANCH   4  18
HETATM   18  O2  UNL     1       2.293  11.111  23.554  1.00  0.00    -0.345 OA
ATOM     19  H2  UNL     1       1.783  11.383  22.800  1.00  0.00     0.219 HD
ENDBRANCH   4  18
TORSDOF 4
ENDMDL
MODEL 2
REMARK VINA RESULT: -7.049317476      0.467      2.723
REMARK  4 active torsions:
REMARK  status: ('A' for Active; 'I' for Inactive)
REMARK    1  A    between atoms: O1_1  and  C1_3 
REMARK    2  A    between atoms: C4_6  and  O2_7 
REMARK    3  A    between atoms: N1_9  and  C5_10 
REMARK    4  A    between atoms: C5_10  and  C6_11 
ROOT
HETATM    1  C1  UNL     1       3.620  11.510  23.743  1.00  0.00     0.151 A 
HETATM    2  C2  UNL     1       4.622  10.578  23.527  1.00  0.00     0.008 A 
HETATM    3  C3  UNL     1       5.842  11.126  23.871  1.00  0.00     0.008 A 
HETATM    4  C4  UNL     1       5.556  12.406  24.298  1.00  0.00     0.151 A 
HETATM    5  N1  UNL     1       4.223  12.615  24.214  1.00  0.00    -0.307 N 
HETATM    6  C7  UNL     1       7.030  10.258  23.703  1.00  0.00     0.024 C 
HETATM    7  C8  UNL     1       7.403  10.173  22.263  1.00  0.00     0.009 C 
HETATM    8  C9  UNL     1       6.651   9.148  21.479  1.00  0.00     0.001 C 
HETATM    9  C10 UNL     1       5.178   9.200  21.618  1.00  0.00     0.009 C 
HETATM   10  C11 UNL     1       4.656   9.181  23.026  1.00  0.00     0.024 C 
HETATM   11  C12 UNL     1       5.459   8.289  23.932  1.00  0.00     0.010 C 
HETATM   12  C13 UNL     1       6.725   8.951  24.347  1.00  0.00     0.010 C 
ENDROOT
BRANCH   5  13
HETATM   13  C5  UNL     1       3.595  13.862  24.589  1.00  0.00     0.148 C 
BRANCH  13  14
HETATM   14  C6  UNL     1       4.037  14.248  26.008  1.00  0.00     0.135 C 
HETATM   15 CL1  UNL     1       4.678  15.904  26.025  1.00  0.00    -0.129 Cl
ENDBRANCH  13  14
ENDBRANCH   5  13
BRANCH   1  16
HETATM   16  O1  UNL     1       2.280  11.270  23.497  1.00  0.00    -0.345 OA
ATOM     17  H1  UNL     1       1.654  11.030  24.169  1.00  0.00     0.219 HD
ENDBRANCH   1  16
BRANCH   4  18
HETATM   18  O2  UNL     1       6.549  13.283  24.734  1.00  0.00    -0.345 OA
ATOM     19  H2  UNL     1       7.359  12.976  25.125  1.00  0.00     0.219 HD
ENDBRANCH   4  18
TORSDOF 4
ENDMDL
MODEL 3
REMARK VINA RESULT: -6.716595163      1.040      1.063
REMARK  4 active torsions:
REMARK  status: ('A' for Active; 'I' for Inactive)
REMARK    1  A    between atoms: O1_1  and  C1_3 
REMARK    2  A    between atoms: C4_6  and  O2_7 
REMARK    3  A    between atoms: N1_9  and  C5_10 
REMARK    4  A    between atoms: C5_10  and  C6_11 
ROOT
HETATM    1  C1  UNL     1       6.527  12.168  24.231  1.00  0.00     0.151 A 
HETATM    2  C2  UNL     1       6.373  10.930  23.629  1.00  0.00     0.008 A 
HETATM    3  C3  UNL     1       5.030  10.682  23.425  1.00  0.00     0.008 A 
HETATM    4  C4  UNL     1       4.378  11.792  23.917  1.00  0.00     0.151 A 
HETATM    5  N1  UNL     1       5.290  12.669  24.393  1.00  0.00    -0.307 N 
HETATM    6  C7  UNL     1       4.684   9.392  22.784  1.00  0.00     0.024 C 
HETATM    7  C8  UNL     1       4.806   8.280  23.768  1.00  0.00     0.009 C 
HETATM    8  C9  UNL     1       6.186   7.731  23.928  1.00  0.00     0.001 C 
HETATM    9  C10 UNL     1       7.244   8.739  24.168  1.00  0.00     0.009 C 
HETATM   10  C11 UNL     1       7.306   9.866  23.179  1.00  0.00     0.024 C 
HETATM   11  C12 UNL     1       7.003   9.425  21.773  1.00  0.00     0.010 C 
HETATM   12  C13 UNL     1       5.540   9.251  21.573  1.00  0.00     0.010 C 
ENDROOT
BRANCH   5  13
HETATM   13  C5  UNL     1       4.932  13.940  24.980  1.00  0.00     0.148 C 
BRANCH  13  14
HETATM   14  C6  UNL     1       6.206  14.752  25.254  1.00  0.00     0.135 C 
HETATM   15 CL1  UNL     1       6.582  14.743  26.989  1.00  0.00    -0.129 Cl
ENDBRANCH  13  14
ENDBRANCH   5  13
BRANCH   1  16
HETATM   16  O1  UNL     1       7.753  12.712  24.568  1.00  0.00    -0.345 OA
ATOM     17  H1  UNL     1       8.136  13.465  24.132  1.00  0.00     0.219 HD
ENDBRANCH   1  16
BRANCH   4  18
HETATM   18  O2  UNL     1       2.989  11.912  23.887  1.00  0.00    -0.345 OA
ATOM     19  H2  UNL     1       2.541  12.690  24.198  1.00  0.00     0.219 HD
ENDBRANCH   4  18
TORSDOF 4
ENDMDL
MODEL 4
REMARK VINA RESULT: -6.707662732      1.234      1.264
REMARK  4 active torsions:
REMARK  status: ('A' for Active; 'I' for Inactive)
REMARK    1  A    between atoms: O1_1  and  C1_3 
REMARK    2  A    between atoms: C4_6  and  O2_7 
REMARK    3  A    between atoms: N1_9  and  C5_10 
REMARK    4  A    between atoms: C5_10  and  C6_11 
ROOT
HETATM    1  C1  UNL     1       5.450  11.672  24.306  1.00  0.00     0.151 A 
HETATM    2  C2  UNL     1       5.755  10.590  23.497  1.00  0.00     0.008 A 
HETATM    3  C3  UNL     1       4.596   9.906  23.187  1.00  0.00     0.008 A 
HETATM    4  C4  UNL     1       3.587  10.596  23.825  1.00  0.00     0.151 A 
HETATM    5  N1  UNL     1       4.118  11.647  24.489  1.00  0.00    -0.307 N 
HETATM    6  C7  UNL     1       4.741   8.714  22.320  1.00  0.00     0.024 C 
HETATM    7  C8  UNL     1       5.280   7.570  23.107  1.00  0.00     0.009 C 
HETATM    8  C9  UNL     1       6.768   7.546  23.241  1.00  0.00     0.001 C 
HETATM    9  C10 UNL     1       7.382   8.812  23.701  1.00  0.00     0.009 C 
HETATM   10  C11 UNL     1       7.008  10.038  22.921  1.00  0.00     0.024 C 
HETATM   11  C12 UNL     1       6.867   9.771  21.448  1.00  0.00     0.010 C 
HETATM   12  C13 UNL     1       5.569   9.111  21.147  1.00  0.00     0.010 C 
ENDROOT
BRANCH   5  13
HETATM   13  C5  UNL     1       3.324  12.574  25.262  1.00  0.00     0.148 C 
BRANCH  13  14
HETATM   14  C6  UNL     1       3.126  13.868  24.460  1.00  0.00     0.135 C 
HETATM   15 CL1  UNL     1       1.395  14.223  24.279  1.00  0.00    -0.129 Cl
ENDBRANCH  13  14
ENDBRANCH   5  13
BRANCH   1  16
HETATM   16  O1  UNL     1       6.393  12.559  24.792  1.00  0.00    -0.345 OA
ATOM     17  H1  UNL     1       6.252  13.496  24.859  1.00  0.00     0.219 HD
ENDBRANCH   1  16
BRANCH   4  18
HETATM   18  O2  UNL     1       2.251  10.201  23.746  1.00  0.00    -0.345 OA
ATOM     19  H2  UNL     1       1.703  10.112  24.517  1.00  0.00     0.219 HD
ENDBRANCH   4  18
TORSDOF 4
ENDMDL
MODEL 5
REMARK VINA RESULT: -6.705101923      4.672      5.734
REMARK  4 active torsions:
REMARK  status: ('A' for Active; 'I' for Inactive)
REMARK    1  A    between atoms: O1_1  and  C1_3 
REMARK    2  A    between atoms: C4_6  and  O2_7 
REMARK    3  A    between atoms: N1_9  and  C5_10 
REMARK    4  A    between atoms: C5_10  and  C6_11 
ROOT
HETATM    1  C1  UNL     1       0.621  11.410  23.667  1.00  0.00     0.151 A 
HETATM    2  C2  UNL     1       0.769  10.198  24.322  1.00  0.00     0.008 A 
HETATM    3  C3  UNL     1      -0.393   9.901  25.007  1.00  0.00     0.008 A 
HETATM    4  C4  UNL     1      -1.243  10.956  24.753  1.00  0.00     0.151 A 
HETATM    5  N1  UNL     1      -0.619  11.847  23.951  1.00  0.00    -0.307 N 
HETATM    6  C7  UNL     1      -0.408   8.629  25.767  1.00  0.00     0.024 C 
HETATM    7  C8  UNL     1       0.374   8.775  27.027  1.00  0.00     0.009 C 
HETATM    8  C9  UNL     1       1.846   8.569  26.880  1.00  0.00     0.001 C 
HETATM    9  C10 UNL     1       2.488   9.344  25.793  1.00  0.00     0.009 C 
HETATM   10  C11 UNL     1       1.863   9.201  24.436  1.00  0.00     0.024 C 
HETATM   11  C12 UNL     1       1.370   7.807  24.166  1.00  0.00     0.010 C 
HETATM   12  C13 UNL     1       0.075   7.557  24.853  1.00  0.00     0.010 C 
ENDROOT
BRANCH   5  13
HETATM   13  C5  UNL     1      -1.240  13.070  23.496  1.00  0.00     0.148 C 
BRANCH  13  14
HETATM   14  C6  UNL     1      -1.837  12.849  22.099  1.00  0.00     0.135 C 
HETATM   15 CL1  UNL     1      -0.714  13.424  20.850  1.00  0.00    -0.129 Cl
ENDBRANCH  13  14
ENDBRANCH   5  13
BRANCH   1  16
HETATM   16  O1  UNL     1       1.607  11.990  22.890  1.00  0.00    -0.345 OA
ATOM     17  H1  UNL     1       2.084  12.773  23.139  1.00  0.00     0.219 HD
ENDBRANCH   1  16
BRANCH   4  18
HETATM   18  O2  UNL     1      -2.532  11.016  25.283  1.00  0.00    -0.345 OA
ATOM     19  H2  UNL     1      -2.790  11.677  25.915  1.00  0.00     0.219 HD
ENDBRANCH   4  18
TORSDOF 4
ENDMDL
