MODEL 1
REMARK VINA RESULT: -7.260736222      0.000      0.000
REMARK  4 active torsions:
REMARK  status: ('A' for Active; 'I' for Inactive)
REMARK    1  A    between atoms: C1_4  and  C2_5 
REMARK    2  A    between atoms: C1_4  and  N2_9 
REMARK    3  A    between atoms: N3_11  and  C4_13 
REMARK    4  A    between atoms: C6_15  and  C7_16 
ROOT
HETATM    1  N2  UNL     1       0.040  12.171  23.700  1.00  0.00    -0.285 N 
ATOM      2  H2  UNL     1       0.699  11.495  23.313  1.00  0.00     0.188 HD
HETATM    3  N3  UNL     1       0.511  13.168  24.339  1.00  0.00    -0.292 N 
ATOM      4  H3  UNL     1      -0.085  13.884  24.754  1.00  0.00     0.187 HD
ENDROOT
BRANCH   1   5
HETATM    5  C1  UNL     1      -1.332  11.951  23.498  1.00  0.00     0.115 C 
HETATM    6  N1  UNL     1      -1.946  10.972  24.074  1.00  0.00    -0.384 N 
ATOM      7  H12 UNL     1      -2.942  10.812  23.927  1.00  0.00     0.157 HD
ATOM      8  H11 UNL     1      -1.400  10.364  24.684  1.00  0.00     0.157 HD
BRANCH   5   9
HETATM    9  C2  UNL     1      -2.107  12.814  22.633  1.00  0.00     0.085 C 
HETATM   10  C3  UNL     1      -1.624  13.317  21.517  1.00  0.00     0.107 C 
HETATM   11 CL1  UNL     1      -2.641  14.368  20.510  1.00  0.00    -0.071 Cl
HETATM   12 CL2  UNL     1       0.007  12.990  20.968  1.00  0.00    -0.071 Cl
ENDBRANCH   5   9
ENDBRANCH   1   5
BRANCH   3  13
HETATM   13  C4  UNL     1       1.962  13.208  24.432  1.00  0.00     0.089 A 
HETATM   14  C5  UNL     1       2.718  14.232  24.929  1.00  0.00     0.057 A 
HETATM   15  C6  UNL     1       4.063  14.072  24.927  1.00  0.00     0.050 A 
HETATM   16  C8  UNL     1       4.532  12.882  24.419  1.00  0.00     0.070 A 
HETATM   17  S1  UNL     1       3.116  12.051  23.975  1.00  0.00    -0.082 SA
BRANCH  15  18
HETATM   18  C7  UNL     1       5.040  15.087  25.430  1.00  0.00     0.209 C 
HETATM   19  O1  UNL     1       4.621  16.069  26.084  1.00  0.00    -0.644 OA
HETATM   20  O2  UNL     1       6.381  14.999  25.212  1.00  0.00    -0.644 OA
ENDBRANCH  15  18
ENDBRANCH   3  13
TORSDOF 4
ENDMDL
MODEL 2
REMARK VINA RESULT: -7.235095515      2.053      2.625
REMARK  4 active torsions:
REMARK  status: ('A' for Active; 'I' for Inactive)
REMARK    1  A    between atoms: C1_4  and  C2_5 
REMARK    2  A    between atoms: C1_4  and  N2_9 
REMARK    3  A    between atoms: N3_11  and  C4_13 
REMARK    4  A    between atoms: C6_15  and  C7_16 
ROOT
HETATM    1  N2  UNL     1       1.954  12.517  24.610  1.00  0.00    -0.285 N 
ATOM      2  H2  UNL     1       1.723  13.226  25.306  1.00  0.00     0.188 HD
HETATM    3  N3  UNL     1       3.153  12.467  24.180  1.00  0.00    -0.292 N 
ATOM      4  H3  UNL     1       3.458  11.786  23.485  1.00  0.00     0.187 HD
ENDROOT
BRANCH   1   5
HETATM    5  C1  UNL     1       0.935  11.651  24.182  1.00  0.00     0.115 C 
HETATM    6  N1  UNL     1       1.169  10.404  23.944  1.00  0.00    -0.384 N 
ATOM      7  H12 UNL     1       0.428   9.776  23.633  1.00  0.00     0.157 HD
ATOM      8  H11 UNL     1       2.122  10.067  24.080  1.00  0.00     0.157 HD
BRANCH   5   9
HETATM    9  C2  UNL     1      -0.418  12.129  23.989  1.00  0.00     0.085 C 
HETATM   10  C3  UNL     1      -0.794  12.775  22.907  1.00  0.00     0.107 C 
HETATM   11 CL1  UNL     1      -2.473  13.329  22.747  1.00  0.00    -0.071 Cl
HETATM   12 CL2  UNL     1       0.308  13.121  21.590  1.00  0.00    -0.071 Cl
ENDBRANCH   5   9
ENDBRANCH   1   5
BRANCH   3  13
HETATM   13  C4  UNL     1       4.052  13.455  24.756  1.00  0.00     0.089 A 
HETATM   14  C5  UNL     1       5.418  13.422  24.735  1.00  0.00     0.057 A 
HETATM   15  C6  UNL     1       6.076  14.444  25.331  1.00  0.00     0.050 A 
HETATM   16  C8  UNL     1       5.291  15.421  25.901  1.00  0.00     0.070 A 
HETATM   17  S1  UNL     1       3.704  14.889  25.592  1.00  0.00    -0.082 SA
BRANCH  15  18
HETATM   18  C7  UNL     1       7.565  14.570  25.403  1.00  0.00     0.209 C 
HETATM   19  O1  UNL     1       8.238  14.489  24.351  1.00  0.00    -0.644 OA
HETATM   20  O2  UNL     1       8.238  14.772  26.569  1.00  0.00    -0.644 OA
ENDBRANCH  15  18
ENDBRANCH   3  13
TORSDOF 4
ENDMDL
MODEL 3
REMARK VINA RESULT: -7.227581286      3.057      3.480
REMARK  4 active torsions:
REMARK  status: ('A' for Active; 'I' for Inactive)
REMARK    1  A    between atoms: C1_4  and  C2_5 
REMARK    2  A    between atoms: C1_4  and  N2_9 
REMARK    3  A    between atoms: N3_11  and  C4_13 
REMARK    4  A    between atoms: C6_15  and  C7_16 
ROOT
HETATM    1  N2  UNL     1       1.989  13.228  23.913  1.00  0.00    -0.285 N 
ATOM      2  H2  UNL     1       2.753  12.650  23.565  1.00  0.00     0.188 HD
HETATM    3  N3  UNL     1       2.273  14.182  24.708  1.00  0.00    -0.292 N 
ATOM      4  H3  UNL     1       1.562  14.802  25.097  1.00  0.00     0.187 HD
ENDROOT
BRANCH   1   5
HETATM    5  C1  UNL     1       0.684  12.928  23.488  1.00  0.00     0.115 C 
HETATM    6  N1  UNL     1       0.366  12.942  22.237  1.00  0.00    -0.384 N 
ATOM      7  H12 UNL     1      -0.581  12.724  21.928  1.00  0.00     0.157 HD
ATOM      8  H11 UNL     1       1.096  13.179  21.565  1.00  0.00     0.157 HD
BRANCH   5   9
HETATM    9  C2  UNL     1      -0.352  12.592  24.441  1.00  0.00     0.085 C 
HETATM   10  C3  UNL     1      -0.557  11.362  24.860  1.00  0.00     0.107 C 
HETATM   11 CL1  UNL     1      -1.849  11.032  26.032  1.00  0.00    -0.071 Cl
HETATM   12 CL2  UNL     1       0.408  10.008  24.307  1.00  0.00    -0.071 Cl
ENDBRANCH   5   9
ENDBRANCH   1   5
BRANCH   3  13
HETATM   13  C4  UNL     1       3.686  14.321  25.019  1.00  0.00     0.089 A 
HETATM   14  C5  UNL     1       4.695  13.496  24.607  1.00  0.00     0.057 A 
HETATM   15  C6  UNL     1       5.952  13.800  25.008  1.00  0.00     0.050 A 
HETATM   16  C8  UNL     1       6.084  14.920  25.797  1.00  0.00     0.070 A 
HETATM   17  S1  UNL     1       4.489  15.494  25.946  1.00  0.00    -0.082 SA
BRANCH  15  18
HETATM   18  C7  UNL     1       7.173  13.010  24.653  1.00  0.00     0.209 C 
HETATM   19  O1  UNL     1       8.269  13.308  25.177  1.00  0.00    -0.644 OA
HETATM   20  O2  UNL     1       7.154  11.968  23.778  1.00  0.00    -0.644 OA
ENDBRANCH  15  18
ENDBRANCH   3  13
TORSDOF 4
ENDMDL
MODEL 4
REMARK VINA RESULT: -7.116053352      2.098      2.768
REMARK  4 active torsions:
REMARK  status: ('A' for Active; 'I' for Inactive)
REMARK    1  A    between atoms: C1_4  and  C2_5 
REMARK    2  A    between atoms: C1_4  and  N2_9 
REMARK    3  A    between atoms: N3_11  and  C4_13 
REMARK    4  A    between atoms: C6_15  and  C7_16 
ROOT
HETATM    1  N2  UNL     1       2.116  12.995  24.046  1.00  0.00    -0.285 N 
ATOM      2  H2  UNL     1       1.879  13.912  24.424  1.00  0.00     0.188 HD
HETATM    3  N3  UNL     1       3.323  12.599  24.146  1.00  0.00    -0.292 N 
ATOM      4  H3  UNL     1       3.635  11.695  23.791  1.00  0.00     0.187 HD
ENDROOT
BRANCH   1   5
HETATM    5  C1  UNL     1       1.094  12.242  23.444  1.00  0.00     0.115 C 
HETATM    6  N1  UNL     1       0.831  11.039  23.830  1.00  0.00    -0.384 N 
ATOM      7  H12 UNL     1       0.090  10.493  23.393  1.00  0.00     0.157 HD
ATOM      8  H11 UNL     1       1.391  10.653  24.590  1.00  0.00     0.157 HD
BRANCH   5   9
HETATM    9  C2  UNL     1       0.299  12.791  22.366  1.00  0.00     0.085 C 
HETATM   10  C3  UNL     1      -1.009  12.904  22.438  1.00  0.00     0.107 C 
HETATM   11 CL1  UNL     1      -1.913  13.589  21.071  1.00  0.00    -0.071 Cl
HETATM   12 CL2  UNL     1      -1.919  12.403  23.848  1.00  0.00    -0.071 Cl
ENDBRANCH   5   9
ENDBRANCH   1   5
BRANCH   3  13
HETATM   13  C4  UNL     1       4.222  13.533  24.805  1.00  0.00     0.089 A 
HETATM   14  C5  UNL     1       5.588  13.502  24.781  1.00  0.00     0.057 A 
HETATM   15  C6  UNL     1       6.246  14.469  25.464  1.00  0.00     0.050 A 
HETATM   16  C8  UNL     1       5.461  15.391  26.119  1.00  0.00     0.070 A 
HETATM   17  S1  UNL     1       3.875  14.888  25.765  1.00  0.00    -0.082 SA
BRANCH  15  18
HETATM   18  C7  UNL     1       7.736  14.589  25.546  1.00  0.00     0.209 C 
HETATM   19  O1  UNL     1       8.411  14.562  24.492  1.00  0.00    -0.644 OA
HETATM   20  O2  UNL     1       8.406  14.728  26.722  1.00  0.00    -0.644 OA
ENDBRANCH  15  18
ENDBRANCH   3  13
TORSDOF 4
ENDMDL
MODEL 5
REMARK VINA RESULT: -7.101430715      2.990      3.702
REMARK  4 active torsions:
REMARK  status: ('A' for Active; 'I' for Inactive)
REMARK    1  A    between atoms: C1_4  and  C2_5 
REMARK    2  A    between atoms: C1_4  and  N2_9 
REMARK    3  A    between atoms: N3_11  and  C4_13 
REMARK    4  A    between atoms: C6_15  and  C7_16 
ROOT
HETATM    1  N2  UNL     1       1.901  12.941  24.196  1.00  0.00    -0.285 N 
ATOM      2  H2  UNL     1       1.668  13.853  24.589  1.00  0.00     0.188 HD
HETATM    3  N3  UNL     1       3.121  12.574  24.214  1.00  0.00    -0.292 N 
ATOM      4  H3  UNL     1       3.429  11.677  23.839  1.00  0.00     0.187 HD
ENDROOT
BRANCH   1   5
HETATM    5  C1  UNL     1       0.859  12.164  23.665  1.00  0.00     0.115 C 
HETATM    6  N1  UNL     1      -0.037  12.680  22.891  1.00  0.00    -0.384 N 
ATOM      7  H12 UNL     1      -0.793  12.115  22.507  1.00  0.00     0.157 HD
ATOM      8  H11 UNL     1       0.039  13.674  22.678  1.00  0.00     0.157 HD
BRANCH   5   9
HETATM    9  C2  UNL     1       0.752  10.753  23.969  1.00  0.00     0.085 C 
HETATM   10  C3  UNL     1      -0.086  10.283  24.868  1.00  0.00     0.107 C 
HETATM   11 CL1  UNL     1      -0.157   8.537  25.182  1.00  0.00    -0.071 Cl
HETATM   12 CL2  UNL     1      -1.156  11.322  25.786  1.00  0.00    -0.071 Cl
ENDBRANCH   5   9
ENDBRANCH   1   5
BRANCH   3  13
HETATM   13  C4  UNL     1       4.040  13.530  24.810  1.00  0.00     0.089 A 
HETATM   14  C5  UNL     1       5.405  13.492  24.751  1.00  0.00     0.057 A 
HETATM   15  C6  UNL     1       6.084  14.483  25.376  1.00  0.00     0.050 A 
HETATM   16  C8  UNL     1       5.320  15.435  26.013  1.00  0.00     0.070 A 
HETATM   17  S1  UNL     1       3.723  14.925  25.722  1.00  0.00    -0.082 SA
BRANCH  15  18
HETATM   18  C7  UNL     1       7.576  14.599  25.415  1.00  0.00     0.209 C 
HETATM   19  O1  UNL     1       8.219  14.579  24.341  1.00  0.00    -0.644 OA
HETATM   20  O2  UNL     1       8.281  14.728  26.571  1.00  0.00    -0.644 OA
ENDBRANCH  15  18
ENDBRANCH   3  13
TORSDOF 4
ENDMDL
