MODEL 1
REMARK VINA RESULT: -7.174451583      0.000      0.000
REMARK  4 active torsions:
REMARK  status: ('A' for Active; 'I' for Inactive)
REMARK    1  A    between atoms: C4_4  and  N1_5 
REMARK    2  A    between atoms: N1_5  and  C5_7 
REMARK    3  A    between atoms: C10_12  and  O1_13 
REMARK    4  A    between atoms: C11_15  and  C12_16 
ROOT
HETATM    1  N1  UNL     1       1.210  12.879  24.392  1.00  0.00    -0.381 N 
ATOM      2  H1  UNL     1       0.551  13.040  25.153  1.00  0.00     0.160 HD
ENDROOT
BRANCH   1   3
HETATM    3  C4  UNL     1       2.545  13.285  24.570  1.00  0.00     0.063 A 
HETATM    4  C3  UNL     1       2.950  14.496  25.086  1.00  0.00     0.064 A 
HETATM    5  C2  UNL     1       4.327  14.483  25.087  1.00  0.00     0.051 A 
HETATM    6  C1  UNL     1       5.273  15.529  25.536  1.00  0.00     0.077 C 
HETATM    7  O2  UNL     1       4.688  13.332  24.600  1.00  0.00    -0.315 OA
HETATM    8  C11 UNL     1       3.688  12.582  24.277  1.00  0.00     0.112 A 
BRANCH   8   9
HETATM    9  C12 UNL     1       3.801  11.219  23.699  1.00  0.00     0.237 C 
HETATM   10 CL1  UNL     1       3.112   9.979  24.744  1.00  0.00    -0.101 Cl
HETATM   11 CL2  UNL     1       5.538  10.835  23.460  1.00  0.00    -0.101 Cl
ENDBRANCH   8   9
ENDBRANCH   1   3
BRANCH   1  12
HETATM   12  C5  UNL     1       0.720  12.244  23.184  1.00  0.00     0.110 C 
HETATM   13  C6  UNL     1       0.354  13.219  22.111  1.00  0.00     0.028 C 
HETATM   14  C7  UNL     1      -1.048  12.972  21.569  1.00  0.00     0.002 C 
HETATM   15  C8  UNL     1      -2.067  13.111  22.678  1.00  0.00     0.003 C 
HETATM   16  C9  UNL     1      -1.705  12.166  23.795  1.00  0.00     0.034 C 
HETATM   17  C10 UNL     1      -0.455  11.371  23.482  1.00  0.00     0.140 C 
BRANCH  17  18
HETATM   18  O1  UNL     1      -0.192  10.564  24.595  1.00  0.00    -0.394 OA
ATOM     19  H1  UNL     1      -0.518   9.684  24.449  1.00  0.00     0.210 HD
ENDBRANCH  17  18
ENDBRANCH   1  12
TORSDOF 4
ENDMDL
MODEL 2
REMARK VINA RESULT: -7.112543444      2.318      3.093
REMARK  4 active torsions:
REMARK  status: ('A' for Active; 'I' for Inactive)
REMARK    1  A    between atoms: C4_4  and  N1_5 
REMARK    2  A    between atoms: N1_5  and  C5_7 
REMARK    3  A    between atoms: C10_12  and  O1_13 
REMARK    4  A    between atoms: C11_15  and  C12_16 
ROOT
HETATM    1  N1  UNL     1       2.154  11.502  24.911  1.00  0.00    -0.381 N 
ATOM      2  H1  UNL     1       1.865  11.499  25.888  1.00  0.00     0.160 HD
ENDROOT
BRANCH   1   3
HETATM    3  C4  UNL     1       3.485  11.846  24.611  1.00  0.00     0.063 A 
HETATM    4  C3  UNL     1       4.410  11.017  24.015  1.00  0.00     0.064 A 
HETATM    5  C2  UNL     1       5.575  11.741  23.905  1.00  0.00     0.051 A 
HETATM    6  C1  UNL     1       6.882  11.335  23.341  1.00  0.00     0.077 C 
HETATM    7  O2  UNL     1       5.332  12.916  24.408  1.00  0.00    -0.315 OA
HETATM    8  C11 UNL     1       4.121  13.042  24.840  1.00  0.00     0.112 A 
BRANCH   8   9
HETATM    9  C12 UNL     1       3.564  14.269  25.461  1.00  0.00     0.237 C 
HETATM   10 CL1  UNL     1       2.123  14.857  24.633  1.00  0.00    -0.101 Cl
HETATM   11 CL2  UNL     1       4.804  15.565  25.394  1.00  0.00    -0.101 Cl
ENDBRANCH   8   9
ENDBRANCH   1   3
BRANCH   1  12
HETATM   12  C5  UNL     1       1.172  11.152  23.905  1.00  0.00     0.110 C 
HETATM   13  C6  UNL     1       0.143  12.217  23.687  1.00  0.00     0.028 C 
HETATM   14  C7  UNL     1      -1.275  11.667  23.774  1.00  0.00     0.002 C 
HETATM   15  C8  UNL     1      -1.519  11.070  25.143  1.00  0.00     0.003 C 
HETATM   16  C9  UNL     1      -0.474  10.017  25.409  1.00  0.00     0.034 C 
HETATM   17  C10 UNL     1       0.490   9.869  24.251  1.00  0.00     0.140 C 
BRANCH  17  18
HETATM   18  O1  UNL     1       1.432   8.902  24.622  1.00  0.00    -0.394 OA
ATOM     19  H1  UNL     1       1.133   8.426  25.387  1.00  0.00     0.210 HD
ENDBRANCH  17  18
ENDBRANCH   1  12
TORSDOF 4
ENDMDL
MODEL 3
REMARK VINA RESULT: -7.084217486      2.111      5.438
REMARK  4 active torsions:
REMARK  status: ('A' for Active; 'I' for Inactive)
REMARK    1  A    between atoms: C4_4  and  N1_5 
REMARK    2  A    between atoms: N1_5  and  C5_7 
REMARK    3  A    between atoms: C10_12  and  O1_13 
REMARK    4  A    between atoms: C11_15  and  C12_16 
ROOT
HETATM    1  N1  UNL     1       2.053  12.318  23.365  1.00  0.00    -0.381 N 
ATOM      2  H1  UNL     1       2.695  11.977  22.650  1.00  0.00     0.160 HD
ENDROOT
BRANCH   1   3
HETATM    3  C4  UNL     1       0.697  12.473  23.023  1.00  0.00     0.063 A 
HETATM    4  C3  UNL     1       0.223  13.178  21.939  1.00  0.00     0.064 A 
HETATM    5  C2  UNL     1      -1.150  13.077  21.974  1.00  0.00     0.051 A 
HETATM    6  C1  UNL     1      -2.155  13.645  21.048  1.00  0.00     0.077 C 
HETATM    7  O2  UNL     1      -1.443  12.356  23.017  1.00  0.00    -0.315 OA
HETATM    8  C11 UNL     1      -0.402  11.970  23.675  1.00  0.00     0.112 A 
BRANCH   8   9
HETATM    9  C12 UNL     1      -0.434  11.138  24.904  1.00  0.00     0.237 C 
HETATM   10 CL1  UNL     1      -0.019   9.453  24.595  1.00  0.00    -0.101 Cl
HETATM   11 CL2  UNL     1      -2.094  11.180  25.586  1.00  0.00    -0.101 Cl
ENDBRANCH   8   9
ENDBRANCH   1   3
BRANCH   1  12
HETATM   12  C5  UNL     1       2.587  12.616  24.679  1.00  0.00     0.110 C 
HETATM   13  C6  UNL     1       3.114  14.011  24.799  1.00  0.00     0.028 C 
HETATM   14  C7  UNL     1       4.531  14.039  25.358  1.00  0.00     0.002 C 
HETATM   15  C8  UNL     1       5.466  13.275  24.445  1.00  0.00     0.003 C 
HETATM   16  C9  UNL     1       4.941  11.873  24.272  1.00  0.00     0.034 C 
HETATM   17  C10 UNL     1       3.661  11.647  25.049  1.00  0.00     0.140 C 
BRANCH  17  18
HETATM   18  O1  UNL     1       3.247  10.336  24.784  1.00  0.00    -0.394 OA
ATOM     19  H1  UNL     1       2.459  10.133  25.274  1.00  0.00     0.210 HD
ENDBRANCH  17  18
ENDBRANCH   1  12
TORSDOF 4
ENDMDL
MODEL 4
REMARK VINA RESULT: -7.040871366      2.590      4.963
REMARK  4 active torsions:
REMARK  status: ('A' for Active; 'I' for Inactive)
REMARK    1  A    between atoms: C4_4  and  N1_5 
REMARK    2  A    between atoms: N1_5  and  C5_7 
REMARK    3  A    between atoms: C10_12  and  O1_13 
REMARK    4  A    between atoms: C11_15  and  C12_16 
ROOT
HETATM    1  N1  UNL     1       4.091  11.460  23.492  1.00  0.00    -0.381 N 
ATOM      2  H1  UNL     1       3.615  11.320  22.602  1.00  0.00     0.160 HD
ENDROOT
BRANCH   1   3
HETATM    3  C4  UNL     1       3.838  12.648  24.202  1.00  0.00     0.063 A 
HETATM    4  C3  UNL     1       4.797  13.532  24.647  1.00  0.00     0.064 A 
HETATM    5  C2  UNL     1       4.126  14.550  25.288  1.00  0.00     0.051 A 
HETATM    6  C1  UNL     1       4.668  15.757  25.950  1.00  0.00     0.077 C 
HETATM    7  O2  UNL     1       2.859  14.264  25.214  1.00  0.00    -0.315 OA
HETATM    8  C11 UNL     1       2.624  13.159  24.589  1.00  0.00     0.112 A 
BRANCH   8   9
HETATM    9  C12 UNL     1       1.274  12.587  24.354  1.00  0.00     0.237 C 
HETATM   10 CL1  UNL     1       1.171  10.885  24.800  1.00  0.00    -0.101 Cl
HETATM   11 CL2  UNL     1       0.885  12.723  22.608  1.00  0.00    -0.101 Cl
ENDBRANCH   8   9
ENDBRANCH   1   3
BRANCH   1  12
HETATM   12  C5  UNL     1       4.992  10.425  23.958  1.00  0.00     0.110 C 
HETATM   13  C6  UNL     1       6.432  10.826  23.901  1.00  0.00     0.028 C 
HETATM   14  C7  UNL     1       7.285   9.794  23.174  1.00  0.00     0.002 C 
HETATM   15  C8  UNL     1       6.801   9.629  21.750  1.00  0.00     0.003 C 
HETATM   16  C9  UNL     1       5.339   9.260  21.771  1.00  0.00     0.034 C 
HETATM   17  C10 UNL     1       4.799   9.163  23.182  1.00  0.00     0.140 C 
BRANCH  17  18
HETATM   18  O1  UNL     1       3.437   8.859  23.080  1.00  0.00    -0.394 OA
ATOM     19  H1  UNL     1       3.230   8.558  22.203  1.00  0.00     0.210 HD
ENDBRANCH  17  18
ENDBRANCH   1  12
TORSDOF 4
ENDMDL
MODEL 5
REMARK VINA RESULT: -7.032509897      2.600      5.536
REMARK  4 active torsions:
REMARK  status: ('A' for Active; 'I' for Inactive)
REMARK    1  A    between atoms: C4_4  and  N1_5 
REMARK    2  A    between atoms: N1_5  and  C5_7 
REMARK    3  A    between atoms: C10_12  and  O1_13 
REMARK    4  A    between atoms: C11_15  and  C12_16 
ROOT
HETATM    1  N1  UNL     1       3.622  12.226  25.184  1.00  0.00    -0.381 N 
ATOM      2  H1  UNL     1       3.456  12.336  26.184  1.00  0.00     0.160 HD
ENDROOT
BRANCH   1   3
HETATM    3  C4  UNL     1       3.184  11.041  24.564  1.00  0.00     0.063 A 
HETATM    4  C3  UNL     1       3.984   9.967  24.240  1.00  0.00     0.064 A 
HETATM    5  C2  UNL     1       3.164   9.028  23.655  1.00  0.00     0.051 A 
HETATM    6  C1  UNL     1       3.503   7.690  23.121  1.00  0.00     0.077 C 
HETATM    7  O2  UNL     1       1.966   9.536  23.644  1.00  0.00    -0.315 OA
HETATM    8  C11 UNL     1       1.911  10.716  24.165  1.00  0.00     0.112 A 
BRANCH   8   9
HETATM    9  C12 UNL     1       0.678  11.534  24.287  1.00  0.00     0.237 C 
HETATM   10 CL1  UNL     1      -0.780  10.550  24.407  1.00  0.00    -0.101 Cl
HETATM   11 CL2  UNL     1       0.525  12.570  22.829  1.00  0.00    -0.101 Cl
ENDBRANCH   8   9
ENDBRANCH   1   3
BRANCH   1  12
HETATM   12  C5  UNL     1       4.295  13.297  24.478  1.00  0.00     0.110 C 
HETATM   13  C6  UNL     1       5.775  13.308  24.693  1.00  0.00     0.028 C 
HETATM   14  C7  UNL     1       6.279  14.678  25.130  1.00  0.00     0.002 C 
HETATM   15  C8  UNL     1       5.626  15.080  26.435  1.00  0.00     0.003 C 
HETATM   16  C9  UNL     1       4.129  15.043  26.263  1.00  0.00     0.034 C 
HETATM   17  C10 UNL     1       3.729  14.625  24.863  1.00  0.00     0.140 C 
BRANCH  17  18
HETATM   18  O1  UNL     1       2.330  14.586  24.831  1.00  0.00    -0.394 OA
ATOM     19  H1  UNL     1       1.968  15.242  25.414  1.00  0.00     0.210 HD
ENDBRANCH  17  18
ENDBRANCH   1  12
TORSDOF 4
ENDMDL
