MODEL 1
REMARK VINA RESULT: -8.479139032      0.000      0.000
REMARK  4 active torsions:
REMARK  status: ('A' for Active; 'I' for Inactive)
REMARK    1  A    between atoms: O1_1  and  C1_3 
REMARK    2  A    between atoms: C2_6  and  C3_7 
REMARK    3  A    between atoms: C6_13  and  C7_14 
REMARK    4  A    between atoms: C7_14  and  C8_15 
ROOT
HETATM    1  C1  UNL     1       7.591  12.775  24.780  1.00  0.00     0.154 A 
HETATM    2  N1  UNL     1       8.792  13.055  25.318  1.00  0.00    -0.333 N 
ATOM      3  H1  UNL     1       9.666  12.567  25.121  1.00  0.00     0.168 HD
HETATM    4  C2  UNL     1       8.637  14.096  26.165  1.00  0.00     0.111 A 
HETATM    5  C4  UNL     1       7.305  14.467  26.148  1.00  0.00     0.118 A 
HETATM    6  O2  UNL     1       6.454  15.302  26.645  1.00  0.00    -0.319 OA
HETATM    7  C5  UNL     1       5.251  15.094  26.167  1.00  0.00     0.150 A 
HETATM    8  C6  UNL     1       5.302  14.043  25.285  1.00  0.00    -0.018 A 
HETATM    9  C14 UNL     1       6.637  13.648  25.282  1.00  0.00     0.059 A 
ENDROOT
BRANCH   8  10
HETATM   10  C7  UNL     1       4.297  13.373  24.464  1.00  0.00     0.046 C 
BRANCH  10  11
HETATM   11  C8  UNL     1       2.918  13.335  24.987  1.00  0.00    -0.010 C 
HETATM   12  C9  UNL     1       1.985  14.375  24.474  1.00  0.00     0.005 C 
HETATM   13  C10 UNL     1       0.634  13.740  24.110  1.00  0.00     0.000 C 
HETATM   14  C11 UNL     1       0.793  12.829  22.940  1.00  0.00     0.000 C 
HETATM   15  C12 UNL     1       1.935  11.864  23.202  1.00  0.00     0.000 C 
HETATM   16  C13 UNL     1       2.344  11.955  24.637  1.00  0.00     0.005 C 
ENDBRANCH  10  11
ENDBRANCH   8  10
BRANCH   1  17
HETATM   17  O1  UNL     1       7.278  11.775  23.851  1.00  0.00    -0.345 OA
ATOM     18  H1  UNL     1       7.598  10.880  23.828  1.00  0.00     0.219 HD
ENDBRANCH   1  17
BRANCH   4  19
HETATM   19  C3  UNL     1       9.758  14.671  26.935  1.00  0.00     0.406 C 
HETATM   20  F1  UNL     1      10.234  15.756  26.224  1.00  0.00    -0.207 F 
HETATM   21  F2  UNL     1      10.814  13.752  26.978  1.00  0.00    -0.207 F 
ENDBRANCH   4  19
TORSDOF 4
ENDMDL
MODEL 2
REMARK VINA RESULT: -8.254542266      1.860      2.759
REMARK  4 active torsions:
REMARK  status: ('A' for Active; 'I' for Inactive)
REMARK    1  A    between atoms: O1_1  and  C1_3 
REMARK    2  A    between atoms: C2_6  and  C3_7 
REMARK    3  A    between atoms: C6_13  and  C7_14 
REMARK    4  A    between atoms: C7_14  and  C8_15 
ROOT
HETATM    1  C1  UNL     1       5.257  11.837  23.982  1.00  0.00     0.154 A 
HETATM    2  N1  UNL     1       6.537  12.129  24.276  1.00  0.00    -0.333 N 
ATOM      3  H1  UNL     1       7.347  11.542  24.080  1.00  0.00     0.168 HD
HETATM    4  C2  UNL     1       6.560  13.338  24.878  1.00  0.00     0.111 A 
HETATM    5  C4  UNL     1       5.260  13.802  24.957  1.00  0.00     0.118 A 
HETATM    6  O2  UNL     1       4.533  14.791  25.361  1.00  0.00    -0.319 OA
HETATM    7  C5  UNL     1       3.264  14.581  25.108  1.00  0.00     0.150 A 
HETATM    8  C6  UNL     1       3.133  13.363  24.489  1.00  0.00    -0.018 A 
HETATM    9  C14 UNL     1       4.432  12.871  24.397  1.00  0.00     0.059 A 
ENDROOT
BRANCH   8  10
HETATM   10  C7  UNL     1       1.985  12.614  23.984  1.00  0.00     0.046 C 
BRANCH  10  11
HETATM   11  C8  UNL     1       0.847  13.395  23.466  1.00  0.00    -0.010 C 
HETATM   12  C9  UNL     1       0.279  12.956  22.162  1.00  0.00     0.005 C 
HETATM   13  C10 UNL     1      -1.256  12.937  22.234  1.00  0.00     0.000 C 
HETATM   14  C11 UNL     1      -1.714  11.873  23.172  1.00  0.00     0.000 C 
HETATM   15  C12 UNL     1      -0.987  12.018  24.496  1.00  0.00     0.000 C 
HETATM   16  C13 UNL     1      -0.262  13.326  24.525  1.00  0.00     0.005 C 
ENDBRANCH  10  11
ENDBRANCH   8  10
BRANCH   1  17
HETATM   17  O1  UNL     1       4.762  10.686  23.354  1.00  0.00    -0.345 OA
ATOM     18  H1  UNL     1       4.346  10.621  22.501  1.00  0.00     0.219 HD
ENDBRANCH   1  17
BRANCH   4  19
HETATM   19  C3  UNL     1       7.809  13.975  25.341  1.00  0.00     0.406 C 
HETATM   20  F1  UNL     1       7.523  14.639  26.518  1.00  0.00    -0.207 F 
HETATM   21  F2  UNL     1       8.191  14.967  24.428  1.00  0.00    -0.207 F 
ENDBRANCH   4  19
TORSDOF 4
ENDMDL
MODEL 3
REMARK VINA RESULT: -8.020581431      4.522      6.042
REMARK  4 active torsions:
REMARK  status: ('A' for Active; 'I' for Inactive)
REMARK    1  A    between atoms: O1_1  and  C1_3 
REMARK    2  A    between atoms: C2_6  and  C3_7 
REMARK    3  A    between atoms: C6_13  and  C7_14 
REMARK    4  A    between atoms: C7_14  and  C8_15 
ROOT
HETATM    1  C1  UNL     1       7.120   9.722  23.880  1.00  0.00     0.154 A 
HETATM    2  N1  UNL     1       7.397   8.406  23.843  1.00  0.00    -0.333 N 
ATOM      3  H1  UNL     1       8.325   7.987  23.894  1.00  0.00     0.168 HD
HETATM    4  C2  UNL     1       6.229   7.738  23.726  1.00  0.00     0.111 A 
HETATM    5  C4  UNL     1       5.205   8.667  23.690  1.00  0.00     0.118 A 
HETATM    6  O2  UNL     1       3.923   8.797  23.600  1.00  0.00    -0.319 OA
HETATM    7  C5  UNL     1       3.571  10.059  23.630  1.00  0.00     0.150 A 
HETATM    8  C6  UNL     1       4.700  10.830  23.749  1.00  0.00    -0.018 A 
HETATM    9  C14 UNL     1       5.750   9.917  23.787  1.00  0.00     0.059 A 
ENDROOT
BRANCH   8  10
HETATM   10  C7  UNL     1       4.926  12.271  23.830  1.00  0.00     0.046 C 
BRANCH  10  11
HETATM   11  C8  UNL     1       5.286  12.823  25.149  1.00  0.00    -0.010 C 
HETATM   12  C9  UNL     1       6.366  13.847  25.168  1.00  0.00     0.005 C 
HETATM   13  C10 UNL     1       5.963  15.023  26.071  1.00  0.00     0.000 C 
HETATM   14  C11 UNL     1       4.815  15.762  25.471  1.00  0.00     0.000 C 
HETATM   15  C12 UNL     1       3.710  14.782  25.121  1.00  0.00     0.000 C 
HETATM   16  C13 UNL     1       4.013  13.451  25.733  1.00  0.00     0.005 C 
ENDBRANCH  10  11
ENDBRANCH   8  10
BRANCH   1  17
HETATM   17  O1  UNL     1       8.023  10.787  23.995  1.00  0.00    -0.345 OA
ATOM     18  H1  UNL     1       7.975  11.639  23.577  1.00  0.00     0.219 HD
ENDBRANCH   1  17
BRANCH   4  19
HETATM   19  C3  UNL     1       6.156   6.265  23.655  1.00  0.00     0.406 C 
HETATM   20  F1  UNL     1       7.357   5.816  23.138  1.00  0.00    -0.207 F 
HETATM   21  F2  UNL     1       5.179   5.892  22.722  1.00  0.00    -0.207 F 
ENDBRANCH   4  19
TORSDOF 4
ENDMDL
MODEL 4
REMARK VINA RESULT: -8.000994967      1.523      2.881
REMARK  4 active torsions:
REMARK  status: ('A' for Active; 'I' for Inactive)
REMARK    1  A    between atoms: O1_1  and  C1_3 
REMARK    2  A    between atoms: C2_6  and  C3_7 
REMARK    3  A    between atoms: C6_13  and  C7_14 
REMARK    4  A    between atoms: C7_14  and  C8_15 
ROOT
HETATM    1  C1  UNL     1       5.246  14.865  25.707  1.00  0.00     0.154 A 
HETATM    2  N1  UNL     1       6.538  15.063  26.022  1.00  0.00    -0.333 N 
ATOM      3  H1  UNL     1       6.916  15.863  26.530  1.00  0.00     0.168 HD
HETATM    4  C2  UNL     1       7.248  14.016  25.549  1.00  0.00     0.111 A 
HETATM    5  C4  UNL     1       6.369  13.149  24.926  1.00  0.00     0.118 A 
HETATM    6  O2  UNL     1       6.292  12.029  24.288  1.00  0.00    -0.319 OA
HETATM    7  C5  UNL     1       5.056  11.762  23.944  1.00  0.00     0.150 A 
HETATM    8  C6  UNL     1       4.246  12.779  24.384  1.00  0.00    -0.018 A 
HETATM    9  C14 UNL     1       5.108  13.669  25.018  1.00  0.00     0.059 A 
ENDROOT
BRANCH   8  10
HETATM   10  C7  UNL     1       2.809  13.027  24.295  1.00  0.00     0.046 C 
BRANCH  10  11
HETATM   11  C8  UNL     1       1.978  11.958  23.711  1.00  0.00    -0.010 C 
HETATM   12  C9  UNL     1       1.379  10.986  24.666  1.00  0.00     0.005 C 
HETATM   13  C10 UNL     1      -0.097  10.740  24.314  1.00  0.00     0.000 C 
HETATM   14  C11 UNL     1      -0.895  11.976  24.554  1.00  0.00     0.000 C 
HETATM   15  C12 UNL     1      -0.231  13.150  23.857  1.00  0.00     0.000 C 
HETATM   16  C13 UNL     1       0.839  12.646  22.944  1.00  0.00     0.005 C 
ENDBRANCH  10  11
ENDBRANCH   8  10
BRANCH   1  17
HETATM   17  O1  UNL     1       4.154  15.694  25.997  1.00  0.00    -0.345 OA
ATOM     18  H1  UNL     1       4.165  16.545  26.421  1.00  0.00     0.219 HD
ENDBRANCH   1  17
BRANCH   4  19
HETATM   19  C3  UNL     1       8.710  13.902  25.717  1.00  0.00     0.406 C 
HETATM   20  F1  UNL     1       8.967  13.833  27.073  1.00  0.00    -0.207 F 
HETATM   21  F2  UNL     1       9.323  15.082  25.274  1.00  0.00    -0.207 F 
ENDBRANCH   4  19
TORSDOF 4
ENDMDL
MODEL 5
REMARK VINA RESULT: -7.985599880      1.954      2.903
REMARK  4 active torsions:
REMARK  status: ('A' for Active; 'I' for Inactive)
REMARK    1  A    between atoms: O1_1  and  C1_3 
REMARK    2  A    between atoms: C2_6  and  C3_7 
REMARK    3  A    between atoms: C6_13  and  C7_14 
REMARK    4  A    between atoms: C7_14  and  C8_15 
ROOT
HETATM    1  C1  UNL     1       5.047  14.262  25.075  1.00  0.00     0.154 A 
HETATM    2  N1  UNL     1       6.131  14.924  25.517  1.00  0.00    -0.333 N 
ATOM      3  H1  UNL     1       6.135  15.847  25.953  1.00  0.00     0.168 HD
HETATM    4  C2  UNL     1       7.215  14.153  25.283  1.00  0.00     0.111 A 
HETATM    5  C4  UNL     1       6.786  12.984  24.681  1.00  0.00     0.118 A 
HETATM    6  O2  UNL     1       7.190  11.856  24.198  1.00  0.00    -0.319 OA
HETATM    7  C5  UNL     1       6.186  11.147  23.745  1.00  0.00     0.150 A 
HETATM    8  C6  UNL     1       5.025  11.852  23.938  1.00  0.00    -0.018 A 
HETATM    9  C14 UNL     1       5.428  13.039  24.545  1.00  0.00     0.059 A 
ENDROOT
BRANCH   8  10
HETATM   10  C7  UNL     1       3.622  11.576  23.640  1.00  0.00     0.046 C 
BRANCH  10  11
HETATM   11  C8  UNL     1       2.713  11.396  24.786  1.00  0.00    -0.010 C 
HETATM   12  C9  UNL     1       1.314  11.871  24.605  1.00  0.00     0.005 C 
HETATM   13  C10 UNL     1       0.326  10.820  25.136  1.00  0.00     0.000 C 
HETATM   14  C11 UNL     1       0.374   9.595  24.288  1.00  0.00     0.000 C 
HETATM   15  C12 UNL     1       1.814   9.140  24.138  1.00  0.00     0.000 C 
HETATM   16  C13 UNL     1       2.677   9.894  25.099  1.00  0.00     0.005 C 
ENDBRANCH  10  11
ENDBRANCH   8  10
BRANCH   1  17
HETATM   17  O1  UNL     1       3.710  14.681  25.113  1.00  0.00    -0.345 OA
ATOM     18  H1  UNL     1       3.317  15.417  24.658  1.00  0.00     0.219 HD
ENDBRANCH   1  17
BRANCH   4  19
HETATM   19  C3  UNL     1       8.584  14.571  25.643  1.00  0.00     0.406 C 
HETATM   20  F1  UNL     1       9.163  15.112  24.511  1.00  0.00    -0.207 F 
HETATM   21  F2  UNL     1       9.349  13.439  25.956  1.00  0.00    -0.207 F 
ENDBRANCH   4  19
TORSDOF 4
ENDMDL
