MODEL 1
REMARK VINA RESULT: -8.862659173      0.000      0.000
REMARK  2 active torsions:
REMARK  status: ('A' for Active; 'I' for Inactive)
REMARK    1  A    between atoms: C4_4  and  C5_5 
REMARK    2  A    between atoms: C11_15  and  N2_16 
ROOT
HETATM    1  C1  UNL     1       2.046  12.184  23.665  1.00  0.00     0.050 C 
HETATM    2  C2  UNL     1       3.458  12.293  24.061  1.00  0.00    -0.032 A 
HETATM    3  C3  UNL     1       3.930  13.457  24.688  1.00  0.00     0.022 A 
HETATM    4  C4  UNL     1       5.261  13.559  25.002  1.00  0.00     0.017 A 
HETATM    5  C7  UNL     1       6.149  12.527  24.709  1.00  0.00     0.156 A 
HETATM    6  F2  UNL     1       7.449  12.706  25.038  1.00  0.00    -0.203 F 
HETATM    7  C8  UNL     1       5.678  11.421  24.115  1.00  0.00     0.125 A 
HETATM    8  C9  UNL     1       4.328  11.262  23.771  1.00  0.00     0.072 A 
HETATM    9  N1  UNL     1       4.196  10.032  23.249  1.00  0.00    -0.337 N 
ATOM     10  H1  UNL     1       3.325   9.631  22.902  1.00  0.00     0.167 HD
HETATM   11  C10 UNL     1       5.395   9.405  23.252  1.00  0.00     0.158 A 
HETATM   12  C11 UNL     1       6.070   8.239  22.974  1.00  0.00     0.110 A 
HETATM   13  C12 UNL     1       7.370   8.447  23.355  1.00  0.00     0.142 A 
HETATM   14  N4  UNL     1       7.500   9.712  23.854  1.00  0.00    -0.301 N 
ATOM     15  H4  UNL     1       8.354  10.144  24.208  1.00  0.00     0.186 HD
HETATM   16  N5  UNL     1       6.306  10.266  23.787  1.00  0.00    -0.233 N 
ENDROOT
BRANCH  12  17
HETATM   17  N2  UNL     1       5.496   7.025  22.398  1.00  0.00    -0.302 N 
HETATM   18  N3  UNL     1       4.642   7.052  21.494  1.00  0.00    -0.345 N 
ATOM     19  H32 UNL     1       4.341   7.965  21.154  1.00  0.00     0.176 HD
ATOM     20  H31 UNL     1       4.241   6.205  21.091  1.00  0.00     0.176 HD
ATOM     21  H2  UNL     1       5.808   6.120  22.750  1.00  0.00     0.186 HD
ENDBRANCH  12  17
BRANCH   4  22
HETATM   22  C5  UNL     1       5.785  14.797  25.553  1.00  0.00     0.202 C 
HETATM   23  C6  UNL     1       4.778  15.908  25.714  1.00  0.00     0.050 C 
HETATM   24  F1  UNL     1       6.659  15.298  24.496  1.00  0.00    -0.245 F 
ENDBRANCH   4  22
TORSDOF 2
ENDMDL
MODEL 2
REMARK VINA RESULT: -8.741764002      0.881      1.003
REMARK  2 active torsions:
REMARK  status: ('A' for Active; 'I' for Inactive)
REMARK    1  A    between atoms: C4_4  and  C5_5 
REMARK    2  A    between atoms: C11_15  and  N2_16 
ROOT
HETATM    1  C1  UNL     1       1.993  12.704  24.269  1.00  0.00     0.050 C 
HETATM    2  C2  UNL     1       3.458  12.707  24.383  1.00  0.00    -0.032 A 
HETATM    3  C3  UNL     1       4.118  13.772  25.017  1.00  0.00     0.022 A 
HETATM    4  C4  UNL     1       5.488  13.781  25.066  1.00  0.00     0.017 A 
HETATM    5  C7  UNL     1       6.233  12.752  24.497  1.00  0.00     0.156 A 
HETATM    6  F2  UNL     1       7.582  12.838  24.575  1.00  0.00    -0.203 F 
HETATM    7  C8  UNL     1       5.586  11.741  23.899  1.00  0.00     0.125 A 
HETATM    8  C9  UNL     1       4.187  11.680  23.820  1.00  0.00     0.072 A 
HETATM    9  N1  UNL     1       3.878  10.523  23.211  1.00  0.00    -0.337 N 
ATOM     10  H1  UNL     1       2.931  10.201  23.008  1.00  0.00     0.167 HD
HETATM   11  C10 UNL     1       5.011   9.850  22.909  1.00  0.00     0.158 A 
HETATM   12  C11 UNL     1       5.542   8.695  22.384  1.00  0.00     0.110 A 
HETATM   13  C12 UNL     1       6.902   8.803  22.515  1.00  0.00     0.142 A 
HETATM   14  N4  UNL     1       7.209   9.997  23.105  1.00  0.00    -0.301 N 
ATOM     15  H4  UNL     1       8.141  10.349  23.322  1.00  0.00     0.186 HD
HETATM   16  N5  UNL     1       6.062  10.605  23.336  1.00  0.00    -0.233 N 
ENDROOT
BRANCH  12  17
HETATM   17  N2  UNL     1       4.790   7.579  21.814  1.00  0.00    -0.302 N 
HETATM   18  N3  UNL     1       4.448   7.544  20.619  1.00  0.00    -0.345 N 
ATOM     19  H32 UNL     1       4.711   8.332  20.027  1.00  0.00     0.176 HD
ATOM     20  H31 UNL     1       3.924   6.765  20.220  1.00  0.00     0.176 HD
ATOM     21  H2  UNL     1       4.536   6.799  22.420  1.00  0.00     0.186 HD
ENDBRANCH  12  17
BRANCH   4  22
HETATM   22  C5  UNL     1       6.188  14.926  25.624  1.00  0.00     0.202 C 
HETATM   23  C6  UNL     1       6.674  14.756  27.041  1.00  0.00     0.050 C 
HETATM   24  F1  UNL     1       5.142  15.936  25.756  1.00  0.00    -0.245 F 
ENDBRANCH   4  22
TORSDOF 2
ENDMDL
MODEL 3
REMARK VINA RESULT: -8.606514753      2.770      4.866
REMARK  2 active torsions:
REMARK  status: ('A' for Active; 'I' for Inactive)
REMARK    1  A    between atoms: C4_4  and  C5_5 
REMARK    2  A    between atoms: C11_15  and  N2_16 
ROOT
HETATM    1  C1  UNL     1       5.621  10.260  23.845  1.00  0.00     0.050 C 
HETATM    2  C2  UNL     1       5.239  11.642  24.171  1.00  0.00    -0.032 A 
HETATM    3  C3  UNL     1       6.219  12.587  24.512  1.00  0.00     0.022 A 
HETATM    4  C4  UNL     1       5.836  13.855  24.864  1.00  0.00     0.017 A 
HETATM    5  C7  UNL     1       4.492  14.220  24.887  1.00  0.00     0.156 A 
HETATM    6  F2  UNL     1       4.192  15.487  25.256  1.00  0.00    -0.203 F 
HETATM    7  C8  UNL     1       3.571  13.305  24.552  1.00  0.00     0.125 A 
HETATM    8  C9  UNL     1       3.904  11.994  24.185  1.00  0.00     0.072 A 
HETATM    9  N1  UNL     1       2.758  11.370  23.866  1.00  0.00    -0.337 N 
ATOM     10  H1  UNL     1       2.682  10.399  23.562  1.00  0.00     0.167 HD
HETATM   11  C10 UNL     1       1.720  12.225  24.008  1.00  0.00     0.158 A 
HETATM   12  C11 UNL     1       0.363  12.401  23.862  1.00  0.00     0.110 A 
HETATM   13  C12 UNL     1       0.106  13.702  24.209  1.00  0.00     0.142 A 
HETATM   14  N4  UNL     1       1.273  14.318  24.563  1.00  0.00    -0.301 N 
ATOM     15  H4  UNL     1       1.384  15.284  24.870  1.00  0.00     0.186 HD
HETATM   16  N5  UNL     1       2.226  13.417  24.431  1.00  0.00    -0.233 N 
ENDROOT
BRANCH  12  17
HETATM   17  N2  UNL     1      -0.596  11.394  23.416  1.00  0.00    -0.302 N 
HETATM   18  N3  UNL     1      -1.815  11.483  23.644  1.00  0.00    -0.345 N 
ATOM     19  H32 UNL     1      -2.141  12.297  24.165  1.00  0.00     0.176 HD
ATOM     20  H31 UNL     1      -2.485  10.780  23.332  1.00  0.00     0.176 HD
ATOM     21  H2  UNL     1      -0.252  10.586  22.896  1.00  0.00     0.186 HD
ENDBRANCH  12  17
BRANCH   4  22
HETATM   22  C5  UNL     1       6.828  14.814  25.323  1.00  0.00     0.202 C 
HETATM   23  C6  UNL     1       8.246  14.526  24.899  1.00  0.00     0.050 C 
HETATM   24  F1  UNL     1       6.868  14.599  26.767  1.00  0.00    -0.245 F 
ENDBRANCH   4  22
TORSDOF 2
ENDMDL
MODEL 4
REMARK VINA RESULT: -8.462189706      2.914      4.572
REMARK  2 active torsions:
REMARK  status: ('A' for Active; 'I' for Inactive)
REMARK    1  A    between atoms: C4_4  and  C5_5 
REMARK    2  A    between atoms: C11_15  and  N2_16 
ROOT
HETATM    1  C1  UNL     1       2.867  14.807  25.039  1.00  0.00     0.050 C 
HETATM    2  C2  UNL     1       3.436  13.473  24.798  1.00  0.00    -0.032 A 
HETATM    3  C3  UNL     1       4.827  13.301  24.711  1.00  0.00     0.022 A 
HETATM    4  C4  UNL     1       5.335  12.058  24.432  1.00  0.00     0.017 A 
HETATM    5  C7  UNL     1       4.493  10.966  24.236  1.00  0.00     0.156 A 
HETATM    6  F2  UNL     1       5.068   9.774  23.953  1.00  0.00    -0.203 F 
HETATM    7  C8  UNL     1       3.168  11.149  24.328  1.00  0.00     0.125 A 
HETATM    8  C9  UNL     1       2.593  12.397  24.610  1.00  0.00     0.072 A 
HETATM    9  N1  UNL     1       1.265  12.212  24.682  1.00  0.00    -0.337 N 
ATOM     10  H1  UNL     1       0.579  12.943  24.871  1.00  0.00     0.167 HD
HETATM   11  C10 UNL     1       0.974  10.909  24.465  1.00  0.00     0.158 A 
HETATM   12  C11 UNL     1      -0.019   9.958  24.413  1.00  0.00     0.110 A 
HETATM   13  C12 UNL     1       0.605   8.764  24.163  1.00  0.00     0.142 A 
HETATM   14  N4  UNL     1       1.952   8.968  24.059  1.00  0.00    -0.301 N 
ATOM     15  H4  UNL     1       2.664   8.262  23.872  1.00  0.00     0.186 HD
HETATM   16  N5  UNL     1       2.151  10.257  24.248  1.00  0.00    -0.233 N 
ENDROOT
BRANCH  12  17
HETATM   17  N2  UNL     1      -1.449  10.192  24.601  1.00  0.00    -0.302 N 
HETATM   18  N3  UNL     1      -2.060  11.106  24.020  1.00  0.00    -0.345 N 
ATOM     19  H32 UNL     1      -1.527  11.707  23.391  1.00  0.00     0.176 HD
ATOM     20  H31 UNL     1      -3.058  11.270  24.150  1.00  0.00     0.176 HD
ATOM     21  H2  UNL     1      -1.967   9.581  25.234  1.00  0.00     0.186 HD
ENDBRANCH  12  17
BRANCH   4  22
HETATM   22  C5  UNL     1       6.764  11.884  24.233  1.00  0.00     0.202 C 
HETATM   23  C6  UNL     1       7.622  13.038  24.684  1.00  0.00     0.050 C 
HETATM   24  F1  UNL     1       6.912  11.913  22.781  1.00  0.00    -0.245 F 
ENDBRANCH   4  22
TORSDOF 2
ENDMDL
MODEL 5
REMARK VINA RESULT: -8.416517995      1.950      2.489
REMARK  2 active torsions:
REMARK  status: ('A' for Active; 'I' for Inactive)
REMARK    1  A    between atoms: C4_4  and  C5_5 
REMARK    2  A    between atoms: C11_15  and  N2_16 
ROOT
HETATM    1  C1  UNL     1       1.054  14.002  24.422  1.00  0.00     0.050 C 
HETATM    2  C2  UNL     1       2.427  13.492  24.545  1.00  0.00    -0.032 A 
HETATM    3  C3  UNL     1       3.478  14.360  24.884  1.00  0.00     0.022 A 
HETATM    4  C4  UNL     1       4.759  13.875  24.941  1.00  0.00     0.017 A 
HETATM    5  C7  UNL     1       5.033  12.537  24.668  1.00  0.00     0.156 A 
HETATM    6  F2  UNL     1       6.324  12.136  24.732  1.00  0.00    -0.203 F 
HETATM    7  C8  UNL     1       4.016  11.723  24.350  1.00  0.00     0.125 A 
HETATM    8  C9  UNL     1       2.687  12.163  24.277  1.00  0.00     0.072 A 
HETATM    9  N1  UNL     1       1.932  11.091  23.991  1.00  0.00    -0.337 N 
ATOM     10  H1  UNL     1       0.919  11.101  23.870  1.00  0.00     0.167 HD
HETATM   11  C10 UNL     1       2.717   9.995  23.886  1.00  0.00     0.158 A 
HETATM   12  C11 UNL     1       2.751   8.634  23.686  1.00  0.00     0.110 A 
HETATM   13  C12 UNL     1       4.066   8.263  23.797  1.00  0.00     0.142 A 
HETATM   14  N4  UNL     1       4.830   9.365  24.055  1.00  0.00    -0.301 N 
ATOM     15  H4  UNL     1       5.842   9.391  24.181  1.00  0.00     0.186 HD
HETATM   16  N5  UNL     1       4.003  10.390  24.109  1.00  0.00    -0.233 N 
ENDROOT
BRANCH  12  17
HETATM   17  N2  UNL     1       1.602   7.771  23.422  1.00  0.00    -0.302 N 
HETATM   18  N3  UNL     1       0.468   8.011  23.872  1.00  0.00    -0.345 N 
ATOM     19  H32 UNL     1       0.352   8.846  24.447  1.00  0.00     0.176 HD
ATOM     20  H31 UNL     1      -0.335   7.409  23.688  1.00  0.00     0.176 HD
ATOM     21  H2  UNL     1       1.735   6.940  22.845  1.00  0.00     0.186 HD
ENDBRANCH  12  17
BRANCH   4  22
HETATM   22  C5  UNL     1       5.869  14.781  25.186  1.00  0.00     0.202 C 
HETATM   23  C6  UNL     1       6.440  14.737  26.580  1.00  0.00     0.050 C 
HETATM   24  F1  UNL     1       5.252  16.102  25.125  1.00  0.00    -0.245 F 
ENDBRANCH   4  22
TORSDOF 2
ENDMDL
