MODEL 1
REMARK VINA RESULT: -6.979438343      0.000      0.000
REMARK  6 active torsions:
REMARK  status: ('A' for Active; 'I' for Inactive)
REMARK    1  A    between atoms: N2_9  and  C6_10 
REMARK    2  A    between atoms: C6_10  and  O2_12 
REMARK    3  A    between atoms: O2_12  and  C7_13 
REMARK    4  A    between atoms: C7_13  and  C8_14 
REMARK    5  A    between atoms: C18_24  and  C19_25 
REMARK    6  A    between atoms: C19_25  and  O3_26 
ROOT
HETATM    1  O1  UNL     1     -18.563  38.391   7.196  1.00  0.00    -0.238 OA
HETATM    2  C1  UNL     1     -18.268  37.150   7.255  1.00  0.00     0.361 C 
HETATM    3  N1  UNL     1     -19.105  36.140   7.818  1.00  0.00    -0.334 N 
ATOM      4  H1  UNL     1     -20.085  36.244   8.079  1.00  0.00     0.164 HD
HETATM    5  C2  UNL     1     -18.289  34.918   7.953  1.00  0.00     0.166 C 
HETATM    6  C3  UNL     1     -16.928  35.423   7.713  1.00  0.00     0.112 C 
HETATM    7  C4  UNL     1     -15.944  34.430   7.139  1.00  0.00     0.062 C 
HETATM    8  C5  UNL     1     -14.610  35.158   7.373  1.00  0.00     0.129 C 
HETATM    9  N2  UNL     1     -14.902  36.321   8.166  1.00  0.00    -0.343 N 
HETATM   10  C18 UNL     1     -16.163  35.959   8.878  1.00  0.00     0.147 C 
HETATM   11  O4  UNL     1     -17.114  36.521   6.804  1.00  0.00    -0.289 OA
ENDROOT
BRANCH   9  12
HETATM   12  C6  UNL     1     -14.251  37.556   8.332  1.00  0.00     0.212 C 
HETATM   13  S1  UNL     1     -15.045  38.953   7.914  1.00  0.00    -0.033 SA
BRANCH  12  14
HETATM   14  O2  UNL     1     -12.980  37.750   8.821  1.00  0.00    -0.326 OA
BRANCH  14  15
HETATM   15  C7  UNL     1     -12.016  38.641   8.363  1.00  0.00     0.187 C 
BRANCH  15  16
HETATM   16  C8  UNL     1     -10.625  38.036   8.344  1.00  0.00    -0.017 C 
HETATM   17  C9  UNL     1      -9.735  38.945   9.164  1.00  0.00     0.016 C 
HETATM   18  C10 UNL     1      -8.351  38.333   9.288  1.00  0.00    -0.013 C 
HETATM   19  C11 UNL     1      -8.523  36.996   9.974  1.00  0.00     0.009 C 
HETATM   20  C15 UNL     1      -7.789  38.172   7.910  1.00  0.00     0.009 C 
HETATM   21  C12 UNL     1      -9.334  36.091   9.102  1.00  0.00    -0.013 C 
HETATM   22  C13 UNL     1      -8.756  35.946   7.727  1.00  0.00     0.009 C 
HETATM   23  C17 UNL     1     -10.730  36.657   8.979  1.00  0.00     0.016 C 
HETATM   24  C14 UNL     1      -8.694  37.310   7.056  1.00  0.00    -0.013 C 
HETATM   25  C16 UNL     1     -10.060  37.938   6.961  1.00  0.00     0.016 C 
ENDBRANCH  15  16
ENDBRANCH  14  15
ENDBRANCH  12  14
ENDBRANCH   9  12
BRANCH  10  26
HETATM   26  C19 UNL     1     -15.791  34.944   9.917  1.00  0.00     0.192 C 
BRANCH  26  27
HETATM   27  O3  UNL     1     -15.221  35.522  11.037  1.00  0.00    -0.399 OA
ATOM     28  H3  UNL     1     -14.272  35.522  11.001  1.00  0.00     0.209 HD
ENDBRANCH  26  27
ENDBRANCH  10  26
TORSDOF 6
ENDMDL
MODEL 2
REMARK VINA RESULT: -6.947638918      2.271      3.504
REMARK  6 active torsions:
REMARK  status: ('A' for Active; 'I' for Inactive)
REMARK    1  A    between atoms: N2_9  and  C6_10 
REMARK    2  A    between atoms: C6_10  and  O2_12 
REMARK    3  A    between atoms: O2_12  and  C7_13 
REMARK    4  A    between atoms: C7_13  and  C8_14 
REMARK    5  A    between atoms: C18_24  and  C19_25 
REMARK    6  A    between atoms: C19_25  and  O3_26 
ROOT
HETATM    1  O1  UNL     1     -15.254  32.270  11.694  1.00  0.00    -0.238 OA
HETATM    2  C1  UNL     1     -15.895  32.554  10.627  1.00  0.00     0.361 C 
HETATM    3  N1  UNL     1     -16.301  31.604   9.643  1.00  0.00    -0.334 N 
ATOM      4  H1  UNL     1     -16.290  30.589   9.743  1.00  0.00     0.164 HD
HETATM    5  C2  UNL     1     -16.741  32.360   8.455  1.00  0.00     0.166 C 
HETATM    6  C3  UNL     1     -16.269  33.721   8.759  1.00  0.00     0.112 C 
HETATM    7  C4  UNL     1     -17.058  34.851   8.138  1.00  0.00     0.062 C 
HETATM    8  C5  UNL     1     -16.100  36.035   8.345  1.00  0.00     0.129 C 
HETATM    9  N2  UNL     1     -14.868  35.494   8.851  1.00  0.00    -0.343 N 
HETATM   10  C18 UNL     1     -14.874  34.082   8.366  1.00  0.00     0.147 C 
HETATM   11  O4  UNL     1     -16.326  33.802  10.193  1.00  0.00    -0.289 OA
ENDROOT
BRANCH   9  12
HETATM   12  C6  UNL     1     -13.824  36.041   9.617  1.00  0.00     0.212 C 
HETATM   13  S1  UNL     1     -13.381  35.295  11.032  1.00  0.00    -0.033 SA
BRANCH  12  14
HETATM   14  O2  UNL     1     -13.097  37.169   9.318  1.00  0.00    -0.326 OA
BRANCH  14  15
HETATM   15  C7  UNL     1     -12.598  37.561   8.080  1.00  0.00     0.187 C 
BRANCH  15  16
HETATM   16  C8  UNL     1     -11.082  37.576   8.039  1.00  0.00    -0.017 C 
HETATM   17  C9  UNL     1     -10.677  37.400   6.592  1.00  0.00     0.016 C 
HETATM   18  C10 UNL     1      -9.169  37.527   6.462  1.00  0.00    -0.013 C 
HETATM   19  C11 UNL     1      -8.802  38.908   6.955  1.00  0.00     0.009 C 
HETATM   20  C15 UNL     1      -8.539  36.461   7.305  1.00  0.00     0.009 C 
HETATM   21  C12 UNL     1      -9.136  39.023   8.409  1.00  0.00    -0.013 C 
HETATM   22  C13 UNL     1      -8.497  37.946   9.232  1.00  0.00     0.009 C 
HETATM   23  C17 UNL     1     -10.634  38.929   8.572  1.00  0.00     0.016 C 
HETATM   24  C14 UNL     1      -8.977  36.585   8.748  1.00  0.00    -0.013 C 
HETATM   25  C16 UNL     1     -10.476  36.467   8.841  1.00  0.00     0.016 C 
ENDBRANCH  15  16
ENDBRANCH  14  15
ENDBRANCH  12  14
ENDBRANCH   9  12
BRANCH  10  26
HETATM   26  C19 UNL     1     -14.622  34.136   6.889  1.00  0.00     0.192 C 
BRANCH  26  27
HETATM   27  O3  UNL     1     -13.302  34.420   6.591  1.00  0.00    -0.399 OA
ATOM     28  H3  UNL     1     -13.116  35.352   6.620  1.00  0.00     0.209 HD
ENDBRANCH  26  27
ENDBRANCH  10  26
TORSDOF 6
ENDMDL
MODEL 3
REMARK VINA RESULT: -6.921301924      2.284      3.454
REMARK  6 active torsions:
REMARK  status: ('A' for Active; 'I' for Inactive)
REMARK    1  A    between atoms: N2_9  and  C6_10 
REMARK    2  A    between atoms: C6_10  and  O2_12 
REMARK    3  A    between atoms: O2_12  and  C7_13 
REMARK    4  A    between atoms: C7_13  and  C8_14 
REMARK    5  A    between atoms: C18_24  and  C19_25 
REMARK    6  A    between atoms: C19_25  and  O3_26 
ROOT
HETATM    1  O1  UNL     1     -15.296  32.175  11.702  1.00  0.00    -0.238 OA
HETATM    2  C1  UNL     1     -15.943  32.466  10.641  1.00  0.00     0.361 C 
HETATM    3  N1  UNL     1     -16.361  31.521   9.656  1.00  0.00    -0.334 N 
ATOM      4  H1  UNL     1     -16.353  30.506   9.751  1.00  0.00     0.164 HD
HETATM    5  C2  UNL     1     -16.806  32.285   8.474  1.00  0.00     0.166 C 
HETATM    6  C3  UNL     1     -16.327  33.642   8.781  1.00  0.00     0.112 C 
HETATM    7  C4  UNL     1     -17.116  34.778   8.171  1.00  0.00     0.062 C 
HETATM    8  C5  UNL     1     -16.152  35.958   8.376  1.00  0.00     0.129 C 
HETATM    9  N2  UNL     1     -14.919  35.410   8.870  1.00  0.00    -0.343 N 
HETATM   10  C18 UNL     1     -14.934  34.001   8.380  1.00  0.00     0.147 C 
HETATM   11  O4  UNL     1     -16.373  33.717  10.215  1.00  0.00    -0.289 OA
ENDROOT
BRANCH   9  12
HETATM   12  C6  UNL     1     -13.867  35.949   9.631  1.00  0.00     0.212 C 
HETATM   13  S1  UNL     1     -13.455  35.230  11.069  1.00  0.00    -0.033 SA
BRANCH  12  14
HETATM   14  O2  UNL     1     -13.108  37.051   9.310  1.00  0.00    -0.326 OA
BRANCH  14  15
HETATM   15  C7  UNL     1     -12.649  37.435   8.055  1.00  0.00     0.187 C 
BRANCH  15  16
HETATM   16  C8  UNL     1     -11.146  37.637   8.020  1.00  0.00    -0.017 C 
HETATM   17  C9  UNL     1     -10.538  36.598   8.937  1.00  0.00     0.016 C 
HETATM   18  C10 UNL     1      -9.023  36.664   8.857  1.00  0.00    -0.013 C 
HETATM   19  C11 UNL     1      -8.649  36.389   7.418  1.00  0.00     0.009 C 
HETATM   20  C15 UNL     1      -8.596  38.036   9.280  1.00  0.00     0.009 C 
HETATM   21  C12 UNL     1      -9.191  37.478   6.546  1.00  0.00    -0.013 C 
HETATM   22  C13 UNL     1      -8.752  38.841   6.988  1.00  0.00     0.009 C 
HETATM   23  C17 UNL     1     -10.700  37.422   6.581  1.00  0.00     0.016 C 
HETATM   24  C14 UNL     1      -9.237  39.094   8.409  1.00  0.00    -0.013 C 
HETATM   25  C16 UNL     1     -10.738  38.994   8.502  1.00  0.00     0.016 C 
ENDBRANCH  15  16
ENDBRANCH  14  15
ENDBRANCH  12  14
ENDBRANCH   9  12
BRANCH  10  26
HETATM   26  C19 UNL     1     -14.692  34.060   6.901  1.00  0.00     0.192 C 
BRANCH  26  27
HETATM   27  O3  UNL     1     -13.362  34.287   6.594  1.00  0.00    -0.399 OA
ATOM     28  H3  UNL     1     -13.097  35.182   6.773  1.00  0.00     0.209 HD
ENDBRANCH  26  27
ENDBRANCH  10  26
TORSDOF 6
ENDMDL
MODEL 4
REMARK VINA RESULT: -6.897476180      2.285      3.217
REMARK  6 active torsions:
REMARK  status: ('A' for Active; 'I' for Inactive)
REMARK    1  A    between atoms: N2_9  and  C6_10 
REMARK    2  A    between atoms: C6_10  and  O2_12 
REMARK    3  A    between atoms: O2_12  and  C7_13 
REMARK    4  A    between atoms: C7_13  and  C8_14 
REMARK    5  A    between atoms: C18_24  and  C19_25 
REMARK    6  A    between atoms: C19_25  and  O3_26 
ROOT
HETATM    1  O1  UNL     1     -15.270  32.190  11.719  1.00  0.00    -0.238 OA
HETATM    2  C1  UNL     1     -15.921  32.477  10.659  1.00  0.00     0.361 C 
HETATM    3  N1  UNL     1     -16.336  31.530   9.676  1.00  0.00    -0.334 N 
ATOM      4  H1  UNL     1     -16.324  30.514   9.772  1.00  0.00     0.164 HD
HETATM    5  C2  UNL     1     -16.788  32.290   8.494  1.00  0.00     0.166 C 
HETATM    6  C3  UNL     1     -16.313  33.650   8.798  1.00  0.00     0.112 C 
HETATM    7  C4  UNL     1     -17.109  34.781   8.189  1.00  0.00     0.062 C 
HETATM    8  C5  UNL     1     -16.150  35.965   8.391  1.00  0.00     0.129 C 
HETATM    9  N2  UNL     1     -14.913  35.424   8.883  1.00  0.00    -0.343 N 
HETATM   10  C18 UNL     1     -14.923  34.013   8.393  1.00  0.00     0.147 C 
HETATM   11  O4  UNL     1     -16.357  33.726  10.233  1.00  0.00    -0.289 OA
ENDROOT
BRANCH   9  12
HETATM   12  C6  UNL     1     -13.861  35.968   9.640  1.00  0.00     0.212 C 
HETATM   13  S1  UNL     1     -13.444  35.253  11.079  1.00  0.00    -0.033 SA
BRANCH  12  14
HETATM   14  O2  UNL     1     -13.107  37.071   9.315  1.00  0.00    -0.326 OA
BRANCH  14  15
HETATM   15  C7  UNL     1     -12.702  37.487   8.051  1.00  0.00     0.187 C 
BRANCH  15  16
HETATM   16  C8  UNL     1     -11.195  37.609   7.932  1.00  0.00    -0.017 C 
HETATM   17  C9  UNL     1     -10.825  39.000   8.396  1.00  0.00     0.016 C 
HETATM   18  C10 UNL     1      -9.314  39.151   8.418  1.00  0.00    -0.013 C 
HETATM   19  C11 UNL     1      -8.785  38.110   9.379  1.00  0.00     0.009 C 
HETATM   20  C15 UNL     1      -8.805  38.919   7.029  1.00  0.00     0.009 C 
HETATM   21  C12 UNL     1      -9.091  36.744   8.852  1.00  0.00    -0.013 C 
HETATM   22  C13 UNL     1      -8.574  36.535   7.461  1.00  0.00     0.009 C 
HETATM   23  C17 UNL     1     -10.589  36.550   8.843  1.00  0.00     0.016 C 
HETATM   24  C14 UNL     1      -9.212  37.552   6.525  1.00  0.00    -0.013 C 
HETATM   25  C16 UNL     1     -10.714  37.432   6.526  1.00  0.00     0.016 C 
ENDBRANCH  15  16
ENDBRANCH  14  15
ENDBRANCH  12  14
ENDBRANCH   9  12
BRANCH  10  26
HETATM   26  C19 UNL     1     -14.685  34.072   6.914  1.00  0.00     0.192 C 
BRANCH  26  27
HETATM   27  O3  UNL     1     -13.357  34.304   6.603  1.00  0.00    -0.399 OA
ATOM     28  H3  UNL     1     -13.021  35.092   7.014  1.00  0.00     0.209 HD
ENDBRANCH  26  27
ENDBRANCH  10  26
TORSDOF 6
ENDMDL
MODEL 5
REMARK VINA RESULT: -6.847023474      3.216      5.716
REMARK  6 active torsions:
REMARK  status: ('A' for Active; 'I' for Inactive)
REMARK    1  A    between atoms: N2_9  and  C6_10 
REMARK    2  A    between atoms: C6_10  and  O2_12 
REMARK    3  A    between atoms: O2_12  and  C7_13 
REMARK    4  A    between atoms: C7_13  and  C8_14 
REMARK    5  A    between atoms: C18_24  and  C19_25 
REMARK    6  A    between atoms: C19_25  and  O3_26 
ROOT
HETATM    1  O1  UNL     1     -13.869  37.553   9.029  1.00  0.00    -0.238 OA
HETATM    2  C1  UNL     1     -13.047  37.099   8.163  1.00  0.00     0.361 C 
HETATM    3  N1  UNL     1     -12.848  35.715   7.876  1.00  0.00    -0.334 N 
ATOM      4  H1  UNL     1     -13.438  34.943   8.185  1.00  0.00     0.164 HD
HETATM    5  C2  UNL     1     -11.631  35.609   7.048  1.00  0.00     0.166 C 
HETATM    6  C3  UNL     1     -11.053  36.957   7.168  1.00  0.00     0.112 C 
HETATM    7  C4  UNL     1     -10.211  37.423   6.002  1.00  0.00     0.062 C 
HETATM    8  C5  UNL     1      -9.500  38.641   6.614  1.00  0.00     0.129 C 
HETATM    9  N2  UNL     1      -9.821  38.654   8.015  1.00  0.00    -0.343 N 
HETATM   10  C18 UNL     1     -10.141  37.228   8.319  1.00  0.00     0.147 C 
HETATM   11  O4  UNL     1     -12.192  37.816   7.335  1.00  0.00    -0.289 OA
ENDROOT
BRANCH   9  12
HETATM   12  C6  UNL     1      -9.860  39.675   8.981  1.00  0.00     0.212 C 
HETATM   13  S1  UNL     1     -11.206  40.639   9.087  1.00  0.00    -0.033 SA
BRANCH  12  14
HETATM   14  O2  UNL     1      -8.870  39.980   9.886  1.00  0.00    -0.326 OA
BRANCH  14  15
HETATM   15  C7  UNL     1      -8.990  40.139  11.262  1.00  0.00     0.187 C 
BRANCH  15  16
HETATM   16  C8  UNL     1      -8.015  39.272  12.036  1.00  0.00    -0.017 C 
HETATM   17  C9  UNL     1      -7.443  38.269  11.059  1.00  0.00     0.016 C 
HETATM   18  C10 UNL     1      -6.365  37.444  11.742  1.00  0.00    -0.013 C 
HETATM   19  C11 UNL     1      -5.297  38.412  12.199  1.00  0.00     0.009 C 
HETATM   20  C15 UNL     1      -6.991  36.732  12.901  1.00  0.00     0.009 C 
HETATM   21  C12 UNL     1      -5.871  39.336  13.227  1.00  0.00    -0.013 C 
HETATM   22  C13 UNL     1      -6.492  38.603  14.376  1.00  0.00     0.009 C 
HETATM   23  C17 UNL     1      -6.929  40.193  12.573  1.00  0.00     0.016 C 
HETATM   24  C14 UNL     1      -7.619  37.717  13.863  1.00  0.00    -0.013 C 
HETATM   25  C16 UNL     1      -8.674  38.526  13.154  1.00  0.00     0.016 C 
ENDBRANCH  15  16
ENDBRANCH  14  15
ENDBRANCH  12  14
ENDBRANCH   9  12
BRANCH  10  26
HETATM   26  C19 UNL     1      -8.841  36.482   8.292  1.00  0.00     0.192 C 
BRANCH  26  27
HETATM   27  O3  UNL     1      -8.693  35.642   9.382  1.00  0.00    -0.399 OA
ATOM     28  H3  UNL     1      -9.344  34.950   9.397  1.00  0.00     0.209 HD
ENDBRANCH  26  27
ENDBRANCH  10  26
TORSDOF 6
ENDMDL
