MODEL 1
REMARK VINA RESULT: -7.379395431      0.000      0.000
REMARK  4 active torsions:
REMARK  status: ('A' for Active; 'I' for Inactive)
REMARK    1  A    between atoms: C4_7  and  C5_8 
REMARK       I    between atoms: C5_8  and  N2_10 
REMARK    2  A    between atoms: N2_10  and  C6_12 
REMARK    3  A    between atoms: C9_15  and  C10_16 
REMARK    4  A    between atoms: C14_21  and  O3_22 
ROOT
HETATM    1  C6  UNL     1     -10.062  37.782   8.201  1.00  0.00     0.084 C 
HETATM    2  C7  UNL     1     -11.497  38.158   8.517  1.00  0.00     0.025 C 
HETATM    3  C8  UNL     1     -12.312  36.876   8.611  1.00  0.00     0.007 C 
HETATM    4  C9  UNL     1     -12.564  36.338   7.191  1.00  0.00    -0.008 C 
HETATM    5  C21 UNL     1     -11.190  36.226   6.563  1.00  0.00     0.007 C 
HETATM    6  C22 UNL     1     -10.067  36.434   7.556  1.00  0.00     0.025 C 
ENDROOT
BRANCH   4   7
HETATM    7  C10 UNL     1     -13.276  35.052   7.306  1.00  0.00     0.029 C 
HETATM    8  C11 UNL     1     -13.308  34.255   6.012  1.00  0.00     0.283 C 
HETATM    9  N3  UNL     1     -14.293  33.300   6.369  1.00  0.00     0.136 N 
HETATM   10  C12 UNL     1     -15.372  34.226   6.784  1.00  0.00     0.238 C 
HETATM   11  C15 UNL     1     -14.979  32.633   5.316  1.00  0.00     0.321 C 
HETATM   12  C13 UNL     1     -16.357  33.231   7.234  1.00  0.00     0.074 C 
HETATM   13  C17 UNL     1     -14.679  35.065   7.774  1.00  0.00    -0.004 C 
HETATM   14  C14 UNL     1     -16.273  32.239   6.052  1.00  0.00     0.191 C 
HETATM   15  C18 UNL     1     -15.383  36.374   7.931  1.00  0.00     0.012 C 
HETATM   16  C20 UNL     1     -14.903  34.810   9.234  1.00  0.00     0.012 C 
HETATM   17  C19 UNL     1     -16.068  35.786   9.174  1.00  0.00     0.002 C 
HETATM   18  C16 UNL     1     -14.246  31.444   4.797  1.00  0.00     0.090 C 
HETATM   19  F1  UNL     1     -15.389  33.493   4.304  1.00  0.00    -0.206 F 
BRANCH  14  20
HETATM   20  O3  UNL     1     -16.149  30.937   6.480  1.00  0.00    -0.390 OA
ATOM     21  H3  UNL     1     -16.553  30.325   5.876  1.00  0.00     0.210 HD
ENDBRANCH  14  20
ENDBRANCH   4   7
BRANCH   1  22
HETATM   22  N2  UNL     1      -9.285  37.645   9.439  1.00  0.00    -0.351 N 
HETATM   23  C5  UNL     1      -8.467  38.672   9.893  1.00  0.00     0.271 C 
HETATM   24  O2  UNL     1      -8.446  39.731   9.162  1.00  0.00    -0.266 OA
ATOM     25  H2  UNL     1      -9.347  36.780   9.976  1.00  0.00     0.163 HD
BRANCH  23  26
HETATM   26  C4  UNL     1      -7.640  38.707  11.081  1.00  0.00     0.131 A 
HETATM   27  C2  UNL     1      -7.416  37.708  11.990  1.00  0.00     0.082 A 
HETATM   28  C1  UNL     1      -7.934  36.339  12.036  1.00  0.00     0.079 C 
HETATM   29  O1  UNL     1      -6.585  38.191  12.918  1.00  0.00    -0.308 OA
HETATM   30  C3  UNL     1      -6.274  39.429  12.646  1.00  0.00     0.234 A 
HETATM   31  N1  UNL     1      -6.910  39.775  11.518  1.00  0.00    -0.340 N 
ATOM     32  H1  UNL     1      -6.857  40.685  11.061  1.00  0.00     0.167 HD
ENDBRANCH  23  26
ENDBRANCH   1  22
TORSDOF 4
ENDMDL
MODEL 2
REMARK VINA RESULT: -7.167549853      1.358      1.588
REMARK  4 active torsions:
REMARK  status: ('A' for Active; 'I' for Inactive)
REMARK    1  A    between atoms: C4_7  and  C5_8 
REMARK       I    between atoms: C5_8  and  N2_10 
REMARK    2  A    between atoms: N2_10  and  C6_12 
REMARK    3  A    between atoms: C9_15  and  C10_16 
REMARK    4  A    between atoms: C14_21  and  O3_22 
ROOT
HETATM    1  C6  UNL     1      -8.993  38.955   8.343  1.00  0.00     0.084 C 
HETATM    2  C7  UNL     1     -10.410  39.071   8.871  1.00  0.00     0.025 C 
HETATM    3  C8  UNL     1     -11.045  37.688   8.829  1.00  0.00     0.007 C 
HETATM    4  C9  UNL     1     -11.411  37.349   7.373  1.00  0.00    -0.008 C 
HETATM    5  C21 UNL     1     -10.126  37.532   6.592  1.00  0.00     0.007 C 
HETATM    6  C22 UNL     1      -8.918  37.738   7.479  1.00  0.00     0.025 C 
ENDROOT
BRANCH   4   7
HETATM    7  C10 UNL     1     -11.941  35.974   7.341  1.00  0.00     0.029 C 
HETATM    8  C11 UNL     1     -11.792  35.294   5.989  1.00  0.00     0.283 C 
HETATM    9  N3  UNL     1     -12.651  34.188   6.205  1.00  0.00     0.136 N 
HETATM   10  C12 UNL     1     -13.870  34.920   6.619  1.00  0.00     0.238 C 
HETATM   11  C15 UNL     1     -13.179  33.528   5.060  1.00  0.00     0.321 C 
HETATM   12  C13 UNL     1     -14.729  33.766   6.925  1.00  0.00     0.074 C 
HETATM   13  C17 UNL     1     -13.355  35.757   7.715  1.00  0.00    -0.004 C 
HETATM   14  C14 UNL     1     -14.443  32.901   5.676  1.00  0.00     0.191 C 
HETATM   15  C18 UNL     1     -14.243  36.940   7.928  1.00  0.00     0.012 C 
HETATM   16  C20 UNL     1     -13.620  35.348   9.133  1.00  0.00     0.012 C 
HETATM   17  C19 UNL     1     -14.905  36.159   9.074  1.00  0.00     0.002 C 
HETATM   18  C16 UNL     1     -12.259  32.498   4.499  1.00  0.00     0.090 C 
HETATM   19  F1  UNL     1     -13.649  34.410   4.094  1.00  0.00    -0.206 F 
BRANCH  14  20
HETATM   20  O3  UNL     1     -14.161  31.596   6.008  1.00  0.00    -0.390 OA
ATOM     21  H3  UNL     1     -14.832  31.218   6.564  1.00  0.00     0.210 HD
ENDBRANCH  14  20
ENDBRANCH   4   7
BRANCH   1  22
HETATM   22  N2  UNL     1      -8.051  38.736   9.448  1.00  0.00    -0.351 N 
HETATM   23  C5  UNL     1      -8.201  39.396  10.662  1.00  0.00     0.271 C 
HETATM   24  O2  UNL     1      -9.207  40.195  10.741  1.00  0.00    -0.266 OA
ATOM     25  H2  UNL     1      -7.274  38.088   9.323  1.00  0.00     0.163 HD
BRANCH  23  26
HETATM   26  C4  UNL     1      -7.374  39.300  11.846  1.00  0.00     0.131 A 
HETATM   27  C2  UNL     1      -7.403  38.348  12.829  1.00  0.00     0.082 A 
HETATM   28  C1  UNL     1      -8.259  37.169  12.976  1.00  0.00     0.079 C 
HETATM   29  O1  UNL     1      -6.460  38.664  13.720  1.00  0.00    -0.308 OA
HETATM   30  C3  UNL     1      -5.842  39.755  13.357  1.00  0.00     0.234 A 
HETATM   31  N1  UNL     1      -6.384  40.170  12.205  1.00  0.00    -0.340 N 
ATOM     32  H1  UNL     1      -6.103  40.999  11.681  1.00  0.00     0.167 HD
ENDBRANCH  23  26
ENDBRANCH   1  22
TORSDOF 4
ENDMDL
MODEL 3
REMARK VINA RESULT: -6.806647461      3.105      8.925
REMARK  4 active torsions:
REMARK  status: ('A' for Active; 'I' for Inactive)
REMARK    1  A    between atoms: C4_7  and  C5_8 
REMARK       I    between atoms: C5_8  and  N2_10 
REMARK    2  A    between atoms: N2_10  and  C6_12 
REMARK    3  A    between atoms: C9_15  and  C10_16 
REMARK    4  A    between atoms: C14_21  and  O3_22 
ROOT
HETATM    1  C6  UNL     1     -15.482  34.592   8.054  1.00  0.00     0.084 C 
HETATM    2  C7  UNL     1     -14.455  34.428   6.950  1.00  0.00     0.025 C 
HETATM    3  C8  UNL     1     -13.134  35.003   7.443  1.00  0.00     0.007 C 
HETATM    4  C9  UNL     1     -13.212  36.540   7.405  1.00  0.00    -0.008 C 
HETATM    5  C21 UNL     1     -14.448  36.891   8.207  1.00  0.00     0.007 C 
HETATM    6  C22 UNL     1     -15.032  35.706   8.944  1.00  0.00     0.025 C 
ENDROOT
BRANCH   4   7
HETATM    7  C10 UNL     1     -11.960  37.077   7.969  1.00  0.00     0.029 C 
HETATM    8  C11 UNL     1     -12.102  38.476   8.546  1.00  0.00     0.283 C 
HETATM    9  N3  UNL     1     -10.729  38.795   8.686  1.00  0.00     0.136 N 
HETATM   10  C12 UNL     1     -10.286  38.526   7.299  1.00  0.00     0.238 C 
HETATM   11  C15 UNL     1     -10.373  40.171   8.759  1.00  0.00     0.321 C 
HETATM   12  C13 UNL     1      -8.847  38.774   7.472  1.00  0.00     0.074 C 
HETATM   13  C17 UNL     1     -10.770  37.151   7.094  1.00  0.00    -0.004 C 
HETATM   14  C14 UNL     1      -8.913  40.093   8.275  1.00  0.00     0.191 C 
HETATM   15  C18 UNL     1     -10.919  36.862   5.636  1.00  0.00     0.012 C 
HETATM   16  C20 UNL     1      -9.797  36.013   7.185  1.00  0.00     0.012 C 
HETATM   17  C19 UNL     1      -9.543  36.179   5.695  1.00  0.00     0.002 C 
HETATM   18  C16 UNL     1     -10.478  40.734  10.135  1.00  0.00     0.090 C 
HETATM   19  F1  UNL     1     -11.024  40.950   7.810  1.00  0.00    -0.206 F 
BRANCH  14  20
HETATM   20  O3  UNL     1      -8.092  40.064   9.379  1.00  0.00    -0.390 OA
ATOM     21  H3  UNL     1      -8.551  40.323  10.170  1.00  0.00     0.210 HD
ENDBRANCH  14  20
ENDBRANCH   4   7
BRANCH   1  22
HETATM   22  N2  UNL     1     -15.529  33.387   8.892  1.00  0.00    -0.351 N 
HETATM   23  C5  UNL     1     -16.512  32.422   8.709  1.00  0.00     0.271 C 
HETATM   24  O2  UNL     1     -17.358  32.660   7.769  1.00  0.00    -0.266 OA
ATOM     25  H2  UNL     1     -14.827  33.256   9.620  1.00  0.00     0.163 HD
BRANCH  23  26
HETATM   26  C4  UNL     1     -16.706  31.186   9.437  1.00  0.00     0.131 A 
HETATM   27  C2  UNL     1     -16.426  30.919  10.751  1.00  0.00     0.082 A 
HETATM   28  C1  UNL     1     -15.858  31.782  11.789  1.00  0.00     0.079 C 
HETATM   29  O1  UNL     1     -16.770  29.650  10.983  1.00  0.00    -0.308 OA
HETATM   30  C3  UNL     1     -17.248  29.105   9.898  1.00  0.00     0.234 A 
HETATM   31  N1  UNL     1     -17.221  30.028   8.928  1.00  0.00    -0.340 N 
ATOM     32  H1  UNL     1     -17.534  29.890   7.967  1.00  0.00     0.167 HD
ENDBRANCH  23  26
ENDBRANCH   1  22
TORSDOF 4
ENDMDL
MODEL 4
REMARK VINA RESULT: -6.681878962      0.776      1.024
REMARK  4 active torsions:
REMARK  status: ('A' for Active; 'I' for Inactive)
REMARK    1  A    between atoms: C4_7  and  C5_8 
REMARK       I    between atoms: C5_8  and  N2_10 
REMARK    2  A    between atoms: N2_10  and  C6_12 
REMARK    3  A    between atoms: C9_15  and  C10_16 
REMARK    4  A    between atoms: C14_21  and  O3_22 
ROOT
HETATM    1  C6  UNL     1     -10.142  37.849   8.008  1.00  0.00     0.084 C 
HETATM    2  C7  UNL     1     -11.590  38.233   8.244  1.00  0.00     0.025 C 
HETATM    3  C8  UNL     1     -12.395  36.953   8.422  1.00  0.00     0.007 C 
HETATM    4  C9  UNL     1     -12.595  36.292   7.047  1.00  0.00    -0.008 C 
HETATM    5  C21 UNL     1     -11.199  36.144   6.476  1.00  0.00     0.007 C 
HETATM    6  C22 UNL     1     -10.113  36.450   7.483  1.00  0.00     0.025 C 
ENDROOT
BRANCH   4   7
HETATM    7  C10 UNL     1     -13.298  35.012   7.251  1.00  0.00     0.029 C 
HETATM    8  C11 UNL     1     -13.396  34.164   5.993  1.00  0.00     0.283 C 
HETATM    9  N3  UNL     1     -14.359  33.224   6.438  1.00  0.00     0.136 N 
HETATM   10  C12 UNL     1     -15.417  34.166   6.871  1.00  0.00     0.238 C 
HETATM   11  C15 UNL     1     -15.098  32.516   5.450  1.00  0.00     0.321 C 
HETATM   12  C13 UNL     1     -16.376  33.190   7.412  1.00  0.00     0.074 C 
HETATM   13  C17 UNL     1     -14.675  35.045   7.790  1.00  0.00    -0.004 C 
HETATM   14  C14 UNL     1     -16.352  32.153   6.267  1.00  0.00     0.191 C 
HETATM   15  C18 UNL     1     -15.371  36.359   7.931  1.00  0.00     0.012 C 
HETATM   16  C20 UNL     1     -14.822  34.848   9.269  1.00  0.00     0.012 C 
HETATM   17  C19 UNL     1     -15.990  35.821   9.230  1.00  0.00     0.002 C 
HETATM   18  C16 UNL     1     -14.391  31.307   4.942  1.00  0.00     0.090 C 
HETATM   19  F1  UNL     1     -15.561  33.335   4.427  1.00  0.00    -0.206 F 
BRANCH  14  20
HETATM   20  O3  UNL     1     -16.203  30.869   6.740  1.00  0.00    -0.390 OA
ATOM     21  H3  UNL     1     -15.407  30.462   6.420  1.00  0.00     0.210 HD
ENDBRANCH  14  20
ENDBRANCH   4   7
BRANCH   1  22
HETATM   22  N2  UNL     1      -9.405  37.829   9.278  1.00  0.00    -0.351 N 
HETATM   23  C5  UNL     1      -8.589  38.889   9.653  1.00  0.00     0.271 C 
HETATM   24  O2  UNL     1      -8.532  39.870   8.821  1.00  0.00    -0.266 OA
ATOM     25  H2  UNL     1      -9.493  37.022   9.895  1.00  0.00     0.163 HD
BRANCH  23  26
HETATM   26  C4  UNL     1      -7.798  39.034  10.857  1.00  0.00     0.131 A 
HETATM   27  C2  UNL     1      -8.087  39.758  11.983  1.00  0.00     0.082 A 
HETATM   28  C1  UNL     1      -9.253  40.585  12.299  1.00  0.00     0.079 C 
HETATM   29  O1  UNL     1      -7.070  39.597  12.834  1.00  0.00    -0.308 OA
HETATM   30  C3  UNL     1      -6.163  38.817  12.312  1.00  0.00     0.234 A 
HETATM   31  N1  UNL     1      -6.584  38.454  11.093  1.00  0.00    -0.340 N 
ATOM     32  H1  UNL     1      -6.081  37.845  10.448  1.00  0.00     0.167 HD
ENDBRANCH  23  26
ENDBRANCH   1  22
TORSDOF 4
ENDMDL
MODEL 5
REMARK VINA RESULT: -6.337005797      1.452      1.690
REMARK  4 active torsions:
REMARK  status: ('A' for Active; 'I' for Inactive)
REMARK    1  A    between atoms: C4_7  and  C5_8 
REMARK       I    between atoms: C5_8  and  N2_10 
REMARK    2  A    between atoms: N2_10  and  C6_12 
REMARK    3  A    between atoms: C9_15  and  C10_16 
REMARK    4  A    between atoms: C14_21  and  O3_22 
ROOT
HETATM    1  C6  UNL     1     -11.520  37.249   7.703  1.00  0.00     0.084 C 
HETATM    2  C7  UNL     1     -12.959  37.536   8.085  1.00  0.00     0.025 C 
HETATM    3  C8  UNL     1     -13.630  36.213   8.431  1.00  0.00     0.007 C 
HETATM    4  C9  UNL     1     -13.926  35.447   7.129  1.00  0.00    -0.008 C 
HETATM    5  C21 UNL     1     -12.597  35.368   6.407  1.00  0.00     0.007 C 
HETATM    6  C22 UNL     1     -11.433  35.825   7.259  1.00  0.00     0.025 C 
ENDROOT
BRANCH   4   7
HETATM    7  C10 UNL     1     -14.492  34.134   7.487  1.00  0.00     0.029 C 
HETATM    8  C11 UNL     1     -14.072  33.013   6.551  1.00  0.00     0.283 C 
HETATM    9  N3  UNL     1     -15.002  32.025   6.961  1.00  0.00     0.136 N 
HETATM   10  C12 UNL     1     -16.252  32.802   6.794  1.00  0.00     0.238 C 
HETATM   11  C15 UNL     1     -15.287  30.968   6.053  1.00  0.00     0.321 C 
HETATM   12  C13 UNL     1     -17.204  31.804   7.302  1.00  0.00     0.074 C 
HETATM   13  C17 UNL     1     -15.962  34.006   7.590  1.00  0.00    -0.004 C 
HETATM   14  C14 UNL     1     -16.682  30.555   6.557  1.00  0.00     0.191 C 
HETATM   15  C18 UNL     1     -16.825  35.143   7.148  1.00  0.00     0.012 C 
HETATM   16  C20 UNL     1     -16.554  34.135   8.961  1.00  0.00     0.012 C 
HETATM   17  C19 UNL     1     -17.758  34.809   8.322  1.00  0.00     0.002 C 
HETATM   18  C16 UNL     1     -14.308  29.846   6.130  1.00  0.00     0.090 C 
HETATM   19  F1  UNL     1     -15.493  31.410   4.751  1.00  0.00    -0.206 F 
BRANCH  14  20
HETATM   20  O3  UNL     1     -16.535  29.477   7.401  1.00  0.00    -0.390 OA
ATOM     21  H3  UNL     1     -15.806  29.590   7.998  1.00  0.00     0.210 HD
ENDBRANCH  14  20
ENDBRANCH   4   7
BRANCH   1  22
HETATM   22  N2  UNL     1     -10.645  37.371   8.876  1.00  0.00    -0.351 N 
HETATM   23  C5  UNL     1      -9.606  38.292   8.906  1.00  0.00     0.271 C 
HETATM   24  O2  UNL     1      -9.474  39.017   7.850  1.00  0.00    -0.266 OA
ATOM     25  H2  UNL     1     -10.804  36.768   9.683  1.00  0.00     0.163 HD
BRANCH  23  26
HETATM   26  C4  UNL     1      -8.657  38.544   9.970  1.00  0.00     0.131 A 
HETATM   27  C2  UNL     1      -8.093  37.647  10.836  1.00  0.00     0.082 A 
HETATM   28  C1  UNL     1      -8.277  36.198  10.947  1.00  0.00     0.079 C 
HETATM   29  O1  UNL     1      -7.276  38.329  11.643  1.00  0.00    -0.308 OA
HETATM   30  C3  UNL     1      -7.294  39.597  11.336  1.00  0.00     0.234 A 
HETATM   31  N1  UNL     1      -8.136  39.761  10.308  1.00  0.00    -0.340 N 
ATOM     32  H1  UNL     1      -8.353  40.647   9.852  1.00  0.00     0.167 HD
ENDBRANCH  23  26
ENDBRANCH   1  22
TORSDOF 4
ENDMDL
