MODEL 1
REMARK VINA RESULT: -8.085978825      0.000      0.000
REMARK  4 active torsions:
REMARK  status: ('A' for Active; 'I' for Inactive)
REMARK    1  A    between atoms: C2_2  and  C5_5 
REMARK       I    between atoms: C5_5  and  N1_7 
REMARK    2  A    between atoms: C8_10  and  C9_12 
REMARK    3  A    between atoms: N2_13  and  C10_15 
REMARK    4  A    between atoms: C16_25  and  C17_26 
ROOT
HETATM    1  C17 UNL     1     -13.985  34.211   6.244  1.00  0.00     0.139 C 
HETATM    2  C18 UNL     1     -12.992  33.674   5.368  1.00  0.00     0.112 C 
HETATM    3  N5  UNL     1     -12.209  33.198   4.625  1.00  0.00    -0.191 NA
HETATM    4  C19 UNL     1     -15.340  33.787   5.806  1.00  0.00     0.112 C 
HETATM    5  N6  UNL     1     -16.398  33.437   5.423  1.00  0.00    -0.191 NA
ENDROOT
BRANCH   1   6
HETATM    6  C16 UNL     1     -13.774  34.975   7.261  1.00  0.00     0.046 C 
HETATM    7  C10 UNL     1     -12.829  36.068   7.502  1.00  0.00     0.024 C 
HETATM    8  C11 UNL     1     -13.556  37.199   8.209  1.00  0.00     0.063 C 
HETATM    9  C12 UNL     1     -14.025  36.744   9.603  1.00  0.00     0.048 C 
HETATM   10  C13 UNL     1     -14.696  35.454   9.530  1.00  0.00    -0.012 A 
HETATM   11  C14 UNL     1     -15.514  34.816  10.448  1.00  0.00     0.116 A 
HETATM   12  C15 UNL     1     -14.608  34.621   8.461  1.00  0.00     0.070 A 
HETATM   13  N3  UNL     1     -15.908  33.634   9.946  1.00  0.00    -0.311 N 
HETATM   14  N4  UNL     1     -15.365  33.517   8.753  1.00  0.00    -0.300 N 
ATOM     15  H3  UNL     1     -16.515  32.954  10.404  1.00  0.00     0.186 HD
ATOM     16  H4  UNL     1     -15.490  32.717   8.132  1.00  0.00     0.187 HD
BRANCH   7  17
HETATM   17  N2  UNL     1     -11.732  36.367   6.759  1.00  0.00    -0.369 N 
HETATM   18  C9  UNL     1     -10.618  37.132   6.885  1.00  0.00     0.104 C 
ATOM     19  H2  UNL     1     -11.750  35.883   5.862  1.00  0.00     0.165 HD
BRANCH  18  20
HETATM   20  C8  UNL     1      -9.520  36.764   7.865  1.00  0.00     0.138 C 
HETATM   21  C7  UNL     1     -10.167  36.222   9.161  1.00  0.00     0.069 C 
HETATM   22  C6  UNL     1      -9.023  35.912  10.100  1.00  0.00     0.129 C 
HETATM   23  N1  UNL     1      -8.476  37.190  10.590  1.00  0.00    -0.351 N 
HETATM   24  C5  UNL     1      -7.911  37.235  11.877  1.00  0.00     0.227 C 
HETATM   25  C21 UNL     1      -8.603  38.284   9.667  1.00  0.00     0.129 C 
HETATM   26  O1  UNL     1      -7.939  36.151  12.561  1.00  0.00    -0.273 OA
HETATM   27  C20 UNL     1      -8.603  37.849   8.232  1.00  0.00     0.069 C 
HETATM   28  F1  UNL     1      -8.876  35.623   7.373  1.00  0.00    -0.237 F 
BRANCH  24  29
HETATM   29  C2  UNL     1      -7.288  38.391  12.515  1.00  0.00     0.030 C 
HETATM   30  C1  UNL     1      -5.934  38.701  11.863  1.00  0.00     0.025 C 
HETATM   31  C3  UNL     1      -7.007  38.089  13.966  1.00  0.00     0.025 C 
HETATM   32  C4  UNL     1      -8.170  39.625  12.486  1.00  0.00     0.025 C 
ENDBRANCH  24  29
ENDBRANCH  18  20
ENDBRANCH   7  17
ENDBRANCH   1   6
TORSDOF 4
ENDMDL
MODEL 2
REMARK VINA RESULT: -8.078174561      0.141      1.292
REMARK  4 active torsions:
REMARK  status: ('A' for Active; 'I' for Inactive)
REMARK    1  A    between atoms: C2_2  and  C5_5 
REMARK       I    between atoms: C5_5  and  N1_7 
REMARK    2  A    between atoms: C8_10  and  C9_12 
REMARK    3  A    between atoms: N2_13  and  C10_15 
REMARK    4  A    between atoms: C16_25  and  C17_26 
ROOT
HETATM    1  C17 UNL     1     -13.972  34.308   6.266  1.00  0.00     0.139 C 
HETATM    2  C18 UNL     1     -15.261  33.825   5.884  1.00  0.00     0.112 C 
HETATM    3  N5  UNL     1     -16.306  33.412   5.522  1.00  0.00    -0.191 NA
HETATM    4  C19 UNL     1     -12.934  33.789   5.339  1.00  0.00     0.112 C 
HETATM    5  N6  UNL     1     -12.138  33.352   4.589  1.00  0.00    -0.191 NA
ENDROOT
BRANCH   1   6
HETATM    6  C16 UNL     1     -13.708  35.064   7.277  1.00  0.00     0.046 C 
HETATM    7  C10 UNL     1     -12.711  36.115   7.498  1.00  0.00     0.024 C 
HETATM    8  C11 UNL     1     -13.374  37.278   8.216  1.00  0.00     0.063 C 
HETATM    9  C12 UNL     1     -13.836  36.845   9.619  1.00  0.00     0.048 C 
HETATM   10  C13 UNL     1     -14.564  35.587   9.562  1.00  0.00    -0.012 A 
HETATM   11  C14 UNL     1     -15.393  34.987  10.497  1.00  0.00     0.116 A 
HETATM   12  C15 UNL     1     -14.533  34.749   8.493  1.00  0.00     0.070 A 
HETATM   13  N3  UNL     1     -15.847  33.823  10.005  1.00  0.00    -0.311 N 
HETATM   14  N4  UNL     1     -15.333  33.680   8.802  1.00  0.00    -0.300 N 
ATOM     15  H3  UNL     1     -16.475  33.171  10.476  1.00  0.00     0.186 HD
ATOM     16  H4  UNL     1     -15.505  32.885   8.186  1.00  0.00     0.187 HD
BRANCH   7  17
HETATM   17  N2  UNL     1     -11.617  36.363   6.734  1.00  0.00    -0.369 N 
HETATM   18  C9  UNL     1     -10.490  37.117   6.816  1.00  0.00     0.104 C 
ATOM     19  H2  UNL     1     -11.650  35.841   5.859  1.00  0.00     0.165 HD
BRANCH  18  20
HETATM   20  C8  UNL     1      -9.389  36.776   7.803  1.00  0.00     0.138 C 
HETATM   21  C7  UNL     1     -10.028  36.183   9.080  1.00  0.00     0.069 C 
HETATM   22  C6  UNL     1      -8.883  35.903  10.028  1.00  0.00     0.129 C 
HETATM   23  N1  UNL     1      -8.396  37.194  10.548  1.00  0.00    -0.351 N 
HETATM   24  C5  UNL     1      -7.848  37.237  11.842  1.00  0.00     0.227 C 
HETATM   25  C21 UNL     1      -8.558  38.298   9.644  1.00  0.00     0.129 C 
HETATM   26  O1  UNL     1      -7.839  36.140  12.506  1.00  0.00    -0.273 OA
HETATM   27  C20 UNL     1      -8.523  37.891   8.201  1.00  0.00     0.069 C 
HETATM   28  F1  UNL     1      -8.693  35.672   7.298  1.00  0.00    -0.237 F 
BRANCH  24  29
HETATM   29  C2  UNL     1      -7.282  38.406  12.509  1.00  0.00     0.030 C 
HETATM   30  C1  UNL     1      -5.924  38.772  11.894  1.00  0.00     0.025 C 
HETATM   31  C3  UNL     1      -7.025  38.095  13.963  1.00  0.00     0.025 C 
HETATM   32  C4  UNL     1      -8.206  39.608  12.475  1.00  0.00     0.025 C 
ENDBRANCH  24  29
ENDBRANCH  18  20
ENDBRANCH   7  17
ENDBRANCH   1   6
TORSDOF 4
ENDMDL
MODEL 3
REMARK VINA RESULT: -7.916886487      3.655      8.407
REMARK  4 active torsions:
REMARK  status: ('A' for Active; 'I' for Inactive)
REMARK    1  A    between atoms: C2_2  and  C5_5 
REMARK       I    between atoms: C5_5  and  N1_7 
REMARK    2  A    between atoms: C8_10  and  C9_12 
REMARK    3  A    between atoms: N2_13  and  C10_15 
REMARK    4  A    between atoms: C16_25  and  C17_26 
ROOT
HETATM    1  C17 UNL     1      -9.156  39.130   8.868  1.00  0.00     0.139 C 
HETATM    2  C18 UNL     1     -10.345  39.920   8.785  1.00  0.00     0.112 C 
HETATM    3  N5  UNL     1     -11.300  40.605   8.685  1.00  0.00    -0.191 NA
HETATM    4  C19 UNL     1      -8.197  39.535   7.809  1.00  0.00     0.112 C 
HETATM    5  N6  UNL     1      -7.465  39.877   6.951  1.00  0.00    -0.191 NA
ENDROOT
BRANCH   1   6
HETATM    6  C16 UNL     1      -8.927  38.181   9.710  1.00  0.00     0.046 C 
HETATM    7  C10 UNL     1      -9.449  36.817   9.835  1.00  0.00     0.024 C 
HETATM    8  C11 UNL     1      -8.300  35.880  10.164  1.00  0.00     0.063 C 
HETATM    9  C12 UNL     1      -7.707  36.224  11.542  1.00  0.00     0.048 C 
HETATM   10  C13 UNL     1      -7.464  37.654  11.661  1.00  0.00    -0.012 A 
HETATM   11  C14 UNL     1      -6.693  38.359  12.572  1.00  0.00     0.116 A 
HETATM   12  C15 UNL     1      -8.003  38.579  10.826  1.00  0.00     0.070 A 
HETATM   13  N3  UNL     1      -6.766  39.671  12.293  1.00  0.00    -0.311 N 
HETATM   14  N4  UNL     1      -7.552  39.804  11.244  1.00  0.00    -0.300 N 
ATOM     15  H3  UNL     1      -6.299  40.424  12.798  1.00  0.00     0.186 HD
ATOM     16  H4  UNL     1      -7.790  40.693  10.805  1.00  0.00     0.187 HD
BRANCH   7  17
HETATM   17  N2  UNL     1     -10.542  36.310   9.209  1.00  0.00    -0.369 N 
HETATM   18  C9  UNL     1     -11.216  36.518   8.050  1.00  0.00     0.104 C 
ATOM     19  H2  UNL     1     -10.973  35.569   9.761  1.00  0.00     0.165 HD
BRANCH  18  20
HETATM   20  C8  UNL     1     -10.609  36.142   6.711  1.00  0.00     0.138 C 
HETATM   21  C7  UNL     1     -10.319  37.433   5.912  1.00  0.00     0.069 C 
HETATM   22  C6  UNL     1      -9.754  36.984   4.583  1.00  0.00     0.129 C 
HETATM   23  N1  UNL     1     -10.858  36.421   3.785  1.00  0.00    -0.351 N 
HETATM   24  C5  UNL     1     -10.805  36.532   2.385  1.00  0.00     0.227 C 
HETATM   25  C21 UNL     1     -11.904  35.816   4.562  1.00  0.00     0.129 C 
HETATM   26  O1  UNL     1      -9.800  37.154   1.890  1.00  0.00    -0.273 OA
HETATM   27  C20 UNL     1     -11.423  35.258   5.868  1.00  0.00     0.069 C 
HETATM   28  F1  UNL     1      -9.317  35.661   6.951  1.00  0.00    -0.237 F 
BRANCH  24  29
HETATM   29  C2  UNL     1     -11.778  36.005   1.432  1.00  0.00     0.030 C 
HETATM   30  C1  UNL     1     -11.100  35.680   0.094  1.00  0.00     0.025 C 
HETATM   31  C3  UNL     1     -12.828  37.048   1.140  1.00  0.00     0.025 C 
HETATM   32  C4  UNL     1     -12.508  34.781   1.952  1.00  0.00     0.025 C 
ENDBRANCH  24  29
ENDBRANCH  18  20
ENDBRANCH   7  17
ENDBRANCH   1   6
TORSDOF 4
ENDMDL
MODEL 4
REMARK VINA RESULT: -7.895569204      1.306      3.003
REMARK  4 active torsions:
REMARK  status: ('A' for Active; 'I' for Inactive)
REMARK    1  A    between atoms: C2_2  and  C5_5 
REMARK       I    between atoms: C5_5  and  N1_7 
REMARK    2  A    between atoms: C8_10  and  C9_12 
REMARK    3  A    between atoms: N2_13  and  C10_15 
REMARK    4  A    between atoms: C16_25  and  C17_26 
ROOT
HETATM    1  C17 UNL     1     -13.247  36.371   8.273  1.00  0.00     0.139 C 
HETATM    2  C18 UNL     1     -13.235  35.829   9.596  1.00  0.00     0.112 C 
HETATM    3  N5  UNL     1     -13.225  35.431  10.706  1.00  0.00    -0.191 NA
HETATM    4  C19 UNL     1     -13.625  37.807   8.311  1.00  0.00     0.112 C 
HETATM    5  N6  UNL     1     -13.935  38.941   8.379  1.00  0.00    -0.191 NA
ENDROOT
BRANCH   1   6
HETATM    6  C16 UNL     1     -12.997  35.730   7.183  1.00  0.00     0.046 C 
HETATM    7  C10 UNL     1     -11.925  35.839   6.190  1.00  0.00     0.024 C 
HETATM    8  C11 UNL     1     -11.469  34.443   5.804  1.00  0.00     0.063 C 
HETATM    9  C12 UNL     1     -12.608  33.684   5.100  1.00  0.00     0.048 C 
HETATM   10  C13 UNL     1     -13.851  33.804   5.846  1.00  0.00    -0.012 A 
HETATM   11  C14 UNL     1     -15.024  33.070   5.758  1.00  0.00     0.116 A 
HETATM   12  C15 UNL     1     -14.058  34.729   6.819  1.00  0.00     0.070 A 
HETATM   13  N3  UNL     1     -15.910  33.540   6.652  1.00  0.00    -0.311 N 
HETATM   14  N4  UNL     1     -15.330  34.535   7.290  1.00  0.00    -0.300 N 
ATOM     15  H3  UNL     1     -16.856  33.191   6.808  1.00  0.00     0.186 HD
ATOM     16  H4  UNL     1     -15.766  35.085   8.030  1.00  0.00     0.187 HD
BRANCH   7  17
HETATM   17  N2  UNL     1     -11.049  36.868   6.057  1.00  0.00    -0.369 N 
HETATM   18  C9  UNL     1     -10.406  37.745   6.870  1.00  0.00     0.104 C 
ATOM     19  H2  UNL     1     -10.807  37.024   5.079  1.00  0.00     0.165 HD
BRANCH  18  20
HETATM   20  C8  UNL     1      -9.305  37.284   7.807  1.00  0.00     0.138 C 
HETATM   21  C7  UNL     1      -9.947  36.595   9.033  1.00  0.00     0.069 C 
HETATM   22  C6  UNL     1      -8.800  36.197   9.935  1.00  0.00     0.129 C 
HETATM   23  N1  UNL     1      -8.269  37.420  10.565  1.00  0.00    -0.351 N 
HETATM   24  C5  UNL     1      -7.705  37.329  11.850  1.00  0.00     0.227 C 
HETATM   25  C21 UNL     1      -8.408  38.607   9.767  1.00  0.00     0.129 C 
HETATM   26  O1  UNL     1      -7.722  36.176  12.410  1.00  0.00    -0.273 OA
HETATM   27  C20 UNL     1      -8.401  38.332   8.293  1.00  0.00     0.069 C 
HETATM   28  F1  UNL     1      -8.647  36.212   7.193  1.00  0.00    -0.237 F 
BRANCH  24  29
HETATM   29  C2  UNL     1      -7.098  38.415  12.612  1.00  0.00     0.030 C 
HETATM   30  C1  UNL     1      -5.713  38.760  12.047  1.00  0.00     0.025 C 
HETATM   31  C3  UNL     1      -6.882  37.982  14.041  1.00  0.00     0.025 C 
HETATM   32  C4  UNL     1      -7.963  39.660  12.657  1.00  0.00     0.025 C 
ENDBRANCH  24  29
ENDBRANCH  18  20
ENDBRANCH   7  17
ENDBRANCH   1   6
TORSDOF 4
ENDMDL
MODEL 5
REMARK VINA RESULT: -7.812981854      1.669      2.580
REMARK  4 active torsions:
REMARK  status: ('A' for Active; 'I' for Inactive)
REMARK    1  A    between atoms: C2_2  and  C5_5 
REMARK       I    between atoms: C5_5  and  N1_7 
REMARK    2  A    between atoms: C8_10  and  C9_12 
REMARK    3  A    between atoms: N2_13  and  C10_15 
REMARK    4  A    between atoms: C16_25  and  C17_26 
ROOT
HETATM    1  C17 UNL     1     -12.935  33.647   4.663  1.00  0.00     0.139 C 
HETATM    2  C18 UNL     1     -13.340  34.239   3.426  1.00  0.00     0.112 C 
HETATM    3  N5  UNL     1     -13.641  34.696   2.381  1.00  0.00    -0.191 NA
HETATM    4  C19 UNL     1     -12.207  32.377   4.409  1.00  0.00     0.112 C 
HETATM    5  N6  UNL     1     -11.642  31.372   4.169  1.00  0.00    -0.191 NA
ENDROOT
BRANCH   1   6
HETATM    6  C16 UNL     1     -13.172  34.106   5.844  1.00  0.00     0.046 C 
HETATM    7  C10 UNL     1     -12.420  34.996   6.732  1.00  0.00     0.024 C 
HETATM    8  C11 UNL     1     -13.383  35.987   7.364  1.00  0.00     0.063 C 
HETATM    9  C12 UNL     1     -14.388  35.251   8.270  1.00  0.00     0.048 C 
HETATM   10  C13 UNL     1     -14.959  34.101   7.586  1.00  0.00    -0.012 A 
HETATM   11  C14 UNL     1     -16.082  33.346   7.885  1.00  0.00     0.116 A 
HETATM   12  C15 UNL     1     -14.428  33.557   6.460  1.00  0.00     0.070 A 
HETATM   13  N3  UNL     1     -16.223  32.377   6.967  1.00  0.00    -0.311 N 
HETATM   14  N4  UNL     1     -15.231  32.503   6.110  1.00  0.00    -0.300 N 
ATOM     15  H3  UNL     1     -16.961  31.673   6.937  1.00  0.00     0.186 HD
ATOM     16  H4  UNL     1     -15.081  31.901   5.300  1.00  0.00     0.187 HD
BRANCH   7  17
HETATM   17  N2  UNL     1     -11.115  35.350   6.606  1.00  0.00    -0.369 N 
HETATM   18  C9  UNL     1     -10.388  36.496   6.584  1.00  0.00     0.104 C 
ATOM     19  H2  UNL     1     -10.518  34.531   6.498  1.00  0.00     0.165 HD
BRANCH  18  20
HETATM   20  C8  UNL     1     -10.215  37.339   7.835  1.00  0.00     0.138 C 
HETATM   21  C7  UNL     1      -8.840  38.042   7.778  1.00  0.00     0.069 C 
HETATM   22  C6  UNL     1      -8.720  38.830   9.064  1.00  0.00     0.129 C 
HETATM   23  N1  UNL     1      -8.486  37.875  10.163  1.00  0.00    -0.351 N 
HETATM   24  C5  UNL     1      -7.725  38.292  11.269  1.00  0.00     0.227 C 
HETATM   25  C21 UNL     1      -9.072  36.579   9.960  1.00  0.00     0.129 C 
HETATM   26  O1  UNL     1      -7.250  39.482  11.232  1.00  0.00    -0.273 OA
HETATM   27  C20 UNL     1     -10.306  36.616   9.108  1.00  0.00     0.069 C 
HETATM   28  F1  UNL     1     -11.092  38.426   7.739  1.00  0.00    -0.237 F 
BRANCH  24  29
HETATM   29  C2  UNL     1      -7.422  37.507  12.462  1.00  0.00     0.030 C 
HETATM   30  C1  UNL     1      -8.709  37.170  13.226  1.00  0.00     0.025 C 
HETATM   31  C3  UNL     1      -6.563  38.314  13.404  1.00  0.00     0.025 C 
HETATM   32  C4  UNL     1      -6.656  36.235  12.152  1.00  0.00     0.025 C 
ENDBRANCH  24  29
ENDBRANCH  18  20
ENDBRANCH   7  17
ENDBRANCH   1   6
TORSDOF 4
ENDMDL
