MODEL 1
REMARK VINA RESULT: -7.133459712      0.000      0.000
REMARK  3 active torsions:
REMARK  status: ('A' for Active; 'I' for Inactive)
REMARK    1  A    between atoms: C3_5  and  C4_6 
REMARK    2  A    between atoms: C7_12  and  C8_13 
REMARK    3  A    between atoms: N4_14  and  N5_16 
ROOT
HETATM    1  C4  UNL     1       4.562   0.373  46.171  1.00  0.00    -0.014 C 
HETATM    2  C5  UNL     1       3.516  -0.075  45.767  1.00  0.00     0.021 C 
HETATM    3  C6  UNL     1       2.293  -0.605  45.269  1.00  0.00     0.152 C 
HETATM    4  N2  UNL     1       1.306  -1.052  44.854  1.00  0.00    -0.182 NA
ENDROOT
BRANCH   1   5
HETATM    5  C3  UNL     1       5.820   0.907  46.631  1.00  0.00     0.163 A 
HETATM    6  N1  UNL     1       6.720   1.605  45.965  1.00  0.00    -0.337 N 
HETATM    7  C2  UNL     1       7.760   1.917  46.747  1.00  0.00     0.035 A 
ATOM      8  H1  UNL     1       6.634   1.871  44.983  1.00  0.00     0.168 HD
HETATM    9  C1  UNL     1       8.980   2.700  46.358  1.00  0.00     0.070 C 
HETATM   10  C7  UNL     1       7.498   1.375  48.014  1.00  0.00     0.073 A 
HETATM   11  N3  UNL     1       6.314   0.770  47.903  1.00  0.00    -0.332 N 
ATOM     12  H3  UNL     1       5.842   0.275  48.658  1.00  0.00     0.168 HD
BRANCH  10  13
HETATM   13  C8  UNL     1       8.396   1.500  49.148  1.00  0.00     0.138 C 
HETATM   14  N4  UNL     1       9.318   0.713  49.493  1.00  0.00    -0.308 N 
ATOM     15  H4  UNL     1       9.860   0.952  50.323  1.00  0.00     0.186 HD
BRANCH  14  16
HETATM   16  N5  UNL     1       9.645  -0.440  48.830  1.00  0.00    -0.276 N 
HETATM   17  C9  UNL     1      10.738  -0.540  48.178  1.00  0.00     0.215 C 
HETATM   18  N6  UNL     1      11.629   0.553  48.136  1.00  0.00    -0.065 NA
HETATM   19  N7  UNL     1      11.050  -1.732  47.508  1.00  0.00    -0.065 NA
ATOM     20  H5  UNL     1       9.004  -1.232  48.858  1.00  0.00     0.189 HD
ENDBRANCH  14  16
ENDBRANCH  10  13
ENDBRANCH   1   5
TORSDOF 3
ENDMDL
MODEL 2
REMARK VINA RESULT: -6.943593175      5.812      8.267
REMARK  3 active torsions:
REMARK  status: ('A' for Active; 'I' for Inactive)
REMARK    1  A    between atoms: C3_5  and  C4_6 
REMARK    2  A    between atoms: C7_12  and  C8_13 
REMARK    3  A    between atoms: N4_14  and  N5_16 
ROOT
HETATM    1  C4  UNL     1       2.969   4.389  49.556  1.00  0.00    -0.014 C 
HETATM    2  C5  UNL     1       3.377   5.409  50.057  1.00  0.00     0.021 C 
HETATM    3  C6  UNL     1       3.866   6.597  50.669  1.00  0.00     0.152 C 
HETATM    4  N2  UNL     1       4.281   7.557  51.172  1.00  0.00    -0.182 NA
ENDROOT
BRANCH   1   5
HETATM    5  C3  UNL     1       2.487   3.160  48.976  1.00  0.00     0.163 A 
HETATM    6  N1  UNL     1       3.002   1.947  49.052  1.00  0.00    -0.337 N 
HETATM    7  C2  UNL     1       2.257   1.066  48.375  1.00  0.00     0.035 A 
ATOM      8  H1  UNL     1       3.855   1.713  49.561  1.00  0.00     0.168 HD
HETATM    9  C1  UNL     1       2.511  -0.406  48.225  1.00  0.00     0.070 C 
HETATM   10  C7  UNL     1       1.179   1.777  47.825  1.00  0.00     0.073 A 
HETATM   11  N3  UNL     1       1.355   3.041  48.212  1.00  0.00    -0.332 N 
ATOM     12  H3  UNL     1       0.734   3.813  47.971  1.00  0.00     0.168 HD
BRANCH  10  13
HETATM   13  C8  UNL     1       0.140   1.169  47.015  1.00  0.00     0.138 C 
HETATM   14  N4  UNL     1       0.046   1.160  45.758  1.00  0.00    -0.308 N 
ATOM     15  H4  UNL     1      -0.755   0.683  45.345  1.00  0.00     0.186 HD
BRANCH  14  16
HETATM   16  N5  UNL     1       0.945   1.746  44.907  1.00  0.00    -0.276 N 
HETATM   17  C9  UNL     1       1.534   1.067  43.999  1.00  0.00     0.215 C 
HETATM   18  N6  UNL     1       1.257  -0.310  43.865  1.00  0.00    -0.065 NA
HETATM   19  N7  UNL     1       2.451   1.690  43.141  1.00  0.00    -0.065 NA
ATOM     20  H5  UNL     1       1.148   2.740  45.000  1.00  0.00     0.189 HD
ENDBRANCH  14  16
ENDBRANCH  10  13
ENDBRANCH   1   5
TORSDOF 3
ENDMDL
MODEL 3
REMARK VINA RESULT: -6.931238989      5.925      7.980
REMARK  3 active torsions:
REMARK  status: ('A' for Active; 'I' for Inactive)
REMARK    1  A    between atoms: C3_5  and  C4_6 
REMARK    2  A    between atoms: C7_12  and  C8_13 
REMARK    3  A    between atoms: N4_14  and  N5_16 
ROOT
HETATM    1  C4  UNL     1       3.559   4.676  49.078  1.00  0.00    -0.014 C 
HETATM    2  C5  UNL     1       4.205   5.271  49.907  1.00  0.00     0.021 C 
HETATM    3  C6  UNL     1       4.948   5.987  50.887  1.00  0.00     0.152 C 
HETATM    4  N2  UNL     1       5.537   6.570  51.698  1.00  0.00    -0.182 NA
ENDROOT
BRANCH   1   5
HETATM    5  C3  UNL     1       2.770   3.981  48.091  1.00  0.00     0.163 A 
HETATM    6  N1  UNL     1       1.667   3.275  48.256  1.00  0.00    -0.337 N 
HETATM    7  C2  UNL     1       1.232   2.786  47.089  1.00  0.00     0.035 A 
ATOM      8  H1  UNL     1       1.208   3.123  49.154  1.00  0.00     0.168 HD
HETATM    9  C1  UNL     1       0.015   1.936  46.863  1.00  0.00     0.070 C 
HETATM   10  C7  UNL     1       2.130   3.218  46.102  1.00  0.00     0.073 A 
HETATM   11  N3  UNL     1       3.048   3.939  46.749  1.00  0.00    -0.332 N 
ATOM     12  H3  UNL     1       3.845   4.395  46.307  1.00  0.00     0.168 HD
BRANCH  10  13
HETATM   13  C8  UNL     1       2.001   2.892  44.694  1.00  0.00     0.138 C 
HETATM   14  N4  UNL     1       2.263   1.797  44.127  1.00  0.00    -0.308 N 
ATOM     15  H4  UNL     1       2.115   1.737  43.120  1.00  0.00     0.186 HD
BRANCH  14  16
HETATM   16  N5  UNL     1       2.732   0.682  44.769  1.00  0.00    -0.276 N 
HETATM   17  C9  UNL     1       2.136  -0.443  44.660  1.00  0.00     0.215 C 
HETATM   18  N6  UNL     1       0.975  -0.544  43.866  1.00  0.00    -0.065 NA
HETATM   19  N7  UNL     1       2.636  -1.570  45.328  1.00  0.00    -0.065 NA
ATOM     20  H5  UNL     1       3.571   0.751  45.344  1.00  0.00     0.189 HD
ENDBRANCH  14  16
ENDBRANCH  10  13
ENDBRANCH   1   5
TORSDOF 3
ENDMDL
MODEL 4
REMARK VINA RESULT: -6.822945268      1.325      1.962
REMARK  3 active torsions:
REMARK  status: ('A' for Active; 'I' for Inactive)
REMARK    1  A    between atoms: C3_5  and  C4_6 
REMARK    2  A    between atoms: C7_12  and  C8_13 
REMARK    3  A    between atoms: N4_14  and  N5_16 
ROOT
HETATM    1  C4  UNL     1       3.853   0.568  46.459  1.00  0.00    -0.014 C 
HETATM    2  C5  UNL     1       3.013   0.175  45.686  1.00  0.00     0.021 C 
HETATM    3  C6  UNL     1       2.013  -0.265  44.774  1.00  0.00     0.152 C 
HETATM    4  N2  UNL     1       1.202  -0.608  44.019  1.00  0.00    -0.182 NA
ENDROOT
BRANCH   1   5
HETATM    5  C3  UNL     1       4.845   1.058  47.383  1.00  0.00     0.163 A 
HETATM    6  N1  UNL     1       4.785   1.146  48.699  1.00  0.00    -0.337 N 
HETATM    7  C2  UNL     1       5.916   1.658  49.197  1.00  0.00     0.035 A 
ATOM      8  H1  UNL     1       3.982   0.860  49.261  1.00  0.00     0.168 HD
HETATM    9  C1  UNL     1       6.233   1.913  50.643  1.00  0.00     0.070 C 
HETATM   10  C7  UNL     1       6.765   1.916  48.110  1.00  0.00     0.073 A 
HETATM   11  N3  UNL     1       6.079   1.539  47.029  1.00  0.00    -0.332 N 
ATOM     12  H3  UNL     1       6.425   1.601  46.072  1.00  0.00     0.168 HD
BRANCH  10  13
HETATM   13  C8  UNL     1       8.096   2.479  48.240  1.00  0.00     0.138 C 
HETATM   14  N4  UNL     1       9.201   1.886  48.115  1.00  0.00    -0.308 N 
ATOM     15  H4  UNL     1      10.051   2.435  48.240  1.00  0.00     0.186 HD
BRANCH  14  16
HETATM   16  N5  UNL     1       9.340   0.555  47.822  1.00  0.00    -0.276 N 
HETATM   17  C9  UNL     1      10.485  -0.012  47.853  1.00  0.00     0.215 C 
HETATM   18  N6  UNL     1      11.628   0.741  48.193  1.00  0.00    -0.065 NA
HETATM   19  N7  UNL     1      10.601  -1.376  47.549  1.00  0.00    -0.065 NA
ATOM     20  H5  UNL     1       8.517   0.007  47.576  1.00  0.00     0.189 HD
ENDBRANCH  14  16
ENDBRANCH  10  13
ENDBRANCH   1   5
TORSDOF 3
ENDMDL
MODEL 5
REMARK VINA RESULT: -6.813670065      1.616      1.642
REMARK  3 active torsions:
REMARK  status: ('A' for Active; 'I' for Inactive)
REMARK    1  A    between atoms: C3_5  and  C4_6 
REMARK    2  A    between atoms: C7_12  and  C8_13 
REMARK    3  A    between atoms: N4_14  and  N5_16 
ROOT
HETATM    1  C4  UNL     1       4.102   0.762  48.196  1.00  0.00    -0.014 C 
HETATM    2  C5  UNL     1       2.928   0.478  48.192  1.00  0.00     0.021 C 
HETATM    3  C6  UNL     1       1.540   0.166  48.185  1.00  0.00     0.152 C 
HETATM    4  N2  UNL     1       0.405  -0.076  48.164  1.00  0.00    -0.182 NA
ENDROOT
BRANCH   1   5
HETATM    5  C3  UNL     1       5.498   1.125  48.199  1.00  0.00     0.163 A 
HETATM    6  N1  UNL     1       6.249   1.545  47.199  1.00  0.00    -0.337 N 
HETATM    7  C2  UNL     1       7.502   1.780  47.607  1.00  0.00     0.035 A 
ATOM      8  H1  UNL     1       5.918   1.674  46.242  1.00  0.00     0.168 HD
HETATM    9  C1  UNL     1       8.649   2.267  46.769  1.00  0.00     0.070 C 
HETATM   10  C7  UNL     1       7.550   1.487  48.978  1.00  0.00     0.073 A 
HETATM   11  N3  UNL     1       6.316   1.093  49.299  1.00  0.00    -0.332 N 
ATOM     12  H3  UNL     1       6.022   0.807  50.232  1.00  0.00     0.168 HD
BRANCH  10  13
HETATM   13  C8  UNL     1       8.745   1.616  49.791  1.00  0.00     0.138 C 
HETATM   14  N4  UNL     1       9.723   0.824  49.858  1.00  0.00    -0.308 N 
ATOM     15  H4  UNL     1      10.489   1.068  50.486  1.00  0.00     0.186 HD
BRANCH  14  16
HETATM   16  N5  UNL     1       9.830  -0.341  49.146  1.00  0.00    -0.276 N 
HETATM   17  C9  UNL     1      10.729  -0.487  48.250  1.00  0.00     0.215 C 
HETATM   18  N6  UNL     1      11.629   0.565  47.985  1.00  0.00    -0.065 NA
HETATM   19  N7  UNL     1      10.817  -1.690  47.535  1.00  0.00    -0.065 NA
ATOM     20  H5  UNL     1       9.181  -1.104  49.335  1.00  0.00     0.189 HD
ENDBRANCH  14  16
ENDBRANCH  10  13
ENDBRANCH   1   5
TORSDOF 3
ENDMDL
