MODEL 1
REMARK VINA RESULT: -5.886314067      0.000      0.000
REMARK  2 active torsions:
REMARK  status: ('A' for Active; 'I' for Inactive)
REMARK    1  A    between atoms: C2_2  and  N1_3 
REMARK       I    between atoms: N1_3  and  C3_5 
REMARK       I    between atoms: C3_5  and  N2_6 
REMARK       I    between atoms: C3_5  and  N4_10 
REMARK    2  A    between atoms: N4_10  and  C5_12 
ROOT
HETATM    1  N1  UNL     1       0.814   0.194  47.043  1.00  0.00    -0.226 N 
ATOM      2  H1  UNL     1       0.488   0.075  46.084  1.00  0.00     0.177 HD
HETATM    3  C3  UNL     1       1.278   1.466  47.444  1.00  0.00     0.689 C 
HETATM    4  N2  UNL     1       1.343   2.418  46.579  1.00  0.00    -0.126 N 
ATOM      5  H2  UNL     1       1.676   3.343  46.850  1.00  0.00     0.197 HD
HETATM    6  C4  UNL     1       0.950   2.160  45.265  1.00  0.00     0.196 C 
HETATM    7  N3  UNL     1       0.608   1.944  44.170  1.00  0.00    -0.171 NA
HETATM    8  N4  UNL     1       1.678   1.718  48.777  1.00  0.00    -0.168 N 
ATOM      9  H4  UNL     1       1.364   1.116  49.539  1.00  0.00     0.186 HD
ENDROOT
BRANCH   1  10
HETATM   10  C2  UNL     1       0.780  -0.941  47.924  1.00  0.00     0.133 C 
HETATM   11  C1  UNL     1       1.317  -2.208  47.346  1.00  0.00     0.027 C 
ENDBRANCH   1  10
BRANCH   8  12
HETATM   12  C5  UNL     1       2.465   2.748  49.012  1.00  0.00     0.181 A 
HETATM   13  N5  UNL     1       2.166   3.864  49.684  1.00  0.00    -0.325 N 
HETATM   14  C6  UNL     1       3.104   4.764  49.799  1.00  0.00     0.085 A 
ATOM     15  H5  UNL     1       1.241   4.007  50.091  1.00  0.00     0.169 HD
HETATM   16  C7  UNL     1       2.890   6.068  50.542  1.00  0.00     0.089 C 
HETATM   17  N6  UNL     1       4.288   4.519  49.246  1.00  0.00    -0.313 N 
HETATM   18  S1  UNL     1       4.084   3.000  48.552  1.00  0.00     0.024 SA
ATOM     19  H6  UNL     1       5.120   5.110  49.243  1.00  0.00     0.175 HD
ENDBRANCH   8  12
TORSDOF 2
ENDMDL
MODEL 2
REMARK VINA RESULT: -5.844511375      2.730      3.285
REMARK  2 active torsions:
REMARK  status: ('A' for Active; 'I' for Inactive)
REMARK    1  A    between atoms: C2_2  and  N1_3 
REMARK       I    between atoms: N1_3  and  C3_5 
REMARK       I    between atoms: C3_5  and  N2_6 
REMARK       I    between atoms: C3_5  and  N4_10 
REMARK    2  A    between atoms: N4_10  and  C5_12 
ROOT
HETATM    1  N1  UNL     1       3.335   1.077  45.108  1.00  0.00    -0.226 N 
ATOM      2  H1  UNL     1       4.035   0.403  44.797  1.00  0.00     0.177 HD
HETATM    3  C3  UNL     1       3.667   1.953  46.165  1.00  0.00     0.689 C 
HETATM    4  N2  UNL     1       4.809   1.837  46.749  1.00  0.00    -0.126 N 
ATOM      5  H2  UNL     1       5.067   2.460  47.514  1.00  0.00     0.197 HD
HETATM    6  C4  UNL     1       5.687   0.841  46.317  1.00  0.00     0.196 C 
HETATM    7  N3  UNL     1       6.424   0.017  45.943  1.00  0.00    -0.171 NA
HETATM    8  N4  UNL     1       2.771   2.957  46.600  1.00  0.00    -0.168 N 
ATOM      9  H4  UNL     1       2.017   3.283  45.993  1.00  0.00     0.186 HD
ENDROOT
BRANCH   1  10
HETATM   10  C2  UNL     1       2.056   1.090  44.453  1.00  0.00     0.133 C 
HETATM   11  C1  UNL     1       1.314  -0.204  44.489  1.00  0.00     0.027 C 
ENDBRANCH   1  10
BRANCH   8  12
HETATM   12  C5  UNL     1       2.930   3.461  47.806  1.00  0.00     0.181 A 
HETATM   13  N5  UNL     1       3.622   4.553  48.147  1.00  0.00    -0.325 N 
HETATM   14  C6  UNL     1       3.649   4.875  49.411  1.00  0.00     0.085 A 
ATOM     15  H5  UNL     1       4.110   5.113  47.447  1.00  0.00     0.169 HD
HETATM   16  C7  UNL     1       4.393   6.093  49.922  1.00  0.00     0.089 C 
HETATM   17  N6  UNL     1       2.994   4.106  50.275  1.00  0.00    -0.313 N 
HETATM   18  S1  UNL     1       2.328   2.909  49.299  1.00  0.00     0.024 SA
ATOM     19  H6  UNL     1       2.914   4.216  51.287  1.00  0.00     0.175 HD
ENDBRANCH   8  12
TORSDOF 2
ENDMDL
MODEL 3
REMARK VINA RESULT: -5.804929528      1.884      2.253
REMARK  2 active torsions:
REMARK  status: ('A' for Active; 'I' for Inactive)
REMARK    1  A    between atoms: C2_2  and  N1_3 
REMARK       I    between atoms: N1_3  and  C3_5 
REMARK       I    between atoms: C3_5  and  N2_6 
REMARK       I    between atoms: C3_5  and  N4_10 
REMARK    2  A    between atoms: N4_10  and  C5_12 
ROOT
HETATM    1  N1  UNL     1       1.063   1.943  46.059  1.00  0.00    -0.226 N 
ATOM      2  H1  UNL     1       0.957   1.708  45.072  1.00  0.00     0.177 HD
HETATM    3  C3  UNL     1       2.208   2.666  46.461  1.00  0.00     0.689 C 
HETATM    4  N2  UNL     1       3.115   2.948  45.592  1.00  0.00    -0.126 N 
ATOM      5  H2  UNL     1       3.949   3.470  45.862  1.00  0.00     0.197 HD
HETATM    6  C4  UNL     1       2.937   2.528  44.273  1.00  0.00     0.196 C 
HETATM    7  N3  UNL     1       2.778   2.186  43.168  1.00  0.00    -0.171 NA
HETATM    8  N4  UNL     1       2.382   3.086  47.800  1.00  0.00    -0.168 N 
ATOM      9  H4  UNL     1       1.585   3.160  48.432  1.00  0.00     0.186 HD
ENDROOT
BRANCH   1  10
HETATM   10  C2  UNL     1       0.040   1.523  46.977  1.00  0.00     0.133 C 
HETATM   11  C1  UNL     1       0.344   0.274  47.735  1.00  0.00     0.027 C 
ENDBRANCH   1  10
BRANCH   8  12
HETATM   12  C5  UNL     1       3.598   3.378  48.212  1.00  0.00     0.181 A 
HETATM   13  N5  UNL     1       4.093   4.587  48.497  1.00  0.00    -0.325 N 
HETATM   14  C6  UNL     1       5.335   4.648  48.892  1.00  0.00     0.085 A 
ATOM     15  H5  UNL     1       3.522   5.428  48.409  1.00  0.00     0.169 HD
HETATM   16  C7  UNL     1       6.008   5.959  49.250  1.00  0.00     0.089 C 
HETATM   17  N6  UNL     1       6.027   3.517  48.987  1.00  0.00    -0.313 N 
HETATM   18  S1  UNL     1       4.918   2.345  48.513  1.00  0.00     0.024 SA
ATOM     19  H6  UNL     1       6.997   3.391  49.277  1.00  0.00     0.175 HD
ENDBRANCH   8  12
TORSDOF 2
ENDMDL
MODEL 4
REMARK VINA RESULT: -5.678963891      1.661      1.708
REMARK  2 active torsions:
REMARK  status: ('A' for Active; 'I' for Inactive)
REMARK    1  A    between atoms: C2_2  and  N1_3 
REMARK       I    between atoms: N1_3  and  C3_5 
REMARK       I    between atoms: C3_5  and  N2_6 
REMARK       I    between atoms: C3_5  and  N4_10 
REMARK    2  A    between atoms: N4_10  and  C5_12 
ROOT
HETATM    1  N1  UNL     1       1.453   0.515  45.734  1.00  0.00    -0.226 N 
ATOM      2  H1  UNL     1       1.345   0.451  44.722  1.00  0.00     0.177 HD
HETATM    3  C3  UNL     1       2.241   1.562  46.263  1.00  0.00     0.689 C 
HETATM    4  N2  UNL     1       2.853   2.361  45.459  1.00  0.00    -0.126 N 
ATOM      5  H2  UNL     1       3.427   3.123  45.821  1.00  0.00     0.197 HD
HETATM    6  C4  UNL     1       2.718   2.165  44.084  1.00  0.00     0.196 C 
HETATM    7  N3  UNL     1       2.592   2.006  42.935  1.00  0.00    -0.171 NA
HETATM    8  N4  UNL     1       2.375   1.752  47.658  1.00  0.00    -0.168 N 
ATOM      9  H4  UNL     1       1.691   1.360  48.306  1.00  0.00     0.186 HD
ENDROOT
BRANCH   1  10
HETATM   10  C2  UNL     1       0.797  -0.463  46.557  1.00  0.00     0.133 C 
HETATM   11  C1  UNL     1       1.157  -1.882  46.263  1.00  0.00     0.027 C 
ENDBRANCH   1  10
BRANCH   8  12
HETATM   12  C5  UNL     1       3.404   2.444  48.101  1.00  0.00     0.181 A 
HETATM   13  N5  UNL     1       3.408   3.709  48.534  1.00  0.00    -0.325 N 
HETATM   14  C6  UNL     1       4.549   4.203  48.931  1.00  0.00     0.085 A 
ATOM     15  H5  UNL     1       2.553   4.266  48.554  1.00  0.00     0.169 HD
HETATM   16  C7  UNL     1       4.681   5.621  49.449  1.00  0.00     0.089 C 
HETATM   17  N6  UNL     1       5.627   3.427  48.881  1.00  0.00    -0.313 N 
HETATM   18  S1  UNL     1       5.033   1.978  48.266  1.00  0.00     0.024 SA
ATOM     19  H6  UNL     1       6.584   3.655  49.151  1.00  0.00     0.175 HD
ENDBRANCH   8  12
TORSDOF 2
ENDMDL
MODEL 5
REMARK VINA RESULT: -5.678702629      3.407      4.599
REMARK  2 active torsions:
REMARK  status: ('A' for Active; 'I' for Inactive)
REMARK    1  A    between atoms: C2_2  and  N1_3 
REMARK       I    between atoms: N1_3  and  C3_5 
REMARK       I    between atoms: C3_5  and  N2_6 
REMARK       I    between atoms: C3_5  and  N4_10 
REMARK    2  A    between atoms: N4_10  and  C5_12 
ROOT
HETATM    1  N1  UNL     1       2.084   1.197  44.926  1.00  0.00    -0.226 N 
ATOM      2  H1  UNL     1       1.427   0.458  44.675  1.00  0.00     0.177 HD
HETATM    3  C3  UNL     1       3.252   0.846  45.639  1.00  0.00     0.689 C 
HETATM    4  N2  UNL     1       3.424  -0.375  46.011  1.00  0.00    -0.126 N 
ATOM      5  H2  UNL     1       4.260  -0.649  46.527  1.00  0.00     0.197 HD
HETATM    6  C4  UNL     1       2.444  -1.318  45.696  1.00  0.00     0.196 C 
HETATM    7  N3  UNL     1       1.629  -2.106  45.418  1.00  0.00    -0.171 NA
HETATM    8  N4  UNL     1       4.239   1.808  45.958  1.00  0.00    -0.168 N 
ATOM      9  H4  UNL     1       4.301   2.684  45.438  1.00  0.00     0.186 HD
ENDROOT
BRANCH   1  10
HETATM   10  C2  UNL     1       1.779   2.547  44.539  1.00  0.00     0.133 C 
HETATM   11  C1  UNL     1       1.222   3.406  45.625  1.00  0.00     0.027 C 
ENDBRANCH   1  10
BRANCH   8  12
HETATM   12  C5  UNL     1       5.075   1.547  46.941  1.00  0.00     0.181 A 
HETATM   13  N5  UNL     1       6.394   1.341  46.855  1.00  0.00    -0.325 N 
HETATM   14  C6  UNL     1       7.035   1.096  47.964  1.00  0.00     0.085 A 
ATOM     15  H5  UNL     1       6.878   1.375  45.958  1.00  0.00     0.169 HD
HETATM   16  C7  UNL     1       8.531   0.852  47.999  1.00  0.00     0.089 C 
HETATM   17  N6  UNL     1       6.347   1.065  49.102  1.00  0.00    -0.313 N 
HETATM   18  S1  UNL     1       4.771   1.385  48.608  1.00  0.00     0.024 SA
ATOM     19  H6  UNL     1       6.692   0.890  50.046  1.00  0.00     0.175 HD
ENDBRANCH   8  12
TORSDOF 2
ENDMDL
