MODEL 1
REMARK VINA RESULT: -6.421836819      0.000      0.000
REMARK  2 active torsions:
REMARK  status: ('A' for Active; 'I' for Inactive)
REMARK    1  A    between atoms: C2_2  and  N1_3 
REMARK    2  A    between atoms: N1_3  and  C4_5 
ROOT
HETATM    1  C4  UNL     1       2.728   3.291  48.177  1.00  0.00     0.682 A 
HETATM    2  N2  UNL     1       3.485   3.466  47.084  1.00  0.00    -0.174 N 
ATOM      3  H2  UNL     1       4.372   3.969  47.056  1.00  0.00     0.186 HD
HETATM    4  C5  UNL     1       2.894   2.873  46.033  1.00  0.00     0.158 A 
HETATM    5  N3  UNL     1       3.198   2.730  44.711  1.00  0.00    -0.292 N 
ATOM      6  H3  UNL     1       4.058   3.139  44.345  1.00  0.00     0.172 HD
HETATM    7  C6  UNL     1       2.378   2.057  43.884  1.00  0.00     0.328 A 
HETATM    8  O1  UNL     1       2.716   1.963  42.680  1.00  0.00    -0.247 OA
HETATM    9  N4  UNL     1       1.247   1.519  44.361  1.00  0.00    -0.273 N 
ATOM     10  H4  UNL     1       0.640   1.015  43.716  1.00  0.00     0.173 HD
HETATM   11  C7  UNL     1       0.878   1.612  45.638  1.00  0.00     0.280 A 
HETATM   12  O2  UNL     1      -0.181   1.112  46.105  1.00  0.00    -0.265 OA
HETATM   13  C8  UNL     1       1.734   2.313  46.496  1.00  0.00     0.161 A 
HETATM   14  N5  UNL     1       1.656   2.583  47.801  1.00  0.00    -0.182 N 
ATOM     15  H5  UNL     1       0.897   2.293  48.417  1.00  0.00     0.184 HD
ENDROOT
BRANCH   1  16
HETATM   16  N1  UNL     1       3.058   3.775  49.461  1.00  0.00    -0.222 N 
HETATM   17  C3  UNL     1       3.939   2.969  50.274  1.00  0.00     0.168 C 
BRANCH  16  18
HETATM   18  C2  UNL     1       2.524   5.004  49.959  1.00  0.00     0.136 C 
HETATM   19  C1  UNL     1       3.574   6.074  50.143  1.00  0.00     0.027 C 
ENDBRANCH  16  18
ENDBRANCH   1  16
TORSDOF 2
ENDMDL
MODEL 2
REMARK VINA RESULT: -6.395009784      1.099      1.099
REMARK  2 active torsions:
REMARK  status: ('A' for Active; 'I' for Inactive)
REMARK    1  A    between atoms: C2_2  and  N1_3 
REMARK    2  A    between atoms: N1_3  and  C4_5 
ROOT
HETATM    1  C4  UNL     1       2.638   3.787  48.099  1.00  0.00     0.682 A 
HETATM    2  N2  UNL     1       3.153   3.605  46.875  1.00  0.00    -0.174 N 
ATOM      3  H2  UNL     1       4.018   4.021  46.531  1.00  0.00     0.186 HD
HETATM    4  C5  UNL     1       2.351   2.788  46.171  1.00  0.00     0.158 A 
HETATM    5  N3  UNL     1       2.372   2.269  44.909  1.00  0.00    -0.292 N 
ATOM      6  H3  UNL     1       3.141   2.504  44.282  1.00  0.00     0.172 HD
HETATM    7  C6  UNL     1       1.392   1.451  44.484  1.00  0.00     0.328 A 
HETATM    8  O1  UNL     1       1.471   1.010  43.313  1.00  0.00    -0.247 OA
HETATM    9  N4  UNL     1       0.381   1.141  45.306  1.00  0.00    -0.273 N 
ATOM     10  H4  UNL     1      -0.352   0.521  44.962  1.00  0.00     0.173 HD
HETATM   11  C7  UNL     1       0.285   1.605  46.552  1.00  0.00     0.280 A 
HETATM   12  O2  UNL     1      -0.657   1.323  47.340  1.00  0.00    -0.265 OA
HETATM   13  C8  UNL     1       1.307   2.454  46.992  1.00  0.00     0.161 A 
HETATM   14  N5  UNL     1       1.505   3.075  48.157  1.00  0.00    -0.182 N 
ATOM     15  H5  UNL     1       0.888   3.016  48.967  1.00  0.00     0.184 HD
ENDROOT
BRANCH   1  16
HETATM   16  N1  UNL     1       3.232   4.580  49.104  1.00  0.00    -0.222 N 
HETATM   17  C3  UNL     1       4.674   4.665  49.124  1.00  0.00     0.168 C 
BRANCH  16  18
HETATM   18  C2  UNL     1       2.446   5.257  50.087  1.00  0.00     0.136 C 
HETATM   19  C1  UNL     1       3.176   6.407  50.739  1.00  0.00     0.027 C 
ENDBRANCH  16  18
ENDBRANCH   1  16
TORSDOF 2
ENDMDL
MODEL 3
REMARK VINA RESULT: -6.382499424      1.867      1.985
REMARK  2 active torsions:
REMARK  status: ('A' for Active; 'I' for Inactive)
REMARK    1  A    between atoms: C2_2  and  N1_3 
REMARK    2  A    between atoms: N1_3  and  C4_5 
ROOT
HETATM    1  C4  UNL     1       3.521   2.390  47.960  1.00  0.00     0.682 A 
HETATM    2  N2  UNL     1       3.673   2.207  46.641  1.00  0.00    -0.174 N 
ATOM      3  H2  UNL     1       4.385   2.651  46.062  1.00  0.00     0.186 HD
HETATM    4  C5  UNL     1       2.740   1.345  46.200  1.00  0.00     0.158 A 
HETATM    5  N3  UNL     1       2.423   0.805  44.988  1.00  0.00    -0.292 N 
ATOM      6  H3  UNL     1       2.969   1.059  44.165  1.00  0.00     0.172 HD
HETATM    7  C6  UNL     1       1.399  -0.059  44.865  1.00  0.00     0.328 A 
HETATM    8  O1  UNL     1       1.160  -0.518  43.724  1.00  0.00    -0.247 OA
HETATM    9  N4  UNL     1       0.679  -0.395  45.944  1.00  0.00    -0.273 N 
ATOM     10  H4  UNL     1      -0.094  -1.050  45.827  1.00  0.00     0.173 HD
HETATM   11  C7  UNL     1       0.923   0.087  47.163  1.00  0.00     0.280 A 
HETATM   12  O2  UNL     1       0.258  -0.219  48.189  1.00  0.00    -0.265 OA
HETATM   13  C8  UNL     1       1.990   0.985  47.287  1.00  0.00     0.161 A 
HETATM   14  N5  UNL     1       2.484   1.634  48.343  1.00  0.00    -0.182 N 
ATOM     15  H5  UNL     1       2.128   1.565  49.296  1.00  0.00     0.184 HD
ENDROOT
BRANCH   1  16
HETATM   16  N1  UNL     1       4.342   3.225  48.749  1.00  0.00    -0.222 N 
HETATM   17  C3  UNL     1       5.402   2.599  49.505  1.00  0.00     0.168 C 
BRANCH  16  18
HETATM   18  C2  UNL     1       4.123   4.634  48.825  1.00  0.00     0.136 C 
HETATM   19  C1  UNL     1       2.909   5.001  49.644  1.00  0.00     0.027 C 
ENDBRANCH  16  18
ENDBRANCH   1  16
TORSDOF 2
ENDMDL
MODEL 4
REMARK VINA RESULT: -6.351320476      2.056      2.853
REMARK  2 active torsions:
REMARK  status: ('A' for Active; 'I' for Inactive)
REMARK    1  A    between atoms: C2_2  and  N1_3 
REMARK    2  A    between atoms: N1_3  and  C4_5 
ROOT
HETATM    1  C4  UNL     1       3.719   2.199  47.640  1.00  0.00     0.682 A 
HETATM    2  N2  UNL     1       3.096   1.078  48.031  1.00  0.00    -0.174 N 
ATOM      3  H2  UNL     1       3.030   0.745  48.993  1.00  0.00     0.186 HD
HETATM    4  C5  UNL     1       2.573   0.461  46.958  1.00  0.00     0.158 A 
HETATM    5  N3  UNL     1       1.854  -0.681  46.758  1.00  0.00    -0.292 N 
ATOM      6  H3  UNL     1       1.611  -1.268  47.556  1.00  0.00     0.172 HD
HETATM    7  C6  UNL     1       1.460  -1.040  45.523  1.00  0.00     0.328 A 
HETATM    8  O1  UNL     1       0.804  -2.102  45.408  1.00  0.00    -0.247 OA
HETATM    9  N4  UNL     1       1.778  -0.270  44.473  1.00  0.00    -0.273 N 
ATOM     10  H4  UNL     1       1.471  -0.563  43.546  1.00  0.00     0.173 HD
HETATM   11  C7  UNL     1       2.476   0.860  44.583  1.00  0.00     0.280 A 
HETATM   12  O2  UNL     1       2.783   1.598  43.607  1.00  0.00    -0.265 OA
HETATM   13  C8  UNL     1       2.883   1.232  45.870  1.00  0.00     0.161 A 
HETATM   14  N5  UNL     1       3.580   2.280  46.311  1.00  0.00    -0.182 N 
ATOM     15  H5  UNL     1       3.951   3.029  45.726  1.00  0.00     0.184 HD
ENDROOT
BRANCH   1  16
HETATM   16  N1  UNL     1       4.370   3.096  48.515  1.00  0.00    -0.222 N 
HETATM   17  C3  UNL     1       5.622   2.672  49.097  1.00  0.00     0.168 C 
BRANCH  16  18
HETATM   18  C2  UNL     1       3.805   4.367  48.841  1.00  0.00     0.136 C 
HETATM   19  C1  UNL     1       2.409   4.267  49.407  1.00  0.00     0.027 C 
ENDBRANCH  16  18
ENDBRANCH   1  16
TORSDOF 2
ENDMDL
MODEL 5
REMARK VINA RESULT: -6.341730536      2.776      3.332
REMARK  2 active torsions:
REMARK  status: ('A' for Active; 'I' for Inactive)
REMARK    1  A    between atoms: C2_2  and  N1_3 
REMARK    2  A    between atoms: N1_3  and  C4_5 
ROOT
HETATM    1  C4  UNL     1       4.256   1.024  48.109  1.00  0.00     0.682 A 
HETATM    2  N2  UNL     1       4.349   0.879  46.780  1.00  0.00    -0.174 N 
ATOM      3  H2  UNL     1       5.177   1.081  46.221  1.00  0.00     0.186 HD
HETATM    4  C5  UNL     1       3.179   0.426  46.298  1.00  0.00     0.158 A 
HETATM    5  N3  UNL     1       2.706   0.105  45.060  1.00  0.00    -0.292 N 
ATOM      6  H3  UNL     1       3.316   0.201  44.248  1.00  0.00     0.172 HD
HETATM    7  C6  UNL     1       1.446  -0.338  44.896  1.00  0.00     0.328 A 
HETATM    8  O1  UNL     1       1.074  -0.615  43.732  1.00  0.00    -0.247 OA
HETATM    9  N4  UNL     1       0.643  -0.466  45.961  1.00  0.00    -0.273 N 
ATOM     10  H4  UNL     1      -0.309  -0.801  45.813  1.00  0.00     0.173 HD
HETATM   11  C7  UNL     1       1.027  -0.174  47.203  1.00  0.00     0.280 A 
HETATM   12  O2  UNL     1       0.286  -0.289  48.217  1.00  0.00    -0.265 OA
HETATM   13  C8  UNL     1       2.338   0.285  47.370  1.00  0.00     0.161 A 
HETATM   14  N5  UNL     1       3.017   0.656  48.458  1.00  0.00    -0.182 N 
ATOM     15  H5  UNL     1       2.648   0.659  49.408  1.00  0.00     0.184 HD
ENDROOT
BRANCH   1  16
HETATM   16  N1  UNL     1       5.308   1.470  48.937  1.00  0.00    -0.222 N 
HETATM   17  C3  UNL     1       4.961   2.278  50.084  1.00  0.00     0.168 C 
BRANCH  16  18
HETATM   18  C2  UNL     1       6.673   1.163  48.647  1.00  0.00     0.136 C 
HETATM   19  C1  UNL     1       7.454   0.730  49.864  1.00  0.00     0.027 C 
ENDBRANCH  16  18
ENDBRANCH   1  16
TORSDOF 2
ENDMDL
