MODEL 1
REMARK VINA RESULT: -6.842770683      0.000      0.000
REMARK  2 active torsions:
REMARK  status: ('A' for Active; 'I' for Inactive)
REMARK    1  A    between atoms: C2_2  and  N1_3 
REMARK    2  A    between atoms: N1_3  and  C3_5 
ROOT
HETATM    1  C3  UNL     1       2.551   2.569  46.630  1.00  0.00     0.136 A 
HETATM    2  N2  UNL     1       3.001   3.503  45.783  1.00  0.00    -0.282 N 
ATOM      3  H2  UNL     1       3.344   4.407  46.108  1.00  0.00     0.188 HD
HETATM    4  N3  UNL     1       2.976   3.186  44.504  1.00  0.00    -0.263 N 
ATOM      5  H3  UNL     1       3.317   3.888  43.847  1.00  0.00     0.190 HD
HETATM    6  C4  UNL     1       2.546   2.030  43.989  1.00  0.00     0.288 A 
HETATM    7  O1  UNL     1       2.589   1.888  42.734  1.00  0.00    -0.264 OA
HETATM    8  C5  UNL     1       2.060   1.009  44.836  1.00  0.00     0.126 A 
HETATM    9  N4  UNL     1       1.602  -0.178  44.507  1.00  0.00    -0.312 N 
ATOM     10  H4  UNL     1       1.561  -0.469  43.530  1.00  0.00     0.170 HD
HETATM   11  C6  UNL     1       1.190  -0.993  45.478  1.00  0.00     0.289 A 
HETATM   12  O2  UNL     1       0.717  -2.178  45.347  1.00  0.00    -0.260 OA
HETATM   13  S1  UNL     1       1.453  -0.070  46.893  1.00  0.00    -0.023 SA
HETATM   14  C7  UNL     1       2.085   1.331  46.159  1.00  0.00     0.087 A 
ENDROOT
BRANCH   1  15
HETATM   15  N1  UNL     1       2.502   2.700  47.905  1.00  0.00    -0.374 N 
ATOM     16  H1  UNL     1       1.830   2.164  48.454  1.00  0.00     0.161 HD
BRANCH  15  17
HETATM   17  C2  UNL     1       3.410   3.616  48.552  1.00  0.00     0.116 C 
HETATM   18  C1  UNL     1       2.684   4.631  49.425  1.00  0.00     0.026 C 
ENDBRANCH  15  17
ENDBRANCH   1  15
TORSDOF 2
ENDMDL
MODEL 2
REMARK VINA RESULT: -6.379477667      1.303      1.335
REMARK  2 active torsions:
REMARK  status: ('A' for Active; 'I' for Inactive)
REMARK    1  A    between atoms: C2_2  and  N1_3 
REMARK    2  A    between atoms: N1_3  and  C3_5 
ROOT
HETATM    1  C3  UNL     1       3.271   2.367  46.493  1.00  0.00     0.136 A 
HETATM    2  N2  UNL     1       3.271   2.964  45.294  1.00  0.00    -0.282 N 
ATOM      3  H2  UNL     1       3.743   3.854  45.133  1.00  0.00     0.188 HD
HETATM    4  N3  UNL     1       2.625   2.334  44.333  1.00  0.00    -0.263 N 
ATOM      5  H3  UNL     1       2.617   2.776  43.414  1.00  0.00     0.190 HD
HETATM    6  C4  UNL     1       1.980   1.170  44.452  1.00  0.00     0.288 A 
HETATM    7  O1  UNL     1       1.408   0.702  43.427  1.00  0.00    -0.264 OA
HETATM    8  C5  UNL     1       1.947   0.496  45.693  1.00  0.00     0.126 A 
HETATM    9  N4  UNL     1       1.367  -0.645  45.990  1.00  0.00    -0.312 N 
ATOM     10  H4  UNL     1       0.854  -1.170  45.281  1.00  0.00     0.170 HD
HETATM   11  C6  UNL     1       1.463  -1.102  47.238  1.00  0.00     0.289 A 
HETATM   12  O2  UNL     1       0.966  -2.188  47.706  1.00  0.00    -0.260 OA
HETATM   13  S1  UNL     1       2.393   0.101  48.019  1.00  0.00    -0.023 SA
HETATM   14  C7  UNL     1       2.614   1.142  46.690  1.00  0.00     0.087 A 
ENDROOT
BRANCH   1  15
HETATM   15  N1  UNL     1       3.847   2.831  47.540  1.00  0.00    -0.374 N 
ATOM     16  H1  UNL     1       4.636   2.337  47.958  1.00  0.00     0.161 HD
BRANCH  15  17
HETATM   17  C2  UNL     1       3.365   4.061  48.120  1.00  0.00     0.116 C 
HETATM   18  C1  UNL     1       2.254   3.826  49.136  1.00  0.00     0.026 C 
ENDBRANCH  15  17
ENDBRANCH   1  15
TORSDOF 2
ENDMDL
MODEL 3
REMARK VINA RESULT: -6.223613299      1.782      3.403
REMARK  2 active torsions:
REMARK  status: ('A' for Active; 'I' for Inactive)
REMARK    1  A    between atoms: C2_2  and  N1_3 
REMARK    2  A    between atoms: N1_3  and  C3_5 
ROOT
HETATM    1  C3  UNL     1       2.499   0.484  47.859  1.00  0.00     0.136 A 
HETATM    2  N2  UNL     1       1.978  -0.653  48.338  1.00  0.00    -0.282 N 
ATOM      3  H2  UNL     1       1.998  -0.878  49.333  1.00  0.00     0.188 HD
HETATM    4  N3  UNL     1       1.439  -1.463  47.451  1.00  0.00    -0.263 N 
ATOM      5  H3  UNL     1       1.038  -2.333  47.802  1.00  0.00     0.190 HD
HETATM    6  C4  UNL     1       1.369  -1.251  46.133  1.00  0.00     0.288 A 
HETATM    7  O1  UNL     1       0.816  -2.136  45.419  1.00  0.00    -0.264 OA
HETATM    8  C5  UNL     1       1.902  -0.070  45.571  1.00  0.00     0.126 A 
HETATM    9  N4  UNL     1       1.921   0.301  44.311  1.00  0.00    -0.312 N 
ATOM     10  H4  UNL     1       1.517  -0.293  43.586  1.00  0.00     0.170 HD
HETATM   11  C6  UNL     1       2.481   1.469  43.999  1.00  0.00     0.289 A 
HETATM   12  O2  UNL     1       2.590   1.990  42.832  1.00  0.00    -0.260 OA
HETATM   13  S1  UNL     1       2.995   2.067  45.517  1.00  0.00    -0.023 SA
HETATM   14  C7  UNL     1       2.460   0.773  46.485  1.00  0.00     0.087 A 
ENDROOT
BRANCH   1  15
HETATM   15  N1  UNL     1       3.062   1.389  48.571  1.00  0.00    -0.374 N 
ATOM     16  H1  UNL     1       4.078   1.417  48.663  1.00  0.00     0.161 HD
BRANCH  15  17
HETATM   17  C2  UNL     1       2.240   2.367  49.242  1.00  0.00     0.116 C 
HETATM   18  C1  UNL     1       2.626   3.794  48.880  1.00  0.00     0.026 C 
ENDBRANCH  15  17
ENDBRANCH   1  15
TORSDOF 2
ENDMDL
MODEL 4
REMARK VINA RESULT: -6.181652122      2.136      2.399
REMARK  2 active torsions:
REMARK  status: ('A' for Active; 'I' for Inactive)
REMARK    1  A    between atoms: C2_2  and  N1_3 
REMARK    2  A    between atoms: N1_3  and  C3_5 
ROOT
HETATM    1  C3  UNL     1       3.209   2.712  47.328  1.00  0.00     0.136 A 
HETATM    2  N2  UNL     1       4.471   2.670  47.774  1.00  0.00    -0.282 N 
ATOM      3  H2  UNL     1       4.826   3.341  48.455  1.00  0.00     0.188 HD
HETATM    4  N3  UNL     1       5.229   1.712  47.280  1.00  0.00    -0.263 N 
ATOM      5  H3  UNL     1       6.193   1.667  47.611  1.00  0.00     0.190 HD
HETATM    6  C4  UNL     1       4.851   0.792  46.386  1.00  0.00     0.288 A 
HETATM    7  O1  UNL     1       5.706  -0.060  46.015  1.00  0.00    -0.264 OA
HETATM    8  C5  UNL     1       3.531   0.789  45.882  1.00  0.00     0.126 A 
HETATM    9  N4  UNL     1       2.991  -0.031  45.008  1.00  0.00    -0.312 N 
ATOM     10  H4  UNL     1       3.538  -0.789  44.597  1.00  0.00     0.170 HD
HETATM   11  C6  UNL     1       1.715   0.149  44.671  1.00  0.00     0.289 A 
HETATM   12  O2  UNL     1       1.027  -0.547  43.842  1.00  0.00    -0.260 OA
HETATM   13  S1  UNL     1       1.257   1.506  45.605  1.00  0.00    -0.023 SA
HETATM   14  C7  UNL     1       2.743   1.777  46.390  1.00  0.00     0.087 A 
ENDROOT
BRANCH   1  15
HETATM   15  N1  UNL     1       2.332   3.571  47.697  1.00  0.00    -0.374 N 
ATOM     16  H1  UNL     1       1.883   4.178  47.010  1.00  0.00     0.161 HD
BRANCH  15  17
HETATM   17  C2  UNL     1       1.987   3.668  49.094  1.00  0.00     0.116 C 
HETATM   18  C1  UNL     1       2.579   4.908  49.752  1.00  0.00     0.026 C 
ENDBRANCH  15  17
ENDBRANCH   1  15
TORSDOF 2
ENDMDL
MODEL 5
REMARK VINA RESULT: -6.174880915      2.484      2.802
REMARK  2 active torsions:
REMARK  status: ('A' for Active; 'I' for Inactive)
REMARK    1  A    between atoms: C2_2  and  N1_3 
REMARK    2  A    between atoms: N1_3  and  C3_5 
ROOT
HETATM    1  C3  UNL     1       3.921   1.880  46.059  1.00  0.00     0.136 A 
HETATM    2  N2  UNL     1       3.774   2.519  44.891  1.00  0.00    -0.282 N 
ATOM      3  H2  UNL     1       4.539   3.038  44.460  1.00  0.00     0.188 HD
HETATM    4  N3  UNL     1       2.584   2.437  44.331  1.00  0.00    -0.263 N 
ATOM      5  H3  UNL     1       2.458   2.918  43.441  1.00  0.00     0.190 HD
HETATM    6  C4  UNL     1       1.528   1.781  44.823  1.00  0.00     0.288 A 
HETATM    7  O1  UNL     1       0.454   1.804  44.157  1.00  0.00    -0.264 OA
HETATM    8  C5  UNL     1       1.625   1.090  46.051  1.00  0.00     0.126 A 
HETATM    9  N4  UNL     1       0.699   0.400  46.677  1.00  0.00    -0.312 N 
ATOM     10  H4  UNL     1      -0.238   0.308  46.285  1.00  0.00     0.170 HD
HETATM   11  C6  UNL     1       1.011  -0.177  47.837  1.00  0.00     0.289 A 
HETATM   12  O2  UNL     1       0.243  -0.884  48.583  1.00  0.00    -0.260 OA
HETATM   13  S1  UNL     1       2.650   0.259  48.057  1.00  0.00    -0.023 SA
HETATM   14  C7  UNL     1       2.854   1.171  46.633  1.00  0.00     0.087 A 
ENDROOT
BRANCH   1  15
HETATM   15  N1  UNL     1       5.004   1.849  46.744  1.00  0.00    -0.374 N 
ATOM     16  H1  UNL     1       5.170   2.538  47.479  1.00  0.00     0.161 HD
BRANCH  15  17
HETATM   17  C2  UNL     1       5.985   0.829  46.463  1.00  0.00     0.116 C 
HETATM   18  C1  UNL     1       7.270   1.027  47.255  1.00  0.00     0.026 C 
ENDBRANCH  15  17
ENDBRANCH   1  15
TORSDOF 2
ENDMDL
