MODEL 1
REMARK VINA RESULT: -3.922412237      0.000      0.000
REMARK  2 active torsions:
REMARK  status: ('A' for Active; 'I' for Inactive)
REMARK    1  A    between atoms: C4_6  and  C6_8 
REMARK    2  A    between atoms: C6_8  and  O3_9 
ROOT
HETATM    1  C1  UNL     1      21.561   0.609 -23.632  1.00  0.00     0.061 C 
HETATM    2  C2  UNL     1      22.223  -0.700 -23.389  1.00  0.00     0.140 C 
HETATM    3  C3  UNL     1      21.387  -1.895 -23.605  1.00  0.00     0.061 C 
HETATM    4  O1  UNL     1      23.476  -0.794 -24.049  1.00  0.00    -0.217 OA
HETATM    5  O2  UNL     1      24.227   0.155 -23.618  1.00  0.00    -0.215 OA
HETATM    6  C4  UNL     1      24.581  -0.104 -22.287  1.00  0.00     0.164 C 
HETATM    7  C5  UNL     1      24.942   1.129 -21.543  1.00  0.00     0.064 C 
HETATM    8  S1  UNL     1      22.925  -0.652 -21.680  1.00  0.00    -0.086 SA
ENDROOT
BRANCH   6   9
HETATM    9  C6  UNL     1      25.585  -1.203 -22.153  1.00  0.00     0.216 C 
BRANCH   9  10
HETATM   10  O3  UNL     1      25.053  -2.432 -22.489  1.00  0.00    -0.397 OA
ATOM     11  H3  UNL     1      24.450  -2.750 -21.827  1.00  0.00     0.209 HD
ENDBRANCH   9  10
ENDBRANCH   6   9
TORSDOF 2
ENDMDL
MODEL 2
REMARK VINA RESULT: -3.815586182      1.057      3.790
REMARK  2 active torsions:
REMARK  status: ('A' for Active; 'I' for Inactive)
REMARK    1  A    between atoms: C4_6  and  C6_8 
REMARK    2  A    between atoms: C6_8  and  O3_9 
ROOT
HETATM    1  C1  UNL     1      25.117  -1.800 -22.406  1.00  0.00     0.061 C 
HETATM    2  C2  UNL     1      24.331  -0.567 -22.133  1.00  0.00     0.140 C 
HETATM    3  C3  UNL     1      24.927   0.376 -21.170  1.00  0.00     0.061 C 
HETATM    4  O1  UNL     1      23.917   0.076 -23.329  1.00  0.00    -0.217 OA
HETATM    5  O2  UNL     1      23.199  -0.753 -24.000  1.00  0.00    -0.215 OA
HETATM    6  C4  UNL     1      21.979  -0.949 -23.338  1.00  0.00     0.164 C 
HETATM    7  C5  UNL     1      21.345  -2.247 -23.685  1.00  0.00     0.064 C 
HETATM    8  S1  UNL     1      22.638  -1.098 -21.619  1.00  0.00    -0.086 SA
ENDROOT
BRANCH   6   9
HETATM    9  C6  UNL     1      21.058   0.221 -23.454  1.00  0.00     0.216 C 
BRANCH   9  10
HETATM   10  O3  UNL     1      21.572   1.203 -24.276  1.00  0.00    -0.397 OA
ATOM     11  H3  UNL     1      22.281   0.877 -24.819  1.00  0.00     0.209 HD
ENDBRANCH   9  10
ENDBRANCH   6   9
TORSDOF 2
ENDMDL
MODEL 3
REMARK VINA RESULT: -3.255250178      5.534      6.701
REMARK  2 active torsions:
REMARK  status: ('A' for Active; 'I' for Inactive)
REMARK    1  A    between atoms: C4_6  and  C6_8 
REMARK    2  A    between atoms: C6_8  and  O3_9 
ROOT
HETATM    1  C1  UNL     1      25.128   6.076 -22.003  1.00  0.00     0.061 C 
HETATM    2  C2  UNL     1      25.728   4.726 -21.838  1.00  0.00     0.140 C 
HETATM    3  C3  UNL     1      24.877   3.590 -22.238  1.00  0.00     0.061 C 
HETATM    4  O1  UNL     1      27.028   4.649 -22.403  1.00  0.00    -0.217 OA
HETATM    5  O2  UNL     1      27.768   5.523 -21.820  1.00  0.00    -0.215 OA
HETATM    6  C4  UNL     1      28.003   5.123 -20.498  1.00  0.00     0.164 C 
HETATM    7  C5  UNL     1      28.336   6.265 -19.609  1.00  0.00     0.064 C 
HETATM    8  S1  UNL     1      26.286   4.583 -20.083  1.00  0.00    -0.086 SA
ENDROOT
BRANCH   6   9
HETATM    9  C6  UNL     1      28.959   3.981 -20.394  1.00  0.00     0.216 C 
BRANCH   9  10
HETATM   10  O3  UNL     1      29.600   3.733 -21.592  1.00  0.00    -0.397 OA
ATOM     11  H3  UNL     1      30.271   3.067 -21.504  1.00  0.00     0.209 HD
ENDBRANCH   9  10
ENDBRANCH   6   9
TORSDOF 2
ENDMDL
MODEL 4
REMARK VINA RESULT: -3.217849602      1.553      3.432
REMARK  2 active torsions:
REMARK  status: ('A' for Active; 'I' for Inactive)
REMARK    1  A    between atoms: C4_6  and  C6_8 
REMARK    2  A    between atoms: C6_8  and  O3_9 
ROOT
HETATM    1  C1  UNL     1      24.690   0.191 -21.043  1.00  0.00     0.061 C 
HETATM    2  C2  UNL     1      24.566  -1.035 -21.875  1.00  0.00     0.140 C 
HETATM    3  C3  UNL     1      25.754  -1.906 -21.920  1.00  0.00     0.061 C 
HETATM    4  O1  UNL     1      23.380  -1.758 -21.584  1.00  0.00    -0.217 OA
HETATM    5  O2  UNL     1      22.377  -0.984 -21.804  1.00  0.00    -0.215 OA
HETATM    6  C4  UNL     1      22.253  -0.769 -23.183  1.00  0.00     0.164 C 
HETATM    7  C5  UNL     1      21.538   0.494 -23.500  1.00  0.00     0.064 C 
HETATM    8  S1  UNL     1      24.040  -0.502 -23.564  1.00  0.00    -0.086 SA
ENDROOT
BRANCH   6   9
HETATM    9  C6  UNL     1      21.726  -1.959 -23.916  1.00  0.00     0.216 C 
BRANCH   9  10
HETATM   10  O3  UNL     1      22.696  -2.557 -24.695  1.00  0.00    -0.397 OA
ATOM     11  H3  UNL     1      22.446  -2.588 -25.612  1.00  0.00     0.209 HD
ENDBRANCH   9  10
ENDBRANCH   6   9
TORSDOF 2
ENDMDL
MODEL 5
REMARK VINA RESULT: -3.215229107      2.452      3.747
REMARK  2 active torsions:
REMARK  status: ('A' for Active; 'I' for Inactive)
REMARK    1  A    between atoms: C4_6  and  C6_8 
REMARK    2  A    between atoms: C6_8  and  O3_9 
ROOT
HETATM    1  C1  UNL     1      25.810  -1.212 -22.258  1.00  0.00     0.061 C 
HETATM    2  C2  UNL     1      24.630  -0.360 -21.953  1.00  0.00     0.140 C 
HETATM    3  C3  UNL     1      24.738   1.056 -22.348  1.00  0.00     0.061 C 
HETATM    4  O1  UNL     1      23.418  -0.952 -22.397  1.00  0.00    -0.217 OA
HETATM    5  O2  UNL     1      23.292  -2.089 -21.812  1.00  0.00    -0.215 OA
HETATM    6  C4  UNL     1      23.031  -1.882 -20.451  1.00  0.00     0.164 C 
HETATM    7  C5  UNL     1      23.421  -3.046 -19.614  1.00  0.00     0.064 C 
HETATM    8  S1  UNL     1      24.270  -0.546 -20.151  1.00  0.00    -0.086 SA
ENDROOT
BRANCH   6   9
HETATM    9  C6  UNL     1      21.645  -1.391 -20.189  1.00  0.00     0.216 C 
BRANCH   9  10
HETATM   10  O3  UNL     1      20.913  -1.267 -21.353  1.00  0.00    -0.397 OA
ATOM     11  H3  UNL     1      19.978  -1.291 -21.188  1.00  0.00     0.209 HD
ENDBRANCH   9  10
ENDBRANCH   6   9
TORSDOF 2
ENDMDL
