MODEL 1
REMARK VINA RESULT: -3.639043992      0.000      0.000
REMARK  2 active torsions:
REMARK  status: ('A' for Active; 'I' for Inactive)
REMARK    1  A    between atoms: S1_2  and  C2_3 
REMARK    2  A    between atoms: N2_9  and  O1_10 
ROOT
HETATM    1  C2  UNL     1      23.492  -0.938 -20.953  1.00  0.00     0.181 C 
HETATM    2  C3  UNL     1      24.714  -0.999 -21.827  1.00  0.00     0.249 C 
HETATM    3  C4  UNL     1      24.897  -2.362 -22.438  1.00  0.00     0.045 C 
HETATM    4  N1  UNL     1      24.331  -0.093 -22.905  1.00  0.00     0.105 N 
HETATM    5  C5  UNL     1      24.698   1.235 -22.493  1.00  0.00     0.312 C 
HETATM    6  C6  UNL     1      22.912  -0.277 -23.073  1.00  0.00     0.393 C 
HETATM    7  N2  UNL     1      22.384  -0.807 -21.848  1.00  0.00    -0.155 NA
ENDROOT
BRANCH   1   8
HETATM    8  S1  UNL     1      23.371  -2.293 -19.789  1.00  0.00    -0.149 SA
HETATM    9  C1  UNL     1      24.860  -2.276 -18.734  1.00  0.00     0.091 C 
ENDBRANCH   1   8
BRANCH   7  10
HETATM   10  O1  UNL     1      21.641  -1.909 -21.992  1.00  0.00    -0.310 OA
ATOM     11  H1  UNL     1      21.441  -2.144 -22.891  1.00  0.00     0.237 HD
ENDBRANCH   7  10
TORSDOF 2
ENDMDL
MODEL 2
REMARK VINA RESULT: -3.571896387      1.791      2.464
REMARK  2 active torsions:
REMARK  status: ('A' for Active; 'I' for Inactive)
REMARK    1  A    between atoms: S1_2  and  C2_3 
REMARK    2  A    between atoms: N2_9  and  O1_10 
ROOT
HETATM    1  C2  UNL     1      23.284  -1.124 -21.718  1.00  0.00     0.181 C 
HETATM    2  C3  UNL     1      22.991   0.172 -22.422  1.00  0.00     0.249 C 
HETATM    3  C4  UNL     1      24.251   0.910 -22.784  1.00  0.00     0.045 C 
HETATM    4  N1  UNL     1      22.404  -0.314 -23.667  1.00  0.00     0.105 N 
HETATM    5  C5  UNL     1      20.998  -0.497 -23.429  1.00  0.00     0.312 C 
HETATM    6  C6  UNL     1      23.107  -1.535 -23.969  1.00  0.00     0.393 C 
HETATM    7  N2  UNL     1      23.659  -2.045 -22.745  1.00  0.00    -0.155 NA
ENDROOT
BRANCH   1   8
HETATM    8  S1  UNL     1      24.460  -0.964 -20.377  1.00  0.00    -0.149 SA
HETATM    9  C1  UNL     1      24.244  -2.387 -19.255  1.00  0.00     0.091 C 
ENDBRANCH   1   8
BRANCH   7  10
HETATM   10  O1  UNL     1      24.964  -2.331 -22.800  1.00  0.00    -0.310 OA
ATOM     11  H1  UNL     1      25.351  -2.601 -21.976  1.00  0.00     0.237 HD
ENDBRANCH   7  10
TORSDOF 2
ENDMDL
MODEL 3
REMARK VINA RESULT: -3.542750211      2.562      3.660
REMARK  2 active torsions:
REMARK  status: ('A' for Active; 'I' for Inactive)
REMARK    1  A    between atoms: S1_2  and  C2_3 
REMARK    2  A    between atoms: N2_9  and  O1_10 
ROOT
HETATM    1  C2  UNL     1      23.158  -0.189 -22.339  1.00  0.00     0.181 C 
HETATM    2  C3  UNL     1      23.310  -1.669 -22.552  1.00  0.00     0.249 C 
HETATM    3  C4  UNL     1      23.552  -2.005 -23.998  1.00  0.00     0.045 C 
HETATM    4  N1  UNL     1      24.556  -1.927 -21.836  1.00  0.00     0.105 N 
HETATM    5  C5  UNL     1      24.213  -2.165 -20.460  1.00  0.00     0.312 C 
HETATM    6  C6  UNL     1      25.363  -0.751 -22.039  1.00  0.00     0.393 C 
HETATM    7  N2  UNL     1      24.486   0.341 -22.354  1.00  0.00    -0.155 NA
ENDROOT
BRANCH   1   8
HETATM    8  S1  UNL     1      22.018   0.589 -23.480  1.00  0.00    -0.149 SA
HETATM    9  C1  UNL     1      20.518  -0.445 -23.584  1.00  0.00     0.091 C 
ENDBRANCH   1   8
BRANCH   7  10
HETATM   10  O1  UNL     1      24.813   1.016 -23.461  1.00  0.00    -0.310 OA
ATOM     11  H1  UNL     1      24.096   1.487 -23.871  1.00  0.00     0.237 HD
ENDBRANCH   7  10
TORSDOF 2
ENDMDL
MODEL 4
REMARK VINA RESULT: -3.433551069      2.268      3.678
REMARK  2 active torsions:
REMARK  status: ('A' for Active; 'I' for Inactive)
REMARK    1  A    between atoms: S1_2  and  C2_3 
REMARK    2  A    between atoms: N2_9  and  O1_10 
ROOT
HETATM    1  C2  UNL     1      24.184   0.091 -21.852  1.00  0.00     0.181 C 
HETATM    2  C3  UNL     1      23.115  -0.769 -21.236  1.00  0.00     0.249 C 
HETATM    3  C4  UNL     1      21.985  -1.030 -22.195  1.00  0.00     0.045 C 
HETATM    4  N1  UNL     1      23.835  -2.028 -21.067  1.00  0.00     0.105 N 
HETATM    5  C5  UNL     1      24.507  -1.964 -19.797  1.00  0.00     0.312 C 
HETATM    6  C6  UNL     1      24.728  -2.113 -22.194  1.00  0.00     0.393 C 
HETATM    7  N2  UNL     1      24.948  -0.782 -22.687  1.00  0.00    -0.155 NA
ENDROOT
BRANCH   1   8
HETATM    8  S1  UNL     1      23.550   1.555 -22.664  1.00  0.00    -0.149 SA
HETATM    9  C1  UNL     1      24.886   2.796 -22.732  1.00  0.00     0.091 C 
ENDBRANCH   1   8
BRANCH   7  10
HETATM   10  O1  UNL     1      24.741  -0.634 -23.999  1.00  0.00    -0.310 OA
ATOM     11  H1  UNL     1      25.374  -1.070 -24.558  1.00  0.00     0.237 HD
ENDBRANCH   7  10
TORSDOF 2
ENDMDL
MODEL 5
REMARK VINA RESULT: -3.418458587      2.506      3.636
REMARK  2 active torsions:
REMARK  status: ('A' for Active; 'I' for Inactive)
REMARK    1  A    between atoms: S1_2  and  C2_3 
REMARK    2  A    between atoms: N2_9  and  O1_10 
ROOT
HETATM    1  C2  UNL     1      23.831   0.025 -21.662  1.00  0.00     0.181 C 
HETATM    2  C3  UNL     1      22.717  -0.825 -22.208  1.00  0.00     0.249 C 
HETATM    3  C4  UNL     1      23.040  -1.360 -23.576  1.00  0.00     0.045 C 
HETATM    4  N1  UNL     1      22.751  -1.955 -21.284  1.00  0.00     0.105 N 
HETATM    5  C5  UNL     1      21.928  -1.606 -20.158  1.00  0.00     0.312 C 
HETATM    6  C6  UNL     1      24.142  -2.136 -20.954  1.00  0.00     0.393 C 
HETATM    7  N2  UNL     1      24.820  -0.893 -21.190  1.00  0.00    -0.155 NA
ENDROOT
BRANCH   1   8
HETATM    8  S1  UNL     1      24.428   1.256 -22.817  1.00  0.00    -0.149 SA
HETATM    9  C1  UNL     1      25.343   2.525 -21.878  1.00  0.00     0.091 C 
ENDBRANCH   1   8
BRANCH   7  10
HETATM   10  O1  UNL     1      25.911  -0.992 -21.956  1.00  0.00    -0.310 OA
ATOM     11  H1  UNL     1      26.553  -1.627 -21.661  1.00  0.00     0.237 HD
ENDBRANCH   7  10
TORSDOF 2
ENDMDL
