MODEL 1
REMARK VINA RESULT: -9.252679692      0.000      0.000
REMARK  16 active torsions:
REMARK  status: ('A' for Active; 'I' for Inactive)
REMARK    1  A    between atoms: C2_2  and  C3_3 
REMARK    2  A    between atoms: C3_3  and  O1_4 
REMARK    3  A    between atoms: C3_3  and  N1_6 
REMARK    4  A    between atoms: C5_8  and  N2_9 
REMARK    5  A    between atoms: C7_14  and  N4_15 
REMARK    6  A    between atoms: N4_15  and  C8_17 
REMARK    7  A    between atoms: C11_20  and  C12_21 
REMARK    8  A    between atoms: C12_21  and  C13_22 
REMARK    9  A    between atoms: C16_30  and  N6_31 
REMARK   10  A    between atoms: N6_31  and  C17_33 
REMARK   11  A    between atoms: C17_33  and  C18_34 
REMARK   12  A    between atoms: C18_34  and  C19_35 
REMARK   13  A    between atoms: C19_35  and  C20_36 
REMARK   14  A    between atoms: C22_40  and  C23_41 
REMARK   15  A    between atoms: C23_41  and  S1_42 
REMARK   16  A    between atoms: S1_42  and  C24_44 
ROOT
HETATM    1  C20 UNL     1      39.832 -21.943 -40.210  1.00  0.00     0.124 C 
HETATM    2  C21 UNL     1      40.161 -21.210 -41.413  1.00  0.00     0.059 C 
HETATM    3  N7  UNL     1      40.412 -20.604 -42.377  1.00  0.00    -0.197 NA
ENDROOT
BRANCH   1   4
HETATM    4  C19 UNL     1      41.084 -22.587 -39.634  1.00  0.00     0.016 C 
BRANCH   4   5
HETATM    5  C18 UNL     1      41.055 -22.553 -38.116  1.00  0.00     0.021 C 
BRANCH   5   6
HETATM    6  C17 UNL     1      40.445 -23.892 -37.674  1.00  0.00     0.138 C 
BRANCH   6   7
HETATM    7  N6  UNL     1      39.234 -23.681 -36.953  1.00  0.00    -0.225 N 
ATOM      8  H6  UNL     1      39.317 -23.140 -36.093  1.00  0.00     0.177 HD
BRANCH   7   9
HETATM    9  C16 UNL     1      38.059 -24.083 -37.248  1.00  0.00     0.701 A 
HETATM   10  N2  UNL     1      37.180 -24.346 -36.243  1.00  0.00    -0.102 N 
HETATM   11  C6  UNL     1      35.950 -24.765 -36.569  1.00  0.00     0.357 A 
HETATM   12  O2  UNL     1      35.115 -25.016 -35.667  1.00  0.00    -0.245 OA
HETATM   13  N3  UNL     1      35.545 -24.938 -37.837  1.00  0.00    -0.140 N 
HETATM   14  C7  UNL     1      36.440 -24.669 -38.796  1.00  0.00     0.701 A 
ATOM     15  H3  UNL     1      34.602 -25.259 -38.058  1.00  0.00     0.189 HD
HETATM   16  N5  UNL     1      37.696 -24.242 -38.539  1.00  0.00    -0.022 N 
ATOM     17  H5  UNL     1      38.350 -24.046 -39.296  1.00  0.00     0.203 HD
BRANCH  10  18
HETATM   18  C5  UNL     1      37.606 -24.164 -34.871  1.00  0.00     0.269 C 
HETATM   19  C4  UNL     1      36.557 -23.493 -34.010  1.00  0.00     0.180 C 
HETATM   20  N1  UNL     1      36.468 -23.943 -32.668  1.00  0.00    -0.351 N 
HETATM   21  C30 UNL     1      37.286 -25.066 -32.158  1.00  0.00     0.112 C 
HETATM   22  C22 UNL     1      38.442 -25.272 -33.064  1.00  0.00     0.158 C 
HETATM   23  C31 UNL     1      36.355 -26.256 -32.081  1.00  0.00     0.035 C 
HETATM   24  O3  UNL     1      37.898 -25.400 -34.366  1.00  0.00    -0.356 OA
BRANCH  20  25
HETATM   25  C3  UNL     1      35.596 -23.361 -31.732  1.00  0.00     0.137 C 
BRANCH  25  26
HETATM   26  C2  UNL     1      34.173 -23.298 -31.738  1.00  0.00     0.045 C 
HETATM   27  C1  UNL     1      33.239 -24.132 -31.414  1.00  0.00     0.015 C 
ENDBRANCH  25  26
BRANCH  25  28
HETATM   28  O1  UNL     1      36.198 -22.796 -30.704  1.00  0.00    -0.346 OA
ATOM     29  H1  UNL     1      37.137 -22.670 -30.785  1.00  0.00     0.219 HD
ENDBRANCH  25  28
ENDBRANCH  20  25
BRANCH  22  30
HETATM   30  C23 UNL     1      39.245 -26.507 -32.840  1.00  0.00     0.148 C 
BRANCH  30  31
HETATM   31  S1  UNL     1      40.855 -26.231 -32.168  1.00  0.00     0.052 S 
HETATM   32  O4  UNL     1      41.915 -27.430 -32.695  1.00  0.00    -0.253 OA
BRANCH  31  33
HETATM   33  C24 UNL     1      41.390 -24.653 -32.750  1.00  0.00     0.031 A 
HETATM   34  C25 UNL     1      41.370 -23.562 -31.901  1.00  0.00     0.021 A 
HETATM   35  C26 UNL     1      41.780 -22.303 -32.307  1.00  0.00     0.001 A 
HETATM   36  C27 UNL     1      42.233 -22.123 -33.620  1.00  0.00     0.000 A 
HETATM   37  C28 UNL     1      42.258 -23.200 -34.473  1.00  0.00     0.001 A 
HETATM   38  C29 UNL     1      41.840 -24.434 -34.029  1.00  0.00     0.021 A 
ENDBRANCH  31  33
ENDBRANCH  30  31
ENDBRANCH  22  30
ENDBRANCH  10  18
BRANCH  14  39
HETATM   39  N4  UNL     1      36.092 -24.824 -40.029  1.00  0.00    -0.191 N 
ATOM     40  H4  UNL     1      36.570 -25.521 -40.600  1.00  0.00     0.184 HD
BRANCH  39  41
HETATM   41  C8  UNL     1      35.050 -24.034 -40.609  1.00  0.00     0.049 A 
HETATM   42  C9  UNL     1      33.886 -24.641 -41.075  1.00  0.00     0.030 A 
HETATM   43  C10 UNL     1      32.888 -23.878 -41.631  1.00  0.00     0.009 A 
HETATM   44  C11 UNL     1      33.032 -22.503 -41.731  1.00  0.00    -0.050 A 
HETATM   45  C14 UNL     1      34.191 -21.923 -41.263  1.00  0.00     0.009 A 
HETATM   46  C15 UNL     1      35.202 -22.670 -40.704  1.00  0.00     0.030 A 
BRANCH  44  47
HETATM   47  C12 UNL     1      31.946 -21.696 -42.332  1.00  0.00     0.155 C 
BRANCH  47  48
HETATM   48  C13 UNL     1      30.696 -21.853 -41.525  1.00  0.00     0.391 C 
HETATM   49  F1  UNL     1      30.618 -23.088 -40.930  1.00  0.00    -0.171 F 
HETATM   50  F2  UNL     1      30.656 -20.893 -40.532  1.00  0.00    -0.171 F 
HETATM   51  F3  UNL     1      29.584 -21.644 -42.316  1.00  0.00    -0.171 F 
ENDBRANCH  47  48
ENDBRANCH  44  47
ENDBRANCH  39  41
ENDBRANCH  14  39
ENDBRANCH   7   9
ENDBRANCH   6   7
ENDBRANCH   5   6
ENDBRANCH   4   5
ENDBRANCH   1   4
TORSDOF 16
ENDMDL
MODEL 2
REMARK VINA RESULT: -9.161049549      2.051      4.175
REMARK  16 active torsions:
REMARK  status: ('A' for Active; 'I' for Inactive)
REMARK    1  A    between atoms: C2_2  and  C3_3 
REMARK    2  A    between atoms: C3_3  and  O1_4 
REMARK    3  A    between atoms: C3_3  and  N1_6 
REMARK    4  A    between atoms: C5_8  and  N2_9 
REMARK    5  A    between atoms: C7_14  and  N4_15 
REMARK    6  A    between atoms: N4_15  and  C8_17 
REMARK    7  A    between atoms: C11_20  and  C12_21 
REMARK    8  A    between atoms: C12_21  and  C13_22 
REMARK    9  A    between atoms: C16_30  and  N6_31 
REMARK   10  A    between atoms: N6_31  and  C17_33 
REMARK   11  A    between atoms: C17_33  and  C18_34 
REMARK   12  A    between atoms: C18_34  and  C19_35 
REMARK   13  A    between atoms: C19_35  and  C20_36 
REMARK   14  A    between atoms: C22_40  and  C23_41 
REMARK   15  A    between atoms: C23_41  and  S1_42 
REMARK   16  A    between atoms: S1_42  and  C24_44 
ROOT
HETATM    1  C20 UNL     1      34.804 -29.269 -35.766  1.00  0.00     0.124 C 
HETATM    2  C21 UNL     1      34.572 -30.689 -35.911  1.00  0.00     0.059 C 
HETATM    3  N7  UNL     1      34.406 -31.837 -36.033  1.00  0.00    -0.197 NA
ENDROOT
BRANCH   1   4
HETATM    4  C19 UNL     1      34.049 -28.739 -34.556  1.00  0.00     0.016 C 
BRANCH   4   5
HETATM    5  C18 UNL     1      34.199 -27.232 -34.449  1.00  0.00     0.021 C 
BRANCH   5   6
HETATM    6  C17 UNL     1      35.456 -26.872 -35.257  1.00  0.00     0.138 C 
BRANCH   6   7
HETATM    7  N6  UNL     1      35.460 -25.487 -35.592  1.00  0.00    -0.225 N 
ATOM      8  H6  UNL     1      34.979 -24.870 -34.938  1.00  0.00     0.177 HD
BRANCH   7   9
HETATM    9  C16 UNL     1      35.990 -24.922 -36.606  1.00  0.00     0.701 A 
HETATM   10  N2  UNL     1      37.008 -24.040 -36.412  1.00  0.00    -0.102 N 
HETATM   11  C6  UNL     1      37.556 -23.456 -37.487  1.00  0.00     0.357 A 
HETATM   12  O2  UNL     1      38.496 -22.638 -37.344  1.00  0.00    -0.245 OA
HETATM   13  N3  UNL     1      37.148 -23.699 -38.742  1.00  0.00    -0.140 N 
HETATM   14  C7  UNL     1      36.144 -24.573 -38.890  1.00  0.00     0.701 A 
ATOM     15  H3  UNL     1      37.581 -23.241 -39.544  1.00  0.00     0.189 HD
HETATM   16  N5  UNL     1      35.547 -25.198 -37.851  1.00  0.00    -0.022 N 
ATOM     17  H5  UNL     1      34.785 -25.859 -38.002  1.00  0.00     0.203 HD
BRANCH  10  18
HETATM   18  C5  UNL     1      37.456 -23.768 -35.062  1.00  0.00     0.269 C 
HETATM   19  C4  UNL     1      36.319 -23.473 -34.109  1.00  0.00     0.180 C 
HETATM   20  N1  UNL     1      36.470 -23.960 -32.785  1.00  0.00    -0.351 N 
HETATM   21  C30 UNL     1      37.628 -24.787 -32.378  1.00  0.00     0.112 C 
HETATM   22  C22 UNL     1      38.722 -24.606 -33.363  1.00  0.00     0.158 C 
HETATM   23  C31 UNL     1      37.114 -26.208 -32.296  1.00  0.00     0.035 C 
HETATM   24  O3  UNL     1      38.149 -24.865 -34.633  1.00  0.00    -0.356 OA
BRANCH  20  25
HETATM   25  C3  UNL     1      35.533 -23.697 -31.771  1.00  0.00     0.137 C 
BRANCH  25  26
HETATM   26  C2  UNL     1      34.171 -24.102 -31.672  1.00  0.00     0.045 C 
HETATM   27  C1  UNL     1      33.159 -23.680 -30.985  1.00  0.00     0.015 C 
ENDBRANCH  25  26
BRANCH  25  28
HETATM   28  O1  UNL     1      35.998 -22.971 -30.773  1.00  0.00    -0.346 OA
ATOM     29  H1  UNL     1      36.508 -23.435 -30.119  1.00  0.00     0.219 HD
ENDBRANCH  25  28
ENDBRANCH  20  25
BRANCH  22  30
HETATM   30  C23 UNL     1      39.879 -25.537 -33.244  1.00  0.00     0.148 C 
BRANCH  30  31
HETATM   31  S1  UNL     1      41.365 -24.798 -32.640  1.00  0.00     0.052 S 
HETATM   32  O4  UNL     1      42.525 -25.985 -32.352  1.00  0.00    -0.253 OA
BRANCH  31  33
HETATM   33  C24 UNL     1      41.932 -23.690 -33.892  1.00  0.00     0.031 A 
HETATM   34  C25 UNL     1      42.504 -22.484 -33.536  1.00  0.00     0.021 A 
HETATM   35  C26 UNL     1      42.966 -21.579 -34.478  1.00  0.00     0.001 A 
HETATM   36  C27 UNL     1      42.854 -21.893 -35.838  1.00  0.00     0.000 A 
HETATM   37  C28 UNL     1      42.287 -23.090 -36.204  1.00  0.00     0.001 A 
HETATM   38  C29 UNL     1      41.840 -23.959 -35.235  1.00  0.00     0.021 A 
ENDBRANCH  31  33
ENDBRANCH  30  31
ENDBRANCH  22  30
ENDBRANCH  10  18
BRANCH  14  39
HETATM   39  N4  UNL     1      35.720 -24.835 -40.080  1.00  0.00    -0.191 N 
ATOM     40  H4  UNL     1      36.123 -25.618 -40.594  1.00  0.00     0.184 HD
BRANCH  39  41
HETATM   41  C8  UNL     1      34.694 -24.046 -40.691  1.00  0.00     0.049 A 
HETATM   42  C9  UNL     1      33.485 -24.630 -41.059  1.00  0.00     0.030 A 
HETATM   43  C10 UNL     1      32.504 -23.868 -41.645  1.00  0.00     0.009 A 
HETATM   44  C11 UNL     1      32.711 -22.516 -41.874  1.00  0.00    -0.050 A 
HETATM   45  C14 UNL     1      33.915 -21.958 -41.501  1.00  0.00     0.009 A 
HETATM   46  C15 UNL     1      34.909 -22.705 -40.913  1.00  0.00     0.030 A 
BRANCH  44  47
HETATM   47  C12 UNL     1      31.643 -21.710 -42.506  1.00  0.00     0.155 C 
BRANCH  47  48
HETATM   48  C13 UNL     1      30.566 -21.427 -41.506  1.00  0.00     0.391 C 
HETATM   49  F1  UNL     1      29.459 -20.859 -42.088  1.00  0.00    -0.171 F 
HETATM   50  F2  UNL     1      30.175 -22.602 -40.894  1.00  0.00    -0.171 F 
HETATM   51  F3  UNL     1      31.042 -20.604 -40.506  1.00  0.00    -0.171 F 
ENDBRANCH  47  48
ENDBRANCH  44  47
ENDBRANCH  39  41
ENDBRANCH  14  39
ENDBRANCH   7   9
ENDBRANCH   6   7
ENDBRANCH   5   6
ENDBRANCH   4   5
ENDBRANCH   1   4
TORSDOF 16
ENDMDL
MODEL 3
REMARK VINA RESULT: -8.925066058      2.960      5.419
REMARK  16 active torsions:
REMARK  status: ('A' for Active; 'I' for Inactive)
REMARK    1  A    between atoms: C2_2  and  C3_3 
REMARK    2  A    between atoms: C3_3  and  O1_4 
REMARK    3  A    between atoms: C3_3  and  N1_6 
REMARK    4  A    between atoms: C5_8  and  N2_9 
REMARK    5  A    between atoms: C7_14  and  N4_15 
REMARK    6  A    between atoms: N4_15  and  C8_17 
REMARK    7  A    between atoms: C11_20  and  C12_21 
REMARK    8  A    between atoms: C12_21  and  C13_22 
REMARK    9  A    between atoms: C16_30  and  N6_31 
REMARK   10  A    between atoms: N6_31  and  C17_33 
REMARK   11  A    between atoms: C17_33  and  C18_34 
REMARK   12  A    between atoms: C18_34  and  C19_35 
REMARK   13  A    between atoms: C19_35  and  C20_36 
REMARK   14  A    between atoms: C22_40  and  C23_41 
REMARK   15  A    between atoms: C23_41  and  S1_42 
REMARK   16  A    between atoms: S1_42  and  C24_44 
ROOT
HETATM    1  C20 UNL     1      34.138 -24.070 -31.802  1.00  0.00     0.124 C 
HETATM    2  C21 UNL     1      34.081 -25.356 -32.461  1.00  0.00     0.059 C 
HETATM    3  N7  UNL     1      34.015 -26.395 -32.986  1.00  0.00    -0.197 NA
ENDROOT
BRANCH   1   4
HETATM    4  C19 UNL     1      34.901 -23.075 -32.664  1.00  0.00     0.016 C 
BRANCH   4   5
HETATM    5  C18 UNL     1      36.152 -23.714 -33.241  1.00  0.00     0.021 C 
BRANCH   5   6
HETATM    6  C17 UNL     1      36.072 -23.506 -34.762  1.00  0.00     0.138 C 
BRANCH   6   7
HETATM    7  N6  UNL     1      35.674 -24.708 -35.415  1.00  0.00    -0.225 N 
ATOM      8  H6  UNL     1      35.055 -25.319 -34.883  1.00  0.00     0.177 HD
BRANCH   7   9
HETATM    9  C16 UNL     1      35.994 -25.116 -36.581  1.00  0.00     0.701 A 
HETATM   10  N2  UNL     1      36.245 -26.440 -36.770  1.00  0.00    -0.102 N 
HETATM   11  C6  UNL     1      36.578 -26.853 -38.001  1.00  0.00     0.357 A 
HETATM   12  O2  UNL     1      36.815 -28.067 -38.210  1.00  0.00    -0.245 OA
HETATM   13  N3  UNL     1      36.677 -26.026 -39.052  1.00  0.00    -0.140 N 
HETATM   14  C7  UNL     1      36.423 -24.730 -38.823  1.00  0.00     0.701 A 
ATOM     15  H3  UNL     1      36.933 -26.366 -39.979  1.00  0.00     0.189 HD
HETATM   16  N5  UNL     1      36.081 -24.246 -37.609  1.00  0.00    -0.022 N 
ATOM     17  H5  UNL     1      35.894 -23.252 -37.474  1.00  0.00     0.203 HD
BRANCH  10  18
HETATM   18  C5  UNL     1      36.143 -27.344 -35.644  1.00  0.00     0.269 C 
HETATM   19  C4  UNL     1      35.109 -28.430 -35.848  1.00  0.00     0.180 C 
HETATM   20  N1  UNL     1      35.427 -29.705 -35.313  1.00  0.00    -0.351 N 
HETATM   21  C30 UNL     1      36.731 -29.987 -34.672  1.00  0.00     0.112 C 
HETATM   22  C22 UNL     1      37.367 -28.704 -34.286  1.00  0.00     0.158 C 
HETATM   23  C31 UNL     1      37.529 -30.779 -35.685  1.00  0.00     0.035 C 
HETATM   24  O3  UNL     1      37.374 -27.905 -35.457  1.00  0.00    -0.356 OA
BRANCH  20  25
HETATM   25  C3  UNL     1      34.533 -30.789 -35.358  1.00  0.00     0.137 C 
BRANCH  25  26
HETATM   26  C2  UNL     1      34.071 -31.624 -34.301  1.00  0.00     0.045 C 
HETATM   27  C1  UNL     1      32.950 -31.725 -33.663  1.00  0.00     0.015 C 
ENDBRANCH  25  26
BRANCH  25  28
HETATM   28  O1  UNL     1      34.061 -31.056 -36.560  1.00  0.00    -0.346 OA
ATOM     29  H1  UNL     1      34.336 -31.880 -36.945  1.00  0.00     0.219 HD
ENDBRANCH  25  28
ENDBRANCH  20  25
BRANCH  22  30
HETATM   30  C23 UNL     1      38.786 -28.778 -33.840  1.00  0.00     0.148 C 
BRANCH  30  31
HETATM   31  S1  UNL     1      39.007 -28.922 -32.093  1.00  0.00     0.052 S 
HETATM   32  O4  UNL     1      40.636 -29.159 -31.733  1.00  0.00    -0.253 OA
BRANCH  31  33
HETATM   33  C24 UNL     1      38.444 -27.409 -31.379  1.00  0.00     0.031 A 
HETATM   34  C25 UNL     1      39.198 -26.259 -31.517  1.00  0.00     0.021 A 
HETATM   35  C26 UNL     1      38.801 -25.047 -30.978  1.00  0.00     0.001 A 
HETATM   36  C27 UNL     1      37.596 -24.977 -30.269  1.00  0.00     0.000 A 
HETATM   37  C28 UNL     1      36.836 -26.113 -30.126  1.00  0.00     0.001 A 
HETATM   38  C29 UNL     1      37.269 -27.298 -30.677  1.00  0.00     0.021 A 
ENDBRANCH  31  33
ENDBRANCH  30  31
ENDBRANCH  22  30
ENDBRANCH  10  18
BRANCH  14  39
HETATM   39  N4  UNL     1      36.508 -23.899 -39.807  1.00  0.00    -0.191 N 
ATOM     40  H4  UNL     1      37.426 -23.577 -40.112  1.00  0.00     0.184 HD
BRANCH  39  41
HETATM   41  C8  UNL     1      35.337 -23.422 -40.476  1.00  0.00     0.049 A 
HETATM   42  C9  UNL     1      35.187 -22.063 -40.745  1.00  0.00     0.030 A 
HETATM   43  C10 UNL     1      34.061 -21.610 -41.388  1.00  0.00     0.009 A 
HETATM   44  C11 UNL     1      33.068 -22.499 -41.771  1.00  0.00    -0.050 A 
HETATM   45  C14 UNL     1      33.237 -23.839 -41.495  1.00  0.00     0.009 A 
HETATM   46  C15 UNL     1      34.358 -24.312 -40.852  1.00  0.00     0.030 A 
BRANCH  44  47
HETATM   47  C12 UNL     1      31.862 -21.994 -42.463  1.00  0.00     0.155 C 
BRANCH  47  48
HETATM   48  C13 UNL     1      30.785 -21.715 -41.462  1.00  0.00     0.391 C 
HETATM   49  F1  UNL     1      30.370 -22.856 -40.821  1.00  0.00    -0.171 F 
HETATM   50  F2  UNL     1      31.250 -20.830 -40.509  1.00  0.00    -0.171 F 
HETATM   51  F3  UNL     1      29.708 -21.104 -42.072  1.00  0.00    -0.171 F 
ENDBRANCH  47  48
ENDBRANCH  44  47
ENDBRANCH  39  41
ENDBRANCH  14  39
ENDBRANCH   7   9
ENDBRANCH   6   7
ENDBRANCH   5   6
ENDBRANCH   4   5
ENDBRANCH   1   4
TORSDOF 16
ENDMDL
MODEL 4
REMARK VINA RESULT: -8.817567079      2.295      4.494
REMARK  16 active torsions:
REMARK  status: ('A' for Active; 'I' for Inactive)
REMARK    1  A    between atoms: C2_2  and  C3_3 
REMARK    2  A    between atoms: C3_3  and  O1_4 
REMARK    3  A    between atoms: C3_3  and  N1_6 
REMARK    4  A    between atoms: C5_8  and  N2_9 
REMARK    5  A    between atoms: C7_14  and  N4_15 
REMARK    6  A    between atoms: N4_15  and  C8_17 
REMARK    7  A    between atoms: C11_20  and  C12_21 
REMARK    8  A    between atoms: C12_21  and  C13_22 
REMARK    9  A    between atoms: C16_30  and  N6_31 
REMARK   10  A    between atoms: N6_31  and  C17_33 
REMARK   11  A    between atoms: C17_33  and  C18_34 
REMARK   12  A    between atoms: C18_34  and  C19_35 
REMARK   13  A    between atoms: C19_35  and  C20_36 
REMARK   14  A    between atoms: C22_40  and  C23_41 
REMARK   15  A    between atoms: C23_41  and  S1_42 
REMARK   16  A    between atoms: S1_42  and  C24_44 
ROOT
HETATM    1  C20 UNL     1      35.186 -29.698 -34.685  1.00  0.00     0.124 C 
HETATM    2  C21 UNL     1      34.769 -30.457 -35.843  1.00  0.00     0.059 C 
HETATM    3  N7  UNL     1      34.442 -31.087 -36.769  1.00  0.00    -0.197 NA
ENDROOT
BRANCH   1   4
HETATM    4  C19 UNL     1      34.107 -28.695 -34.304  1.00  0.00     0.016 C 
BRANCH   4   5
HETATM    5  C18 UNL     1      34.690 -27.297 -34.191  1.00  0.00     0.021 C 
BRANCH   5   6
HETATM    6  C17 UNL     1      35.406 -27.028 -35.524  1.00  0.00     0.138 C 
BRANCH   6   7
HETATM    7  N6  UNL     1      35.705 -25.643 -35.666  1.00  0.00    -0.225 N 
ATOM      8  H6  UNL     1      35.505 -25.060 -34.853  1.00  0.00     0.177 HD
BRANCH   7   9
HETATM    9  C16 UNL     1      36.192 -25.039 -36.679  1.00  0.00     0.701 A 
HETATM   10  N2  UNL     1      37.186 -24.129 -36.490  1.00  0.00    -0.102 N 
HETATM   11  C6  UNL     1      37.688 -23.506 -37.565  1.00  0.00     0.357 A 
HETATM   12  O2  UNL     1      38.605 -22.661 -37.427  1.00  0.00    -0.245 OA
HETATM   13  N3  UNL     1      37.256 -23.734 -38.815  1.00  0.00    -0.140 N 
HETATM   14  C7  UNL     1      36.276 -24.636 -38.958  1.00  0.00     0.701 A 
ATOM     15  H3  UNL     1      37.655 -23.245 -39.617  1.00  0.00     0.189 HD
HETATM   16  N5  UNL     1      35.726 -25.302 -37.919  1.00  0.00    -0.022 N 
ATOM     17  H5  UNL     1      34.982 -25.984 -38.066  1.00  0.00     0.203 HD
BRANCH  10  18
HETATM   18  C5  UNL     1      37.660 -23.873 -35.147  1.00  0.00     0.269 C 
HETATM   19  C4  UNL     1      36.552 -23.476 -34.194  1.00  0.00     0.180 C 
HETATM   20  N1  UNL     1      36.671 -23.953 -32.864  1.00  0.00    -0.351 N 
HETATM   21  C30 UNL     1      37.762 -24.861 -32.447  1.00  0.00     0.112 C 
HETATM   22  C22 UNL     1      38.863 -24.781 -33.438  1.00  0.00     0.158 C 
HETATM   23  C31 UNL     1      37.140 -26.237 -32.342  1.00  0.00     0.035 C 
HETATM   24  O3  UNL     1      38.267 -25.014 -34.702  1.00  0.00    -0.356 OA
BRANCH  20  25
HETATM   25  C3  UNL     1      35.760 -23.603 -31.851  1.00  0.00     0.137 C 
BRANCH  25  26
HETATM   26  C2  UNL     1      34.347 -23.774 -31.807  1.00  0.00     0.045 C 
HETATM   27  C1  UNL     1      33.566 -24.801 -31.895  1.00  0.00     0.015 C 
ENDBRANCH  25  26
BRANCH  25  28
HETATM   28  O1  UNL     1      36.311 -23.037 -30.795  1.00  0.00    -0.346 OA
ATOM     29  H1  UNL     1      35.717 -22.777 -30.101  1.00  0.00     0.219 HD
ENDBRANCH  25  28
ENDBRANCH  20  25
BRANCH  22  30
HETATM   30  C23 UNL     1      39.944 -25.797 -33.308  1.00  0.00     0.148 C 
BRANCH  30  31
HETATM   31  S1  UNL     1      41.272 -25.334 -32.240  1.00  0.00     0.052 S 
HETATM   32  O4  UNL     1      41.771 -23.762 -32.584  1.00  0.00    -0.253 OA
BRANCH  31  33
HETATM   33  C24 UNL     1      40.657 -25.425 -30.588  1.00  0.00     0.031 A 
HETATM   34  C25 UNL     1      40.692 -24.307 -29.777  1.00  0.00     0.021 A 
HETATM   35  C26 UNL     1      40.221 -24.323 -28.475  1.00  0.00     0.001 A 
HETATM   36  C27 UNL     1      39.689 -25.511 -27.957  1.00  0.00     0.000 A 
HETATM   37  C28 UNL     1      39.647 -26.629 -28.754  1.00  0.00     0.001 A 
HETATM   38  C29 UNL     1      40.128 -26.569 -30.042  1.00  0.00     0.021 A 
ENDBRANCH  31  33
ENDBRANCH  30  31
ENDBRANCH  22  30
ENDBRANCH  10  18
BRANCH  14  39
HETATM   39  N4  UNL     1      35.831 -24.885 -40.143  1.00  0.00    -0.191 N 
ATOM     40  H4  UNL     1      36.227 -25.661 -40.674  1.00  0.00     0.184 HD
BRANCH  39  41
HETATM   41  C8  UNL     1      34.791 -24.093 -40.725  1.00  0.00     0.049 A 
HETATM   42  C9  UNL     1      34.938 -22.712 -40.832  1.00  0.00     0.030 A 
HETATM   43  C10 UNL     1      33.937 -21.956 -41.391  1.00  0.00     0.009 A 
HETATM   44  C11 UNL     1      32.777 -22.561 -41.851  1.00  0.00    -0.050 A 
HETATM   45  C14 UNL     1      32.653 -23.929 -41.736  1.00  0.00     0.009 A 
HETATM   46  C15 UNL     1      33.644 -24.703 -41.179  1.00  0.00     0.030 A 
BRANCH  44  47
HETATM   47  C12 UNL     1      31.709 -21.731 -42.452  1.00  0.00     0.155 C 
BRANCH  47  48
HETATM   48  C13 UNL     1      30.651 -21.453 -41.431  1.00  0.00     0.391 C 
HETATM   49  F1  UNL     1      30.273 -22.589 -40.759  1.00  0.00    -0.171 F 
HETATM   50  F2  UNL     1      31.122 -20.542 -40.506  1.00  0.00    -0.171 F 
HETATM   51  F3  UNL     1      29.549 -20.873 -42.026  1.00  0.00    -0.171 F 
ENDBRANCH  47  48
ENDBRANCH  44  47
ENDBRANCH  39  41
ENDBRANCH  14  39
ENDBRANCH   7   9
ENDBRANCH   6   7
ENDBRANCH   5   6
ENDBRANCH   4   5
ENDBRANCH   1   4
TORSDOF 16
ENDMDL
MODEL 5
REMARK VINA RESULT: -8.632609715      1.361      2.119
REMARK  16 active torsions:
REMARK  status: ('A' for Active; 'I' for Inactive)
REMARK    1  A    between atoms: C2_2  and  C3_3 
REMARK    2  A    between atoms: C3_3  and  O1_4 
REMARK    3  A    between atoms: C3_3  and  N1_6 
REMARK    4  A    between atoms: C5_8  and  N2_9 
REMARK    5  A    between atoms: C7_14  and  N4_15 
REMARK    6  A    between atoms: N4_15  and  C8_17 
REMARK    7  A    between atoms: C11_20  and  C12_21 
REMARK    8  A    between atoms: C12_21  and  C13_22 
REMARK    9  A    between atoms: C16_30  and  N6_31 
REMARK   10  A    between atoms: N6_31  and  C17_33 
REMARK   11  A    between atoms: C17_33  and  C18_34 
REMARK   12  A    between atoms: C18_34  and  C19_35 
REMARK   13  A    between atoms: C19_35  and  C20_36 
REMARK   14  A    between atoms: C22_40  and  C23_41 
REMARK   15  A    between atoms: C23_41  and  S1_42 
REMARK   16  A    between atoms: S1_42  and  C24_44 
ROOT
HETATM    1  C20 UNL     1      42.505 -25.715 -37.113  1.00  0.00     0.124 C 
HETATM    2  C21 UNL     1      41.969 -26.598 -38.125  1.00  0.00     0.059 C 
HETATM    3  N7  UNL     1      41.555 -27.322 -38.940  1.00  0.00    -0.197 NA
ENDROOT
BRANCH   1   4
HETATM    4  C19 UNL     1      41.412 -25.323 -36.130  1.00  0.00     0.016 C 
BRANCH   4   5
HETATM    5  C18 UNL     1      41.135 -23.832 -36.202  1.00  0.00     0.021 C 
BRANCH   5   6
HETATM    6  C17 UNL     1      40.306 -23.616 -37.478  1.00  0.00     0.138 C 
BRANCH   6   7
HETATM    7  N6  UNL     1      38.984 -23.196 -37.155  1.00  0.00    -0.225 N 
ATOM      8  H6  UNL     1      38.907 -22.311 -36.655  1.00  0.00     0.177 HD
BRANCH   7   9
HETATM    9  C16 UNL     1      37.882 -23.788 -37.413  1.00  0.00     0.701 A 
HETATM   10  N2  UNL     1      37.106 -24.214 -36.380  1.00  0.00    -0.102 N 
HETATM   11  C6  UNL     1      35.951 -24.831 -36.667  1.00  0.00     0.357 A 
HETATM   12  O2  UNL     1      35.211 -25.237 -35.739  1.00  0.00    -0.245 OA
HETATM   13  N3  UNL     1      35.527 -25.049 -37.921  1.00  0.00    -0.140 N 
HETATM   14  C7  UNL     1      36.321 -24.615 -38.909  1.00  0.00     0.701 A 
ATOM     15  H3  UNL     1      34.644 -25.523 -38.113  1.00  0.00     0.189 HD
HETATM   16  N5  UNL     1      37.495 -23.984 -38.691  1.00  0.00    -0.022 N 
ATOM     17  H5  UNL     1      38.073 -23.666 -39.469  1.00  0.00     0.203 HD
BRANCH  10  18
HETATM   18  C5  UNL     1      37.553 -23.986 -35.022  1.00  0.00     0.269 C 
HETATM   19  C4  UNL     1      36.474 -23.407 -34.133  1.00  0.00     0.180 C 
HETATM   20  N1  UNL     1      36.466 -23.854 -32.787  1.00  0.00    -0.351 N 
HETATM   21  C30 UNL     1      37.396 -24.896 -32.298  1.00  0.00     0.112 C 
HETATM   22  C22 UNL     1      38.539 -25.003 -33.237  1.00  0.00     0.158 C 
HETATM   23  C31 UNL     1      36.579 -26.165 -32.189  1.00  0.00     0.035 C 
HETATM   24  O3  UNL     1      37.970 -25.188 -34.522  1.00  0.00    -0.356 OA
BRANCH  20  25
HETATM   25  C3  UNL     1      35.573 -23.347 -31.827  1.00  0.00     0.137 C 
BRANCH  25  26
HETATM   26  C2  UNL     1      34.149 -23.317 -31.843  1.00  0.00     0.045 C 
HETATM   27  C1  UNL     1      33.231 -24.075 -31.337  1.00  0.00     0.015 C 
ENDBRANCH  25  26
BRANCH  25  28
HETATM   28  O1  UNL     1      36.153 -22.829 -30.763  1.00  0.00    -0.346 OA
ATOM     29  H1  UNL     1      36.220 -23.396 -30.003  1.00  0.00     0.219 HD
ENDBRANCH  25  28
ENDBRANCH  20  25
BRANCH  22  30
HETATM   30  C23 UNL     1      39.456 -26.159 -33.032  1.00  0.00     0.148 C 
BRANCH  30  31
HETATM   31  S1  UNL     1      40.718 -25.898 -31.824  1.00  0.00     0.052 S 
HETATM   32  O4  UNL     1      41.709 -27.256 -31.720  1.00  0.00    -0.253 OA
BRANCH  31  33
HETATM   33  C24 UNL     1      41.658 -24.502 -32.357  1.00  0.00     0.031 A 
HETATM   34  C25 UNL     1      42.905 -24.686 -32.923  1.00  0.00     0.021 A 
HETATM   35  C26 UNL     1      43.682 -23.627 -33.358  1.00  0.00     0.001 A 
HETATM   36  C27 UNL     1      43.193 -22.321 -33.224  1.00  0.00     0.000 A 
HETATM   37  C28 UNL     1      41.954 -22.125 -32.664  1.00  0.00     0.001 A 
HETATM   38  C29 UNL     1      41.215 -23.207 -32.243  1.00  0.00     0.021 A 
ENDBRANCH  31  33
ENDBRANCH  30  31
ENDBRANCH  22  30
ENDBRANCH  10  18
BRANCH  14  39
HETATM   39  N4  UNL     1      35.951 -24.805 -40.130  1.00  0.00    -0.191 N 
ATOM     40  H4  UNL     1      36.414 -25.523 -40.687  1.00  0.00     0.184 HD
BRANCH  39  41
HETATM   41  C8  UNL     1      34.904 -24.026 -40.717  1.00  0.00     0.049 A 
HETATM   42  C9  UNL     1      35.069 -22.656 -40.903  1.00  0.00     0.030 A 
HETATM   43  C10 UNL     1      34.060 -21.913 -41.467  1.00  0.00     0.009 A 
HETATM   44  C11 UNL     1      32.875 -22.520 -41.852  1.00  0.00    -0.050 A 
HETATM   45  C14 UNL     1      32.733 -23.877 -41.660  1.00  0.00     0.009 A 
HETATM   46  C15 UNL     1      33.732 -24.638 -41.097  1.00  0.00     0.030 A 
BRANCH  44  47
HETATM   47  C12 UNL     1      31.799 -21.705 -42.459  1.00  0.00     0.155 C 
BRANCH  47  48
HETATM   48  C13 UNL     1      30.679 -21.539 -41.481  1.00  0.00     0.391 C 
HETATM   49  F1  UNL     1      30.341 -22.727 -40.880  1.00  0.00    -0.171 F 
HETATM   50  F2  UNL     1      31.047 -20.646 -40.494  1.00  0.00    -0.171 F 
HETATM   51  F3  UNL     1      29.572 -21.000 -42.104  1.00  0.00    -0.171 F 
ENDBRANCH  47  48
ENDBRANCH  44  47
ENDBRANCH  39  41
ENDBRANCH  14  39
ENDBRANCH   7   9
ENDBRANCH   6   7
ENDBRANCH   5   6
ENDBRANCH   4   5
ENDBRANCH   1   4
TORSDOF 16
ENDMDL
