MODEL 1
REMARK VINA RESULT: -8.050887740      0.000      0.000
REMARK  12 active torsions:
REMARK  status: ('A' for Active; 'I' for Inactive)
REMARK    1  A    between atoms: C3_3  and  O1_4 
REMARK    2  A    between atoms: O1_4  and  C4_5 
REMARK    3  A    between atoms: C11_15  and  C12_16 
REMARK    4  A    between atoms: C12_16  and  O3_17 
REMARK    5  A    between atoms: O3_17  and  C13_18 
REMARK    6  A    between atoms: C13_18  and  C14_19 
REMARK    7  A    between atoms: C14_19  and  O4_20 
REMARK    8  A    between atoms: C15_22  and  C16_23 
REMARK    9  A    between atoms: C16_23  and  S1_24 
REMARK   10  A    between atoms: S1_24  and  O7_27 
REMARK   11  A    between atoms: O7_27  and  C17_28 
REMARK   12  A    between atoms: C20_31  and  C21_32 
ROOT
HETATM    1  C1  UNL     1      36.684 -27.620 -41.856  1.00  0.00     0.014 C 
HETATM    2  C2  UNL     1      36.882 -27.711 -40.672  1.00  0.00    -0.091 C 
HETATM    3  C3  UNL     1      37.114 -27.804 -39.214  1.00  0.00     0.261 C 
ENDROOT
BRANCH   3   4
HETATM    4  O1  UNL     1      36.318 -26.867 -38.618  1.00  0.00    -0.369 OA
BRANCH   4   5
HETATM    5  C4  UNL     1      36.746 -26.414 -37.394  1.00  0.00     0.166 C 
HETATM    6  C5  UNL     1      35.942 -26.911 -36.254  1.00  0.00     0.007 A 
HETATM    7  C6  UNL     1      35.506 -28.244 -36.285  1.00  0.00     0.031 A 
HETATM    8  C10 UNL     1      35.605 -26.144 -35.169  1.00  0.00     0.095 A 
HETATM    9  C7  UNL     1      34.770 -28.738 -35.251  1.00  0.00     0.013 A 
HETATM   10 BR1  UNL     1      34.202 -30.567 -35.347  1.00  0.00    -0.051 Br
HETATM   11  C8  UNL     1      34.442 -27.951 -34.172  1.00  0.00     0.041 A 
HETATM   12  C9  UNL     1      34.852 -26.646 -34.111  1.00  0.00     0.046 A 
HETATM   13 BR2  UNL     1      34.444 -25.497 -32.661  1.00  0.00    -0.048 Br
HETATM   14  O2  UNL     1      36.041 -24.831 -35.153  1.00  0.00    -0.341 OA
HETATM   15  C11 UNL     1      37.069 -24.366 -35.995  1.00  0.00     0.160 C 
HETATM   16  C15 UNL     1      36.854 -24.876 -37.356  1.00  0.00     0.067 C 
BRANCH  15  17
HETATM   17  C12 UNL     1      38.361 -24.625 -35.333  1.00  0.00     0.200 C 
BRANCH  17  18
HETATM   18  O3  UNL     1      39.372 -23.710 -35.659  1.00  0.00    -0.387 OA
BRANCH  18  19
HETATM   19  C13 UNL     1      40.549 -24.322 -35.994  1.00  0.00     0.193 C 
BRANCH  19  20
HETATM   20  C14 UNL     1      41.268 -23.722 -37.166  1.00  0.00     0.190 C 
BRANCH  20  21
HETATM   21  O4  UNL     1      41.084 -22.355 -37.255  1.00  0.00    -0.399 OA
ATOM     22  H4  UNL     1      41.731 -21.937 -37.811  1.00  0.00     0.209 HD
ENDBRANCH  20  21
ENDBRANCH  19  20
ENDBRANCH  18  19
ENDBRANCH  17  18
ENDBRANCH  15  17
BRANCH  16  23
HETATM   23  C16 UNL     1      37.738 -24.429 -38.456  1.00  0.00     0.181 C 
BRANCH  23  24
HETATM   24  S1  UNL     1      37.542 -22.752 -38.965  1.00  0.00     0.271 S 
HETATM   25  O5  UNL     1      38.757 -21.918 -38.871  1.00  0.00    -0.198 OA
HETATM   26  O6  UNL     1      36.495 -22.131 -38.052  1.00  0.00    -0.198 OA
BRANCH  24  27
HETATM   27  O7  UNL     1      36.883 -22.664 -40.547  1.00  0.00    -0.230 OA
BRANCH  27  28
HETATM   28  C17 UNL     1      35.558 -22.928 -40.808  1.00  0.00     0.128 A 
HETATM   29  C18 UNL     1      35.024 -24.192 -40.870  1.00  0.00     0.042 A 
HETATM   30  C19 UNL     1      33.683 -24.417 -41.137  1.00  0.00     0.020 A 
HETATM   31  C20 UNL     1      32.852 -23.355 -41.346  1.00  0.00     0.032 A 
HETATM   32  C22 UNL     1      33.351 -22.070 -41.290  1.00  0.00     0.061 A 
HETATM   33  C23 UNL     1      34.702 -21.872 -41.022  1.00  0.00     0.151 A 
HETATM   34  F1  UNL     1      35.109 -20.573 -40.986  1.00  0.00    -0.203 F 
BRANCH  31  35
HETATM   35  C21 UNL     1      31.430 -23.598 -41.627  1.00  0.00     0.265 C 
HETATM   36  N1  UNL     1      30.544 -22.550 -41.972  1.00  0.00    -0.057 NA
HETATM   37  O8  UNL     1      30.978 -24.763 -41.563  1.00  0.00    -0.271 OA
ENDBRANCH  31  35
ENDBRANCH  27  28
ENDBRANCH  24  27
ENDBRANCH  23  24
ENDBRANCH  16  23
ENDBRANCH   4   5
ENDBRANCH   3   4
TORSDOF 12
ENDMDL
MODEL 2
REMARK VINA RESULT: -8.037695456      0.996      1.267
REMARK  12 active torsions:
REMARK  status: ('A' for Active; 'I' for Inactive)
REMARK    1  A    between atoms: C3_3  and  O1_4 
REMARK    2  A    between atoms: O1_4  and  C4_5 
REMARK    3  A    between atoms: C11_15  and  C12_16 
REMARK    4  A    between atoms: C12_16  and  O3_17 
REMARK    5  A    between atoms: O3_17  and  C13_18 
REMARK    6  A    between atoms: C13_18  and  C14_19 
REMARK    7  A    between atoms: C14_19  and  O4_20 
REMARK    8  A    between atoms: C15_22  and  C16_23 
REMARK    9  A    between atoms: C16_23  and  S1_24 
REMARK   10  A    between atoms: S1_24  and  O7_27 
REMARK   11  A    between atoms: O7_27  and  C17_28 
REMARK   12  A    between atoms: C20_31  and  C21_32 
ROOT
HETATM    1  C1  UNL     1      36.690 -28.039 -41.910  1.00  0.00     0.014 C 
HETATM    2  C2  UNL     1      36.877 -28.058 -40.721  1.00  0.00    -0.091 C 
HETATM    3  C3  UNL     1      37.094 -28.062 -39.258  1.00  0.00     0.261 C 
ENDROOT
BRANCH   3   4
HETATM    4  O1  UNL     1      36.311 -27.074 -38.731  1.00  0.00    -0.369 OA
BRANCH   4   5
HETATM    5  C4  UNL     1      36.715 -26.579 -37.514  1.00  0.00     0.166 C 
HETATM    6  C5  UNL     1      35.908 -27.063 -36.370  1.00  0.00     0.007 A 
HETATM    7  C6  UNL     1      35.502 -28.405 -36.370  1.00  0.00     0.031 A 
HETATM    8  C10 UNL     1      35.543 -26.275 -35.310  1.00  0.00     0.095 A 
HETATM    9  C7  UNL     1      34.764 -28.887 -35.332  1.00  0.00     0.013 A 
HETATM   10 BR1  UNL     1      34.236 -30.730 -35.385  1.00  0.00    -0.051 Br
HETATM   11  C8  UNL     1      34.407 -28.079 -34.278  1.00  0.00     0.041 A 
HETATM   12  C9  UNL     1      34.788 -26.765 -34.247  1.00  0.00     0.046 A 
HETATM   13 BR2  UNL     1      34.339 -25.587 -32.834  1.00  0.00    -0.048 Br
HETATM   14  O2  UNL     1      35.950 -24.953 -35.324  1.00  0.00    -0.341 OA
HETATM   15  C11 UNL     1      36.979 -24.488 -36.167  1.00  0.00     0.160 C 
HETATM   16  C15 UNL     1      36.790 -25.039 -37.517  1.00  0.00     0.067 C 
BRANCH  15  17
HETATM   17  C12 UNL     1      38.267 -24.701 -35.484  1.00  0.00     0.200 C 
BRANCH  17  18
HETATM   18  O3  UNL     1      39.265 -23.778 -35.828  1.00  0.00    -0.387 OA
BRANCH  18  19
HETATM   19  C13 UNL     1      40.460 -24.377 -36.118  1.00  0.00     0.193 C 
BRANCH  19  20
HETATM   20  C14 UNL     1      41.292 -23.671 -37.149  1.00  0.00     0.190 C 
BRANCH  20  21
HETATM   21  O4  UNL     1      41.002 -22.322 -37.228  1.00  0.00    -0.399 OA
ATOM     22  H4  UNL     1      41.064 -21.887 -36.385  1.00  0.00     0.209 HD
ENDBRANCH  20  21
ENDBRANCH  19  20
ENDBRANCH  18  19
ENDBRANCH  17  18
ENDBRANCH  15  17
BRANCH  16  23
HETATM   23  C16 UNL     1      37.677 -24.602 -38.618  1.00  0.00     0.181 C 
BRANCH  23  24
HETATM   24  S1  UNL     1      37.511 -22.918 -39.115  1.00  0.00     0.271 S 
HETATM   25  O5  UNL     1      38.743 -22.109 -39.022  1.00  0.00    -0.198 OA
HETATM   26  O6  UNL     1      36.481 -22.283 -38.194  1.00  0.00    -0.198 OA
BRANCH  24  27
HETATM   27  O7  UNL     1      36.847 -22.808 -40.694  1.00  0.00    -0.230 OA
BRANCH  27  28
HETATM   28  C17 UNL     1      35.490 -22.778 -40.921  1.00  0.00     0.128 A 
HETATM   29  C18 UNL     1      34.756 -21.623 -41.039  1.00  0.00     0.042 A 
HETATM   30  C19 UNL     1      33.389 -21.634 -41.266  1.00  0.00     0.020 A 
HETATM   31  C20 UNL     1      32.737 -22.826 -41.381  1.00  0.00     0.032 A 
HETATM   32  C22 UNL     1      33.440 -24.009 -41.269  1.00  0.00     0.061 A 
HETATM   33  C23 UNL     1      34.812 -23.969 -41.039  1.00  0.00     0.151 A 
HETATM   34  F1  UNL     1      35.426 -25.181 -40.943  1.00  0.00    -0.203 F 
BRANCH  31  35
HETATM   35  C21 UNL     1      31.288 -22.834 -41.623  1.00  0.00     0.265 C 
HETATM   36  N1  UNL     1      30.504 -24.001 -41.453  1.00  0.00    -0.057 NA
HETATM   37  O8  UNL     1      30.718 -21.782 -41.992  1.00  0.00    -0.271 OA
ENDBRANCH  31  35
ENDBRANCH  27  28
ENDBRANCH  24  27
ENDBRANCH  23  24
ENDBRANCH  16  23
ENDBRANCH   4   5
ENDBRANCH   3   4
TORSDOF 12
ENDMDL
MODEL 3
REMARK VINA RESULT: -7.971188506      1.459      2.144
REMARK  12 active torsions:
REMARK  status: ('A' for Active; 'I' for Inactive)
REMARK    1  A    between atoms: C3_3  and  O1_4 
REMARK    2  A    between atoms: O1_4  and  C4_5 
REMARK    3  A    between atoms: C11_15  and  C12_16 
REMARK    4  A    between atoms: C12_16  and  O3_17 
REMARK    5  A    between atoms: O3_17  and  C13_18 
REMARK    6  A    between atoms: C13_18  and  C14_19 
REMARK    7  A    between atoms: C14_19  and  O4_20 
REMARK    8  A    between atoms: C15_22  and  C16_23 
REMARK    9  A    between atoms: C16_23  and  S1_24 
REMARK   10  A    between atoms: S1_24  and  O7_27 
REMARK   11  A    between atoms: O7_27  and  C17_28 
REMARK   12  A    between atoms: C20_31  and  C21_32 
ROOT
HETATM    1  C1  UNL     1      36.386 -28.432 -41.480  1.00  0.00     0.014 C 
HETATM    2  C2  UNL     1      36.841 -28.134 -40.406  1.00  0.00    -0.091 C 
HETATM    3  C3  UNL     1      37.385 -27.751 -39.085  1.00  0.00     0.261 C 
ENDROOT
BRANCH   3   4
HETATM    4  O1  UNL     1      36.515 -26.851 -38.536  1.00  0.00    -0.369 OA
BRANCH   4   5
HETATM    5  C4  UNL     1      36.872 -26.353 -37.306  1.00  0.00     0.166 C 
HETATM    6  C5  UNL     1      36.015 -26.827 -36.194  1.00  0.00     0.007 A 
HETATM    7  C6  UNL     1      35.600 -28.167 -36.206  1.00  0.00     0.031 A 
HETATM    8  C10 UNL     1      35.611 -26.031 -35.154  1.00  0.00     0.095 A 
HETATM    9  C7  UNL     1      34.818 -28.639 -35.197  1.00  0.00     0.013 A 
HETATM   10 BR1  UNL     1      34.280 -30.479 -35.263  1.00  0.00    -0.051 Br
HETATM   11  C8  UNL     1      34.422 -27.824 -34.162  1.00  0.00     0.041 A 
HETATM   12  C9  UNL     1      34.810 -26.512 -34.121  1.00  0.00     0.046 A 
HETATM   13 BR2  UNL     1      34.310 -25.325 -32.732  1.00  0.00    -0.048 Br
HETATM   14  O2  UNL     1      36.027 -24.712 -35.156  1.00  0.00    -0.341 OA
HETATM   15  C11 UNL     1      37.093 -24.258 -35.958  1.00  0.00     0.160 C 
HETATM   16  C15 UNL     1      36.957 -24.813 -37.312  1.00  0.00     0.067 C 
BRANCH  15  17
HETATM   17  C12 UNL     1      38.351 -24.476 -35.221  1.00  0.00     0.200 C 
BRANCH  17  18
HETATM   18  O3  UNL     1      38.316 -24.063 -33.882  1.00  0.00    -0.387 OA
BRANCH  18  19
HETATM   19  C13 UNL     1      38.617 -25.073 -33.011  1.00  0.00     0.193 C 
BRANCH  19  20
HETATM   20  C14 UNL     1      38.121 -24.874 -31.608  1.00  0.00     0.190 C 
BRANCH  20  21
HETATM   21  O4  UNL     1      37.500 -23.651 -31.437  1.00  0.00    -0.399 OA
ATOM     22  H4  UNL     1      38.081 -22.921 -31.616  1.00  0.00     0.209 HD
ENDBRANCH  20  21
ENDBRANCH  19  20
ENDBRANCH  18  19
ENDBRANCH  17  18
ENDBRANCH  15  17
BRANCH  16  23
HETATM   23  C16 UNL     1      37.891 -24.387 -38.377  1.00  0.00     0.181 C 
BRANCH  23  24
HETATM   24  S1  UNL     1      37.698 -22.731 -38.951  1.00  0.00     0.271 S 
HETATM   25  O5  UNL     1      38.906 -21.887 -38.858  1.00  0.00    -0.198 OA
HETATM   26  O6  UNL     1      36.627 -22.084 -38.086  1.00  0.00    -0.198 OA
BRANCH  24  27
HETATM   27  O7  UNL     1      37.077 -22.704 -40.550  1.00  0.00    -0.230 OA
BRANCH  27  28
HETATM   28  C17 UNL     1      35.727 -22.742 -40.816  1.00  0.00     0.128 A 
HETATM   29  C18 UNL     1      34.938 -21.626 -40.947  1.00  0.00     0.042 A 
HETATM   30  C19 UNL     1      33.580 -21.706 -41.214  1.00  0.00     0.020 A 
HETATM   31  C20 UNL     1      32.994 -22.930 -41.354  1.00  0.00     0.032 A 
HETATM   32  C22 UNL     1      33.754 -24.075 -41.229  1.00  0.00     0.061 A 
HETATM   33  C23 UNL     1      35.115 -23.966 -40.960  1.00  0.00     0.151 A 
HETATM   34  F1  UNL     1      35.787 -25.146 -40.853  1.00  0.00    -0.203 F 
BRANCH  31  35
HETATM   35  C21 UNL     1      31.554 -23.010 -41.637  1.00  0.00     0.265 C 
HETATM   36  N1  UNL     1      30.837 -24.227 -41.541  1.00  0.00    -0.057 NA
HETATM   37  O8  UNL     1      30.933 -21.978 -41.976  1.00  0.00    -0.271 OA
ENDBRANCH  31  35
ENDBRANCH  27  28
ENDBRANCH  24  27
ENDBRANCH  23  24
ENDBRANCH  16  23
ENDBRANCH   4   5
ENDBRANCH   3   4
TORSDOF 12
ENDMDL
MODEL 4
REMARK VINA RESULT: -7.941593152      1.080      1.699
REMARK  12 active torsions:
REMARK  status: ('A' for Active; 'I' for Inactive)
REMARK    1  A    between atoms: C3_3  and  O1_4 
REMARK    2  A    between atoms: O1_4  and  C4_5 
REMARK    3  A    between atoms: C11_15  and  C12_16 
REMARK    4  A    between atoms: C12_16  and  O3_17 
REMARK    5  A    between atoms: O3_17  and  C13_18 
REMARK    6  A    between atoms: C13_18  and  C14_19 
REMARK    7  A    between atoms: C14_19  and  O4_20 
REMARK    8  A    between atoms: C15_22  and  C16_23 
REMARK    9  A    between atoms: C16_23  and  S1_24 
REMARK   10  A    between atoms: S1_24  and  O7_27 
REMARK   11  A    between atoms: O7_27  and  C17_28 
REMARK   12  A    between atoms: C20_31  and  C21_32 
ROOT
HETATM    1  C1  UNL     1      36.518 -27.891 -41.954  1.00  0.00     0.014 C 
HETATM    2  C2  UNL     1      36.810 -27.902 -40.786  1.00  0.00    -0.091 C 
HETATM    3  C3  UNL     1      37.156 -27.897 -39.348  1.00  0.00     0.261 C 
ENDROOT
BRANCH   3   4
HETATM    4  O1  UNL     1      36.314 -27.013 -38.734  1.00  0.00    -0.369 OA
BRANCH   4   5
HETATM    5  C4  UNL     1      36.715 -26.569 -37.497  1.00  0.00     0.166 C 
HETATM    6  C5  UNL     1      35.905 -27.097 -36.376  1.00  0.00     0.007 A 
HETATM    7  C6  UNL     1      35.495 -28.437 -36.432  1.00  0.00     0.031 A 
HETATM    8  C10 UNL     1      35.538 -26.352 -35.286  1.00  0.00     0.095 A 
HETATM    9  C7  UNL     1      34.753 -28.959 -35.416  1.00  0.00     0.013 A 
HETATM   10 BR1  UNL     1      34.221 -30.797 -35.545  1.00  0.00    -0.051 Br
HETATM   11  C8  UNL     1      34.395 -28.194 -34.331  1.00  0.00     0.041 A 
HETATM   12  C9  UNL     1      34.779 -26.883 -34.246  1.00  0.00     0.046 A 
HETATM   13 BR2  UNL     1      34.329 -25.763 -32.786  1.00  0.00    -0.048 Br
HETATM   14  O2  UNL     1      35.949 -25.031 -35.244  1.00  0.00    -0.341 OA
HETATM   15  C11 UNL     1      36.981 -24.535 -36.065  1.00  0.00     0.160 C 
HETATM   16  C15 UNL     1      36.795 -25.030 -37.437  1.00  0.00     0.067 C 
BRANCH  15  17
HETATM   17  C12 UNL     1      38.267 -24.780 -35.388  1.00  0.00     0.200 C 
BRANCH  17  18
HETATM   18  O3  UNL     1      38.601 -23.825 -34.418  1.00  0.00    -0.387 OA
BRANCH  18  19
HETATM   19  C13 UNL     1      38.809 -24.377 -33.184  1.00  0.00     0.193 C 
BRANCH  19  20
HETATM   20  C14 UNL     1      37.713 -24.138 -32.186  1.00  0.00     0.190 C 
BRANCH  20  21
HETATM   21  O4  UNL     1      38.179 -24.116 -30.885  1.00  0.00    -0.399 OA
ATOM     22  H4  UNL     1      38.215 -24.983 -30.498  1.00  0.00     0.209 HD
ENDBRANCH  20  21
ENDBRANCH  19  20
ENDBRANCH  18  19
ENDBRANCH  17  18
ENDBRANCH  15  17
BRANCH  16  23
HETATM   23  C16 UNL     1      37.685 -24.551 -38.517  1.00  0.00     0.181 C 
BRANCH  23  24
HETATM   24  S1  UNL     1      37.537 -22.844 -38.934  1.00  0.00     0.271 S 
HETATM   25  O5  UNL     1      38.779 -22.055 -38.812  1.00  0.00    -0.198 OA
HETATM   26  O6  UNL     1      36.521 -22.241 -37.977  1.00  0.00    -0.198 OA
BRANCH  24  27
HETATM   27  O7  UNL     1      36.863 -22.653 -40.501  1.00  0.00    -0.230 OA
BRANCH  27  28
HETATM   28  C17 UNL     1      35.542 -22.927 -40.773  1.00  0.00     0.128 A 
HETATM   29  C18 UNL     1      35.012 -24.193 -40.811  1.00  0.00     0.042 A 
HETATM   30  C19 UNL     1      33.675 -24.428 -41.089  1.00  0.00     0.020 A 
HETATM   31  C20 UNL     1      32.845 -23.374 -41.336  1.00  0.00     0.032 A 
HETATM   32  C22 UNL     1      33.340 -22.087 -41.306  1.00  0.00     0.061 A 
HETATM   33  C23 UNL     1      34.688 -21.879 -41.025  1.00  0.00     0.151 A 
HETATM   34  F1  UNL     1      35.090 -20.578 -41.017  1.00  0.00    -0.203 F 
BRANCH  31  35
HETATM   35  C21 UNL     1      31.427 -23.628 -41.630  1.00  0.00     0.265 C 
HETATM   36  N1  UNL     1      30.532 -22.584 -41.967  1.00  0.00    -0.057 NA
HETATM   37  O8  UNL     1      30.987 -24.799 -41.585  1.00  0.00    -0.271 OA
ENDBRANCH  31  35
ENDBRANCH  27  28
ENDBRANCH  24  27
ENDBRANCH  23  24
ENDBRANCH  16  23
ENDBRANCH   4   5
ENDBRANCH   3   4
TORSDOF 12
ENDMDL
MODEL 5
REMARK VINA RESULT: -7.878311542      2.045      4.374
REMARK  12 active torsions:
REMARK  status: ('A' for Active; 'I' for Inactive)
REMARK    1  A    between atoms: C3_3  and  O1_4 
REMARK    2  A    between atoms: O1_4  and  C4_5 
REMARK    3  A    between atoms: C11_15  and  C12_16 
REMARK    4  A    between atoms: C12_16  and  O3_17 
REMARK    5  A    between atoms: O3_17  and  C13_18 
REMARK    6  A    between atoms: C13_18  and  C14_19 
REMARK    7  A    between atoms: C14_19  and  O4_20 
REMARK    8  A    between atoms: C15_22  and  C16_23 
REMARK    9  A    between atoms: C16_23  and  S1_24 
REMARK   10  A    between atoms: S1_24  and  O7_27 
REMARK   11  A    between atoms: O7_27  and  C17_28 
REMARK   12  A    between atoms: C20_31  and  C21_32 
ROOT
HETATM    1  C1  UNL     1      35.603 -23.407 -32.906  1.00  0.00     0.014 C 
HETATM    2  C2  UNL     1      35.372 -24.080 -33.877  1.00  0.00    -0.091 C 
HETATM    3  C3  UNL     1      35.108 -24.904 -35.077  1.00  0.00     0.261 C 
ENDROOT
BRANCH   3   4
HETATM    4  O1  UNL     1      36.291 -25.027 -35.750  1.00  0.00    -0.369 OA
BRANCH   4   5
HETATM    5  C4  UNL     1      36.288 -25.911 -36.802  1.00  0.00     0.166 C 
HETATM    6  C5  UNL     1      36.877 -27.231 -36.482  1.00  0.00     0.007 A 
HETATM    7  C6  UNL     1      36.601 -27.789 -35.225  1.00  0.00     0.031 A 
HETATM    8  C10 UNL     1      37.672 -27.938 -37.346  1.00  0.00     0.095 A 
HETATM    9  C7  UNL     1      37.121 -29.004 -34.898  1.00  0.00     0.013 A 
HETATM   10 BR1  UNL     1      36.710 -29.720 -33.167  1.00  0.00    -0.051 Br
HETATM   11  C8  UNL     1      37.917 -29.698 -35.779  1.00  0.00     0.041 A 
HETATM   12  C9  UNL     1      38.205 -29.181 -37.013  1.00  0.00     0.046 A 
HETATM   13 BR2  UNL     1      39.291 -30.072 -38.284  1.00  0.00    -0.048 Br
HETATM   14  O2  UNL     1      37.937 -27.375 -38.581  1.00  0.00    -0.341 OA
HETATM   15  C11 UNL     1      37.172 -26.314 -39.107  1.00  0.00     0.160 C 
HETATM   16  C15 UNL     1      36.947 -25.308 -38.060  1.00  0.00     0.067 C 
BRANCH  15  17
HETATM   17  C12 UNL     1      36.008 -26.887 -39.807  1.00  0.00     0.200 C 
BRANCH  17  18
HETATM   18  O3  UNL     1      36.195 -28.200 -40.262  1.00  0.00    -0.387 OA
BRANCH  18  19
HETATM   19  C13 UNL     1      36.432 -28.262 -41.608  1.00  0.00     0.193 C 
BRANCH  19  20
HETATM   20  C14 UNL     1      37.763 -28.837 -41.994  1.00  0.00     0.190 C 
BRANCH  20  21
HETATM   21  O4  UNL     1      38.286 -28.244 -43.128  1.00  0.00    -0.399 OA
ATOM     22  H4  UNL     1      37.838 -28.518 -43.920  1.00  0.00     0.209 HD
ENDBRANCH  20  21
ENDBRANCH  19  20
ENDBRANCH  18  19
ENDBRANCH  17  18
ENDBRANCH  15  17
BRANCH  16  23
HETATM   23  C16 UNL     1      36.269 -24.037 -38.397  1.00  0.00     0.181 C 
BRANCH  23  24
HETATM   24  S1  UNL     1      37.165 -22.946 -39.453  1.00  0.00     0.271 S 
HETATM   25  O5  UNL     1      38.595 -23.270 -39.628  1.00  0.00    -0.198 OA
HETATM   26  O6  UNL     1      37.088 -21.561 -38.828  1.00  0.00    -0.198 OA
BRANCH  24  27
HETATM   27  O7  UNL     1      36.398 -22.804 -40.982  1.00  0.00    -0.230 OA
BRANCH  27  28
HETATM   28  C17 UNL     1      35.033 -22.901 -41.132  1.00  0.00     0.128 A 
HETATM   29  C18 UNL     1      34.358 -24.088 -41.277  1.00  0.00     0.042 A 
HETATM   30  C19 UNL     1      32.982 -24.143 -41.427  1.00  0.00     0.020 A 
HETATM   31  C20 UNL     1      32.259 -22.986 -41.430  1.00  0.00     0.032 A 
HETATM   32  C22 UNL     1      32.901 -21.773 -41.286  1.00  0.00     0.061 A 
HETATM   33  C23 UNL     1      34.285 -21.746 -41.138  1.00  0.00     0.151 A 
HETATM   34  F1  UNL     1      34.836 -20.508 -41.002  1.00  0.00    -0.203 F 
BRANCH  31  35
HETATM   35  C21 UNL     1      30.799 -23.049 -41.589  1.00  0.00     0.265 C 
HETATM   36  N1  UNL     1      30.046 -21.943 -42.051  1.00  0.00    -0.057 NA
HETATM   37  O8  UNL     1      30.193 -24.108 -41.309  1.00  0.00    -0.271 OA
ENDBRANCH  31  35
ENDBRANCH  27  28
ENDBRANCH  24  27
ENDBRANCH  23  24
ENDBRANCH  16  23
ENDBRANCH   4   5
ENDBRANCH   3   4
TORSDOF 12
ENDMDL
